Cn1c(Cc2ccccc2)cnc1C[NH2+]C(CC1=C[C@@H]2C=CC1CC2)Cc1ccccc1
     RDKit          3D

 66 70  0  0  1  0  0  0  0  0999 V2000
  133.0591  137.1609  163.1830 C   0  0  0  0  0  0  0  0  0  0  0  0
  132.5450  137.9181  162.0390 N   0  0  0  0  0  0  0  0  0  0  0  0
  132.6607  139.2674  161.8400 C   0  0  0  0  0  0  0  0  0  0  0  0
  133.3396  140.2553  162.7535 C   0  0  0  0  0  0  0  0  0  0  0  0
  134.7919  140.3780  162.3701 C   0  0  0  0  0  0  0  0  0  0  0  0
  135.7323  139.5473  162.9502 C   0  0  0  0  0  0  0  0  0  0  0  0
  137.0645  139.6601  162.5990 C   0  0  0  0  0  0  0  0  0  0  0  0
  137.4563  140.6037  161.6676 C   0  0  0  0  0  0  0  0  0  0  0  0
  136.5164  141.4378  161.0915 C   0  0  0  0  0  0  0  0  0  0  0  0
  135.1835  141.3214  161.4388 C   0  0  0  0  0  0  0  0  0  0  0  0
  132.0564  139.5416  160.6682 C   0  0  0  0  0  0  0  0  0  0  0  0
  131.5804  138.3919  160.1678 N   0  0  0  0  0  0  0  0  0  0  0  0
  131.8665  137.4155  160.9850 C   0  0  0  0  0  0  0  0  0  0  0  0
  131.5042  135.9667  160.7837 C   0  0  0  0  0  0  0  0  0  0  0  0
  130.7690  135.8167  159.5208 N   0  0  0  0  0  0  0  0  0  0  0  0
  129.9275  136.3725  159.5535 H   0  0  0  0  0  0  0  0  0  0  0  0
  131.3481  136.1283  158.7554 H   0  0  0  0  0  0  0  0  0  0  0  0
  130.4158  134.4044  159.3245 C   0  0  1  0  0  0  0  0  0  0  0  0
  129.2635  134.3013  158.3233 C   0  0  0  0  0  0  0  0  0  0  0  0
  127.9620  134.5974  159.0231 C   0  0  0  0  0  0  0  0  0  0  0  0
  127.1564  135.5998  158.6716 C   0  0  0  0  0  0  0  0  0  0  0  0
  125.8940  135.6989  159.5234 C   0  0  2  0  0  0  0  0  0  0  0  0
  125.2680  136.5479  159.2489 H   0  0  0  0  0  0  0  0  0  0  0  0
  126.3694  135.7800  160.9713 C   0  0  0  0  0  0  0  0  0  0  0  0
  127.1773  134.7814  161.3263 C   0  0  0  0  0  0  0  0  0  0  0  0
  127.4453  133.7816  160.2049 C   0  0  1  0  0  0  0  0  0  0  0  0
  126.0785  133.2119  159.7848 C   0  0  0  0  0  0  0  0  0  0  0  0
  125.1501  134.3595  159.3769 C   0  0  0  0  0  0  0  0  0  0  0  0
  131.6297  133.6454  158.7849 C   0  0  0  0  0  0  0  0  0  0  0  0
  131.2675  132.1966  158.5836 C   0  0  0  0  0  0  0  0  0  0  0  0
  131.4531  131.2888  159.6094 C   0  0  0  0  0  0  0  0  0  0  0  0
  131.1168  129.9606  159.4263 C   0  0  0  0  0  0  0  0  0  0  0  0
  130.6034  129.5384  158.2141 C   0  0  0  0  0  0  0  0  0  0  0  0
  130.4227  130.4452  157.1866 C   0  0  0  0  0  0  0  0  0  0  0  0
  130.7551  131.7742  157.3712 C   0  0  0  0  0  0  0  0  0  0  0  0
  132.2643  137.0266  163.9165 H   0  0  0  0  0  0  0  0  0  0  0  0
  133.4103  136.1860  162.8451 H   0  0  0  0  0  0  0  0  0  0  0  0
  133.8853  137.7069  163.6384 H   0  0  0  0  0  0  0  0  0  0  0  0
  133.2639  139.9086  163.7841 H   0  0  0  0  0  0  0  0  0  0  0  0
  132.8559  141.2277  162.6607 H   0  0  0  0  0  0  0  0  0  0  0  0
  135.4264  138.8105  163.6782 H   0  0  0  0  0  0  0  0  0  0  0  0
  137.7994  139.0115  163.0524 H   0  0  0  0  0  0  0  0  0  0  0  0
  138.4971  140.6920  161.3935 H   0  0  0  0  0  0  0  0  0  0  0  0
  136.8232  142.1778  160.3671 H   0  0  0  0  0  0  0  0  0  0  0  0
  134.4488  141.9706  160.9859 H   0  0  0  0  0  0  0  0  0  0  0  0
  131.9702  140.5164  160.2113 H   0  0  0  0  0  0  0  0  0  0  0  0
  132.4133  135.3664  160.7483 H   0  0  0  0  0  0  0  0  0  0  0  0
  130.8786  135.6302  161.6104 H   0  0  0  0  0  0  0  0  0  0  0  0
  130.1099  133.9708  160.2765 H   0  0  0  0  0  0  0  0  0  0  0  0
  129.4153  135.0212  157.5191 H   0  0  0  0  0  0  0  0  0  0  0  0
  129.2318  133.2940  157.9082 H   0  0  0  0  0  0  0  0  0  0  0  0
  127.3751  136.2762  157.8586 H   0  0  0  0  0  0  0  0  0  0  0  0
  126.0778  136.5719  161.6453 H   0  0  0  0  0  0  0  0  0  0  0  0
  127.6021  134.6883  162.3148 H   0  0  0  0  0  0  0  0  0  0  0  0
  128.1487  133.0055  160.5066 H   0  0  0  0  0  0  0  0  0  0  0  0
  126.2112  132.5345  158.9411 H   0  0  0  0  0  0  0  0  0  0  0  0
  125.6388  132.6686  160.6211 H   0  0  0  0  0  0  0  0  0  0  0  0
  124.2698  134.3605  160.0197 H   0  0  0  0  0  0  0  0  0  0  0  0
  124.8422  134.2264  158.3397 H   0  0  0  0  0  0  0  0  0  0  0  0
  131.9356  134.0792  157.8328 H   0  0  0  0  0  0  0  0  0  0  0  0
  132.4507  133.7191  159.4981 H   0  0  0  0  0  0  0  0  0  0  0  0
  131.8577  131.6180  160.5552 H   0  0  0  0  0  0  0  0  0  0  0  0
  131.2576  129.2521  160.2292 H   0  0  0  0  0  0  0  0  0  0  0  0
  130.3431  128.5001  158.0701 H   0  0  0  0  0  0  0  0  0  0  0  0
  130.0217  130.1154  156.2395 H   0  0  0  0  0  0  0  0  0  0  0  0
  130.6139  132.4827  156.5684 H   0  0  0  0  0  0  0  0  0  0  0  0
  1  2  1  0
  1 36  1  0
  1 37  1  0
  1 38  1  0
  2 13  1  0
  2  3  1  0
  3  4  1  0
  3 11  2  0
  4  5  1  0
  4 39  1  0
  4 40  1  0
  5 10  1  0
  5  6  2  0
  6  7  1  0
  6 41  1  0
  7  8  2  0
  7 42  1  0
  8  9  1  0
  8 43  1  0
  9 10  2  0
  9 44  1  0
 10 45  1  0
 11 12  1  0
 11 46  1  0
 12 13  2  0
 13 14  1  0
 14 15  1  0
 14 47  1  0
 14 48  1  0
 15 16  1  0
 15 17  1  0
 15 18  1  0
 18 19  1  0
 18 29  1  0
 18 49  1  1
 19 20  1  0
 19 50  1  0
 19 51  1  0
 20 26  1  0
 20 21  2  0
 21 22  1  0
 21 52  1  0
 22 23  1  6
 22 28  1  0
 22 24  1  0
 24 25  2  0
 24 53  1  0
 25 26  1  0
 25 54  1  0
 26 27  1  0
 26 55  1  1
 27 28  1  0
 27 56  1  0
 27 57  1  0
 28 58  1  0
 28 59  1  0
 29 30  1  0
 29 60  1  0
 29 61  1  0
 30 35  1  0
 30 31  2  0
 31 32  1  0
 31 62  1  0
 32 33  2  0
 32 63  1  0
 33 34  1  0
 33 64  1  0
 34 35  2  0
 34 65  1  0
 35 66  1  0
M  CHG  1  15   1
M  END
>  <DOCK_score>  (1) 
-56.368652

>  <SMILES>  (1) 
Cn1c(Cc2ccccc2)cnc1C[NH2+]C(CC1=C[C@@H]2C=CC1CC2)Cc1ccccc1

$$$$
