O=C1CC[C@H](NC(N[C@H]2CCCOC2)=[NH+]C2CC(Cl)(NCc3coc4ccccc34)C2)CN1
     RDKit          3D

 66 70  0  0  1  0  0  0  0  0999 V2000
  123.6759  133.6877  161.4377 O   0  0  0  0  0  0  0  0  0  0  0  0
  124.8518  133.9483  161.2953 C   0  0  0  0  0  0  0  0  0  0  0  0
  125.7611  132.8706  160.7786 C   0  0  0  0  0  0  0  0  0  0  0  0
  127.2184  133.2315  161.0772 C   0  0  0  0  0  0  0  0  0  0  0  0
  127.4619  134.6767  160.6258 C   0  0  2  0  0  0  0  0  0  0  0  0
  127.1405  134.7984  159.5914 H   0  0  0  0  0  0  0  0  0  0  0  0
  128.8879  134.9930  160.7378 N   0  0  0  0  0  0  0  0  0  0  0  0
  129.7285  134.7638  159.6741 C   0  0  0  0  0  0  0  0  0  0  0  0
  129.2306  134.2379  158.5055 N   0  0  0  0  0  0  0  0  0  0  0  0
  130.0837  133.4031  157.6560 C   0  0  1  0  0  0  0  0  0  0  0  0
  130.9530  133.9776  157.3362 H   0  0  0  0  0  0  0  0  0  0  0  0
  130.5446  132.1734  158.4446 C   0  0  0  0  0  0  0  0  0  0  0  0
  131.3706  131.2701  157.5237 C   0  0  0  0  0  0  0  0  0  0  0  0
  130.5290  130.8945  156.3012 C   0  0  0  0  0  0  0  0  0  0  0  0
  130.1073  132.0842  155.6312 O   0  0  0  0  0  0  0  0  0  0  0  0
  129.2923  132.9464  156.4278 C   0  0  0  0  0  0  0  0  0  0  0  0
  130.9971  135.0452  159.7737 N   0  0  0  0  0  0  0  0  0  0  0  0
  131.5903  134.8835  159.0233 H   0  0  0  0  0  0  0  0  0  0  0  0
  131.5277  135.6057  161.0190 C   0  0  2  0  0  0  0  0  0  0  0  0
  131.3329  137.1261  161.1425 C   0  0  0  0  0  0  0  0  0  0  0  0
  132.7447  137.1784  161.7500 C   0  0  2  0  0  0  0  0  0  0  0  0
  132.7681  136.9756  163.5413 Cl  0  0  0  0  0  0  0  0  0  0  0  0
  133.5386  138.3280  161.2957 N   0  0  0  0  0  0  0  0  0  0  0  0
  134.9735  138.0923  161.5043 C   0  0  0  0  0  0  0  0  0  0  0  0
  135.7043  139.4101  161.5037 C   0  0  0  0  0  0  0  0  0  0  0  0
  136.2362  140.0347  160.4442 C   0  0  0  0  0  0  0  0  0  0  0  0
  136.8098  141.1890  160.8267 O   0  0  0  0  0  0  0  0  0  0  0  0
  136.6795  141.3731  162.1559 C   0  0  0  0  0  0  0  0  0  0  0  0
  137.0842  142.3775  163.0263 C   0  0  0  0  0  0  0  0  0  0  0  0
  136.7936  142.2781  164.3702 C   0  0  0  0  0  0  0  0  0  0  0  0
  136.0996  141.1835  164.8654 C   0  0  0  0  0  0  0  0  0  0  0  0
  135.6928  140.1840  164.0257 C   0  0  0  0  0  0  0  0  0  0  0  0
  135.9772  140.2673  162.6634 C   0  0  0  0  0  0  0  0  0  0  0  0
  133.0400  135.8820  160.9774 C   0  0  0  0  0  0  0  0  0  0  0  0
  126.6563  135.6134  161.5269 C   0  0  0  0  0  0  0  0  0  0  0  0
  125.2679  135.1768  161.6053 N   0  0  0  0  0  0  0  0  0  0  0  0
  125.5153  131.9261  161.2638 H   0  0  0  0  0  0  0  0  0  0  0  0
  125.6278  132.7699  159.7016 H   0  0  0  0  0  0  0  0  0  0  0  0
  127.8818  132.5601  160.5321 H   0  0  0  0  0  0  0  0  0  0  0  0
  127.4064  133.1448  162.1474 H   0  0  0  0  0  0  0  0  0  0  0  0
  129.2392  135.3641  161.5621 H   0  0  0  0  0  0  0  0  0  0  0  0
  128.3146  134.4196  158.2434 H   0  0  0  0  0  0  0  0  0  0  0  0
  131.1565  132.4901  159.2892 H   0  0  0  0  0  0  0  0  0  0  0  0
  129.6749  131.6269  158.8092 H   0  0  0  0  0  0  0  0  0  0  0  0
  132.2659  131.8009  157.2002 H   0  0  0  0  0  0  0  0  0  0  0  0
  131.6564  130.3659  158.0610 H   0  0  0  0  0  0  0  0  0  0  0  0
  131.1262  130.2867  155.6216 H   0  0  0  0  0  0  0  0  0  0  0  0
  129.6545  130.3284  156.6220 H   0  0  0  0  0  0  0  0  0  0  0  0
  128.4009  132.4076  156.7493 H   0  0  0  0  0  0  0  0  0  0  0  0
  128.9991  133.8164  155.8401 H   0  0  0  0  0  0  0  0  0  0  0  0
  131.2093  135.0517  161.9020 H   0  0  0  0  0  0  0  0  0  0  0  0
  130.5461  137.4102  161.8413 H   0  0  0  0  0  0  0  0  0  0  0  0
  131.2514  137.6366  160.1829 H   0  0  0  0  0  0  0  0  0  0  0  0
  133.2412  139.1764  161.7536 H   0  0  0  0  0  0  0  0  0  0  0  0
  135.3587  137.4626  160.7023 H   0  0  0  0  0  0  0  0  0  0  0  0
  135.1242  137.5936  162.4618 H   0  0  0  0  0  0  0  0  0  0  0  0
  136.2076  139.6648  159.4299 H   0  0  0  0  0  0  0  0  0  0  0  0
  137.6252  143.2337  162.6512 H   0  0  0  0  0  0  0  0  0  0  0  0
  137.1133  143.0582  165.0452 H   0  0  0  0  0  0  0  0  0  0  0  0
  135.8800  141.1203  165.9209 H   0  0  0  0  0  0  0  0  0  0  0  0
  135.1527  139.3342  164.4160 H   0  0  0  0  0  0  0  0  0  0  0  0
  133.4254  136.0510  159.9720 H   0  0  0  0  0  0  0  0  0  0  0  0
  133.6312  135.1617  161.5428 H   0  0  0  0  0  0  0  0  0  0  0  0
  127.0909  135.6137  162.5265 H   0  0  0  0  0  0  0  0  0  0  0  0
  126.6906  136.6236  161.1189 H   0  0  0  0  0  0  0  0  0  0  0  0
  124.6050  135.8201  161.9013 H   0  0  0  0  0  0  0  0  0  0  0  0
  1  2  2  0
  2 36  1  0
  2  3  1  0
  3  4  1  0
  3 37  1  0
  3 38  1  0
  4  5  1  0
  4 39  1  0
  4 40  1  0
  5  6  1  6
  5  7  1  0
  5 35  1  0
  7 41  1  0
  8  7  1  0
  8  9  1  0
  8 17  2  0
  9 10  1  0
  9 42  1  0
 10 11  1  6
 10 16  1  0
 10 12  1  0
 12 13  1  0
 12 43  1  0
 12 44  1  0
 13 14  1  0
 13 45  1  0
 13 46  1  0
 14 15  1  0
 14 47  1  0
 14 48  1  0
 15 16  1  0
 16 49  1  0
 16 50  1  0
 17 18  1  0
 17 19  1  0
 19 34  1  0
 19 20  1  0
 19 51  1  1
 20 21  1  0
 20 52  1  0
 20 53  1  0
 21 22  1  1
 21 23  1  0
 21 34  1  0
 23 24  1  0
 23 54  1  0
 24 25  1  0
 24 55  1  0
 24 56  1  0
 25 33  1  0
 25 26  2  0
 26 27  1  0
 26 57  1  0
 27 28  1  0
 28 33  2  0
 28 29  1  0
 29 30  2  0
 29 58  1  0
 30 31  1  0
 30 59  1  0
 31 32  2  0
 31 60  1  0
 32 33  1  0
 32 61  1  0
 34 62  1  0
 34 63  1  0
 35 36  1  0
 35 64  1  0
 35 65  1  0
 36 66  1  0
M  CHG  1  17   1
M  END
>  <DOCK_score>  (1) 
-50.924057

>  <SMILES>  (1) 
O=C1CC[C@H](NC(N[C@H]2CCCOC2)=[NH+]C2CC(Cl)(NCc3coc4ccccc34)C2)CN1

$$$$
