O=C1CC[C@H](NC(NC2CC(F)(F)C2)=[NH+][C@H]2COc3ccc(-c4ccccc4)cc3C2)CN1
     RDKit          3D

 62 66  0  0  1  0  0  0  0  0999 V2000
  123.7697  133.6611  161.3893 O   0  0  0  0  0  0  0  0  0  0  0  0
  124.9410  133.8194  161.1174 C   0  0  0  0  0  0  0  0  0  0  0  0
  125.7587  132.6101  160.7639 C   0  0  0  0  0  0  0  0  0  0  0  0
  127.2489  132.9360  160.8900 C   0  0  0  0  0  0  0  0  0  0  0  0
  127.5231  134.2476  160.1445 C   0  0  2  0  0  0  0  0  0  0  0  0
  127.1293  134.1810  159.1303 H   0  0  0  0  0  0  0  0  0  0  0  0
  128.9659  134.4970  160.0962 N   0  0  0  0  0  0  0  0  0  0  0  0
  129.7119  134.0158  159.0463 C   0  0  0  0  0  0  0  0  0  0  0  0
  129.1038  133.3006  158.0418 N   0  0  0  0  0  0  0  0  0  0  0  0
  129.8987  132.7879  156.9230 C   0  0  0  0  0  0  0  0  0  0  0  0
  129.2472  131.5980  156.1987 C   0  0  0  0  0  0  0  0  0  0  0  0
  130.6561  130.9833  156.1114 C   0  0  0  0  0  0  0  0  0  0  0  0
  131.3592  131.3591  154.9617 F   0  0  0  0  0  0  0  0  0  0  0  0
  130.6836  129.6031  156.3381 F   0  0  0  0  0  0  0  0  0  0  0  0
  131.0128  131.8187  157.3523 C   0  0  0  0  0  0  0  0  0  0  0  0
  130.9956  134.2376  159.0032 N   0  0  0  0  0  0  0  0  0  0  0  0
  131.4465  134.3107  158.1476 H   0  0  0  0  0  0  0  0  0  0  0  0
  131.7570  134.3764  160.2470 C   0  0  1  0  0  0  0  0  0  0  0  0
  131.2915  133.7796  161.0313 H   0  0  0  0  0  0  0  0  0  0  0  0
  133.1998  133.9044  160.0254 C   0  0  0  0  0  0  0  0  0  0  0  0
  133.8864  133.9529  161.2766 O   0  0  0  0  0  0  0  0  0  0  0  0
  133.7942  135.0942  162.0082 C   0  0  0  0  0  0  0  0  0  0  0  0
  134.7232  135.3057  163.0242 C   0  0  0  0  0  0  0  0  0  0  0  0
  134.6656  136.4461  163.7940 C   0  0  0  0  0  0  0  0  0  0  0  0
  133.6721  137.3944  163.5555 C   0  0  0  0  0  0  0  0  0  0  0  0
  133.6024  138.6242  164.3824 C   0  0  0  0  0  0  0  0  0  0  0  0
  133.1061  139.8067  163.8367 C   0  0  0  0  0  0  0  0  0  0  0  0
  133.0385  140.9465  164.6121 C   0  0  0  0  0  0  0  0  0  0  0  0
  133.4720  140.9193  165.9254 C   0  0  0  0  0  0  0  0  0  0  0  0
  133.9708  139.7498  166.4705 C   0  0  0  0  0  0  0  0  0  0  0  0
  134.0381  138.6029  165.7059 C   0  0  0  0  0  0  0  0  0  0  0  0
  132.7454  137.1825  162.5386 C   0  0  0  0  0  0  0  0  0  0  0  0
  132.8083  136.0366  161.7671 C   0  0  0  0  0  0  0  0  0  0  0  0
  131.7915  135.8472  160.6696 C   0  0  0  0  0  0  0  0  0  0  0  0
  126.8300  135.3887  160.8902 C   0  0  0  0  0  0  0  0  0  0  0  0
  125.4330  135.0586  161.1430 N   0  0  0  0  0  0  0  0  0  0  0  0
  125.5396  132.3071  159.7401 H   0  0  0  0  0  0  0  0  0  0  0  0
  125.5072  131.7963  161.4440 H   0  0  0  0  0  0  0  0  0  0  0  0
  127.8389  132.1327  160.4485 H   0  0  0  0  0  0  0  0  0  0  0  0
  127.5127  133.0495  161.9416 H   0  0  0  0  0  0  0  0  0  0  0  0
  129.3950  135.0016  160.8048 H   0  0  0  0  0  0  0  0  0  0  0  0
  128.1485  133.1356  158.0737 H   0  0  0  0  0  0  0  0  0  0  0  0
  130.2398  133.5750  156.2505 H   0  0  0  0  0  0  0  0  0  0  0  0
  128.5606  131.0284  156.8251 H   0  0  0  0  0  0  0  0  0  0  0  0
  128.8219  131.8568  155.2292 H   0  0  0  0  0  0  0  0  0  0  0  0
  132.0108  132.2555  157.3125 H   0  0  0  0  0  0  0  0  0  0  0  0
  130.8103  131.3107  158.2952 H   0  0  0  0  0  0  0  0  0  0  0  0
  133.1976  132.8821  159.6473 H   0  0  0  0  0  0  0  0  0  0  0  0
  133.6948  134.5602  159.3093 H   0  0  0  0  0  0  0  0  0  0  0  0
  135.4928  134.5712  163.2094 H   0  0  0  0  0  0  0  0  0  0  0  0
  135.3881  136.6051  164.5810 H   0  0  0  0  0  0  0  0  0  0  0  0
  132.7715  139.8301  162.8101 H   0  0  0  0  0  0  0  0  0  0  0  0
  132.6504  141.8622  164.1914 H   0  0  0  0  0  0  0  0  0  0  0  0
  133.4213  141.8145  166.5273 H   0  0  0  0  0  0  0  0  0  0  0  0
  134.3086  139.7343  167.4962 H   0  0  0  0  0  0  0  0  0  0  0  0
  134.4280  137.6904  166.1324 H   0  0  0  0  0  0  0  0  0  0  0  0
  131.9745  137.9154  162.3517 H   0  0  0  0  0  0  0  0  0  0  0  0
  132.0637  136.4642  159.8132 H   0  0  0  0  0  0  0  0  0  0  0  0
  130.8069  136.1439  161.0312 H   0  0  0  0  0  0  0  0  0  0  0  0
  126.8825  136.2964  160.2890 H   0  0  0  0  0  0  0  0  0  0  0  0
  127.3383  135.5556  161.8399 H   0  0  0  0  0  0  0  0  0  0  0  0
  124.8237  135.7854  161.3464 H   0  0  0  0  0  0  0  0  0  0  0  0
  1  2  2  0
  2 36  1  0
  2  3  1  0
  3  4  1  0
  3 37  1  0
  3 38  1  0
  4  5  1  0
  4 39  1  0
  4 40  1  0
  5  6  1  6
  5  7  1  0
  5 35  1  0
  7 41  1  0
  8  7  1  0
  8  9  1  0
  8 16  2  0
  9 10  1  0
  9 42  1  0
 10 15  1  0
 10 11  1  0
 10 43  1  0
 11 12  1  0
 11 44  1  0
 11 45  1  0
 12 13  1  0
 12 14  1  0
 12 15  1  0
 15 46  1  0
 15 47  1  0
 16 17  1  0
 16 18  1  0
 18 19  1  1
 18 34  1  0
 18 20  1  0
 20 21  1  0
 20 48  1  0
 20 49  1  0
 21 22  1  0
 22 33  2  0
 22 23  1  0
 23 24  2  0
 23 50  1  0
 24 25  1  0
 24 51  1  0
 25 26  1  0
 25 32  2  0
 26 31  1  0
 26 27  2  0
 27 28  1  0
 27 52  1  0
 28 29  2  0
 28 53  1  0
 29 30  1  0
 29 54  1  0
 30 31  2  0
 30 55  1  0
 31 56  1  0
 32 33  1  0
 32 57  1  0
 33 34  1  0
 34 58  1  0
 34 59  1  0
 35 36  1  0
 35 60  1  0
 35 61  1  0
 36 62  1  0
M  CHG  1  16   1
M  END
>  <DOCK_score>  (1) 
-49.161869

>  <SMILES>  (1) 
O=C1CC[C@H](NC(NC2CC(F)(F)C2)=[NH+][C@H]2COc3ccc(-c4ccccc4)cc3C2)CN1

$$$$
