[NH3+][C@H](CCC1=C[C@H](CCBr)C=CC1)C(=O)Nc1cccc(O)c1
     RDKit          3D

 47 48  0  0  1  0  0  0  0  0999 V2000
  130.5819  134.0137  157.2121 N   0  0  0  0  0  0  0  0  0  0  0  0
  129.8661  134.5736  156.7734 H   0  0  0  0  0  0  0  0  0  0  0  0
  131.4876  134.4141  157.0190 H   0  0  0  0  0  0  0  0  0  0  0  0
  130.5448  133.0739  156.8466 H   0  0  0  0  0  0  0  0  0  0  0  0
  130.3591  133.9834  158.6638 C   0  0  2  0  0  0  0  0  0  0  0  0
  130.3990  134.9986  159.0587 H   0  0  0  0  0  0  0  0  0  0  0  0
  131.4442  133.1345  159.3287 C   0  0  0  0  0  0  0  0  0  0  0  0
  131.5303  133.4892  160.8146 C   0  0  0  0  0  0  0  0  0  0  0  0
  131.8731  134.9491  160.9635 C   0  0  0  0  0  0  0  0  0  0  0  0
  131.0411  135.7195  161.5936 C   0  0  0  0  0  0  0  0  0  0  0  0
  131.2845  137.1848  161.7961 C   0  0  2  0  0  0  0  0  0  0  0  0
  131.6474  137.3490  162.8108 H   0  0  0  0  0  0  0  0  0  0  0  0
  129.9691  137.9427  161.6056 C   0  0  0  0  0  0  0  0  0  0  0  0
  130.0692  139.3147  162.2754 C   0  0  0  0  0  0  0  0  0  0  0  0
  128.3790  140.2885  162.0304 Br  0  0  0  0  0  0  0  0  0  0  0  0
  132.2974  137.7058  160.8216 C   0  0  0  0  0  0  0  0  0  0  0  0
  133.1302  136.9341  160.1920 C   0  0  0  0  0  0  0  0  0  0  0  0
  133.1602  135.4469  160.3779 C   0  0  0  0  0  0  0  0  0  0  0  0
  129.0063  133.3853  158.9521 C   0  0  0  0  0  0  0  0  0  0  0  0
  128.5357  132.5586  158.1994 O   0  0  0  0  0  0  0  0  0  0  0  0
  128.3191  133.7689  160.0462 N   0  0  0  0  0  0  0  0  0  0  0  0
  127.0629  133.2135  160.3139 C   0  0  0  0  0  0  0  0  0  0  0  0
  126.7715  131.9202  159.8986 C   0  0  0  0  0  0  0  0  0  0  0  0
  125.5333  131.3702  160.1675 C   0  0  0  0  0  0  0  0  0  0  0  0
  124.5779  132.1079  160.8408 C   0  0  0  0  0  0  0  0  0  0  0  0
  124.8617  133.4023  161.2530 C   0  0  0  0  0  0  0  0  0  0  0  0
  123.9210  134.1268  161.9140 O   0  0  0  0  0  0  0  0  0  0  0  0
  126.1049  133.9559  160.9895 C   0  0  0  0  0  0  0  0  0  0  0  0
  132.4041  133.3328  158.8517 H   0  0  0  0  0  0  0  0  0  0  0  0
  131.1964  132.0784  159.2210 H   0  0  0  0  0  0  0  0  0  0  0  0
  132.3034  132.8843  161.2884 H   0  0  0  0  0  0  0  0  0  0  0  0
  130.5706  133.2908  161.2916 H   0  0  0  0  0  0  0  0  0  0  0  0
  130.1335  135.2870  161.9882 H   0  0  0  0  0  0  0  0  0  0  0  0
  129.7749  138.0715  160.5408 H   0  0  0  0  0  0  0  0  0  0  0  0
  129.1545  137.3764  162.0574 H   0  0  0  0  0  0  0  0  0  0  0  0
  130.2634  139.1858  163.3402 H   0  0  0  0  0  0  0  0  0  0  0  0
  130.8836  139.8809  161.8235 H   0  0  0  0  0  0  0  0  0  0  0  0
  132.3358  138.7688  160.6350 H   0  0  0  0  0  0  0  0  0  0  0  0
  133.8316  137.3830  159.5040 H   0  0  0  0  0  0  0  0  0  0  0  0
  133.3216  134.9691  159.4117 H   0  0  0  0  0  0  0  0  0  0  0  0
  133.9810  135.1870  161.0465 H   0  0  0  0  0  0  0  0  0  0  0  0
  128.6953  134.4300  160.6481 H   0  0  0  0  0  0  0  0  0  0  0  0
  127.5148  131.3431  159.3687 H   0  0  0  0  0  0  0  0  0  0  0  0
  125.3099  130.3632  159.8475 H   0  0  0  0  0  0  0  0  0  0  0  0
  123.6094  131.6766  161.0460 H   0  0  0  0  0  0  0  0  0  0  0  0
  124.2105  135.0160  162.1601 H   0  0  0  0  0  0  0  0  0  0  0  0
  126.3274  134.9633  161.3092 H   0  0  0  0  0  0  0  0  0  0  0  0
  1  2  1  0
  1  3  1  0
  1  4  1  0
  1  5  1  0
  5  6  1  1
  5  7  1  0
  5 19  1  0
  7  8  1  0
  7 29  1  0
  7 30  1  0
  8  9  1  0
  8 31  1  0
  8 32  1  0
  9 18  1  0
  9 10  2  0
 10 11  1  0
 10 33  1  0
 11 12  1  1
 11 13  1  0
 11 16  1  0
 13 14  1  0
 13 34  1  0
 13 35  1  0
 14 15  1  0
 14 36  1  0
 14 37  1  0
 16 17  2  0
 16 38  1  0
 17 18  1  0
 17 39  1  0
 18 40  1  0
 18 41  1  0
 19 20  2  0
 19 21  1  0
 21 22  1  0
 21 42  1  0
 22 28  1  0
 22 23  2  0
 23 24  1  0
 23 43  1  0
 24 25  2  0
 24 44  1  0
 25 26  1  0
 25 45  1  0
 26 27  1  0
 26 28  2  0
 27 46  1  0
 28 47  1  0
M  CHG  1   1   1
M  END
>  <DOCK_score>  (1) 
-45.228855

>  <SMILES>  (1) 
[NH3+][C@H](CCC1=C[C@H](CCBr)C=CC1)C(=O)Nc1cccc(O)c1

$$$$
