Cc1ccc([N+](=O)[O-])cc1C[NH+]=C(NCC1=C[C@@H](CBr)C=CC1)N[C@H]1C[C@@H](O)C1
     RDKit          3D

 57 59  0  0  1  0  0  0  0  0999 V2000
  131.5264  139.2928  158.8698 C   0  0  0  0  0  0  0  0  0  0  0  0
  132.8456  139.1098  159.5752 C   0  0  0  0  0  0  0  0  0  0  0  0
  133.9513  139.8354  159.1723 C   0  0  0  0  0  0  0  0  0  0  0  0
  135.1610  139.6679  159.8196 C   0  0  0  0  0  0  0  0  0  0  0  0
  135.2653  138.7749  160.8697 C   0  0  0  0  0  0  0  0  0  0  0  0
  136.5608  138.5959  161.5632 N   0  0  0  0  0  0  0  0  0  0  0  0
  137.5349  139.2354  161.2086 O   0  0  0  0  0  0  0  0  0  0  0  0
  136.6528  137.8090  162.4883 O   0  0  0  0  0  0  0  0  0  0  0  0
  134.1587  138.0534  161.2760 C   0  0  0  0  0  0  0  0  0  0  0  0
  132.9499  138.2171  160.6251 C   0  0  0  0  0  0  0  0  0  0  0  0
  131.7445  137.4265  161.0645 C   0  0  0  0  0  0  0  0  0  0  0  0
  131.6891  136.1661  160.3198 N   0  0  0  0  0  0  0  0  0  0  0  0
  132.3721  135.9608  159.6624 H   0  0  0  0  0  0  0  0  0  0  0  0
  130.7218  135.3208  160.5405 C   0  0  0  0  0  0  0  0  0  0  0  0
  130.6698  134.1380  159.8416 N   0  0  0  0  0  0  0  0  0  0  0  0
  131.7015  133.8279  158.8488 C   0  0  0  0  0  0  0  0  0  0  0  0
  131.4155  132.4838  158.2302 C   0  0  0  0  0  0  0  0  0  0  0  0
  131.3756  131.4406  159.0019 C   0  0  0  0  0  0  0  0  0  0  0  0
  131.0995  130.0596  158.4884 C   0  0  1  0  0  0  0  0  0  0  0  0
  132.0403  129.5156  158.4027 H   0  0  0  0  0  0  0  0  0  0  0  0
  130.1868  129.3303  159.4762 C   0  0  0  0  0  0  0  0  0  0  0  0
  128.4965  130.3179  159.6583 Br  0  0  0  0  0  0  0  0  0  0  0  0
  130.4335  130.1036  157.1461 C   0  0  0  0  0  0  0  0  0  0  0  0
  130.4733  131.1468  156.3743 C   0  0  0  0  0  0  0  0  0  0  0  0
  131.1889  132.4093  156.7502 C   0  0  0  0  0  0  0  0  0  0  0  0
  129.7536  135.6118  161.4722 N   0  0  0  0  0  0  0  0  0  0  0  0
  128.6665  134.6616  161.7203 C   0  0  1  0  0  0  0  0  0  0  0  0
  128.9628  133.6263  161.5524 H   0  0  0  0  0  0  0  0  0  0  0  0
  127.9455  134.8865  163.0599 C   0  0  0  0  0  0  0  0  0  0  0  0
  126.6350  134.5784  162.3164 C   0  0  1  0  0  0  0  0  0  0  0  0
  126.3748  133.5200  162.3107 H   0  0  0  0  0  0  0  0  0  0  0  0
  125.5450  135.4159  162.7067 O   0  0  0  0  0  0  0  0  0  0  0  0
  127.3454  135.0437  161.0321 C   0  0  0  0  0  0  0  0  0  0  0  0
  130.9591  140.0840  159.3598 H   0  0  0  0  0  0  0  0  0  0  0  0
  131.7054  139.5647  157.8295 H   0  0  0  0  0  0  0  0  0  0  0  0
  130.9608  138.3618  158.9098 H   0  0  0  0  0  0  0  0  0  0  0  0
  133.8698  140.5333  158.3520 H   0  0  0  0  0  0  0  0  0  0  0  0
  136.0248  140.2349  159.5050 H   0  0  0  0  0  0  0  0  0  0  0  0
  134.2390  137.3591  162.0993 H   0  0  0  0  0  0  0  0  0  0  0  0
  130.8406  138.0038  160.8696 H   0  0  0  0  0  0  0  0  0  0  0  0
  131.8177  137.2152  162.1313 H   0  0  0  0  0  0  0  0  0  0  0  0
  129.9500  133.5088  160.0058 H   0  0  0  0  0  0  0  0  0  0  0  0
  132.6772  133.8046  159.3338 H   0  0  0  0  0  0  0  0  0  0  0  0
  131.7000  134.5929  158.0722 H   0  0  0  0  0  0  0  0  0  0  0  0
  131.5442  131.5743  160.0602 H   0  0  0  0  0  0  0  0  0  0  0  0
  129.9823  128.3249  159.1080 H   0  0  0  0  0  0  0  0  0  0  0  0
  130.6781  129.2688  160.4473 H   0  0  0  0  0  0  0  0  0  0  0  0
  129.8976  129.2296  156.8062 H   0  0  0  0  0  0  0  0  0  0  0  0
  129.9688  131.1033  155.4204 H   0  0  0  0  0  0  0  0  0  0  0  0
  132.1516  132.4400  156.2398 H   0  0  0  0  0  0  0  0  0  0  0  0
  130.5912  133.2655  156.4373 H   0  0  0  0  0  0  0  0  0  0  0  0
  129.7903  136.4464  161.9653 H   0  0  0  0  0  0  0  0  0  0  0  0
  128.1992  134.1492  163.8215 H   0  0  0  0  0  0  0  0  0  0  0  0
  128.0115  135.9117  163.4246 H   0  0  0  0  0  0  0  0  0  0  0  0
  125.6993  136.3583  162.5554 H   0  0  0  0  0  0  0  0  0  0  0  0
  127.2457  136.1120  160.8407 H   0  0  0  0  0  0  0  0  0  0  0  0
  127.1153  134.4330  160.1591 H   0  0  0  0  0  0  0  0  0  0  0  0
  1  2  1  0
  1 34  1  0
  1 35  1  0
  1 36  1  0
  2 10  2  0
  2  3  1  0
  3  4  2  0
  3 37  1  0
  4  5  1  0
  4 38  1  0
  5  6  1  0
  5  9  2  0
  6  7  2  0
  6  8  1  0
  9 10  1  0
  9 39  1  0
 10 11  1  0
 11 12  1  0
 11 40  1  0
 11 41  1  0
 12 13  1  0
 14 12  2  0
 14 15  1  0
 14 26  1  0
 15 16  1  0
 15 42  1  0
 16 17  1  0
 16 43  1  0
 16 44  1  0
 17 25  1  0
 17 18  2  0
 18 19  1  0
 18 45  1  0
 19 20  1  6
 19 21  1  0
 19 23  1  0
 21 22  1  0
 21 46  1  0
 21 47  1  0
 23 24  2  0
 23 48  1  0
 24 25  1  0
 24 49  1  0
 25 50  1  0
 25 51  1  0
 26 27  1  0
 26 52  1  0
 27 28  1  1
 27 33  1  0
 27 29  1  0
 29 30  1  0
 29 53  1  0
 29 54  1  0
 30 31  1  6
 30 32  1  0
 30 33  1  0
 32 55  1  0
 33 56  1  0
 33 57  1  0
M  CHG  3   6   1   8  -1  12   1
M  END
>  <DOCK_score>  (1) 
-45.002258

>  <SMILES>  (1) 
Cc1ccc([N+](=O)[O-])cc1C[NH+]=C(NCC1=C[C@@H](CBr)C=CC1)N[C@H]1C[C@@H](O)C1

$$$$
