O=C1CC(O[C@H]2CC(=O)CC2Nc2[nH]cc(-c3ccc(F)cc3)[nH+]2)C1
     RDKit          3D

 44 47  0  0  1  0  0  0  0  0999 V2000
  134.5262  140.2169  160.9499 O   0  0  0  0  0  0  0  0  0  0  0  0
  133.6123  139.4515  160.7570 C   0  0  0  0  0  0  0  0  0  0  0  0
  133.3205  138.3334  159.7760 C   0  0  0  0  0  0  0  0  0  0  0  0
  132.3773  137.7581  160.8466 C   0  0  0  0  0  0  0  0  0  0  0  0
  131.1540  137.2440  160.3165 O   0  0  0  0  0  0  0  0  0  0  0  0
  130.4700  136.3494  161.1962 C   0  0  1  0  0  0  0  0  0  0  0  0
  131.1864  135.8221  161.8261 H   0  0  0  0  0  0  0  0  0  0  0  0
  129.4688  137.1270  162.0693 C   0  0  0  0  0  0  0  0  0  0  0  0
  128.0920  136.5618  161.7670 C   0  0  0  0  0  0  0  0  0  0  0  0
  127.1154  136.5813  162.4770 O   0  0  0  0  0  0  0  0  0  0  0  0
  128.2150  135.9638  160.3697 C   0  0  0  0  0  0  0  0  0  0  0  0
  129.6323  135.3389  160.3832 C   0  0  1  0  0  0  0  0  0  0  0  0
  130.1563  135.2141  159.0208 N   0  0  0  0  0  0  0  0  0  0  0  0
  130.0237  134.0188  158.3350 C   0  0  0  0  0  0  0  0  0  0  0  0
  129.4246  132.8938  158.8116 N   0  0  0  0  0  0  0  0  0  0  0  0
  129.0173  132.7858  159.6854 H   0  0  0  0  0  0  0  0  0  0  0  0
  129.5027  131.9390  157.8265 C   0  0  0  0  0  0  0  0  0  0  0  0
  130.1467  132.5080  156.7775 C   0  0  0  0  0  0  0  0  0  0  0  0
  130.4602  131.8507  155.4850 C   0  0  0  0  0  0  0  0  0  0  0  0
  129.9497  132.3682  154.2959 C   0  0  0  0  0  0  0  0  0  0  0  0
  130.2483  131.7567  153.0954 C   0  0  0  0  0  0  0  0  0  0  0  0
  131.0454  130.6239  153.0723 C   0  0  0  0  0  0  0  0  0  0  0  0
  131.3310  130.0254  151.8952 F   0  0  0  0  0  0  0  0  0  0  0  0
  131.5503  130.1026  154.2524 C   0  0  0  0  0  0  0  0  0  0  0  0
  131.2612  130.7106  155.4569 C   0  0  0  0  0  0  0  0  0  0  0  0
  130.4496  133.7859  157.1175 N   0  0  0  0  0  0  0  0  0  0  0  0
  130.9094  134.4248  156.5507 H   0  0  0  0  0  0  0  0  0  0  0  0
  132.2592  139.1913  161.3932 C   0  0  0  0  0  0  0  0  0  0  0  0
  134.1821  137.6998  159.5658 H   0  0  0  0  0  0  0  0  0  0  0  0
  132.8074  138.6644  158.8730 H   0  0  0  0  0  0  0  0  0  0  0  0
  132.8654  137.0669  161.5335 H   0  0  0  0  0  0  0  0  0  0  0  0
  129.7061  136.9865  163.1238 H   0  0  0  0  0  0  0  0  0  0  0  0
  129.5000  138.1871  161.8179 H   0  0  0  0  0  0  0  0  0  0  0  0
  128.1436  136.7418  159.6096 H   0  0  0  0  0  0  0  0  0  0  0  0
  127.4571  135.1973  160.2073 H   0  0  0  0  0  0  0  0  0  0  0  0
  129.6181  134.3676  160.8775 H   0  0  0  0  0  0  0  0  0  0  0  0
  130.5961  135.9690  158.5993 H   0  0  0  0  0  0  0  0  0  0  0  0
  129.1240  130.9289  157.8779 H   0  0  0  0  0  0  0  0  0  0  0  0
  129.3246  133.2487  154.3135 H   0  0  0  0  0  0  0  0  0  0  0  0
  129.8566  132.1594  152.1730 H   0  0  0  0  0  0  0  0  0  0  0  0
  132.1712  129.2193  154.2296 H   0  0  0  0  0  0  0  0  0  0  0  0
  131.6549  130.3034  156.3764 H   0  0  0  0  0  0  0  0  0  0  0  0
  131.4476  139.7648  160.9456 H   0  0  0  0  0  0  0  0  0  0  0  0
  132.2687  139.2464  162.4818 H   0  0  0  0  0  0  0  0  0  0  0  0
  1  2  2  0
  2 28  1  0
  2  3  1  0
  3  4  1  0
  3 29  1  0
  3 30  1  0
  4  5  1  0
  4 28  1  0
  4 31  1  0
  5  6  1  0
  6  7  1  1
  6 12  1  0
  6  8  1  0
  8  9  1  0
  8 32  1  0
  8 33  1  0
  9 10  2  0
  9 11  1  0
 11 12  1  0
 11 34  1  0
 11 35  1  0
 12 13  1  0
 12 36  1  1
 13 37  1  0
 14 13  1  0
 14 26  2  0
 14 15  1  0
 15 16  1  0
 15 17  1  0
 17 18  2  0
 17 38  1  0
 18 19  1  0
 18 26  1  0
 19 25  1  0
 19 20  2  0
 20 21  1  0
 20 39  1  0
 21 22  2  0
 21 40  1  0
 22 23  1  0
 22 24  1  0
 24 25  2  0
 24 41  1  0
 25 42  1  0
 26 27  1  0
 28 43  1  0
 28 44  1  0
M  CHG  1  26   1
M  END
>  <DOCK_score>  (1) 
-49.641373

>  <SMILES>  (1) 
O=C1CC(O[C@H]2CC(=O)CC2Nc2[nH]cc(-c3ccc(F)cc3)[nH+]2)C1

$$$$
