OC[C@H](NC1=CCCC1)c1cncc(N2CC=C([NH2+]C(Cc3ccccc3)Cc3ccccc3)CC2)c1
     RDKit          3D

 76 80  0  0  1  0  0  0  0  0999 V2000
  127.5679  135.2217  167.1600 O   0  0  0  0  0  0  0  0  0  0  0  0
  128.5261  135.6893  168.1114 C   0  0  0  0  0  0  0  0  0  0  0  0
  129.3348  136.8352  167.5000 C   0  0  2  0  0  0  0  0  0  0  0  0
  129.7985  137.4178  168.2959 H   0  0  0  0  0  0  0  0  0  0  0  0
  128.4454  137.6977  166.7180 N   0  0  0  0  0  0  0  0  0  0  0  0
  128.8284  138.9982  166.4157 C   0  0  0  0  0  0  0  0  0  0  0  0
  128.1017  139.8475  165.7216 C   0  0  0  0  0  0  0  0  0  0  0  0
  128.8117  141.1733  165.5769 C   0  0  0  0  0  0  0  0  0  0  0  0
  130.2850  140.8733  165.9376 C   0  0  0  0  0  0  0  0  0  0  0  0
  130.1324  139.6291  166.8454 C   0  0  0  0  0  0  0  0  0  0  0  0
  130.4050  136.2711  166.6013 C   0  0  0  0  0  0  0  0  0  0  0  0
  131.6559  135.9696  167.1076 C   0  0  0  0  0  0  0  0  0  0  0  0
  132.6003  135.4756  166.3311 N   0  0  0  0  0  0  0  0  0  0  0  0
  132.3970  135.2491  165.0485 C   0  0  0  0  0  0  0  0  0  0  0  0
  131.1669  135.5267  164.4665 C   0  0  0  0  0  0  0  0  0  0  0  0
  130.9553  135.2852  163.1069 N   0  0  0  0  0  0  0  0  0  0  0  0
  131.2342  136.4864  162.3094 C   0  0  0  0  0  0  0  0  0  0  0  0
  131.1364  136.1725  160.8444 C   0  0  0  0  0  0  0  0  0  0  0  0
  131.1647  134.9638  160.3713 C   0  0  0  0  0  0  0  0  0  0  0  0
  131.0745  134.7856  158.9877 N   0  0  0  0  0  0  0  0  0  0  0  0
  131.4772  135.5832  158.5188 H   0  0  0  0  0  0  0  0  0  0  0  0
  131.5759  133.9511  158.7226 H   0  0  0  0  0  0  0  0  0  0  0  0
  129.6633  134.6522  158.6022 C   0  0  0  0  0  0  0  0  0  0  0  0
  129.0203  136.0387  158.5325 C   0  0  0  0  0  0  0  0  0  0  0  0
  127.5724  135.9018  158.1371 C   0  0  0  0  0  0  0  0  0  0  0  0
  127.2150  135.9289  156.8021 C   0  0  0  0  0  0  0  0  0  0  0  0
  125.8875  135.7986  156.4392 C   0  0  0  0  0  0  0  0  0  0  0  0
  124.9164  135.6510  157.4118 C   0  0  0  0  0  0  0  0  0  0  0  0
  125.2733  135.6295  158.7472 C   0  0  0  0  0  0  0  0  0  0  0  0
  126.6014  135.7547  159.1098 C   0  0  0  0  0  0  0  0  0  0  0  0
  129.5704  133.9773  157.2322 C   0  0  0  0  0  0  0  0  0  0  0  0
  130.2037  132.6116  157.3010 C   0  0  0  0  0  0  0  0  0  0  0  0
  130.7962  132.0671  156.1770 C   0  0  0  0  0  0  0  0  0  0  0  0
  131.3815  130.8163  156.2414 C   0  0  0  0  0  0  0  0  0  0  0  0
  131.3651  130.1059  157.4271 C   0  0  0  0  0  0  0  0  0  0  0  0
  130.7675  130.6479  158.5496 C   0  0  0  0  0  0  0  0  0  0  0  0
  130.1870  131.9009  158.4866 C   0  0  0  0  0  0  0  0  0  0  0  0
  131.2907  133.7478  161.2456 C   0  0  0  0  0  0  0  0  0  0  0  0
  131.7797  134.1597  162.6363 C   0  0  0  0  0  0  0  0  0  0  0  0
  130.1490  136.0549  165.2574 C   0  0  0  0  0  0  0  0  0  0  0  0
  127.9577  134.8897  166.3398 H   0  0  0  0  0  0  0  0  0  0  0  0
  129.1977  134.8742  168.3814 H   0  0  0  0  0  0  0  0  0  0  0  0
  128.0093  136.0447  169.0029 H   0  0  0  0  0  0  0  0  0  0  0  0
  127.5891  137.3605  166.4113 H   0  0  0  0  0  0  0  0  0  0  0  0
  127.1280  139.6262  165.3098 H   0  0  0  0  0  0  0  0  0  0  0  0
  128.7381  141.5334  164.5508 H   0  0  0  0  0  0  0  0  0  0  0  0
  128.3934  141.9052  166.2679 H   0  0  0  0  0  0  0  0  0  0  0  0
  130.8664  140.6414  165.0453 H   0  0  0  0  0  0  0  0  0  0  0  0
  130.7296  141.7032  166.4866 H   0  0  0  0  0  0  0  0  0  0  0  0
  130.0839  139.9245  167.8935 H   0  0  0  0  0  0  0  0  0  0  0  0
  130.9599  138.9383  166.6829 H   0  0  0  0  0  0  0  0  0  0  0  0
  131.8624  136.1407  168.1538 H   0  0  0  0  0  0  0  0  0  0  0  0
  133.1949  134.8432  164.4443 H   0  0  0  0  0  0  0  0  0  0  0  0
  130.5114  137.2626  162.5612 H   0  0  0  0  0  0  0  0  0  0  0  0
  132.2395  136.8429  162.5334 H   0  0  0  0  0  0  0  0  0  0  0  0
  131.0379  136.9933  160.1494 H   0  0  0  0  0  0  0  0  0  0  0  0
  129.1403  134.0460  159.3420 H   0  0  0  0  0  0  0  0  0  0  0  0
  129.0865  136.5194  159.5084 H   0  0  0  0  0  0  0  0  0  0  0  0
  129.5432  136.6448  157.7926 H   0  0  0  0  0  0  0  0  0  0  0  0
  127.9732  136.0483  156.0423 H   0  0  0  0  0  0  0  0  0  0  0  0
  125.6087  135.8158  155.3960 H   0  0  0  0  0  0  0  0  0  0  0  0
  123.8789  135.5528  157.1287 H   0  0  0  0  0  0  0  0  0  0  0  0
  124.5146  135.5145  159.5073 H   0  0  0  0  0  0  0  0  0  0  0  0
  126.8803  135.7379  160.1531 H   0  0  0  0  0  0  0  0  0  0  0  0
  128.5231  133.8782  156.9463 H   0  0  0  0  0  0  0  0  0  0  0  0
  130.0932  134.5834  156.4925 H   0  0  0  0  0  0  0  0  0  0  0  0
  130.8053  132.6205  155.2496 H   0  0  0  0  0  0  0  0  0  0  0  0
  131.8480  130.3927  155.3643 H   0  0  0  0  0  0  0  0  0  0  0  0
  131.8190  129.1271  157.4764 H   0  0  0  0  0  0  0  0  0  0  0  0
  130.7545  130.0927  159.4758 H   0  0  0  0  0  0  0  0  0  0  0  0
  129.7201  132.3244  159.3635 H   0  0  0  0  0  0  0  0  0  0  0  0
  130.3191  133.2615  161.3325 H   0  0  0  0  0  0  0  0  0  0  0  0
  132.0042  133.0539  160.8010 H   0  0  0  0  0  0  0  0  0  0  0  0
  132.8236  134.4684  162.5802 H   0  0  0  0  0  0  0  0  0  0  0  0
  131.6795  133.3197  163.3237 H   0  0  0  0  0  0  0  0  0  0  0  0
  129.1826  136.2858  164.8342 H   0  0  0  0  0  0  0  0  0  0  0  0
  1  2  1  0
  1 41  1  0
  2  3  1  0
  2 42  1  0
  2 43  1  0
  3  4  1  1
  3  5  1  0
  3 11  1  0
  5  6  1  0
  5 44  1  0
  6 10  1  0
  6  7  2  0
  7  8  1  0
  7 45  1  0
  8  9  1  0
  8 46  1  0
  8 47  1  0
  9 10  1  0
  9 48  1  0
  9 49  1  0
 10 50  1  0
 10 51  1  0
 11 40  1  0
 11 12  2  0
 12 13  1  0
 12 52  1  0
 13 14  2  0
 14 15  1  0
 14 53  1  0
 15 16  1  0
 15 40  2  0
 16 39  1  0
 16 17  1  0
 17 18  1  0
 17 54  1  0
 17 55  1  0
 18 19  2  0
 18 56  1  0
 19 20  1  0
 19 38  1  0
 20 21  1  0
 20 22  1  0
 20 23  1  0
 23 24  1  0
 23 31  1  0
 23 57  1  0
 24 25  1  0
 24 58  1  0
 24 59  1  0
 25 30  1  0
 25 26  2  0
 26 27  1  0
 26 60  1  0
 27 28  2  0
 27 61  1  0
 28 29  1  0
 28 62  1  0
 29 30  2  0
 29 63  1  0
 30 64  1  0
 31 32  1  0
 31 65  1  0
 31 66  1  0
 32 37  1  0
 32 33  2  0
 33 34  1  0
 33 67  1  0
 34 35  2  0
 34 68  1  0
 35 36  1  0
 35 69  1  0
 36 37  2  0
 36 70  1  0
 37 71  1  0
 38 39  1  0
 38 72  1  0
 38 73  1  0
 39 74  1  0
 39 75  1  0
 40 76  1  0
M  CHG  1  20   1
M  END
>  <DOCK_score>  (1) 
-55.99971

>  <SMILES>  (1) 
OC[C@H](NC1=CCCC1)c1cncc(N2CC=C([NH2+]C(Cc3ccccc3)Cc3ccccc3)CC2)c1

$$$$
