[NH3+][C@H](CCC1=CCC=C[C@H]1CBr)C(=O)Nc1cccc(O)c1
     RDKit          3D

 44 45  0  0  1  0  0  0  0  0999 V2000
  131.3573  134.0504  158.0561 N   0  0  0  0  0  0  0  0  0  0  0  0
  132.2181  134.5452  157.8768 H   0  0  0  0  0  0  0  0  0  0  0  0
  130.7265  134.1805  157.2793 H   0  0  0  0  0  0  0  0  0  0  0  0
  131.5519  133.0669  158.1700 H   0  0  0  0  0  0  0  0  0  0  0  0
  130.7384  134.5723  159.2818 C   0  0  2  0  0  0  0  0  0  0  0  0
  130.5281  135.6347  159.1588 H   0  0  0  0  0  0  0  0  0  0  0  0
  131.6949  134.3750  160.4597 C   0  0  0  0  0  0  0  0  0  0  0  0
  131.3081  135.3244  161.5955 C   0  0  0  0  0  0  0  0  0  0  0  0
  131.3950  136.7487  161.1110 C   0  0  0  0  0  0  0  0  0  0  0  0
  130.3227  137.4803  161.1373 C   0  0  0  0  0  0  0  0  0  0  0  0
  130.3020  138.9088  160.6838 C   0  0  0  0  0  0  0  0  0  0  0  0
  131.4667  139.2087  159.7888 C   0  0  0  0  0  0  0  0  0  0  0  0
  132.5377  138.4756  159.7578 C   0  0  0  0  0  0  0  0  0  0  0  0
  132.7145  137.2580  160.6142 C   0  0  1  0  0  0  0  0  0  0  0  0
  133.2014  136.4775  160.0294 H   0  0  0  0  0  0  0  0  0  0  0  0
  133.5989  137.6112  161.8117 C   0  0  0  0  0  0  0  0  0  0  0  0
  134.4040  135.9712  162.5379 Br  0  0  0  0  0  0  0  0  0  0  0  0
  129.4526  133.8334  159.5496 C   0  0  0  0  0  0  0  0  0  0  0  0
  129.4671  132.6322  159.7171 O   0  0  0  0  0  0  0  0  0  0  0  0
  128.2866  134.5072  159.6027 N   0  0  0  0  0  0  0  0  0  0  0  0
  127.0928  133.8210  159.8512 C   0  0  0  0  0  0  0  0  0  0  0  0
  126.9496  132.5023  159.4382 C   0  0  0  0  0  0  0  0  0  0  0  0
  125.7734  131.8231  159.6889 C   0  0  0  0  0  0  0  0  0  0  0  0
  124.7317  132.4566  160.3399 C   0  0  0  0  0  0  0  0  0  0  0  0
  124.8670  133.7755  160.7497 C   0  0  0  0  0  0  0  0  0  0  0  0
  123.8420  134.3973  161.3896 O   0  0  0  0  0  0  0  0  0  0  0  0
  126.0483  134.4586  160.5053 C   0  0  0  0  0  0  0  0  0  0  0  0
  131.6319  133.3448  160.8102 H   0  0  0  0  0  0  0  0  0  0  0  0
  132.7146  134.5881  160.1394 H   0  0  0  0  0  0  0  0  0  0  0  0
  130.2882  135.1112  161.9158 H   0  0  0  0  0  0  0  0  0  0  0  0
  131.9894  135.1837  162.4346 H   0  0  0  0  0  0  0  0  0  0  0  0
  129.4069  137.0417  161.5053 H   0  0  0  0  0  0  0  0  0  0  0  0
  130.3420  139.5639  161.5541 H   0  0  0  0  0  0  0  0  0  0  0  0
  129.3760  139.0944  160.1394 H   0  0  0  0  0  0  0  0  0  0  0  0
  131.4122  140.0716  159.1417 H   0  0  0  0  0  0  0  0  0  0  0  0
  133.3356  138.7549  159.0856 H   0  0  0  0  0  0  0  0  0  0  0  0
  134.3875  138.2925  161.4924 H   0  0  0  0  0  0  0  0  0  0  0  0
  132.9941  138.0906  162.5813 H   0  0  0  0  0  0  0  0  0  0  0  0
  128.2750  135.4679  159.4687 H   0  0  0  0  0  0  0  0  0  0  0  0
  127.7603  132.0064  158.9250 H   0  0  0  0  0  0  0  0  0  0  0  0
  125.6656  130.7964  159.3714 H   0  0  0  0  0  0  0  0  0  0  0  0
  123.8114  131.9245  160.5303 H   0  0  0  0  0  0  0  0  0  0  0  0
  124.0298  135.3134  161.6357 H   0  0  0  0  0  0  0  0  0  0  0  0
  126.1555  135.4850  160.8236 H   0  0  0  0  0  0  0  0  0  0  0  0
  1  2  1  0
  1  3  1  0
  1  4  1  0
  1  5  1  0
  5  6  1  6
  5  7  1  0
  5 18  1  0
  7  8  1  0
  7 28  1  0
  7 29  1  0
  8  9  1  0
  8 30  1  0
  8 31  1  0
  9 14  1  0
  9 10  2  0
 10 11  1  0
 10 32  1  0
 11 12  1  0
 11 33  1  0
 11 34  1  0
 12 13  2  0
 12 35  1  0
 13 14  1  0
 13 36  1  0
 14 15  1  6
 14 16  1  0
 16 17  1  0
 16 37  1  0
 16 38  1  0
 18 19  2  0
 18 20  1  0
 20 21  1  0
 20 39  1  0
 21 27  1  0
 21 22  2  0
 22 23  1  0
 22 40  1  0
 23 24  2  0
 23 41  1  0
 24 25  1  0
 24 42  1  0
 25 26  1  0
 25 27  2  0
 26 43  1  0
 27 44  1  0
M  CHG  1   1   1
M  END
>  <DOCK_score>  (1) 
-41.545799

>  <SMILES>  (1) 
[NH3+][C@H](CCC1=CCC=C[C@H]1CBr)C(=O)Nc1cccc(O)c1

$$$$
