c1ccc2c(c1)Cc1cc(Nc3ccc(-c4n[nH]cc4C[NH2+]C[C@@H]4C[C@H]5CC[C@H]5C4)o3)ccc1-2
     RDKit          3D

 65 71  0  0  1  0  0  0  0  0999 V2000
  129.5281  140.6497  167.9451 C   0  0  0  0  0  0  0  0  0  0  0  0
  130.2306  139.4609  167.8613 C   0  0  0  0  0  0  0  0  0  0  0  0
  129.8705  138.5047  166.9351 C   0  0  0  0  0  0  0  0  0  0  0  0
  128.7925  138.7352  166.0778 C   0  0  0  0  0  0  0  0  0  0  0  0
  128.0918  139.9348  166.1699 C   0  0  0  0  0  0  0  0  0  0  0  0
  128.4590  140.8851  167.0991 C   0  0  0  0  0  0  0  0  0  0  0  0
  126.9960  139.9025  165.1327 C   0  0  0  0  0  0  0  0  0  0  0  0
  127.1259  138.5730  164.4303 C   0  0  0  0  0  0  0  0  0  0  0  0
  126.4123  137.9983  163.4027 C   0  0  0  0  0  0  0  0  0  0  0  0
  126.7541  136.7304  162.9431 C   0  0  0  0  0  0  0  0  0  0  0  0
  126.0277  136.1443  161.9055 N   0  0  0  0  0  0  0  0  0  0  0  0
  126.6503  135.2545  161.0375 C   0  0  0  0  0  0  0  0  0  0  0  0
  126.0513  134.2151  160.4041 C   0  0  0  0  0  0  0  0  0  0  0  0
  127.0415  133.5804  159.6290 C   0  0  0  0  0  0  0  0  0  0  0  0
  128.1980  134.2662  159.8290 C   0  0  0  0  0  0  0  0  0  0  0  0
  129.5053  133.9561  159.2145 C   0  0  0  0  0  0  0  0  0  0  0  0
  129.7552  132.9676  158.3784 N   0  0  0  0  0  0  0  0  0  0  0  0
  131.1117  133.0226  158.0333 N   0  0  0  0  0  0  0  0  0  0  0  0
  131.5708  132.4154  157.4323 H   0  0  0  0  0  0  0  0  0  0  0  0
  131.6697  134.0675  158.6822 C   0  0  0  0  0  0  0  0  0  0  0  0
  130.7082  134.6644  159.4187 C   0  0  0  0  0  0  0  0  0  0  0  0
  130.8879  135.8725  160.3014 C   0  0  0  0  0  0  0  0  0  0  0  0
  132.2871  136.3164  160.2451 N   0  0  0  0  0  0  0  0  0  0  0  0
  132.8890  135.5729  160.5660 H   0  0  0  0  0  0  0  0  0  0  0  0
  132.5260  136.5559  159.2945 H   0  0  0  0  0  0  0  0  0  0  0  0
  132.4623  137.4939  161.1056 C   0  0  0  0  0  0  0  0  0  0  0  0
  133.9196  137.9563  161.0469 C   0  0  2  0  0  0  0  0  0  0  0  0
  134.5761  137.1577  161.3922 H   0  0  0  0  0  0  0  0  0  0  0  0
  134.1077  139.2025  161.9226 C   0  0  0  0  0  0  0  0  0  0  0  0
  134.6012  140.3359  161.0087 C   0  0  1  0  0  0  0  0  0  0  0  0
  133.9001  141.1609  160.8821 H   0  0  0  0  0  0  0  0  0  0  0  0
  136.0629  140.7326  161.2844 C   0  0  0  0  0  0  0  0  0  0  0  0
  136.4536  139.4899  160.4158 C   0  0  0  0  0  0  0  0  0  0  0  0
  135.0978  139.6520  159.7147 C   0  0  1  0  0  0  0  0  0  0  0  0
  135.1030  140.2703  158.8168 H   0  0  0  0  0  0  0  0  0  0  0  0
  134.2847  138.3523  159.6086 C   0  0  0  0  0  0  0  0  0  0  0  0
  127.9485  135.2753  160.6896 O   0  0  0  0  0  0  0  0  0  0  0  0
  127.8235  136.0503  163.5150 C   0  0  0  0  0  0  0  0  0  0  0  0
  128.5424  136.6262  164.5394 C   0  0  0  0  0  0  0  0  0  0  0  0
  128.1992  137.8963  165.0075 C   0  0  0  0  0  0  0  0  0  0  0  0
  129.8145  141.3952  168.6723 H   0  0  0  0  0  0  0  0  0  0  0  0
  131.0648  139.2812  168.5233 H   0  0  0  0  0  0  0  0  0  0  0  0
  130.4214  137.5777  166.8732 H   0  0  0  0  0  0  0  0  0  0  0  0
  127.9120  141.8140  167.1661 H   0  0  0  0  0  0  0  0  0  0  0  0
  126.0211  139.9789  165.6143 H   0  0  0  0  0  0  0  0  0  0  0  0
  127.1281  140.7182  164.4219 H   0  0  0  0  0  0  0  0  0  0  0  0
  125.5849  138.5297  162.9563 H   0  0  0  0  0  0  0  0  0  0  0  0
  125.0887  136.3577  161.7899 H   0  0  0  0  0  0  0  0  0  0  0  0
  125.0127  133.9288  160.4797 H   0  0  0  0  0  0  0  0  0  0  0  0
  126.9074  132.7151  158.9969 H   0  0  0  0  0  0  0  0  0  0  0  0
  132.7041  134.3724  158.6225 H   0  0  0  0  0  0  0  0  0  0  0  0
  130.2377  136.6757  159.9549 H   0  0  0  0  0  0  0  0  0  0  0  0
  130.6299  135.6136  161.3283 H   0  0  0  0  0  0  0  0  0  0  0  0
  131.8121  138.2972  160.7590 H   0  0  0  0  0  0  0  0  0  0  0  0
  132.2044  137.2352  162.1326 H   0  0  0  0  0  0  0  0  0  0  0  0
  133.1580  139.4815  162.3788 H   0  0  0  0  0  0  0  0  0  0  0  0
  134.8464  139.0017  162.6988 H   0  0  0  0  0  0  0  0  0  0  0  0
  136.3493  141.6834  160.8349 H   0  0  0  0  0  0  0  0  0  0  0  0
  136.3447  140.6581  162.3348 H   0  0  0  0  0  0  0  0  0  0  0  0
  136.5400  138.5684  160.9915 H   0  0  0  0  0  0  0  0  0  0  0  0
  137.3073  139.6612  159.7602 H   0  0  0  0  0  0  0  0  0  0  0  0
  134.8867  137.5703  159.1459 H   0  0  0  0  0  0  0  0  0  0  0  0
  133.3795  138.5232  159.0257 H   0  0  0  0  0  0  0  0  0  0  0  0
  128.0915  135.0681  163.1547 H   0  0  0  0  0  0  0  0  0  0  0  0
  129.3722  136.0947  164.9813 H   0  0  0  0  0  0  0  0  0  0  0  0
  1  6  2  0
  1  2  1  0
  1 41  1  0
  2  3  2  0
  2 42  1  0
  3  4  1  0
  3 43  1  0
  4 40  1  0
  4  5  2  0
  5  6  1  0
  5  7  1  0
  6 44  1  0
  7  8  1  0
  7 45  1  0
  7 46  1  0
  8 40  2  0
  8  9  1  0
  9 10  2  0
  9 47  1  0
 10 11  1  0
 10 38  1  0
 11 12  1  0
 11 48  1  0
 12 37  1  0
 12 13  2  0
 13 14  1  0
 13 49  1  0
 14 15  2  0
 14 50  1  0
 15 16  1  0
 15 37  1  0
 16 21  1  0
 16 17  2  0
 17 18  1  0
 18 19  1  0
 18 20  1  0
 20 21  2  0
 20 51  1  0
 21 22  1  0
 22 23  1  0
 22 52  1  0
 22 53  1  0
 23 24  1  0
 23 25  1  0
 23 26  1  0
 26 27  1  0
 26 54  1  0
 26 55  1  0
 27 28  1  1
 27 36  1  0
 27 29  1  0
 29 30  1  0
 29 56  1  0
 29 57  1  0
 30 31  1  6
 30 34  1  0
 30 32  1  0
 32 33  1  0
 32 58  1  0
 32 59  1  0
 33 34  1  0
 33 60  1  0
 33 61  1  0
 34 35  1  6
 34 36  1  0
 36 62  1  0
 36 63  1  0
 38 39  2  0
 38 64  1  0
 39 40  1  0
 39 65  1  0
M  CHG  1  23   1
M  END
>  <DOCK_score>  (1) 
-48.900948

>  <SMILES>  (1) 
c1ccc2c(c1)Cc1cc(Nc3ccc(-c4n[nH]cc4C[NH2+]C[C@@H]4C[C@H]5CC[C@H]5C4)o3)ccc1-2

$$$$
