CCc1ccc(-c2c[nH]c(Nc3ccc(N)c(C4CC4)c3)[nH+]2)cc1
     RDKit          3D

 47 50  0  0  1  0  0  0  0  0999 V2000
  130.3539  130.0993  150.0359 C   0  0  0  0  0  0  0  0  0  0  0  0
  131.2088  129.4996  151.1535 C   0  0  0  0  0  0  0  0  0  0  0  0
  130.9354  130.2308  152.4425 C   0  0  0  0  0  0  0  0  0  0  0  0
  130.5672  131.5632  152.4142 C   0  0  0  0  0  0  0  0  0  0  0  0
  130.3110  132.2366  153.5913 C   0  0  0  0  0  0  0  0  0  0  0  0
  130.4339  131.5739  154.8111 C   0  0  0  0  0  0  0  0  0  0  0  0
  130.1649  132.2936  156.0799 C   0  0  0  0  0  0  0  0  0  0  0  0
  129.6952  131.7419  157.2264 C   0  0  0  0  0  0  0  0  0  0  0  0
  129.5944  132.7573  158.1454 N   0  0  0  0  0  0  0  0  0  0  0  0
  129.2864  132.6747  159.0615 H   0  0  0  0  0  0  0  0  0  0  0  0
  130.0058  133.9015  157.5332 C   0  0  0  0  0  0  0  0  0  0  0  0
  130.0570  135.1559  158.1181 N   0  0  0  0  0  0  0  0  0  0  0  0
  129.1516  135.4935  159.1318 C   0  0  0  0  0  0  0  0  0  0  0  0
  129.5227  136.3928  160.1232 C   0  0  0  0  0  0  0  0  0  0  0  0
  128.6281  136.7300  161.1192 C   0  0  0  0  0  0  0  0  0  0  0  0
  127.3611  136.1611  161.1364 C   0  0  0  0  0  0  0  0  0  0  0  0
  126.4564  136.4982  162.1498 N   0  0  0  0  0  0  0  0  0  0  0  0
  126.9922  135.2578  160.1486 C   0  0  0  0  0  0  0  0  0  0  0  0
  125.6173  134.6410  160.1671 C   0  0  0  0  0  0  0  0  0  0  0  0
  125.3916  133.4460  161.0954 C   0  0  0  0  0  0  0  0  0  0  0  0
  125.4657  133.2355  159.5818 C   0  0  0  0  0  0  0  0  0  0  0  0
  127.8850  134.9248  159.1491 C   0  0  0  0  0  0  0  0  0  0  0  0
  130.3506  133.6190  156.3005 N   0  0  0  0  0  0  0  0  0  0  0  0
  130.6832  134.2564  155.6493 H   0  0  0  0  0  0  0  0  0  0  0  0
  130.8101  130.2321  154.8342 C   0  0  0  0  0  0  0  0  0  0  0  0
  131.0588  129.5672  153.6507 C   0  0  0  0  0  0  0  0  0  0  0  0
  130.6023  131.1538  149.9151 H   0  0  0  0  0  0  0  0  0  0  0  0
  130.5515  129.5705  149.1035 H   0  0  0  0  0  0  0  0  0  0  0  0
  129.2990  130.0017  150.2924 H   0  0  0  0  0  0  0  0  0  0  0  0
  130.9601  128.4445  151.2745 H   0  0  0  0  0  0  0  0  0  0  0  0
  132.2633  129.5967  150.8972 H   0  0  0  0  0  0  0  0  0  0  0  0
  130.4766  132.0772  151.4684 H   0  0  0  0  0  0  0  0  0  0  0  0
  130.0194  133.2764  153.5674 H   0  0  0  0  0  0  0  0  0  0  0  0
  129.4479  130.7027  157.3860 H   0  0  0  0  0  0  0  0  0  0  0  0
  130.7201  135.8007  157.8254 H   0  0  0  0  0  0  0  0  0  0  0  0
  130.5094  136.8318  160.1122 H   0  0  0  0  0  0  0  0  0  0  0  0
  128.9151  137.4327  161.8875 H   0  0  0  0  0  0  0  0  0  0  0  0
  125.5717  136.1008  162.1620 H   0  0  0  0  0  0  0  0  0  0  0  0
  126.7141  137.1293  162.8398 H   0  0  0  0  0  0  0  0  0  0  0  0
  124.7885  135.3354  160.0297 H   0  0  0  0  0  0  0  0  0  0  0  0
  126.2375  133.1059  161.6929 H   0  0  0  0  0  0  0  0  0  0  0  0
  124.4141  133.3542  161.5691 H   0  0  0  0  0  0  0  0  0  0  0  0
  124.5369  133.0052  159.0597 H   0  0  0  0  0  0  0  0  0  0  0  0
  126.3602  132.7572  159.1831 H   0  0  0  0  0  0  0  0  0  0  0  0
  127.5978  134.2224  158.3806 H   0  0  0  0  0  0  0  0  0  0  0  0
  130.9073  129.7136  155.7767 H   0  0  0  0  0  0  0  0  0  0  0  0
  131.3500  128.5275  153.6674 H   0  0  0  0  0  0  0  0  0  0  0  0
  1  2  1  0
  1 27  1  0
  1 28  1  0
  1 29  1  0
  2  3  1  0
  2 30  1  0
  2 31  1  0
  3 26  2  0
  3  4  1  0
  4  5  2  0
  4 32  1  0
  5  6  1  0
  5 33  1  0
  6  7  1  0
  6 25  2  0
  7 23  1  0
  7  8  2  0
  8  9  1  0
  8 34  1  0
  9 10  1  0
  9 11  1  0
 11 12  1  0
 11 23  2  0
 12 13  1  0
 12 35  1  0
 13 22  1  0
 13 14  2  0
 14 15  1  0
 14 36  1  0
 15 16  2  0
 15 37  1  0
 16 17  1  0
 16 18  1  0
 17 38  1  0
 17 39  1  0
 18 19  1  0
 18 22  2  0
 19 21  1  0
 19 20  1  0
 19 40  1  0
 20 21  1  0
 20 41  1  0
 20 42  1  0
 21 43  1  0
 21 44  1  0
 22 45  1  0
 23 24  1  0
 25 26  1  0
 25 46  1  0
 26 47  1  0
M  CHG  1  23   1
M  END
>  <DOCK_score>  (1) 
-58.075733

>  <SMILES>  (1) 
CCc1ccc(-c2c[nH]c(Nc3ccc(N)c(C4CC4)c3)[nH+]2)cc1

$$$$
