C[C@@H](O)C[NH+]=C(N[C@H]1[C@@H]2CC=CC[C@@H]21)N[C@H]1C[C@@H](O)C1
     RDKit          3D

 46 48  0  0  1  0  0  0  0  0999 V2000
  131.0003  139.8624  159.5496 C   0  0  0  0  0  0  0  0  0  0  0  0
  130.4791  138.7667  160.4817 C   0  0  1  0  0  0  0  0  0  0  0  0
  131.1469  138.6698  161.3377 H   0  0  0  0  0  0  0  0  0  0  0  0
  129.1689  139.1113  160.9361 O   0  0  0  0  0  0  0  0  0  0  0  0
  130.4235  137.4379  159.7254 C   0  0  0  0  0  0  0  0  0  0  0  0
  129.5110  136.5217  160.4142 N   0  0  0  0  0  0  0  0  0  0  0  0
  129.0564  136.8067  161.2224 H   0  0  0  0  0  0  0  0  0  0  0  0
  129.3102  135.3239  159.9412 C   0  0  0  0  0  0  0  0  0  0  0  0
  129.9546  134.9201  158.7959 N   0  0  0  0  0  0  0  0  0  0  0  0
  129.7290  133.5738  158.2643 C   0  0  1  0  0  0  0  0  0  0  0  0
  128.6984  133.3415  157.9956 H   0  0  0  0  0  0  0  0  0  0  0  0
  130.8371  132.9589  157.4071 C   0  0  2  0  0  0  0  0  0  0  0  0
  131.7355  133.5489  157.2258 H   0  0  0  0  0  0  0  0  0  0  0  0
  130.3677  131.9844  156.2873 C   0  0  0  0  0  0  0  0  0  0  0  0
  130.7569  130.5796  156.6777 C   0  0  0  0  0  0  0  0  0  0  0  0
  130.5535  130.1496  157.8982 C   0  0  0  0  0  0  0  0  0  0  0  0
  129.9266  131.0523  158.9323 C   0  0  0  0  0  0  0  0  0  0  0  0
  130.5828  132.4386  158.8327 C   0  0  2  0  0  0  0  0  0  0  0  0
  131.3105  132.6797  159.6076 H   0  0  0  0  0  0  0  0  0  0  0  0
  128.4538  134.4643  160.5877 N   0  0  0  0  0  0  0  0  0  0  0  0
  127.7672  134.8947  161.8080 C   0  0  1  0  0  0  0  0  0  0  0  0
  128.4558  135.1670  162.6078 H   0  0  0  0  0  0  0  0  0  0  0  0
  126.6672  135.9403  161.5598 C   0  0  0  0  0  0  0  0  0  0  0  0
  125.8275  135.1908  162.6077 C   0  0  1  0  0  0  0  0  0  0  0  0
  125.9841  135.5443  163.6268 H   0  0  0  0  0  0  0  0  0  0  0  0
  124.4447  135.0844  162.2636 O   0  0  0  0  0  0  0  0  0  0  0  0
  126.6482  133.9390  162.2549 C   0  0  0  0  0  0  0  0  0  0  0  0
  131.1398  140.7841  160.1148 H   0  0  0  0  0  0  0  0  0  0  0  0
  131.9529  139.5517  159.1205 H   0  0  0  0  0  0  0  0  0  0  0  0
  130.2795  140.0323  158.7497 H   0  0  0  0  0  0  0  0  0  0  0  0
  129.1483  139.8639  161.5429 H   0  0  0  0  0  0  0  0  0  0  0  0
  130.0659  137.6120  158.7106 H   0  0  0  0  0  0  0  0  0  0  0  0
  131.4204  136.9985  159.6889 H   0  0  0  0  0  0  0  0  0  0  0  0
  130.5587  135.5267  158.3398 H   0  0  0  0  0  0  0  0  0  0  0  0
  130.8556  132.2523  155.3500 H   0  0  0  0  0  0  0  0  0  0  0  0
  129.2860  132.0446  156.1672 H   0  0  0  0  0  0  0  0  0  0  0  0
  131.2063  129.9245  155.9461 H   0  0  0  0  0  0  0  0  0  0  0  0
  130.8361  129.1423  158.1660 H   0  0  0  0  0  0  0  0  0  0  0  0
  130.0923  130.6394  159.9273 H   0  0  0  0  0  0  0  0  0  0  0  0
  128.8568  131.1390  158.7423 H   0  0  0  0  0  0  0  0  0  0  0  0
  128.3043  133.5729  160.2357 H   0  0  0  0  0  0  0  0  0  0  0  0
  126.9467  136.9489  161.8643 H   0  0  0  0  0  0  0  0  0  0  0  0
  126.2480  135.9028  160.5542 H   0  0  0  0  0  0  0  0  0  0  0  0
  124.0000  135.9362  162.1538 H   0  0  0  0  0  0  0  0  0  0  0  0
  126.2228  133.3534  161.4399 H   0  0  0  0  0  0  0  0  0  0  0  0
  126.9125  133.3320  163.1207 H   0  0  0  0  0  0  0  0  0  0  0  0
  1  2  1  0
  1 28  1  0
  1 29  1  0
  1 30  1  0
  2  3  1  1
  2  4  1  0
  2  5  1  0
  4 31  1  0
  5  6  1  0
  5 32  1  0
  5 33  1  0
  6  7  1  0
  8  6  2  0
  8  9  1  0
  8 20  1  0
  9 10  1  0
  9 34  1  0
 10 11  1  6
 10 18  1  0
 10 12  1  0
 12 13  1  1
 12 18  1  0
 12 14  1  0
 14 15  1  0
 14 35  1  0
 14 36  1  0
 15 16  2  0
 15 37  1  0
 16 17  1  0
 16 38  1  0
 17 18  1  0
 17 39  1  0
 17 40  1  0
 18 19  1  1
 20 21  1  0
 20 41  1  0
 21 22  1  1
 21 27  1  0
 21 23  1  0
 23 24  1  0
 23 42  1  0
 23 43  1  0
 24 25  1  1
 24 26  1  0
 24 27  1  0
 26 44  1  0
 27 45  1  0
 27 46  1  0
M  CHG  1   6   1
M  END
>  <DOCK_score>  (1) 
-44.443287

>  <SMILES>  (1) 
C[C@@H](O)C[NH+]=C(N[C@H]1[C@@H]2CC=CC[C@@H]21)N[C@H]1C[C@@H](O)C1

$$$$
