O=C1CC[C@H]([NH+]=C(NC2CC=CC2)N[C@H]2CC=C[C@@H](O)C2)CN1
     RDKit          3D

 50 52  0  0  1  0  0  0  0  0999 V2000
  133.0687  137.2283  163.5313 O   0  0  0  0  0  0  0  0  0  0  0  0
  132.5508  136.7463  162.5462 C   0  0  0  0  0  0  0  0  0  0  0  0
  133.1402  135.4878  161.9771 C   0  0  0  0  0  0  0  0  0  0  0  0
  132.6523  135.2876  160.5401 C   0  0  0  0  0  0  0  0  0  0  0  0
  131.1288  135.4609  160.5169 C   0  0  2  0  0  0  0  0  0  0  0  0
  130.6760  134.8167  161.2708 H   0  0  0  0  0  0  0  0  0  0  0  0
  130.6137  135.1050  159.1925 N   0  0  0  0  0  0  0  0  0  0  0  0
  131.1665  135.2350  158.4062 H   0  0  0  0  0  0  0  0  0  0  0  0
  129.4125  134.6137  159.0708 C   0  0  0  0  0  0  0  0  0  0  0  0
  129.1277  133.7396  158.0486 N   0  0  0  0  0  0  0  0  0  0  0  0
  130.1755  132.8609  157.5227 C   0  0  0  0  0  0  0  0  0  0  0  0
  129.6068  131.4655  157.1753 C   0  0  0  0  0  0  0  0  0  0  0  0
  130.7005  130.4978  157.5658 C   0  0  0  0  0  0  0  0  0  0  0  0
  131.5726  131.0664  158.3532 C   0  0  0  0  0  0  0  0  0  0  0  0
  131.2061  132.5078  158.6201 C   0  0  0  0  0  0  0  0  0  0  0  0
  128.4305  134.9697  159.9646 N   0  0  0  0  0  0  0  0  0  0  0  0
  127.0804  134.4176  159.8278 C   0  0  1  0  0  0  0  0  0  0  0  0
  126.6664  134.6979  158.8593 H   0  0  0  0  0  0  0  0  0  0  0  0
  127.1336  132.8930  159.9477 C   0  0  0  0  0  0  0  0  0  0  0  0
  125.7460  132.3358  160.0753 C   0  0  0  0  0  0  0  0  0  0  0  0
  124.7086  133.0397  160.3976 C   0  0  0  0  0  0  0  0  0  0  0  0
  124.7468  134.5132  160.6791 C   0  0  1  0  0  0  0  0  0  0  0  0
  124.3544  135.0557  159.8188 H   0  0  0  0  0  0  0  0  0  0  0  0
  123.9398  134.7980  161.8235 O   0  0  0  0  0  0  0  0  0  0  0  0
  126.1849  134.9613  160.9483 C   0  0  0  0  0  0  0  0  0  0  0  0
  130.7941  136.9192  160.8238 C   0  0  0  0  0  0  0  0  0  0  0  0
  131.4886  137.3625  162.0261 N   0  0  0  0  0  0  0  0  0  0  0  0
  134.2276  135.5623  161.9832 H   0  0  0  0  0  0  0  0  0  0  0  0
  132.8333  134.6370  162.5854 H   0  0  0  0  0  0  0  0  0  0  0  0
  133.1158  136.0284  159.8886 H   0  0  0  0  0  0  0  0  0  0  0  0
  132.9133  134.2854  160.2002 H   0  0  0  0  0  0  0  0  0  0  0  0
  128.2329  133.7046  157.6755 H   0  0  0  0  0  0  0  0  0  0  0  0
  130.6631  133.3111  156.6582 H   0  0  0  0  0  0  0  0  0  0  0  0
  128.7029  131.2694  157.7518 H   0  0  0  0  0  0  0  0  0  0  0  0
  129.3999  131.3951  156.1074 H   0  0  0  0  0  0  0  0  0  0  0  0
  130.7534  129.4707  157.2361 H   0  0  0  0  0  0  0  0  0  0  0  0
  132.4417  130.5714  158.7607 H   0  0  0  0  0  0  0  0  0  0  0  0
  132.0858  133.1455  158.5341 H   0  0  0  0  0  0  0  0  0  0  0  0
  130.7587  132.6108  159.6087 H   0  0  0  0  0  0  0  0  0  0  0  0
  128.6315  135.5865  160.6858 H   0  0  0  0  0  0  0  0  0  0  0  0
  127.6096  132.4771  159.0596 H   0  0  0  0  0  0  0  0  0  0  0  0
  127.7150  132.6199  160.8283 H   0  0  0  0  0  0  0  0  0  0  0  0
  125.6041  131.2820  159.8860 H   0  0  0  0  0  0  0  0  0  0  0  0
  123.7565  132.5350  160.4688 H   0  0  0  0  0  0  0  0  0  0  0  0
  123.9083  135.7353  162.0592 H   0  0  0  0  0  0  0  0  0  0  0  0
  126.5182  134.5663  161.9080 H   0  0  0  0  0  0  0  0  0  0  0  0
  126.2363  136.0501  160.9626 H   0  0  0  0  0  0  0  0  0  0  0  0
  129.7188  137.0206  160.9709 H   0  0  0  0  0  0  0  0  0  0  0  0
  131.0995  137.5401  159.9816 H   0  0  0  0  0  0  0  0  0  0  0  0
  131.1550  138.1531  162.4784 H   0  0  0  0  0  0  0  0  0  0  0  0
  1  2  2  0
  2 27  1  0
  2  3  1  0
  3  4  1  0
  3 28  1  0
  3 29  1  0
  4  5  1  0
  4 30  1  0
  4 31  1  0
  5  6  1  1
  5  7  1  0
  5 26  1  0
  7  8  1  0
  9  7  2  0
  9 10  1  0
  9 16  1  0
 10 11  1  0
 10 32  1  0
 11 15  1  0
 11 12  1  0
 11 33  1  0
 12 13  1  0
 12 34  1  0
 12 35  1  0
 13 14  2  0
 13 36  1  0
 14 15  1  0
 14 37  1  0
 15 38  1  0
 15 39  1  0
 16 17  1  0
 16 40  1  0
 17 18  1  6
 17 25  1  0
 17 19  1  0
 19 20  1  0
 19 41  1  0
 19 42  1  0
 20 21  2  0
 20 43  1  0
 21 22  1  0
 21 44  1  0
 22 23  1  6
 22 24  1  0
 22 25  1  0
 24 45  1  0
 25 46  1  0
 25 47  1  0
 26 27  1  0
 26 48  1  0
 26 49  1  0
 27 50  1  0
M  CHG  1   7   1
M  END
>  <DOCK_score>  (1) 
-46.236759

>  <SMILES>  (1) 
O=C1CC[C@H]([NH+]=C(NC2CC=CC2)N[C@H]2CC=C[C@@H](O)C2)CN1

$$$$
