CCc1ccc(-c2c[nH]c(NC(c3ccccc3)[C@@H](Br)Cc3ccccc3)[nH+]2)cc1
     RDKit          3D

 57 60  0  0  1  0  0  0  0  0999 V2000
  130.5869  128.4592  151.5697 C   0  0  0  0  0  0  0  0  0  0  0  0
  131.6655  129.4844  151.9249 C   0  0  0  0  0  0  0  0  0  0  0  0
  131.2828  130.1958  153.1971 C   0  0  0  0  0  0  0  0  0  0  0  0
  131.6872  129.6898  154.4187 C   0  0  0  0  0  0  0  0  0  0  0  0
  131.3434  130.3402  155.5863 C   0  0  0  0  0  0  0  0  0  0  0  0
  130.5784  131.5040  155.5332 C   0  0  0  0  0  0  0  0  0  0  0  0
  130.2017  132.2051  156.7850 C   0  0  0  0  0  0  0  0  0  0  0  0
  129.4680  131.6864  157.8006 C   0  0  0  0  0  0  0  0  0  0  0  0
  129.3594  132.6677  158.7556 N   0  0  0  0  0  0  0  0  0  0  0  0
  128.8930  132.5956  159.6030 H   0  0  0  0  0  0  0  0  0  0  0  0
  130.0235  133.7614  158.2916 C   0  0  0  0  0  0  0  0  0  0  0  0
  130.1476  134.9705  158.9541 N   0  0  0  0  0  0  0  0  0  0  0  0
  129.0919  135.4180  159.8660 C   0  0  2  0  0  0  0  0  0  0  0  0
  127.7959  135.5495  159.1080 C   0  0  0  0  0  0  0  0  0  0  0  0
  126.5926  135.3381  159.7547 C   0  0  0  0  0  0  0  0  0  0  0  0
  125.4037  135.4633  159.0607 C   0  0  0  0  0  0  0  0  0  0  0  0
  125.4185  135.7897  157.7175 C   0  0  0  0  0  0  0  0  0  0  0  0
  126.6222  135.9960  157.0696 C   0  0  0  0  0  0  0  0  0  0  0  0
  127.8108  135.8758  157.7649 C   0  0  0  0  0  0  0  0  0  0  0  0
  129.4740  136.7742  160.4622 C   0  0  1  0  0  0  0  0  0  0  0  0
  129.5943  137.5027  159.6604 H   0  0  0  0  0  0  0  0  0  0  0  0
  128.0572  137.3747  161.6859 Br  0  0  0  0  0  0  0  0  0  0  0  0
  130.7896  136.6407  161.2317 C   0  0  0  0  0  0  0  0  0  0  0  0
  131.4166  138.0014  161.3947 C   0  0  0  0  0  0  0  0  0  0  0  0
  132.2970  138.4754  160.4401 C   0  0  0  0  0  0  0  0  0  0  0  0
  132.8683  139.7256  160.5872 C   0  0  0  0  0  0  0  0  0  0  0  0
  132.5674  140.4971  161.6940 C   0  0  0  0  0  0  0  0  0  0  0  0
  131.6911  140.0209  162.6511 C   0  0  0  0  0  0  0  0  0  0  0  0
  131.1157  138.7729  162.5014 C   0  0  0  0  0  0  0  0  0  0  0  0
  130.5255  133.4811  157.1138 N   0  0  0  0  0  0  0  0  0  0  0  0
  131.0450  134.0889  156.5647 H   0  0  0  0  0  0  0  0  0  0  0  0
  130.1688  132.0069  154.2995 C   0  0  0  0  0  0  0  0  0  0  0  0
  130.5225  131.3508  153.1381 C   0  0  0  0  0  0  0  0  0  0  0  0
  130.8640  127.9442  150.6498 H   0  0  0  0  0  0  0  0  0  0  0  0
  130.4943  127.7341  152.3783 H   0  0  0  0  0  0  0  0  0  0  0  0
  129.6339  128.9687  151.4279 H   0  0  0  0  0  0  0  0  0  0  0  0
  132.6187  128.9747  152.0667 H   0  0  0  0  0  0  0  0  0  0  0  0
  131.7581  130.2095  151.1164 H   0  0  0  0  0  0  0  0  0  0  0  0
  132.2769  128.7860  154.4587 H   0  0  0  0  0  0  0  0  0  0  0  0
  131.6638  129.9464  156.5395 H   0  0  0  0  0  0  0  0  0  0  0  0
  129.0509  130.6914  157.8500 H   0  0  0  0  0  0  0  0  0  0  0  0
  130.9336  135.5216  158.8144 H   0  0  0  0  0  0  0  0  0  0  0  0
  128.9715  134.6895  160.6678 H   0  0  0  0  0  0  0  0  0  0  0  0
  126.5812  135.0788  160.8030 H   0  0  0  0  0  0  0  0  0  0  0  0
  124.4634  135.3018  159.5667 H   0  0  0  0  0  0  0  0  0  0  0  0
  124.4899  135.8831  157.1741 H   0  0  0  0  0  0  0  0  0  0  0  0
  126.6337  136.2505  156.0201 H   0  0  0  0  0  0  0  0  0  0  0  0
  128.7512  136.0365  157.2586 H   0  0  0  0  0  0  0  0  0  0  0  0
  130.5940  136.2108  162.2140 H   0  0  0  0  0  0  0  0  0  0  0  0
  131.4690  135.9913  160.6796 H   0  0  0  0  0  0  0  0  0  0  0  0
  132.5355  137.8708  159.5776 H   0  0  0  0  0  0  0  0  0  0  0  0
  133.5533  140.0975  159.8396 H   0  0  0  0  0  0  0  0  0  0  0  0
  133.0174  141.4720  161.8111 H   0  0  0  0  0  0  0  0  0  0  0  0
  131.4562  140.6235  163.5160 H   0  0  0  0  0  0  0  0  0  0  0  0
  130.4313  138.4006  163.2494 H   0  0  0  0  0  0  0  0  0  0  0  0
  129.5755  132.9082  154.2525 H   0  0  0  0  0  0  0  0  0  0  0  0
  130.2059  131.7395  152.1816 H   0  0  0  0  0  0  0  0  0  0  0  0
  1  2  1  0
  1 34  1  0
  1 35  1  0
  1 36  1  0
  2  3  1  0
  2 37  1  0
  2 38  1  0
  3 33  2  0
  3  4  1  0
  4  5  2  0
  4 39  1  0
  5  6  1  0
  5 40  1  0
  6  7  1  0
  6 32  2  0
  7 30  1  0
  7  8  2  0
  8  9  1  0
  8 41  1  0
  9 10  1  0
  9 11  1  0
 11 12  1  0
 11 30  2  0
 12 13  1  0
 12 42  1  0
 13 14  1  0
 13 20  1  0
 13 43  1  1
 14 19  1  0
 14 15  2  0
 15 16  1  0
 15 44  1  0
 16 17  2  0
 16 45  1  0
 17 18  1  0
 17 46  1  0
 18 19  2  0
 18 47  1  0
 19 48  1  0
 20 21  1  6
 20 22  1  0
 20 23  1  0
 23 24  1  0
 23 49  1  0
 23 50  1  0
 24 29  1  0
 24 25  2  0
 25 26  1  0
 25 51  1  0
 26 27  2  0
 26 52  1  0
 27 28  1  0
 27 53  1  0
 28 29  2  0
 28 54  1  0
 29 55  1  0
 30 31  1  0
 32 33  1  0
 32 56  1  0
 33 57  1  0
M  CHG  1  30   1
M  END
>  <DOCK_score>  (1) 
-66.969437

>  <SMILES>  (1) 
CCc1ccc(-c2c[nH]c(NC(c3ccccc3)[C@@H](Br)Cc3ccccc3)[nH+]2)cc1

$$$$
