FC(F)[C@@H](Cc1ccccc1)Nc1[nH]cc(-c2ccc(-c3ccccc3)cc2)[nH+]1
     RDKit          3D

 51 54  0  0  1  0  0  0  0  0999 V2000
  132.7950  135.5311  163.4263 F   0  0  0  0  0  0  0  0  0  0  0  0
  132.9308  135.3296  162.0486 C   0  0  0  0  0  0  0  0  0  0  0  0
  133.0917  133.9642  161.7906 F   0  0  0  0  0  0  0  0  0  0  0  0
  131.6787  135.8399  161.3326 C   0  0  1  0  0  0  0  0  0  0  0  0
  130.8060  135.2965  161.6950 H   0  0  0  0  0  0  0  0  0  0  0  0
  131.5028  137.3334  161.6148 C   0  0  0  0  0  0  0  0  0  0  0  0
  132.7092  138.0847  161.1138 C   0  0  0  0  0  0  0  0  0  0  0  0
  133.7890  138.2953  161.9508 C   0  0  0  0  0  0  0  0  0  0  0  0
  134.8976  138.9803  161.4898 C   0  0  0  0  0  0  0  0  0  0  0  0
  134.9221  139.4639  160.1950 C   0  0  0  0  0  0  0  0  0  0  0  0
  133.8402  139.2579  159.3596 C   0  0  0  0  0  0  0  0  0  0  0  0
  132.7337  138.5682  159.8191 C   0  0  0  0  0  0  0  0  0  0  0  0
  131.8210  135.6289  159.8899 N   0  0  0  0  0  0  0  0  0  0  0  0
  131.3849  134.4466  159.3169 C   0  0  0  0  0  0  0  0  0  0  0  0
  130.8108  133.4077  159.9828 N   0  0  0  0  0  0  0  0  0  0  0  0
  130.6348  133.3630  160.9356 H   0  0  0  0  0  0  0  0  0  0  0  0
  130.5267  132.4340  159.0567 C   0  0  0  0  0  0  0  0  0  0  0  0
  130.9306  132.9075  157.8511 C   0  0  0  0  0  0  0  0  0  0  0  0
  130.8186  132.1995  156.5535 C   0  0  0  0  0  0  0  0  0  0  0  0
  130.0723  132.7586  155.5160 C   0  0  0  0  0  0  0  0  0  0  0  0
  129.9728  132.1032  154.3087 C   0  0  0  0  0  0  0  0  0  0  0  0
  130.6091  130.8756  154.1271 C   0  0  0  0  0  0  0  0  0  0  0  0
  130.4970  130.1673  152.8289 C   0  0  0  0  0  0  0  0  0  0  0  0
  130.5525  128.7753  152.7844 C   0  0  0  0  0  0  0  0  0  0  0  0
  130.4429  128.1214  151.5740 C   0  0  0  0  0  0  0  0  0  0  0  0
  130.2885  128.8456  150.4051 C   0  0  0  0  0  0  0  0  0  0  0  0
  130.2382  130.2271  150.4429 C   0  0  0  0  0  0  0  0  0  0  0  0
  130.3414  130.8915  151.6480 C   0  0  0  0  0  0  0  0  0  0  0  0
  131.3505  130.3138  155.1662 C   0  0  0  0  0  0  0  0  0  0  0  0
  131.4547  130.9714  156.3718 C   0  0  0  0  0  0  0  0  0  0  0  0
  131.4577  134.1429  158.0440 N   0  0  0  0  0  0  0  0  0  0  0  0
  131.8257  134.7122  157.3501 H   0  0  0  0  0  0  0  0  0  0  0  0
  133.8034  135.8731  161.6863 H   0  0  0  0  0  0  0  0  0  0  0  0
  130.6107  137.6969  161.1047 H   0  0  0  0  0  0  0  0  0  0  0  0
  131.3969  137.4903  162.6882 H   0  0  0  0  0  0  0  0  0  0  0  0
  133.7680  137.9215  162.9638 H   0  0  0  0  0  0  0  0  0  0  0  0
  135.7427  139.1416  162.1425 H   0  0  0  0  0  0  0  0  0  0  0  0
  135.7866  140.0030  159.8362 H   0  0  0  0  0  0  0  0  0  0  0  0
  133.8592  139.6360  158.3481 H   0  0  0  0  0  0  0  0  0  0  0  0
  131.8882  138.4076  159.1665 H   0  0  0  0  0  0  0  0  0  0  0  0
  132.2207  136.3178  159.3361 H   0  0  0  0  0  0  0  0  0  0  0  0
  130.0663  131.4764  159.2505 H   0  0  0  0  0  0  0  0  0  0  0  0
  129.5762  133.7074  155.6582 H   0  0  0  0  0  0  0  0  0  0  0  0
  129.3986  132.5383  153.5040 H   0  0  0  0  0  0  0  0  0  0  0  0
  130.6770  128.2094  153.6958 H   0  0  0  0  0  0  0  0  0  0  0  0
  130.4814  127.0427  151.5388 H   0  0  0  0  0  0  0  0  0  0  0  0
  130.2075  128.3302  149.4595 H   0  0  0  0  0  0  0  0  0  0  0  0
  130.1180  130.7871  149.5273 H   0  0  0  0  0  0  0  0  0  0  0  0
  130.3022  131.9704  151.6761 H   0  0  0  0  0  0  0  0  0  0  0  0
  131.8426  129.3627  155.0255 H   0  0  0  0  0  0  0  0  0  0  0  0
  132.0290  130.5364  157.1762 H   0  0  0  0  0  0  0  0  0  0  0  0
  1  2  1  0
  2  3  1  0
  2  4  1  0
  2 33  1  0
  4  5  1  1
  4  6  1  0
  4 13  1  0
  6  7  1  0
  6 34  1  0
  6 35  1  0
  7 12  1  0
  7  8  2  0
  8  9  1  0
  8 36  1  0
  9 10  2  0
  9 37  1  0
 10 11  1  0
 10 38  1  0
 11 12  2  0
 11 39  1  0
 12 40  1  0
 13 41  1  0
 14 13  1  0
 14 31  2  0
 14 15  1  0
 15 16  1  0
 15 17  1  0
 17 18  2  0
 17 42  1  0
 18 19  1  0
 18 31  1  0
 19 30  1  0
 19 20  2  0
 20 21  1  0
 20 43  1  0
 21 22  2  0
 21 44  1  0
 22 23  1  0
 22 29  1  0
 23 28  1  0
 23 24  2  0
 24 25  1  0
 24 45  1  0
 25 26  2  0
 25 46  1  0
 26 27  1  0
 26 47  1  0
 27 28  2  0
 27 48  1  0
 28 49  1  0
 29 30  2  0
 29 50  1  0
 30 51  1  0
 31 32  1  0
M  CHG  1  31   1
M  END
>  <DOCK_score>  (1) 
-63.850601

>  <SMILES>  (1) 
FC(F)[C@@H](Cc1ccccc1)Nc1[nH]cc(-c2ccc(-c3ccccc3)cc2)[nH+]1

$$$$
