CCc1ccc(CNc2ccccc2C[C@]2(O)C=C([NH2+]CCc3ccccn3)CCC2)[nH]1
     RDKit          3D

 67 70  0  0  1  0  0  0  0  0999 V2000
  129.7435  132.4330  155.4264 C   0  0  0  0  0  0  0  0  0  0  0  0
  130.7373  132.6280  156.5732 C   0  0  0  0  0  0  0  0  0  0  0  0
  129.9969  133.0657  157.8106 C   0  0  0  0  0  0  0  0  0  0  0  0
  129.4768  132.2504  158.7505 C   0  0  0  0  0  0  0  0  0  0  0  0
  128.8781  133.0656  159.7312 C   0  0  0  0  0  0  0  0  0  0  0  0
  129.0477  134.3477  159.3491 C   0  0  0  0  0  0  0  0  0  0  0  0
  128.5647  135.5638  160.0968 C   0  0  0  0  0  0  0  0  0  0  0  0
  129.6308  136.5678  160.1365 N   0  0  0  0  0  0  0  0  0  0  0  0
  129.4165  137.7887  160.7804 C   0  0  0  0  0  0  0  0  0  0  0  0
  128.3990  137.9120  161.7182 C   0  0  0  0  0  0  0  0  0  0  0  0
  128.1897  139.1206  162.3526 C   0  0  0  0  0  0  0  0  0  0  0  0
  128.9913  140.2075  162.0549 C   0  0  0  0  0  0  0  0  0  0  0  0
  130.0086  140.0867  161.1263 C   0  0  0  0  0  0  0  0  0  0  0  0
  130.2200  138.8822  160.4842 C   0  0  0  0  0  0  0  0  0  0  0  0
  131.3254  138.7529  159.4679 C   0  0  0  0  0  0  0  0  0  0  0  0
  132.6144  138.3198  160.1688 C   0  0  2  0  0  0  0  0  0  0  0  0
  132.5798  136.9092  160.3951 O   0  0  0  0  0  0  0  0  0  0  0  0
  132.7263  139.0278  161.4874 C   0  0  0  0  0  0  0  0  0  0  0  0
  133.8201  139.5531  161.9380 C   0  0  0  0  0  0  0  0  0  0  0  0
  133.7804  140.1791  163.1875 N   0  0  0  0  0  0  0  0  0  0  0  0
  132.8589  140.5590  163.3441 H   0  0  0  0  0  0  0  0  0  0  0  0
  134.4601  140.9244  163.2120 H   0  0  0  0  0  0  0  0  0  0  0  0
  134.0907  139.1986  164.2364 C   0  0  0  0  0  0  0  0  0  0  0  0
  134.0472  139.8837  165.6038 C   0  0  0  0  0  0  0  0  0  0  0  0
  135.0625  140.9969  165.6403 C   0  0  0  0  0  0  0  0  0  0  0  0
  135.1964  141.7621  166.7837 C   0  0  0  0  0  0  0  0  0  0  0  0
  136.1367  142.7803  166.8088 C   0  0  0  0  0  0  0  0  0  0  0  0
  136.9034  142.9987  165.6740 C   0  0  0  0  0  0  0  0  0  0  0  0
  136.7098  142.1963  164.5658 C   0  0  0  0  0  0  0  0  0  0  0  0
  135.8089  141.2331  164.5794 N   0  0  0  0  0  0  0  0  0  0  0  0
  135.1296  139.5266  161.2056 C   0  0  0  0  0  0  0  0  0  0  0  0
  135.0951  138.4669  160.1022 C   0  0  0  0  0  0  0  0  0  0  0  0
  133.8136  138.6621  159.2820 C   0  0  0  0  0  0  0  0  0  0  0  0
  129.7366  134.3541  158.1726 N   0  0  0  0  0  0  0  0  0  0  0  0
  129.9987  135.1447  157.6755 H   0  0  0  0  0  0  0  0  0  0  0  0
  129.0150  131.6706  155.7026 H   0  0  0  0  0  0  0  0  0  0  0  0
  129.2285  133.3728  155.2281 H   0  0  0  0  0  0  0  0  0  0  0  0
  130.2791  132.1163  154.5314 H   0  0  0  0  0  0  0  0  0  0  0  0
  131.4659  133.3903  156.2969 H   0  0  0  0  0  0  0  0  0  0  0  0
  131.2525  131.6880  156.7714 H   0  0  0  0  0  0  0  0  0  0  0  0
  129.5160  131.1712  158.7532 H   0  0  0  0  0  0  0  0  0  0  0  0
  128.3737  132.7261  160.6239 H   0  0  0  0  0  0  0  0  0  0  0  0
  128.2938  135.2810  161.1141 H   0  0  0  0  0  0  0  0  0  0  0  0
  127.6932  135.9789  159.5907 H   0  0  0  0  0  0  0  0  0  0  0  0
  130.4853  136.3849  159.7157 H   0  0  0  0  0  0  0  0  0  0  0  0
  127.7722  137.0638  161.9506 H   0  0  0  0  0  0  0  0  0  0  0  0
  127.3989  139.2171  163.0817 H   0  0  0  0  0  0  0  0  0  0  0  0
  128.8253  141.1517  162.5522 H   0  0  0  0  0  0  0  0  0  0  0  0
  130.6356  140.9362  160.8993 H   0  0  0  0  0  0  0  0  0  0  0  0
  131.4831  139.7139  158.9784 H   0  0  0  0  0  0  0  0  0  0  0  0
  131.0485  138.0069  158.7231 H   0  0  0  0  0  0  0  0  0  0  0  0
  132.4982  136.3833  159.5878 H   0  0  0  0  0  0  0  0  0  0  0  0
  131.8380  139.1072  162.0964 H   0  0  0  0  0  0  0  0  0  0  0  0
  135.0861  138.7881  164.0672 H   0  0  0  0  0  0  0  0  0  0  0  0
  133.3563  138.3935  164.2099 H   0  0  0  0  0  0  0  0  0  0  0  0
  133.0518  140.2942  165.7730 H   0  0  0  0  0  0  0  0  0  0  0  0
  134.2775  139.1564  166.3821 H   0  0  0  0  0  0  0  0  0  0  0  0
  134.5786  141.5668  167.6478 H   0  0  0  0  0  0  0  0  0  0  0  0
  136.2658  143.3921  167.6892 H   0  0  0  0  0  0  0  0  0  0  0  0
  137.6422  143.7863  165.6564 H   0  0  0  0  0  0  0  0  0  0  0  0
  137.3028  142.3599  163.6782 H   0  0  0  0  0  0  0  0  0  0  0  0
  135.3151  140.5046  160.7615 H   0  0  0  0  0  0  0  0  0  0  0  0
  135.9309  139.2925  161.9065 H   0  0  0  0  0  0  0  0  0  0  0  0
  135.9651  138.5824  159.4558 H   0  0  0  0  0  0  0  0  0  0  0  0
  135.0963  137.4726  160.5490 H   0  0  0  0  0  0  0  0  0  0  0  0
  133.7428  139.6992  158.9542 H   0  0  0  0  0  0  0  0  0  0  0  0
  133.8290  138.0010  158.4156 H   0  0  0  0  0  0  0  0  0  0  0  0
  1  2  1  0
  1 36  1  0
  1 37  1  0
  1 38  1  0
  2  3  1  0
  2 39  1  0
  2 40  1  0
  3 34  1  0
  3  4  2  0
  4  5  1  0
  4 41  1  0
  5  6  2  0
  5 42  1  0
  6  7  1  0
  6 34  1  0
  7  8  1  0
  7 43  1  0
  7 44  1  0
  8  9  1  0
  8 45  1  0
  9 14  1  0
  9 10  2  0
 10 11  1  0
 10 46  1  0
 11 12  2  0
 11 47  1  0
 12 13  1  0
 12 48  1  0
 13 14  2  0
 13 49  1  0
 14 15  1  0
 15 16  1  0
 15 50  1  0
 15 51  1  0
 16 33  1  0
 16 17  1  1
 16 18  1  0
 17 52  1  0
 18 19  2  0
 18 53  1  0
 19 20  1  0
 19 31  1  0
 20 21  1  0
 20 22  1  0
 20 23  1  0
 23 24  1  0
 23 54  1  0
 23 55  1  0
 24 25  1  0
 24 56  1  0
 24 57  1  0
 25 30  1  0
 25 26  2  0
 26 27  1  0
 26 58  1  0
 27 28  2  0
 27 59  1  0
 28 29  1  0
 28 60  1  0
 29 30  2  0
 29 61  1  0
 31 32  1  0
 31 62  1  0
 31 63  1  0
 32 33  1  0
 32 64  1  0
 32 65  1  0
 33 66  1  0
 33 67  1  0
 34 35  1  0
M  CHG  1  20   1
M  END
>  <DOCK_score>  (1) 
-56.290947

>  <SMILES>  (1) 
CCc1ccc(CNc2ccccc2C[C@]2(O)C=C([NH2+]CCc3ccccn3)CCC2)[nH]1

$$$$
