Cn1cc([C@H]([NH+]=C(NC2CCCC2)N[C@H]2CCC(=O)NC2)c2ccc(F)cc2)cn1
     RDKit          3D

 60 63  0  0  1  0  0  0  0  0999 V2000
  134.4325  139.5182  157.6622 C   0  0  0  0  0  0  0  0  0  0  0  0
  134.1543  138.7563  158.8821 N   0  0  0  0  0  0  0  0  0  0  0  0
  132.9340  138.3988  159.3340 C   0  0  0  0  0  0  0  0  0  0  0  0
  133.1062  137.7086  160.4850 C   0  0  0  0  0  0  0  0  0  0  0  0
  132.0124  137.1163  161.3359 C   0  0  2  0  0  0  0  0  0  0  0  0
  132.4534  136.6192  162.1999 H   0  0  0  0  0  0  0  0  0  0  0  0
  131.2531  136.1429  160.5472 N   0  0  0  0  0  0  0  0  0  0  0  0
  131.4944  135.9735  159.6231 H   0  0  0  0  0  0  0  0  0  0  0  0
  130.2533  135.5044  161.0873 C   0  0  0  0  0  0  0  0  0  0  0  0
  129.5407  134.5909  160.3472 N   0  0  0  0  0  0  0  0  0  0  0  0
  129.9051  134.3351  158.9514 C   0  0  0  0  0  0  0  0  0  0  0  0
  129.0069  133.2262  158.3655 C   0  0  0  0  0  0  0  0  0  0  0  0
  129.9533  132.4185  157.4431 C   0  0  0  0  0  0  0  0  0  0  0  0
  131.2823  132.4118  158.2386 C   0  0  0  0  0  0  0  0  0  0  0  0
  131.3519  133.8173  158.8708 C   0  0  0  0  0  0  0  0  0  0  0  0
  129.9113  135.7445  162.3971 N   0  0  0  0  0  0  0  0  0  0  0  0
  128.5189  135.5999  162.8289 C   0  0  1  0  0  0  0  0  0  0  0  0
  128.1843  134.5771  162.6559 H   0  0  0  0  0  0  0  0  0  0  0  0
  128.4060  135.9326  164.3215 C   0  0  0  0  0  0  0  0  0  0  0  0
  126.9860  135.5987  164.7856 C   0  0  0  0  0  0  0  0  0  0  0  0
  125.9853  136.1953  163.8379 C   0  0  0  0  0  0  0  0  0  0  0  0
  124.8376  136.3105  164.2129 O   0  0  0  0  0  0  0  0  0  0  0  0
  126.2909  136.6047  162.6061 N   0  0  0  0  0  0  0  0  0  0  0  0
  127.6337  136.5635  162.0409 C   0  0  0  0  0  0  0  0  0  0  0  0
  131.0905  138.2127  161.8034 C   0  0  0  0  0  0  0  0  0  0  0  0
  131.3414  138.8643  162.9966 C   0  0  0  0  0  0  0  0  0  0  0  0
  130.4993  139.8733  163.4240 C   0  0  0  0  0  0  0  0  0  0  0  0
  129.3979  140.2244  162.6619 C   0  0  0  0  0  0  0  0  0  0  0  0
  128.5714  141.2073  163.0811 F   0  0  0  0  0  0  0  0  0  0  0  0
  129.1446  139.5675  161.4697 C   0  0  0  0  0  0  0  0  0  0  0  0
  129.9911  138.5625  161.0417 C   0  0  0  0  0  0  0  0  0  0  0  0
  134.4785  137.6471  160.7487 C   0  0  0  0  0  0  0  0  0  0  0  0
  135.1081  138.2696  159.7854 N   0  0  0  0  0  0  0  0  0  0  0  0
  134.4425  140.5833  157.8934 H   0  0  0  0  0  0  0  0  0  0  0  0
  135.4034  139.2238  157.2634 H   0  0  0  0  0  0  0  0  0  0  0  0
  133.6587  139.3144  156.9220 H   0  0  0  0  0  0  0  0  0  0  0  0
  131.9891  138.6236  158.8616 H   0  0  0  0  0  0  0  0  0  0  0  0
  128.7967  134.1157  160.7491 H   0  0  0  0  0  0  0  0  0  0  0  0
  129.8022  135.2484  158.3656 H   0  0  0  0  0  0  0  0  0  0  0  0
  128.6162  132.5916  159.1610 H   0  0  0  0  0  0  0  0  0  0  0  0
  128.1912  133.6614  157.7881 H   0  0  0  0  0  0  0  0  0  0  0  0
  130.0797  132.9210  156.4841 H   0  0  0  0  0  0  0  0  0  0  0  0
  129.5822  131.4033  157.3026 H   0  0  0  0  0  0  0  0  0  0  0  0
  132.1272  132.2527  157.5686 H   0  0  0  0  0  0  0  0  0  0  0  0
  131.2615  131.6456  159.0136 H   0  0  0  0  0  0  0  0  0  0  0  0
  131.9509  134.4789  158.2451 H   0  0  0  0  0  0  0  0  0  0  0  0
  131.7832  133.7571  159.8701 H   0  0  0  0  0  0  0  0  0  0  0  0
  130.5920  136.0098  163.0353 H   0  0  0  0  0  0  0  0  0  0  0  0
  128.6028  136.9934  164.4769 H   0  0  0  0  0  0  0  0  0  0  0  0
  129.1254  135.3394  164.8857 H   0  0  0  0  0  0  0  0  0  0  0  0
  126.8263  136.0056  165.7840 H   0  0  0  0  0  0  0  0  0  0  0  0
  126.8589  134.5165  164.8123 H   0  0  0  0  0  0  0  0  0  0  0  0
  125.5739  136.9478  162.0501 H   0  0  0  0  0  0  0  0  0  0  0  0
  127.5777  136.2366  161.0025 H   0  0  0  0  0  0  0  0  0  0  0  0
  128.0712  137.5612  162.0781 H   0  0  0  0  0  0  0  0  0  0  0  0
  132.1983  138.5875  163.5929 H   0  0  0  0  0  0  0  0  0  0  0  0
  130.6979  140.3849  164.3541 H   0  0  0  0  0  0  0  0  0  0  0  0
  128.2860  139.8407  160.8742 H   0  0  0  0  0  0  0  0  0  0  0  0
  129.7935  138.0498  160.1118 H   0  0  0  0  0  0  0  0  0  0  0  0
  134.9389  137.1662  161.5991 H   0  0  0  0  0  0  0  0  0  0  0  0
  1  2  1  0
  1 34  1  0
  1 35  1  0
  1 36  1  0
  2 33  1  0
  2  3  1  0
  3  4  2  0
  3 37  1  0
  4  5  1  0
  4 32  1  0
  5  6  1  1
  5  7  1  0
  5 25  1  0
  7  8  1  0
  9  7  2  0
  9 10  1  0
  9 16  1  0
 10 11  1  0
 10 38  1  0
 11 15  1  0
 11 12  1  0
 11 39  1  0
 12 13  1  0
 12 40  1  0
 12 41  1  0
 13 14  1  0
 13 42  1  0
 13 43  1  0
 14 15  1  0
 14 44  1  0
 14 45  1  0
 15 46  1  0
 15 47  1  0
 16 17  1  0
 16 48  1  0
 17 18  1  1
 17 24  1  0
 17 19  1  0
 19 20  1  0
 19 49  1  0
 19 50  1  0
 20 21  1  0
 20 51  1  0
 20 52  1  0
 21 22  2  0
 21 23  1  0
 23 24  1  0
 23 53  1  0
 24 54  1  0
 24 55  1  0
 25 31  1  0
 25 26  2  0
 26 27  1  0
 26 56  1  0
 27 28  2  0
 27 57  1  0
 28 29  1  0
 28 30  1  0
 30 31  2  0
 30 58  1  0
 31 59  1  0
 32 33  2  0
 32 60  1  0
M  CHG  1   7   1
M  END
>  <DOCK_score>  (1) 
-41.124207

>  <SMILES>  (1) 
Cn1cc([C@H]([NH+]=C(NC2CCCC2)N[C@H]2CCC(=O)NC2)c2ccc(F)cc2)cn1

$$$$
