Nc1ccc(Sc2ccccc2)c(Nc2[nH]cc(-c3ccc(C4=CCC=CC4)cc3)[nH+]2)c1
     RDKit          3D

 57 61  0  0  1  0  0  0  0  0999 V2000
  132.5876  134.6123  164.4371 N   0  0  0  0  0  0  0  0  0  0  0  0
  131.9272  135.4306  163.5135 C   0  0  0  0  0  0  0  0  0  0  0  0
  131.1305  136.4774  163.9592 C   0  0  0  0  0  0  0  0  0  0  0  0
  130.4774  137.2877  163.0500 C   0  0  0  0  0  0  0  0  0  0  0  0
  130.6155  137.0574  161.6891 C   0  0  0  0  0  0  0  0  0  0  0  0
  129.7813  138.0904  160.5308 S   0  0  0  0  0  0  0  0  0  0  0  0
  128.7521  136.9572  159.6586 C   0  0  0  0  0  0  0  0  0  0  0  0
  127.7939  136.2179  160.3422 C   0  0  0  0  0  0  0  0  0  0  0  0
  126.9888  135.3311  159.6553 C   0  0  0  0  0  0  0  0  0  0  0  0
  127.1348  135.1779  158.2884 C   0  0  0  0  0  0  0  0  0  0  0  0
  128.0910  135.9077  157.6056 C   0  0  0  0  0  0  0  0  0  0  0  0
  128.8958  136.8006  158.2849 C   0  0  0  0  0  0  0  0  0  0  0  0
  131.4107  136.0035  161.2385 C   0  0  0  0  0  0  0  0  0  0  0  0
  131.5473  135.7651  159.8659 N   0  0  0  0  0  0  0  0  0  0  0  0
  131.1530  134.5499  159.3315 C   0  0  0  0  0  0  0  0  0  0  0  0
  130.6151  133.5132  160.0311 N   0  0  0  0  0  0  0  0  0  0  0  0
  130.4413  133.4929  160.9852 H   0  0  0  0  0  0  0  0  0  0  0  0
  130.3645  132.5016  159.1371 C   0  0  0  0  0  0  0  0  0  0  0  0
  130.7562  132.9484  157.9170 C   0  0  0  0  0  0  0  0  0  0  0  0
  130.6739  132.1936  156.6440 C   0  0  0  0  0  0  0  0  0  0  0  0
  130.4921  132.8748  155.4399 C   0  0  0  0  0  0  0  0  0  0  0  0
  130.4213  132.1749  154.2565 C   0  0  0  0  0  0  0  0  0  0  0  0
  130.5204  130.7818  154.2625 C   0  0  0  0  0  0  0  0  0  0  0  0
  130.4394  130.0298  152.9938 C   0  0  0  0  0  0  0  0  0  0  0  0
  129.7146  130.5226  152.0126 C   0  0  0  0  0  0  0  0  0  0  0  0
  129.5750  129.8362  150.6873 C   0  0  0  0  0  0  0  0  0  0  0  0
  129.9261  128.3828  150.7914 C   0  0  0  0  0  0  0  0  0  0  0  0
  130.6371  127.8943  151.7606 C   0  0  0  0  0  0  0  0  0  0  0  0
  131.1817  128.7323  152.8775 C   0  0  0  0  0  0  0  0  0  0  0  0
  130.6967  130.1002  155.4688 C   0  0  0  0  0  0  0  0  0  0  0  0
  130.7726  130.8019  156.6508 C   0  0  0  0  0  0  0  0  0  0  0  0
  131.2308  134.2102  158.0678 N   0  0  0  0  0  0  0  0  0  0  0  0
  131.5749  134.7708  157.3549 H   0  0  0  0  0  0  0  0  0  0  0  0
  132.0696  135.1956  162.1528 C   0  0  0  0  0  0  0  0  0  0  0  0
  132.4888  134.7764  165.3880 H   0  0  0  0  0  0  0  0  0  0  0  0
  133.1440  133.8811  164.1263 H   0  0  0  0  0  0  0  0  0  0  0  0
  131.0211  136.6583  165.0183 H   0  0  0  0  0  0  0  0  0  0  0  0
  129.8586  138.1010  163.3995 H   0  0  0  0  0  0  0  0  0  0  0  0
  127.6796  136.3367  161.4095 H   0  0  0  0  0  0  0  0  0  0  0  0
  126.2438  134.7566  160.1859 H   0  0  0  0  0  0  0  0  0  0  0  0
  126.5038  134.4835  157.7538 H   0  0  0  0  0  0  0  0  0  0  0  0
  128.2052  135.7822  156.5390 H   0  0  0  0  0  0  0  0  0  0  0  0
  129.6392  137.3733  157.7505 H   0  0  0  0  0  0  0  0  0  0  0  0
  131.9181  136.4511  159.2890 H   0  0  0  0  0  0  0  0  0  0  0  0
  129.9373  131.5355  159.3619 H   0  0  0  0  0  0  0  0  0  0  0  0
  130.4112  133.9518  155.4360 H   0  0  0  0  0  0  0  0  0  0  0  0
  130.2854  132.7028  153.3241 H   0  0  0  0  0  0  0  0  0  0  0  0
  129.2020  131.4606  152.1672 H   0  0  0  0  0  0  0  0  0  0  0  0
  130.2361  130.3125  149.9632 H   0  0  0  0  0  0  0  0  0  0  0  0
  128.5441  129.9312  150.3462 H   0  0  0  0  0  0  0  0  0  0  0  0
  129.5703  127.7109  150.0242 H   0  0  0  0  0  0  0  0  0  0  0  0
  130.8457  126.8347  151.7628 H   0  0  0  0  0  0  0  0  0  0  0  0
  132.2350  128.9391  152.6881 H   0  0  0  0  0  0  0  0  0  0  0  0
  131.0886  128.1823  153.8139 H   0  0  0  0  0  0  0  0  0  0  0  0
  130.7729  129.0230  155.4742 H   0  0  0  0  0  0  0  0  0  0  0  0
  130.9088  130.2749  157.5836 H   0  0  0  0  0  0  0  0  0  0  0  0
  132.6889  134.3814  161.8067 H   0  0  0  0  0  0  0  0  0  0  0  0
  1  2  1  0
  1 35  1  0
  1 36  1  0
  2 34  2  0
  2  3  1  0
  3  4  2  0
  3 37  1  0
  4  5  1  0
  4 38  1  0
  5  6  1  0
  5 13  2  0
  6  7  1  0
  7 12  1  0
  7  8  2  0
  8  9  1  0
  8 39  1  0
  9 10  2  0
  9 40  1  0
 10 11  1  0
 10 41  1  0
 11 12  2  0
 11 42  1  0
 12 43  1  0
 13 14  1  0
 13 34  1  0
 14 44  1  0
 15 14  1  0
 15 32  2  0
 15 16  1  0
 16 17  1  0
 16 18  1  0
 18 19  2  0
 18 45  1  0
 19 20  1  0
 19 32  1  0
 20 31  1  0
 20 21  2  0
 21 22  1  0
 21 46  1  0
 22 23  2  0
 22 47  1  0
 23 24  1  0
 23 30  1  0
 24 29  1  0
 24 25  2  0
 25 26  1  0
 25 48  1  0
 26 27  1  0
 26 49  1  0
 26 50  1  0
 27 28  2  0
 27 51  1  0
 28 29  1  0
 28 52  1  0
 29 53  1  0
 29 54  1  0
 30 31  2  0
 30 55  1  0
 31 56  1  0
 32 33  1  0
 34 57  1  0
M  CHG  1  32   1
M  END
>  <DOCK_score>  (1) 
-63.259365

>  <SMILES>  (1) 
Nc1ccc(Sc2ccccc2)c(Nc2[nH]cc(-c3ccc(C4=CCC=CC4)cc3)[nH+]2)c1

$$$$
