CCn1ncnc1C(C)Nc1ccccc1[C@H](C)Nc1[nH]c(C)c(C)[nH+]1
     RDKit          3D

 54 56  0  0  1  0  0  0  0  0999 V2000
  128.0087  140.0316  165.3396 C   0  0  0  0  0  0  0  0  0  0  0  0
  128.4431  138.5677  165.4337 C   0  0  0  0  0  0  0  0  0  0  0  0
  127.7052  137.7749  164.4474 N   0  0  0  0  0  0  0  0  0  0  0  0
  126.4714  137.1313  164.6375 N   0  0  0  0  0  0  0  0  0  0  0  0
  126.1779  136.5370  163.5108 C   0  0  0  0  0  0  0  0  0  0  0  0
  127.1491  136.7751  162.6303 N   0  0  0  0  0  0  0  0  0  0  0  0
  128.0726  137.5216  163.1794 C   0  0  0  0  0  0  0  0  0  0  0  0
  129.3321  138.0074  162.5091 C   0  0  2  0  0  0  0  0  0  0  0  0
  129.0773  138.1829  161.0107 C   0  0  0  0  0  0  0  0  0  0  0  0
  130.4019  137.0272  162.7109 N   0  0  0  0  0  0  0  0  0  0  0  0
  131.6718  137.2595  162.1777 C   0  0  0  0  0  0  0  0  0  0  0  0
  132.3909  138.3859  162.5576 C   0  0  0  0  0  0  0  0  0  0  0  0
  133.6462  138.6125  162.0289 C   0  0  0  0  0  0  0  0  0  0  0  0
  134.1878  137.7196  161.1221 C   0  0  0  0  0  0  0  0  0  0  0  0
  133.4748  136.5976  160.7418 C   0  0  0  0  0  0  0  0  0  0  0  0
  132.2165  136.3677  161.2629 C   0  0  0  0  0  0  0  0  0  0  0  0
  131.4377  135.1475  160.8435 C   0  0  2  0  0  0  0  0  0  0  0  0
  130.4774  135.1345  161.3589 H   0  0  0  0  0  0  0  0  0  0  0  0
  132.2282  133.8886  161.2058 C   0  0  0  0  0  0  0  0  0  0  0  0
  131.2146  135.1844  159.3961 N   0  0  0  0  0  0  0  0  0  0  0  0
  130.5178  134.1633  158.7781 C   0  0  0  0  0  0  0  0  0  0  0  0
  130.6931  133.7522  157.5256 N   0  0  0  0  0  0  0  0  0  0  0  0
  131.3298  134.1169  156.8910 H   0  0  0  0  0  0  0  0  0  0  0  0
  129.8271  132.7297  157.2888 C   0  0  0  0  0  0  0  0  0  0  0  0
  129.6848  131.9625  155.9995 C   0  0  0  0  0  0  0  0  0  0  0  0
  129.1178  132.5331  158.4133 C   0  0  0  0  0  0  0  0  0  0  0  0
  128.0351  131.5047  158.6161 C   0  0  0  0  0  0  0  0  0  0  0  0
  129.5566  133.4324  159.3355 N   0  0  0  0  0  0  0  0  0  0  0  0
  129.2259  133.5241  160.2428 H   0  0  0  0  0  0  0  0  0  0  0  0
  126.9399  140.1071  165.5391 H   0  0  0  0  0  0  0  0  0  0  0  0
  128.5578  140.6215  166.0735 H   0  0  0  0  0  0  0  0  0  0  0  0
  128.2191  140.4094  164.3391 H   0  0  0  0  0  0  0  0  0  0  0  0
  128.2328  138.1899  166.4343 H   0  0  0  0  0  0  0  0  0  0  0  0
  129.5120  138.4923  165.2342 H   0  0  0  0  0  0  0  0  0  0  0  0
  125.2921  135.9479  163.3242 H   0  0  0  0  0  0  0  0  0  0  0  0
  129.6284  138.9630  162.9417 H   0  0  0  0  0  0  0  0  0  0  0  0
  129.9880  138.5343  160.5261 H   0  0  0  0  0  0  0  0  0  0  0  0
  128.7807  137.2274  160.5782 H   0  0  0  0  0  0  0  0  0  0  0  0
  128.2812  138.9123  160.8605 H   0  0  0  0  0  0  0  0  0  0  0  0
  130.2284  136.2168  163.2150 H   0  0  0  0  0  0  0  0  0  0  0  0
  131.9685  139.0838  163.2654 H   0  0  0  0  0  0  0  0  0  0  0  0
  134.2060  139.4877  162.3241 H   0  0  0  0  0  0  0  0  0  0  0  0
  135.1700  137.8988  160.7104 H   0  0  0  0  0  0  0  0  0  0  0  0
  133.9005  135.9025  160.0333 H   0  0  0  0  0  0  0  0  0  0  0  0
  132.3941  133.8612  162.2828 H   0  0  0  0  0  0  0  0  0  0  0  0
  131.6648  133.0061  160.9025 H   0  0  0  0  0  0  0  0  0  0  0  0
  133.1885  133.9017  160.6904 H   0  0  0  0  0  0  0  0  0  0  0  0
  131.5559  135.9254  158.8714 H   0  0  0  0  0  0  0  0  0  0  0  0
  128.9481  132.4539  155.3638 H   0  0  0  0  0  0  0  0  0  0  0  0
  130.6458  131.9332  155.4862 H   0  0  0  0  0  0  0  0  0  0  0  0
  129.3573  130.9457  156.2160 H   0  0  0  0  0  0  0  0  0  0  0  0
  127.0714  131.9325  158.3399 H   0  0  0  0  0  0  0  0  0  0  0  0
  128.2388  130.6348  157.9918 H   0  0  0  0  0  0  0  0  0  0  0  0
  128.0119  131.2030  159.6632 H   0  0  0  0  0  0  0  0  0  0  0  0
  1  2  1  0
  1 30  1  0
  1 31  1  0
  1 32  1  0
  2  3  1  0
  2 33  1  0
  2 34  1  0
  3  7  1  0
  3  4  1  0
  4  5  2  0
  5  6  1  0
  5 35  1  0
  6  7  2  0
  7  8  1  0
  8  9  1  0
  8 10  1  0
  8 36  1  1
  9 37  1  0
  9 38  1  0
  9 39  1  0
 10 11  1  0
 10 40  1  0
 11 16  1  0
 11 12  2  0
 12 13  1  0
 12 41  1  0
 13 14  2  0
 13 42  1  0
 14 15  1  0
 14 43  1  0
 15 16  2  0
 15 44  1  0
 16 17  1  0
 17 18  1  1
 17 19  1  0
 17 20  1  0
 19 45  1  0
 19 46  1  0
 19 47  1  0
 20 48  1  0
 21 20  1  0
 21 28  1  0
 21 22  2  0
 22 23  1  0
 22 24  1  0
 24 25  1  0
 24 26  2  0
 25 49  1  0
 25 50  1  0
 25 51  1  0
 26 27  1  0
 26 28  1  0
 27 52  1  0
 27 53  1  0
 27 54  1  0
 28 29  1  0
M  CHG  1  22   1
M  END
>  <DOCK_score>  (1) 
-43.742619

>  <SMILES>  (1) 
CCn1ncnc1C(C)Nc1ccccc1[C@H](C)Nc1[nH]c(C)c(C)[nH+]1

$$$$
