CCc1ccc(-c2c[nH]c(N[C@@H](Cc3ccc(Br)cc3)c3ccnn3C)[nH+]2)cc1
     RDKit          3D

 54 57  0  0  1  0  0  0  0  0999 V2000
  130.5133  128.4817  151.5395 C   0  0  0  0  0  0  0  0  0  0  0  0
  131.6173  129.4771  151.9015 C   0  0  0  0  0  0  0  0  0  0  0  0
  131.2453  130.2002  153.1703 C   0  0  0  0  0  0  0  0  0  0  0  0
  131.6281  129.6843  154.3949 C   0  0  0  0  0  0  0  0  0  0  0  0
  131.2945  130.3449  155.5598 C   0  0  0  0  0  0  0  0  0  0  0  0
  130.5612  131.5287  155.5010 C   0  0  0  0  0  0  0  0  0  0  0  0
  130.1952  132.2405  156.7498 C   0  0  0  0  0  0  0  0  0  0  0  0
  129.4510  131.7380  157.7660 C   0  0  0  0  0  0  0  0  0  0  0  0
  129.3569  132.7248  158.7171 N   0  0  0  0  0  0  0  0  0  0  0  0
  128.8854  132.6646  159.5626 H   0  0  0  0  0  0  0  0  0  0  0  0
  130.0471  133.8024  158.2538 C   0  0  0  0  0  0  0  0  0  0  0  0
  130.1963  135.0094  158.9151 N   0  0  0  0  0  0  0  0  0  0  0  0
  129.1479  135.4818  159.8227 C   0  0  1  0  0  0  0  0  0  0  0  0
  129.0083  134.7576  160.6252 H   0  0  0  0  0  0  0  0  0  0  0  0
  129.5585  136.8301  160.4185 C   0  0  0  0  0  0  0  0  0  0  0  0
  130.8484  136.6702  161.1810 C   0  0  0  0  0  0  0  0  0  0  0  0
  131.7333  137.7285  161.2715 C   0  0  0  0  0  0  0  0  0  0  0  0
  132.9144  137.5839  161.9746 C   0  0  0  0  0  0  0  0  0  0  0  0
  133.2157  136.3767  162.5793 C   0  0  0  0  0  0  0  0  0  0  0  0
  134.8351  136.1759  163.5348 Br  0  0  0  0  0  0  0  0  0  0  0  0
  132.3325  135.3165  162.4839 C   0  0  0  0  0  0  0  0  0  0  0  0
  131.1492  135.4636  161.7849 C   0  0  0  0  0  0  0  0  0  0  0  0
  127.8578  135.6416  159.0602 C   0  0  0  0  0  0  0  0  0  0  0  0
  127.7396  135.9551  157.7493 C   0  0  0  0  0  0  0  0  0  0  0  0
  126.3765  136.0036  157.4395 C   0  0  0  0  0  0  0  0  0  0  0  0
  125.7006  135.7291  158.5257 N   0  0  0  0  0  0  0  0  0  0  0  0
  126.6137  135.4919  159.5612 N   0  0  0  0  0  0  0  0  0  0  0  0
  126.2775  135.1456  160.9443 C   0  0  0  0  0  0  0  0  0  0  0  0
  130.5508  133.5074  157.0803 N   0  0  0  0  0  0  0  0  0  0  0  0
  131.0901  134.1008  156.5345 H   0  0  0  0  0  0  0  0  0  0  0  0
  130.1736  132.0415  154.2644 C   0  0  0  0  0  0  0  0  0  0  0  0
  130.5173  131.3753  153.1057 C   0  0  0  0  0  0  0  0  0  0  0  0
  130.7824  127.9586  150.6218 H   0  0  0  0  0  0  0  0  0  0  0  0
  130.3959  127.7600  152.3480 H   0  0  0  0  0  0  0  0  0  0  0  0
  129.5755  129.0169  151.3912 H   0  0  0  0  0  0  0  0  0  0  0  0
  132.5551  128.9424  152.0496 H   0  0  0  0  0  0  0  0  0  0  0  0
  131.7346  130.1993  151.0928 H   0  0  0  0  0  0  0  0  0  0  0  0
  132.1926  128.7646  154.4395 H   0  0  0  0  0  0  0  0  0  0  0  0
  131.5979  129.9433  156.5154 H   0  0  0  0  0  0  0  0  0  0  0  0
  129.0153  130.7511  157.8176 H   0  0  0  0  0  0  0  0  0  0  0  0
  130.9950  135.5423  158.7776 H   0  0  0  0  0  0  0  0  0  0  0  0
  129.6981  137.5545  159.6161 H   0  0  0  0  0  0  0  0  0  0  0  0
  128.7783  137.1816  161.0936 H   0  0  0  0  0  0  0  0  0  0  0  0
  131.4998  138.6697  160.7959 H   0  0  0  0  0  0  0  0  0  0  0  0
  133.6040  138.4118  162.0484 H   0  0  0  0  0  0  0  0  0  0  0  0
  132.5672  134.3740  162.9561 H   0  0  0  0  0  0  0  0  0  0  0  0
  130.4597  134.6358  161.7103 H   0  0  0  0  0  0  0  0  0  0  0  0
  128.5539  136.1362  157.0633 H   0  0  0  0  0  0  0  0  0  0  0  0
  125.9547  136.2292  156.4713 H   0  0  0  0  0  0  0  0  0  0  0  0
  126.1725  136.0576  161.5320 H   0  0  0  0  0  0  0  0  0  0  0  0
  125.3389  134.5917  160.9623 H   0  0  0  0  0  0  0  0  0  0  0  0
  127.0709  134.5299  161.3679 H   0  0  0  0  0  0  0  0  0  0  0  0
  129.6051  132.9583  154.2129 H   0  0  0  0  0  0  0  0  0  0  0  0
  130.2172  131.7715  152.1468 H   0  0  0  0  0  0  0  0  0  0  0  0
  1  2  1  0
  1 33  1  0
  1 34  1  0
  1 35  1  0
  2  3  1  0
  2 36  1  0
  2 37  1  0
  3 32  2  0
  3  4  1  0
  4  5  2  0
  4 38  1  0
  5  6  1  0
  5 39  1  0
  6  7  1  0
  6 31  2  0
  7 29  1  0
  7  8  2  0
  8  9  1  0
  8 40  1  0
  9 10  1  0
  9 11  1  0
 11 12  1  0
 11 29  2  0
 12 13  1  0
 12 41  1  0
 13 14  1  1
 13 15  1  0
 13 23  1  0
 15 16  1  0
 15 42  1  0
 15 43  1  0
 16 22  1  0
 16 17  2  0
 17 18  1  0
 17 44  1  0
 18 19  2  0
 18 45  1  0
 19 20  1  0
 19 21  1  0
 21 22  2  0
 21 46  1  0
 22 47  1  0
 23 27  1  0
 23 24  2  0
 24 25  1  0
 24 48  1  0
 25 26  2  0
 25 49  1  0
 26 27  1  0
 27 28  1  0
 28 50  1  0
 28 51  1  0
 28 52  1  0
 29 30  1  0
 31 32  1  0
 31 53  1  0
 32 54  1  0
M  CHG  1  29   1
M  END
>  <DOCK_score>  (1) 
-60.106144

>  <SMILES>  (1) 
CCc1ccc(-c2c[nH]c(N[C@@H](Cc3ccc(Br)cc3)c3ccnn3C)[nH+]2)cc1

$$$$
