Nc1ccc(-c2c[nH]c(Nc3cc(N)ccc3[C@]3(O)CCC(=O)NC3)[nH+]2)cc1
     RDKit          3D

 51 54  0  0  1  0  0  0  0  0999 V2000
  131.1831  129.5408  151.9386 N   0  0  0  0  0  0  0  0  0  0  0  0
  130.9407  130.2174  153.1365 C   0  0  0  0  0  0  0  0  0  0  0  0
  130.0470  131.2818  153.1639 C   0  0  0  0  0  0  0  0  0  0  0  0
  129.8065  131.9511  154.3452 C   0  0  0  0  0  0  0  0  0  0  0  0
  130.4599  131.5593  155.5126 C   0  0  0  0  0  0  0  0  0  0  0  0
  130.2027  132.2779  156.7848 C   0  0  0  0  0  0  0  0  0  0  0  0
  129.7011  131.7338  157.9212 C   0  0  0  0  0  0  0  0  0  0  0  0
  129.6251  132.7458  158.8479 N   0  0  0  0  0  0  0  0  0  0  0  0
  129.3047  132.6669  159.7601 H   0  0  0  0  0  0  0  0  0  0  0  0
  130.0830  133.8790  158.2494 C   0  0  0  0  0  0  0  0  0  0  0  0
  130.1711  135.1270  158.8447 N   0  0  0  0  0  0  0  0  0  0  0  0
  129.2680  135.4877  159.8486 C   0  0  0  0  0  0  0  0  0  0  0  0
  127.9064  135.5159  159.5808 C   0  0  0  0  0  0  0  0  0  0  0  0
  127.0137  135.8801  160.5785 C   0  0  0  0  0  0  0  0  0  0  0  0
  125.6431  135.9153  160.3118 N   0  0  0  0  0  0  0  0  0  0  0  0
  127.4849  136.2104  161.8438 C   0  0  0  0  0  0  0  0  0  0  0  0
  128.8403  136.1766  162.1084 C   0  0  0  0  0  0  0  0  0  0  0  0
  129.7320  135.8144  161.1169 C   0  0  0  0  0  0  0  0  0  0  0  0
  131.2099  135.7794  161.4099 C   0  0  2  0  0  0  0  0  0  0  0  0
  131.8919  136.6884  160.5435 O   0  0  0  0  0  0  0  0  0  0  0  0
  131.7447  134.3592  161.1894 C   0  0  0  0  0  0  0  0  0  0  0  0
  133.2726  134.3957  161.3168 C   0  0  0  0  0  0  0  0  0  0  0  0
  133.6664  135.1305  162.5660 C   0  0  0  0  0  0  0  0  0  0  0  0
  134.7927  134.9793  162.9898 O   0  0  0  0  0  0  0  0  0  0  0  0
  132.8441  135.9404  163.2337 N   0  0  0  0  0  0  0  0  0  0  0  0
  131.4538  136.1776  162.8660 C   0  0  0  0  0  0  0  0  0  0  0  0
  130.4218  133.5962  157.0149 N   0  0  0  0  0  0  0  0  0  0  0  0
  130.7750  134.2287  156.3698 H   0  0  0  0  0  0  0  0  0  0  0  0
  131.3596  130.4950  155.4816 C   0  0  0  0  0  0  0  0  0  0  0  0
  131.5927  129.8249  154.2993 C   0  0  0  0  0  0  0  0  0  0  0  0
  130.7280  129.8144  151.1265 H   0  0  0  0  0  0  0  0  0  0  0  0
  131.8065  128.7983  151.9184 H   0  0  0  0  0  0  0  0  0  0  0  0
  129.5410  131.5849  152.2590 H   0  0  0  0  0  0  0  0  0  0  0  0
  129.1127  132.7785  154.3659 H   0  0  0  0  0  0  0  0  0  0  0  0
  129.4155  130.7028  158.0695 H   0  0  0  0  0  0  0  0  0  0  0  0
  130.8596  135.7504  158.5647 H   0  0  0  0  0  0  0  0  0  0  0  0
  127.5428  135.2589  158.5968 H   0  0  0  0  0  0  0  0  0  0  0  0
  125.0196  136.1704  161.0096 H   0  0  0  0  0  0  0  0  0  0  0  0
  125.3150  135.6848  159.4286 H   0  0  0  0  0  0  0  0  0  0  0  0
  126.7906  136.4939  162.6210 H   0  0  0  0  0  0  0  0  0  0  0  0
  129.2039  136.4344  163.0921 H   0  0  0  0  0  0  0  0  0  0  0  0
  132.8491  136.7168  160.6781 H   0  0  0  0  0  0  0  0  0  0  0  0
  131.3310  133.6901  161.9439 H   0  0  0  0  0  0  0  0  0  0  0  0
  131.4632  134.0113  160.1956 H   0  0  0  0  0  0  0  0  0  0  0  0
  133.6949  134.9035  160.4497 H   0  0  0  0  0  0  0  0  0  0  0  0
  133.6563  133.3764  161.3601 H   0  0  0  0  0  0  0  0  0  0  0  0
  133.1929  136.4003  164.0133 H   0  0  0  0  0  0  0  0  0  0  0  0
  131.2228  137.2353  162.9939 H   0  0  0  0  0  0  0  0  0  0  0  0
  130.8069  135.5866  163.5144 H   0  0  0  0  0  0  0  0  0  0  0  0
  131.8703  130.1926  156.3839 H   0  0  0  0  0  0  0  0  0  0  0  0
  132.2864  128.9974  154.2757 H   0  0  0  0  0  0  0  0  0  0  0  0
  1  2  1  0
  1 31  1  0
  1 32  1  0
  2 30  2  0
  2  3  1  0
  3  4  2  0
  3 33  1  0
  4  5  1  0
  4 34  1  0
  5  6  1  0
  5 29  2  0
  6 27  1  0
  6  7  2  0
  7  8  1  0
  7 35  1  0
  8  9  1  0
  8 10  1  0
 10 11  1  0
 10 27  2  0
 11 12  1  0
 11 36  1  0
 12 18  1  0
 12 13  2  0
 13 14  1  0
 13 37  1  0
 14 15  1  0
 14 16  2  0
 15 38  1  0
 15 39  1  0
 16 17  1  0
 16 40  1  0
 17 18  2  0
 17 41  1  0
 18 19  1  0
 19 26  1  0
 19 20  1  6
 19 21  1  0
 20 42  1  0
 21 22  1  0
 21 43  1  0
 21 44  1  0
 22 23  1  0
 22 45  1  0
 22 46  1  0
 23 24  2  0
 23 25  1  0
 25 26  1  0
 25 47  1  0
 26 48  1  0
 26 49  1  0
 27 28  1  0
 29 30  1  0
 29 50  1  0
 30 51  1  0
M  CHG  1  27   1
M  END
>  <DOCK_score>  (1) 
-53.989479

>  <SMILES>  (1) 
Nc1ccc(-c2c[nH]c(Nc3cc(N)ccc3[C@]3(O)CCC(=O)NC3)[nH+]2)cc1

$$$$
