CC(Nc1nc(C[NH2+][C@H]2C=CCCC2)no1)C1CCCCC1
     RDKit          3D

 51 53  0  0  1  0  0  0  0  0999 V2000
  125.1776  134.6976  162.9807 C   0  0  0  0  0  0  0  0  0  0  0  0
  126.3396  134.4455  162.0177 C   0  0  2  0  0  0  0  0  0  0  0  0
  126.5436  135.6288  161.1783 N   0  0  0  0  0  0  0  0  0  0  0  0
  127.7987  135.9286  160.7073 C   0  0  0  0  0  0  0  0  0  0  0  0
  128.9084  135.2459  160.9280 N   0  0  0  0  0  0  0  0  0  0  0  0
  129.8753  135.9105  160.2741 C   0  0  0  0  0  0  0  0  0  0  0  0
  131.3328  135.5321  160.2158 C   0  0  0  0  0  0  0  0  0  0  0  0
  131.5637  134.6486  159.0651 N   0  0  0  0  0  0  0  0  0  0  0  0
  132.5396  134.3952  159.0261 H   0  0  0  0  0  0  0  0  0  0  0  0
  131.3067  135.1287  158.2156 H   0  0  0  0  0  0  0  0  0  0  0  0
  130.7480  133.4353  159.2078 C   0  0  1  0  0  0  0  0  0  0  0  0
  129.7668  133.7037  159.5993 H   0  0  0  0  0  0  0  0  0  0  0  0
  130.5868  132.7835  157.8658 C   0  0  0  0  0  0  0  0  0  0  0  0
  130.6785  131.5083  157.6631 C   0  0  0  0  0  0  0  0  0  0  0  0
  130.9683  130.5045  158.7404 C   0  0  0  0  0  0  0  0  0  0  0  0
  130.7153  131.1243  160.1164 C   0  0  0  0  0  0  0  0  0  0  0  0
  131.4371  132.4758  160.1805 C   0  0  0  0  0  0  0  0  0  0  0  0
  129.3265  136.9426  159.7052 N   0  0  0  0  0  0  0  0  0  0  0  0
  128.1359  136.9708  159.9346 O   0  0  0  0  0  0  0  0  0  0  0  0
  126.0156  133.2412  161.1315 C   0  0  0  0  0  0  0  0  0  0  0  0
  125.8027  132.0055  162.0083 C   0  0  0  0  0  0  0  0  0  0  0  0
  125.4788  130.8011  161.1220 C   0  0  0  0  0  0  0  0  0  0  0  0
  126.6408  130.5492  160.1591 C   0  0  0  0  0  0  0  0  0  0  0  0
  126.8536  131.7849  159.2825 C   0  0  0  0  0  0  0  0  0  0  0  0
  127.1777  132.9892  160.1687 C   0  0  0  0  0  0  0  0  0  0  0  0
  125.4085  135.5556  163.6120 H   0  0  0  0  0  0  0  0  0  0  0  0
  124.2707  134.8994  162.4106 H   0  0  0  0  0  0  0  0  0  0  0  0
  125.0258  133.8172  163.6052 H   0  0  0  0  0  0  0  0  0  0  0  0
  127.2465  134.2437  162.5878 H   0  0  0  0  0  0  0  0  0  0  0  0
  125.7925  136.2005  160.9553 H   0  0  0  0  0  0  0  0  0  0  0  0
  131.6106  135.0137  161.1334 H   0  0  0  0  0  0  0  0  0  0  0  0
  131.9380  136.4325  160.1097 H   0  0  0  0  0  0  0  0  0  0  0  0
  130.3812  133.4177  157.0161 H   0  0  0  0  0  0  0  0  0  0  0  0
  130.5374  131.1440  156.6563 H   0  0  0  0  0  0  0  0  0  0  0  0
  130.3205  129.6375  158.6100 H   0  0  0  0  0  0  0  0  0  0  0  0
  132.0099  130.1909  158.6714 H   0  0  0  0  0  0  0  0  0  0  0  0
  129.6450  131.2716  160.2609 H   0  0  0  0  0  0  0  0  0  0  0  0
  131.1056  130.4658  160.8924 H   0  0  0  0  0  0  0  0  0  0  0  0
  132.4809  132.3499  159.8932 H   0  0  0  0  0  0  0  0  0  0  0  0
  131.3813  132.8771  161.1923 H   0  0  0  0  0  0  0  0  0  0  0  0
  125.1087  133.4430  160.5616 H   0  0  0  0  0  0  0  0  0  0  0  0
  126.7097  131.8038  162.5782 H   0  0  0  0  0  0  0  0  0  0  0  0
  124.9748  132.1850  162.6942 H   0  0  0  0  0  0  0  0  0  0  0  0
  124.5718  131.0029  160.5520 H   0  0  0  0  0  0  0  0  0  0  0  0
  125.3271  129.9208  161.7467 H   0  0  0  0  0  0  0  0  0  0  0  0
  126.4100  129.6911  159.5278 H   0  0  0  0  0  0  0  0  0  0  0  0
  127.5477  130.3474  160.7291 H   0  0  0  0  0  0  0  0  0  0  0  0
  125.9468  131.9866  158.7125 H   0  0  0  0  0  0  0  0  0  0  0  0
  127.6815  131.6054  158.5964 H   0  0  0  0  0  0  0  0  0  0  0  0
  127.3294  133.8696  159.5441 H   0  0  0  0  0  0  0  0  0  0  0  0
  128.0846  132.7875  160.7387 H   0  0  0  0  0  0  0  0  0  0  0  0
  1  2  1  0
  1 26  1  0
  1 27  1  0
  1 28  1  0
  2  3  1  0
  2 20  1  0
  2 29  1  1
  3  4  1  0
  3 30  1  0
  4 19  1  0
  4  5  2  0
  5  6  1  0
  6  7  1  0
  6 18  2  0
  7  8  1  0
  7 31  1  0
  7 32  1  0
  8  9  1  0
  8 10  1  0
  8 11  1  0
 11 12  1  1
 11 17  1  0
 11 13  1  0
 13 14  2  0
 13 33  1  0
 14 15  1  0
 14 34  1  0
 15 16  1  0
 15 35  1  0
 15 36  1  0
 16 17  1  0
 16 37  1  0
 16 38  1  0
 17 39  1  0
 17 40  1  0
 18 19  1  0
 20 25  1  0
 20 21  1  0
 20 41  1  0
 21 22  1  0
 21 42  1  0
 21 43  1  0
 22 23  1  0
 22 44  1  0
 22 45  1  0
 23 24  1  0
 23 46  1  0
 23 47  1  0
 24 25  1  0
 24 48  1  0
 24 49  1  0
 25 50  1  0
 25 51  1  0
M  CHG  1   8   1
M  END
>  <DOCK_score>  (1) 
-42.759308

>  <SMILES>  (1) 
CC(Nc1nc(C[NH2+][C@H]2C=CCCC2)no1)C1CCCCC1

$$$$
