O=C1CC[C@H](NC(NC2CC=CC2)=[NH+]Cc2ncccc2N[C@@H]2C=C[C@@H](O)[C@H]2O)CN1
     RDKit          3D

 62 65  0  0  1  0  0  0  0  0999 V2000
  124.2468  133.8217  162.3033 O   0  0  0  0  0  0  0  0  0  0  0  0
  125.4036  134.0770  162.0436 C   0  0  0  0  0  0  0  0  0  0  0  0
  126.2812  132.9660  161.5425 C   0  0  0  0  0  0  0  0  0  0  0  0
  127.7534  133.3592  161.6883 C   0  0  0  0  0  0  0  0  0  0  0  0
  127.9407  134.7646  161.1042 C   0  0  2  0  0  0  0  0  0  0  0  0
  127.5321  134.7982  160.0943 H   0  0  0  0  0  0  0  0  0  0  0  0
  129.3673  135.0958  161.0684 N   0  0  0  0  0  0  0  0  0  0  0  0
  130.1173  134.7861  159.9586 C   0  0  0  0  0  0  0  0  0  0  0  0
  129.5286  134.1656  158.8823 N   0  0  0  0  0  0  0  0  0  0  0  0
  130.3279  133.8358  157.6997 C   0  0  0  0  0  0  0  0  0  0  0  0
  129.4306  133.6713  156.4512 C   0  0  0  0  0  0  0  0  0  0  0  0
  130.0556  132.5335  155.6767 C   0  0  0  0  0  0  0  0  0  0  0  0
  130.8812  131.8531  156.4246 C   0  0  0  0  0  0  0  0  0  0  0  0
  130.9443  132.4228  157.8227 C   0  0  0  0  0  0  0  0  0  0  0  0
  131.3865  135.0810  159.9268 N   0  0  0  0  0  0  0  0  0  0  0  0
  131.9158  134.8626  159.1438 H   0  0  0  0  0  0  0  0  0  0  0  0
  132.0139  135.7424  161.0737 C   0  0  0  0  0  0  0  0  0  0  0  0
  131.3384  137.0668  161.3210 C   0  0  0  0  0  0  0  0  0  0  0  0
  130.3036  137.1296  162.1350 N   0  0  0  0  0  0  0  0  0  0  0  0
  129.6817  138.2657  162.3817 C   0  0  0  0  0  0  0  0  0  0  0  0
  130.0949  139.4453  161.7900 C   0  0  0  0  0  0  0  0  0  0  0  0
  131.1782  139.4261  160.9275 C   0  0  0  0  0  0  0  0  0  0  0  0
  131.8161  138.2099  160.6931 C   0  0  0  0  0  0  0  0  0  0  0  0
  132.9165  138.1403  159.8351 N   0  0  0  0  0  0  0  0  0  0  0  0
  133.8110  139.2920  159.6962 C   0  0  2  0  0  0  0  0  0  0  0  0
  133.2596  140.1582  159.3306 H   0  0  0  0  0  0  0  0  0  0  0  0
  134.9525  138.9623  158.7625 C   0  0  0  0  0  0  0  0  0  0  0  0
  136.0913  139.3757  159.2483 C   0  0  0  0  0  0  0  0  0  0  0  0
  135.8993  140.0500  160.5868 C   0  0  1  0  0  0  0  0  0  0  0  0
  136.6547  139.7098  161.2952 H   0  0  0  0  0  0  0  0  0  0  0  0
  135.9580  141.4704  160.4417 O   0  0  0  0  0  0  0  0  0  0  0  0
  134.4871  139.6153  161.0488 C   0  0  1  0  0  0  0  0  0  0  0  0
  134.5383  138.7297  161.6822 H   0  0  0  0  0  0  0  0  0  0  0  0
  133.8123  140.6830  161.7173 O   0  0  0  0  0  0  0  0  0  0  0  0
  127.2000  135.7661  161.9911 C   0  0  0  0  0  0  0  0  0  0  0  0
  125.8284  135.3289  162.2189 N   0  0  0  0  0  0  0  0  0  0  0  0
  126.0596  132.7761  160.4923 H   0  0  0  0  0  0  0  0  0  0  0  0
  126.0888  132.0625  162.1210 H   0  0  0  0  0  0  0  0  0  0  0  0
  128.3782  132.6498  161.1456 H   0  0  0  0  0  0  0  0  0  0  0  0
  128.0303  133.3601  162.7426 H   0  0  0  0  0  0  0  0  0  0  0  0
  129.7827  135.5336  161.8277 H   0  0  0  0  0  0  0  0  0  0  0  0
  128.5840  133.9463  158.9057 H   0  0  0  0  0  0  0  0  0  0  0  0
  131.1003  134.5860  157.5304 H   0  0  0  0  0  0  0  0  0  0  0  0
  128.4128  133.4158  156.7461 H   0  0  0  0  0  0  0  0  0  0  0  0
  129.4364  134.5847  155.8564 H   0  0  0  0  0  0  0  0  0  0  0  0
  129.8465  132.3126  154.6404 H   0  0  0  0  0  0  0  0  0  0  0  0
  131.4448  130.9955  156.0884 H   0  0  0  0  0  0  0  0  0  0  0  0
  131.9787  132.4878  158.1600 H   0  0  0  0  0  0  0  0  0  0  0  0
  130.3581  131.8113  158.5086 H   0  0  0  0  0  0  0  0  0  0  0  0
  131.9118  135.1122  161.9571 H   0  0  0  0  0  0  0  0  0  0  0  0
  133.0708  135.9070  160.8649 H   0  0  0  0  0  0  0  0  0  0  0  0
  128.8373  138.2753  163.0551 H   0  0  0  0  0  0  0  0  0  0  0  0
  129.5790  140.3709  161.9983 H   0  0  0  0  0  0  0  0  0  0  0  0
  131.5226  140.3323  160.4512 H   0  0  0  0  0  0  0  0  0  0  0  0
  133.0881  137.3292  159.3314 H   0  0  0  0  0  0  0  0  0  0  0  0
  134.8408  138.4514  157.8177 H   0  0  0  0  0  0  0  0  0  0  0  0
  137.0457  139.2517  158.7580 H   0  0  0  0  0  0  0  0  0  0  0  0
  135.8187  141.9559  161.2662 H   0  0  0  0  0  0  0  0  0  0  0  0
  132.8840  140.4987  161.9153 H   0  0  0  0  0  0  0  0  0  0  0  0
  127.7151  135.8497  162.9480 H   0  0  0  0  0  0  0  0  0  0  0  0
  127.1880  136.7402  161.5021 H   0  0  0  0  0  0  0  0  0  0  0  0
  125.1840  135.9901  162.5163 H   0  0  0  0  0  0  0  0  0  0  0  0
  1  2  2  0
  2 36  1  0
  2  3  1  0
  3  4  1  0
  3 37  1  0
  3 38  1  0
  4  5  1  0
  4 39  1  0
  4 40  1  0
  5  6  1  6
  5  7  1  0
  5 35  1  0
  7 41  1  0
  8  7  1  0
  8  9  1  0
  8 15  2  0
  9 10  1  0
  9 42  1  0
 10 14  1  0
 10 11  1  0
 10 43  1  0
 11 12  1  0
 11 44  1  0
 11 45  1  0
 12 13  2  0
 12 46  1  0
 13 14  1  0
 13 47  1  0
 14 48  1  0
 14 49  1  0
 15 16  1  0
 15 17  1  0
 17 18  1  0
 17 50  1  0
 17 51  1  0
 18 23  1  0
 18 19  2  0
 19 20  1  0
 20 21  2  0
 20 52  1  0
 21 22  1  0
 21 53  1  0
 22 23  2  0
 22 54  1  0
 23 24  1  0
 24 25  1  0
 24 55  1  0
 25 26  1  6
 25 32  1  0
 25 27  1  0
 27 28  2  0
 27 56  1  0
 28 29  1  0
 28 57  1  0
 29 30  1  1
 29 31  1  0
 29 32  1  0
 31 58  1  0
 32 33  1  1
 32 34  1  0
 34 59  1  0
 35 36  1  0
 35 60  1  0
 35 61  1  0
 36 62  1  0
M  CHG  1  15   1
M  END
>  <DOCK_score>  (1) 
-52.117191

>  <SMILES>  (1) 
O=C1CC[C@H](NC(NC2CC=CC2)=[NH+]Cc2ncccc2N[C@@H]2C=C[C@@H](O)[C@H]2O)CN1

$$$$
