CCc1ccc(-c2c[nH]c(N[C@H](CNc3cc(Cl)c(Cl)cc3Cl)Cc3ccccc3)[nH+]2)cc1
     RDKit          3D

 59 62  0  0  1  0  0  0  0  0999 V2000
  130.1754  128.2303  151.3555 C   0  0  0  0  0  0  0  0  0  0  0  0
  131.1685  129.3841  151.5075 C   0  0  0  0  0  0  0  0  0  0  0  0
  130.9043  130.1070  152.8031 C   0  0  0  0  0  0  0  0  0  0  0  0
  131.5483  129.7059  153.9592 C   0  0  0  0  0  0  0  0  0  0  0  0
  131.3147  130.3678  155.1476 C   0  0  0  0  0  0  0  0  0  0  0  0
  130.4190  131.4350  155.1834 C   0  0  0  0  0  0  0  0  0  0  0  0
  130.1595  132.1467  156.4587 C   0  0  0  0  0  0  0  0  0  0  0  0
  129.6679  131.5940  157.5954 C   0  0  0  0  0  0  0  0  0  0  0  0
  129.5859  132.6017  158.5254 N   0  0  0  0  0  0  0  0  0  0  0  0
  129.2695  132.5165  159.4383 H   0  0  0  0  0  0  0  0  0  0  0  0
  130.0303  133.7416  157.9294 C   0  0  0  0  0  0  0  0  0  0  0  0
  130.1083  134.9872  158.5286 N   0  0  0  0  0  0  0  0  0  0  0  0
  129.6910  135.1568  159.9226 C   0  0  2  0  0  0  0  0  0  0  0  0
  128.7921  134.5685  160.1069 H   0  0  0  0  0  0  0  0  0  0  0  0
  129.3975  136.6343  160.1909 C   0  0  0  0  0  0  0  0  0  0  0  0
  130.6057  137.4251  159.9430 N   0  0  0  0  0  0  0  0  0  0  0  0
  130.8287  138.6043  160.6603 C   0  0  0  0  0  0  0  0  0  0  0  0
  129.7701  139.2475  161.2877 C   0  0  0  0  0  0  0  0  0  0  0  0
  129.9935  140.4132  161.9960 C   0  0  0  0  0  0  0  0  0  0  0  0
  128.6706  141.2182  162.7808 Cl  0  0  0  0  0  0  0  0  0  0  0  0
  131.2717  140.9400  162.0800 C   0  0  0  0  0  0  0  0  0  0  0  0
  131.5488  142.4044  162.9699 Cl  0  0  0  0  0  0  0  0  0  0  0  0
  132.3282  140.3008  161.4561 C   0  0  0  0  0  0  0  0  0  0  0  0
  132.1113  139.1316  160.7513 C   0  0  0  0  0  0  0  0  0  0  0  0
  133.4388  138.3267  159.9743 Cl  0  0  0  0  0  0  0  0  0  0  0  0
  130.8104  134.6825  160.8514 C   0  0  0  0  0  0  0  0  0  0  0  0
  130.2408  134.3892  162.2155 C   0  0  0  0  0  0  0  0  0  0  0  0
  130.1910  135.3854  163.1725 C   0  0  0  0  0  0  0  0  0  0  0  0
  129.6642  135.1176  164.4221 C   0  0  0  0  0  0  0  0  0  0  0  0
  129.1966  133.8508  164.7182 C   0  0  0  0  0  0  0  0  0  0  0  0
  129.2512  132.8533  163.7628 C   0  0  0  0  0  0  0  0  0  0  0  0
  129.7733  133.1224  162.5114 C   0  0  0  0  0  0  0  0  0  0  0  0
  130.3776  133.4645  156.6963 N   0  0  0  0  0  0  0  0  0  0  0  0
  130.7317  134.1006  156.0552 H   0  0  0  0  0  0  0  0  0  0  0  0
  129.7684  131.8314  154.0163 C   0  0  0  0  0  0  0  0  0  0  0  0
  130.0141  131.1660  152.8324 C   0  0  0  0  0  0  0  0  0  0  0  0
  130.3664  127.7075  150.4183 H   0  0  0  0  0  0  0  0  0  0  0  0
  130.2940  127.5375  152.1886 H   0  0  0  0  0  0  0  0  0  0  0  0
  129.1588  128.6234  151.3517 H   0  0  0  0  0  0  0  0  0  0  0  0
  132.1847  128.9915  151.5108 H   0  0  0  0  0  0  0  0  0  0  0  0
  131.0496  130.0775  150.6739 H   0  0  0  0  0  0  0  0  0  0  0  0
  132.2385  128.8758  153.9314 H   0  0  0  0  0  0  0  0  0  0  0  0
  131.8216  130.0565  156.0490 H   0  0  0  0  0  0  0  0  0  0  0  0
  129.3931  130.5599  157.7412 H   0  0  0  0  0  0  0  0  0  0  0  0
  130.4393  135.7476  158.0254 H   0  0  0  0  0  0  0  0  0  0  0  0
  128.6000  136.9723  159.5291 H   0  0  0  0  0  0  0  0  0  0  0  0
  129.0871  136.7606  161.2280 H   0  0  0  0  0  0  0  0  0  0  0  0
  131.2509  137.1304  159.2812 H   0  0  0  0  0  0  0  0  0  0  0  0
  128.7732  138.8372  161.2225 H   0  0  0  0  0  0  0  0  0  0  0  0
  133.3240  140.7133  161.5234 H   0  0  0  0  0  0  0  0  0  0  0  0
  131.2617  133.7779  160.4439 H   0  0  0  0  0  0  0  0  0  0  0  0
  131.5685  135.4614  160.9340 H   0  0  0  0  0  0  0  0  0  0  0  0
  130.5605  136.3739  162.9427 H   0  0  0  0  0  0  0  0  0  0  0  0
  129.6218  135.8969  165.1687 H   0  0  0  0  0  0  0  0  0  0  0  0
  128.7890  133.6405  165.6959 H   0  0  0  0  0  0  0  0  0  0  0  0
  128.8862  131.8635  163.9942 H   0  0  0  0  0  0  0  0  0  0  0  0
  129.8162  132.3429  161.7651 H   0  0  0  0  0  0  0  0  0  0  0  0
  129.0733  132.6577  154.0382 H   0  0  0  0  0  0  0  0  0  0  0  0
  129.5104  131.4721  151.9274 H   0  0  0  0  0  0  0  0  0  0  0  0
  1  2  1  0
  1 37  1  0
  1 38  1  0
  1 39  1  0
  2  3  1  0
  2 40  1  0
  2 41  1  0
  3 36  2  0
  3  4  1  0
  4  5  2  0
  4 42  1  0
  5  6  1  0
  5 43  1  0
  6  7  1  0
  6 35  2  0
  7 33  1  0
  7  8  2  0
  8  9  1  0
  8 44  1  0
  9 10  1  0
  9 11  1  0
 11 12  1  0
 11 33  2  0
 12 13  1  0
 12 45  1  0
 13 14  1  6
 13 15  1  0
 13 26  1  0
 15 16  1  0
 15 46  1  0
 15 47  1  0
 16 17  1  0
 16 48  1  0
 17 24  1  0
 17 18  2  0
 18 19  1  0
 18 49  1  0
 19 20  1  0
 19 21  2  0
 21 22  1  0
 21 23  1  0
 23 24  2  0
 23 50  1  0
 24 25  1  0
 26 27  1  0
 26 51  1  0
 26 52  1  0
 27 32  1  0
 27 28  2  0
 28 29  1  0
 28 53  1  0
 29 30  2  0
 29 54  1  0
 30 31  1  0
 30 55  1  0
 31 32  2  0
 31 56  1  0
 32 57  1  0
 33 34  1  0
 35 36  1  0
 35 58  1  0
 36 59  1  0
M  CHG  1  33   1
M  END
>  <DOCK_score>  (1) 
-65.022743

>  <SMILES>  (1) 
CCc1ccc(-c2c[nH]c(N[C@H](CNc3cc(Cl)c(Cl)cc3Cl)Cc3ccccc3)[nH+]2)cc1

$$$$
