Nc1ccc(-c2ccc(Nc3ccc(-c4n[nH]cc4C[NH2+][C@@H]4CC45CCCC5)o3)cc2)cc1
     RDKit          3D

 63 68  0  0  1  0  0  0  0  0999 V2000
  131.1742  140.8659  169.1473 N   0  0  0  0  0  0  0  0  0  0  0  0
  130.4731  140.2116  168.1324 C   0  0  0  0  0  0  0  0  0  0  0  0
  129.8719  140.9482  167.1182 C   0  0  0  0  0  0  0  0  0  0  0  0
  129.1793  140.3043  166.1151 C   0  0  0  0  0  0  0  0  0  0  0  0
  129.0823  138.9135  166.1181 C   0  0  0  0  0  0  0  0  0  0  0  0
  128.3372  138.2185  165.0403 C   0  0  0  0  0  0  0  0  0  0  0  0
  128.7121  136.9341  164.6486 C   0  0  0  0  0  0  0  0  0  0  0  0
  128.0180  136.2898  163.6469 C   0  0  0  0  0  0  0  0  0  0  0  0
  126.9446  136.9200  163.0272 C   0  0  0  0  0  0  0  0  0  0  0  0
  126.2432  136.2659  162.0127 N   0  0  0  0  0  0  0  0  0  0  0  0
  126.8950  135.3475  161.1978 C   0  0  0  0  0  0  0  0  0  0  0  0
  126.3263  134.2644  160.6114 C   0  0  0  0  0  0  0  0  0  0  0  0
  127.3392  133.6134  159.8805 C   0  0  0  0  0  0  0  0  0  0  0  0
  128.4781  134.3338  160.0580 C   0  0  0  0  0  0  0  0  0  0  0  0
  129.7992  134.0217  159.4747 C   0  0  0  0  0  0  0  0  0  0  0  0
  130.0803  132.9984  158.6921 N   0  0  0  0  0  0  0  0  0  0  0  0
  131.4390  133.0663  158.3592 N   0  0  0  0  0  0  0  0  0  0  0  0
  131.9183  132.4400  157.7943 H   0  0  0  0  0  0  0  0  0  0  0  0
  131.9656  134.1575  158.9562 C   0  0  0  0  0  0  0  0  0  0  0  0
  130.9841  134.7660  159.6558 C   0  0  0  0  0  0  0  0  0  0  0  0
  131.1272  136.0205  160.4785 C   0  0  0  0  0  0  0  0  0  0  0  0
  130.8633  137.1929  159.6336 N   0  0  0  0  0  0  0  0  0  0  0  0
  129.9257  137.1375  159.2649 H   0  0  0  0  0  0  0  0  0  0  0  0
  131.5237  137.2136  158.8711 H   0  0  0  0  0  0  0  0  0  0  0  0
  131.0027  138.4157  160.4355 C   0  0  2  0  0  0  0  0  0  0  0  0
  130.6031  138.3620  161.4482 H   0  0  0  0  0  0  0  0  0  0  0  0
  130.8983  139.7567  159.7043 C   0  0  0  0  0  0  0  0  0  0  0  0
  132.2499  139.2661  160.2142 C   0  0  0  0  0  0  0  0  0  0  0  0
  132.9474  139.9635  161.3952 C   0  0  0  0  0  0  0  0  0  0  0  0
  134.3851  139.3850  161.3783 C   0  0  0  0  0  0  0  0  0  0  0  0
  134.6900  139.2660  159.8641 C   0  0  0  0  0  0  0  0  0  0  0  0
  133.3497  138.8200  159.2411 C   0  0  0  0  0  0  0  0  0  0  0  0
  128.1965  135.3796  160.8630 O   0  0  0  0  0  0  0  0  0  0  0  0
  126.5724  138.2031  163.4127 C   0  0  0  0  0  0  0  0  0  0  0  0
  127.2606  138.8488  164.4176 C   0  0  0  0  0  0  0  0  0  0  0  0
  129.6819  138.1772  167.1389 C   0  0  0  0  0  0  0  0  0  0  0  0
  130.3776  138.8249  168.1375 C   0  0  0  0  0  0  0  0  0  0  0  0
  131.2414  141.8335  169.1444 H   0  0  0  0  0  0  0  0  0  0  0  0
  131.5938  140.3528  169.8554 H   0  0  0  0  0  0  0  0  0  0  0  0
  129.9473  142.0255  167.1164 H   0  0  0  0  0  0  0  0  0  0  0  0
  128.7118  140.8769  165.3276 H   0  0  0  0  0  0  0  0  0  0  0  0
  129.5456  136.4440  165.1298 H   0  0  0  0  0  0  0  0  0  0  0  0
  128.3078  135.2946  163.3435 H   0  0  0  0  0  0  0  0  0  0  0  0
  125.3011  136.4522  161.8765 H   0  0  0  0  0  0  0  0  0  0  0  0
  125.2934  133.9591  160.6906 H   0  0  0  0  0  0  0  0  0  0  0  0
  127.2315  132.7143  159.2919 H   0  0  0  0  0  0  0  0  0  0  0  0
  132.9926  134.4847  158.8880 H   0  0  0  0  0  0  0  0  0  0  0  0
  132.1402  136.0802  160.8767 H   0  0  0  0  0  0  0  0  0  0  0  0
  130.4137  135.9982  161.3022 H   0  0  0  0  0  0  0  0  0  0  0  0
  130.7269  139.7312  158.6281 H   0  0  0  0  0  0  0  0  0  0  0  0
  130.4300  140.5849  160.2359 H   0  0  0  0  0  0  0  0  0  0  0  0
  132.9680  141.0427  161.2433 H   0  0  0  0  0  0  0  0  0  0  0  0
  132.4479  139.7184  162.3326 H   0  0  0  0  0  0  0  0  0  0  0  0
  134.4127  138.4055  161.8558 H   0  0  0  0  0  0  0  0  0  0  0  0
  135.0847  140.0678  161.8605 H   0  0  0  0  0  0  0  0  0  0  0  0
  135.4609  138.5157  159.6881 H   0  0  0  0  0  0  0  0  0  0  0  0
  134.9974  140.2298  159.4581 H   0  0  0  0  0  0  0  0  0  0  0  0
  133.3321  137.7360  159.1282 H   0  0  0  0  0  0  0  0  0  0  0  0
  133.2088  139.2990  158.2722 H   0  0  0  0  0  0  0  0  0  0  0  0
  125.7410  138.6925  162.9273 H   0  0  0  0  0  0  0  0  0  0  0  0
  126.9684  139.8437  164.7198 H   0  0  0  0  0  0  0  0  0  0  0  0
  129.6043  137.1000  167.1456 H   0  0  0  0  0  0  0  0  0  0  0  0
  130.8456  138.2548  168.9263 H   0  0  0  0  0  0  0  0  0  0  0  0
  1  2  1  0
  1 38  1  0
  1 39  1  0
  2 37  2  0
  2  3  1  0
  3  4  2  0
  3 40  1  0
  4  5  1  0
  4 41  1  0
  5  6  1  0
  5 36  2  0
  6 35  1  0
  6  7  2  0
  7  8  1  0
  7 42  1  0
  8  9  2  0
  8 43  1  0
  9 10  1  0
  9 34  1  0
 10 11  1  0
 10 44  1  0
 11 33  1  0
 11 12  2  0
 12 13  1  0
 12 45  1  0
 13 14  2  0
 13 46  1  0
 14 15  1  0
 14 33  1  0
 15 20  1  0
 15 16  2  0
 16 17  1  0
 17 18  1  0
 17 19  1  0
 19 20  2  0
 19 47  1  0
 20 21  1  0
 21 22  1  0
 21 48  1  0
 21 49  1  0
 22 23  1  0
 22 24  1  0
 22 25  1  0
 25 26  1  1
 25 28  1  0
 25 27  1  0
 27 28  1  0
 27 50  1  0
 27 51  1  0
 28 32  1  0
 28 29  1  0
 29 30  1  0
 29 52  1  0
 29 53  1  0
 30 31  1  0
 30 54  1  0
 30 55  1  0
 31 32  1  0
 31 56  1  0
 31 57  1  0
 32 58  1  0
 32 59  1  0
 34 35  2  0
 34 60  1  0
 35 61  1  0
 36 37  1  0
 36 62  1  0
 37 63  1  0
M  CHG  1  22   1
M  END
>  <DOCK_score>  (1) 
-46.33548

>  <SMILES>  (1) 
Nc1ccc(-c2ccc(Nc3ccc(-c4n[nH]cc4C[NH2+][C@@H]4CC45CCCC5)o3)cc2)cc1

$$$$
