Fc1ccc(-c2c[nH]c(NCC(Cc3ccccc3)Cc3ccccc3)[nH+]2)cc1
     RDKit          3D

 54 57  0  0  1  0  0  0  0  0999 V2000
  131.6840  129.1513  151.4706 F   0  0  0  0  0  0  0  0  0  0  0  0
  131.3315  129.8692  152.5594 C   0  0  0  0  0  0  0  0  0  0  0  0
  130.5110  130.9771  152.4203 C   0  0  0  0  0  0  0  0  0  0  0  0
  130.1485  131.7132  153.5295 C   0  0  0  0  0  0  0  0  0  0  0  0
  130.6084  131.3407  154.7914 C   0  0  0  0  0  0  0  0  0  0  0  0
  130.2213  132.1290  155.9870 C   0  0  0  0  0  0  0  0  0  0  0  0
  129.5401  131.6638  157.0632 C   0  0  0  0  0  0  0  0  0  0  0  0
  129.4005  132.7183  157.9331 N   0  0  0  0  0  0  0  0  0  0  0  0
  128.9590  132.6965  158.7964 H   0  0  0  0  0  0  0  0  0  0  0  0
  129.9932  133.8000  157.3579 C   0  0  0  0  0  0  0  0  0  0  0  0
  130.0688  135.0670  157.9106 N   0  0  0  0  0  0  0  0  0  0  0  0
  129.1409  135.4587  158.9745 C   0  0  0  0  0  0  0  0  0  0  0  0
  129.7470  135.1078  160.3348 C   0  0  0  0  0  0  0  0  0  0  0  0
  128.6369  135.0399  161.3855 C   0  0  0  0  0  0  0  0  0  0  0  0
  127.6375  133.9823  160.9930 C   0  0  0  0  0  0  0  0  0  0  0  0
  126.5529  134.3157  160.2034 C   0  0  0  0  0  0  0  0  0  0  0  0
  125.6365  133.3456  159.8428 C   0  0  0  0  0  0  0  0  0  0  0  0
  125.8039  132.0426  160.2731 C   0  0  0  0  0  0  0  0  0  0  0  0
  126.8889  131.7092  161.0622 C   0  0  0  0  0  0  0  0  0  0  0  0
  127.8058  132.6792  161.4219 C   0  0  0  0  0  0  0  0  0  0  0  0
  130.7615  136.1814  160.7334 C   0  0  0  0  0  0  0  0  0  0  0  0
  131.6950  135.6271  161.7787 C   0  0  0  0  0  0  0  0  0  0  0  0
  131.3861  135.7570  163.1198 C   0  0  0  0  0  0  0  0  0  0  0  0
  132.2400  135.2444  164.0785 C   0  0  0  0  0  0  0  0  0  0  0  0
  133.4075  134.6107  163.6963 C   0  0  0  0  0  0  0  0  0  0  0  0
  133.7192  134.4859  162.3554 C   0  0  0  0  0  0  0  0  0  0  0  0
  132.8628  134.9938  161.3965 C   0  0  0  0  0  0  0  0  0  0  0  0
  130.4854  133.4430  156.1968 N   0  0  0  0  0  0  0  0  0  0  0  0
  130.9624  134.0254  155.5851 H   0  0  0  0  0  0  0  0  0  0  0  0
  131.4378  130.2287  154.9258 C   0  0  0  0  0  0  0  0  0  0  0  0
  131.7910  129.4953  153.8116 C   0  0  0  0  0  0  0  0  0  0  0  0
  130.1549  131.2651  151.4422 H   0  0  0  0  0  0  0  0  0  0  0  0
  129.5089  132.5766  153.4203 H   0  0  0  0  0  0  0  0  0  0  0  0
  129.1796  130.6563  157.2103 H   0  0  0  0  0  0  0  0  0  0  0  0
  130.7362  135.6956  157.5935 H   0  0  0  0  0  0  0  0  0  0  0  0
  128.1982  134.9263  158.8486 H   0  0  0  0  0  0  0  0  0  0  0  0
  128.9615  136.5327  158.9229 H   0  0  0  0  0  0  0  0  0  0  0  0
  130.2469  134.1412  160.2714 H   0  0  0  0  0  0  0  0  0  0  0  0
  128.1371  136.0064  161.4490 H   0  0  0  0  0  0  0  0  0  0  0  0
  129.0686  134.7899  162.3546 H   0  0  0  0  0  0  0  0  0  0  0  0
  126.4190  135.3347  159.8719 H   0  0  0  0  0  0  0  0  0  0  0  0
  124.7888  133.6060  159.2264 H   0  0  0  0  0  0  0  0  0  0  0  0
  125.0878  131.2847  159.9915 H   0  0  0  0  0  0  0  0  0  0  0  0
  127.0202  130.6910  161.3973 H   0  0  0  0  0  0  0  0  0  0  0  0
  128.6534  132.4188  162.0384 H   0  0  0  0  0  0  0  0  0  0  0  0
  131.3353  136.4824  159.8568 H   0  0  0  0  0  0  0  0  0  0  0  0
  130.2355  137.0462  161.1378 H   0  0  0  0  0  0  0  0  0  0  0  0
  130.4759  136.2557  163.4184 H   0  0  0  0  0  0  0  0  0  0  0  0
  131.9966  135.3422  165.1261 H   0  0  0  0  0  0  0  0  0  0  0  0
  134.0764  134.2135  164.4454 H   0  0  0  0  0  0  0  0  0  0  0  0
  134.6316  133.9911  162.0568 H   0  0  0  0  0  0  0  0  0  0  0  0
  133.1062  134.8963  160.3489 H   0  0  0  0  0  0  0  0  0  0  0  0
  131.8004  129.9394  155.9011 H   0  0  0  0  0  0  0  0  0  0  0  0
  132.4304  128.6312  153.9154 H   0  0  0  0  0  0  0  0  0  0  0  0
  1  2  1  0
  2 31  2  0
  2  3  1  0
  3  4  2  0
  3 32  1  0
  4  5  1  0
  4 33  1  0
  5  6  1  0
  5 30  2  0
  6 28  1  0
  6  7  2  0
  7  8  1  0
  7 34  1  0
  8  9  1  0
  8 10  1  0
 10 11  1  0
 10 28  2  0
 11 12  1  0
 11 35  1  0
 12 13  1  0
 12 36  1  0
 12 37  1  0
 13 14  1  0
 13 21  1  0
 13 38  1  0
 14 15  1  0
 14 39  1  0
 14 40  1  0
 15 20  1  0
 15 16  2  0
 16 17  1  0
 16 41  1  0
 17 18  2  0
 17 42  1  0
 18 19  1  0
 18 43  1  0
 19 20  2  0
 19 44  1  0
 20 45  1  0
 21 22  1  0
 21 46  1  0
 21 47  1  0
 22 27  1  0
 22 23  2  0
 23 24  1  0
 23 48  1  0
 24 25  2  0
 24 49  1  0
 25 26  1  0
 25 50  1  0
 26 27  2  0
 26 51  1  0
 27 52  1  0
 28 29  1  0
 30 31  1  0
 30 53  1  0
 31 54  1  0
M  CHG  1  28   1
M  END
>  <DOCK_score>  (1) 
-56.795296

>  <SMILES>  (1) 
Fc1ccc(-c2c[nH]c(NCC(Cc3ccccc3)Cc3ccccc3)[nH+]2)cc1

$$$$
