CC1C[C@H]1[NH2+]Cc1c[nH]nc1-c1ccc(NCC2=CCCC2)o1
     RDKit          3D

 48 51  0  0  1  0  0  0  0  0999 V2000
  133.6803  137.8012  159.9501 C   0  0  0  0  0  0  0  0  0  0  0  0
  132.6199  138.6078  160.7023 C   0  0  1  0  0  0  0  0  0  0  0  0
  131.6693  139.4725  159.8720 C   0  0  0  0  0  0  0  0  0  0  0  0
  131.1587  138.1885  160.5289 C   0  0  1  0  0  0  0  0  0  0  0  0
  130.4997  138.2915  161.3911 H   0  0  0  0  0  0  0  0  0  0  0  0
  130.8814  137.0424  159.6528 N   0  0  0  0  0  0  0  0  0  0  0  0
  131.4792  137.0871  158.8412 H   0  0  0  0  0  0  0  0  0  0  0  0
  129.9157  137.0678  159.3612 H   0  0  0  0  0  0  0  0  0  0  0  0
  131.1396  135.7942  160.3830 C   0  0  0  0  0  0  0  0  0  0  0  0
  130.8551  134.6184  159.4843 C   0  0  0  0  0  0  0  0  0  0  0  0
  131.7411  134.0088  158.6677 C   0  0  0  0  0  0  0  0  0  0  0  0
  131.1002  133.0061  158.0291 N   0  0  0  0  0  0  0  0  0  0  0  0
  131.4932  132.4026  157.3792 H   0  0  0  0  0  0  0  0  0  0  0  0
  129.7700  132.9879  158.4676 N   0  0  0  0  0  0  0  0  0  0  0  0
  129.6165  133.9568  159.3486 C   0  0  0  0  0  0  0  0  0  0  0  0
  128.3674  134.2938  160.0622 C   0  0  0  0  0  0  0  0  0  0  0  0
  127.1763  133.6530  159.9285 C   0  0  0  0  0  0  0  0  0  0  0  0
  126.2676  134.2961  160.7919 C   0  0  0  0  0  0  0  0  0  0  0  0
  126.9449  135.3002  161.4026 C   0  0  0  0  0  0  0  0  0  0  0  0
  126.4173  136.1861  162.3348 N   0  0  0  0  0  0  0  0  0  0  0  0
  127.3105  136.9230  163.2323 C   0  0  0  0  0  0  0  0  0  0  0  0
  126.9799  136.5808  164.6622 C   0  0  0  0  0  0  0  0  0  0  0  0
  126.0374  135.7514  165.0287 C   0  0  0  0  0  0  0  0  0  0  0  0
  125.9703  135.6328  166.5335 C   0  0  0  0  0  0  0  0  0  0  0  0
  127.3130  136.2142  167.0339 C   0  0  0  0  0  0  0  0  0  0  0  0
  127.6949  137.1516  165.8648 C   0  0  0  0  0  0  0  0  0  0  0  0
  128.2135  135.2906  160.9591 O   0  0  0  0  0  0  0  0  0  0  0  0
  133.4890  137.8599  158.8787 H   0  0  0  0  0  0  0  0  0  0  0  0
  134.6678  138.2091  160.1658 H   0  0  0  0  0  0  0  0  0  0  0  0
  133.6395  136.7600  160.2701 H   0  0  0  0  0  0  0  0  0  0  0  0
  132.9222  138.9866  161.6788 H   0  0  0  0  0  0  0  0  0  0  0  0
  131.7994  139.4669  158.7898 H   0  0  0  0  0  0  0  0  0  0  0  0
  131.3461  140.4207  160.3019 H   0  0  0  0  0  0  0  0  0  0  0  0
  130.4939  135.7459  161.2599 H   0  0  0  0  0  0  0  0  0  0  0  0
  132.1827  135.7666  160.6980 H   0  0  0  0  0  0  0  0  0  0  0  0
  132.7796  134.2787  158.5440 H   0  0  0  0  0  0  0  0  0  0  0  0
  126.9674  132.8103  159.2860 H   0  0  0  0  0  0  0  0  0  0  0  0
  125.2288  134.0397  160.9385 H   0  0  0  0  0  0  0  0  0  0  0  0
  125.4578  136.3163  162.3912 H   0  0  0  0  0  0  0  0  0  0  0  0
  127.1805  137.9939  163.0755 H   0  0  0  0  0  0  0  0  0  0  0  0
  128.3442  136.6481  163.0225 H   0  0  0  0  0  0  0  0  0  0  0  0
  125.3914  135.2211  164.3447 H   0  0  0  0  0  0  0  0  0  0  0  0
  125.8759  134.5875  166.8282 H   0  0  0  0  0  0  0  0  0  0  0  0
  125.1354  136.2138  166.9252 H   0  0  0  0  0  0  0  0  0  0  0  0
  128.0561  135.4274  167.1633 H   0  0  0  0  0  0  0  0  0  0  0  0
  127.1759  136.7765  167.9576 H   0  0  0  0  0  0  0  0  0  0  0  0
  127.3515  138.1666  166.0644 H   0  0  0  0  0  0  0  0  0  0  0  0
  128.7732  137.1406  165.7060 H   0  0  0  0  0  0  0  0  0  0  0  0
  1  2  1  0
  1 28  1  0
  1 29  1  0
  1 30  1  0
  2  4  1  0
  2  3  1  0
  2 31  1  1
  3  4  1  0
  3 32  1  0
  3 33  1  0
  4  5  1  1
  4  6  1  0
  6  7  1  0
  6  8  1  0
  6  9  1  0
  9 10  1  0
  9 34  1  0
  9 35  1  0
 10 15  1  0
 10 11  2  0
 11 12  1  0
 11 36  1  0
 12 13  1  0
 12 14  1  0
 14 15  2  0
 15 16  1  0
 16 27  1  0
 16 17  2  0
 17 18  1  0
 17 37  1  0
 18 19  2  0
 18 38  1  0
 19 20  1  0
 19 27  1  0
 20 21  1  0
 20 39  1  0
 21 22  1  0
 21 40  1  0
 21 41  1  0
 22 26  1  0
 22 23  2  0
 23 24  1  0
 23 42  1  0
 24 25  1  0
 24 43  1  0
 24 44  1  0
 25 26  1  0
 25 45  1  0
 25 46  1  0
 26 47  1  0
 26 48  1  0
M  CHG  1   6   1
M  END
>  <DOCK_score>  (1) 
-42.908356

>  <SMILES>  (1) 
CC1C[C@H]1[NH2+]Cc1c[nH]nc1-c1ccc(NCC2=CCCC2)o1

$$$$
