CC=C(Cc1ccccc1)C(c1ccccc1)[C@@H](Cc1ccccc1)Nc1[nH]cc(C2CC2)[nH+]1
     RDKit          3D

 68 72  0  0  1  0  0  0  0  0999 V2000
  134.2084  135.7605  163.3276 C   0  0  0  0  0  0  0  0  0  0  0  0
  133.1088  136.6782  162.8591 C   0  0  0  0  0  0  0  0  0  0  0  0
  133.2790  137.4102  161.7862 C   0  0  0  0  0  0  0  0  0  0  0  0
  134.6210  137.4423  161.1012 C   0  0  0  0  0  0  0  0  0  0  0  0
  135.1458  138.8549  161.0903 C   0  0  0  0  0  0  0  0  0  0  0  0
  134.8504  139.6939  160.0321 C   0  0  0  0  0  0  0  0  0  0  0  0
  135.3277  140.9912  160.0245 C   0  0  0  0  0  0  0  0  0  0  0  0
  136.1090  141.4463  161.0702 C   0  0  0  0  0  0  0  0  0  0  0  0
  136.4091  140.6056  162.1256 C   0  0  0  0  0  0  0  0  0  0  0  0
  135.9274  139.3098  162.1357 C   0  0  0  0  0  0  0  0  0  0  0  0
  132.1331  138.2201  161.2368 C   0  0  2  0  0  0  0  0  0  0  0  0
  131.6686  139.2044  162.2791 C   0  0  0  0  0  0  0  0  0  0  0  0
  130.6773  138.8475  163.1739 C   0  0  0  0  0  0  0  0  0  0  0  0
  130.2546  139.7487  164.1331 C   0  0  0  0  0  0  0  0  0  0  0  0
  130.8160  141.0107  164.1907 C   0  0  0  0  0  0  0  0  0  0  0  0
  131.8036  141.3695  163.2925 C   0  0  0  0  0  0  0  0  0  0  0  0
  132.2299  140.4665  162.3367 C   0  0  0  0  0  0  0  0  0  0  0  0
  130.9790  137.2858  160.8676 C   0  0  1  0  0  0  0  0  0  0  0  0
  130.6500  136.7464  161.7557 H   0  0  0  0  0  0  0  0  0  0  0  0
  129.8157  138.1080  160.3098 C   0  0  0  0  0  0  0  0  0  0  0  0
  128.6790  137.1877  159.9462 C   0  0  0  0  0  0  0  0  0  0  0  0
  128.6049  136.6497  158.6749 C   0  0  0  0  0  0  0  0  0  0  0  0
  127.5626  135.8051  158.3414 C   0  0  0  0  0  0  0  0  0  0  0  0
  126.5947  135.4981  159.2794 C   0  0  0  0  0  0  0  0  0  0  0  0
  126.6659  136.0402  160.5491 C   0  0  0  0  0  0  0  0  0  0  0  0
  127.7104  136.8817  160.8837 C   0  0  0  0  0  0  0  0  0  0  0  0
  131.4307  136.3288  159.8544 N   0  0  0  0  0  0  0  0  0  0  0  0
  130.8684  135.0644  159.7968 C   0  0  0  0  0  0  0  0  0  0  0  0
  129.8981  134.5870  160.6218 N   0  0  0  0  0  0  0  0  0  0  0  0
  129.4757  135.0648  161.3528 H   0  0  0  0  0  0  0  0  0  0  0  0
  129.6272  133.2979  160.2214 C   0  0  0  0  0  0  0  0  0  0  0  0
  130.4373  133.0321  159.1827 C   0  0  0  0  0  0  0  0  0  0  0  0
  130.4976  131.7335  158.4204 C   0  0  0  0  0  0  0  0  0  0  0  0
  131.0836  131.7703  157.0076 C   0  0  0  0  0  0  0  0  0  0  0  0
  129.5782  131.5836  157.2067 C   0  0  0  0  0  0  0  0  0  0  0  0
  131.1852  134.1221  158.9406 N   0  0  0  0  0  0  0  0  0  0  0  0
  131.8539  134.2000  158.2422 H   0  0  0  0  0  0  0  0  0  0  0  0
  135.0888  136.3496  163.5844 H   0  0  0  0  0  0  0  0  0  0  0  0
  133.8719  135.2086  164.2052 H   0  0  0  0  0  0  0  0  0  0  0  0
  134.4600  135.0592  162.5319 H   0  0  0  0  0  0  0  0  0  0  0  0
  132.1803  136.7326  163.4082 H   0  0  0  0  0  0  0  0  0  0  0  0
  135.3186  136.7996  161.6382 H   0  0  0  0  0  0  0  0  0  0  0  0
  134.5145  137.0863  160.0764 H   0  0  0  0  0  0  0  0  0  0  0  0
  134.2433  139.3370  159.2132 H   0  0  0  0  0  0  0  0  0  0  0  0
  135.0935  141.6480  159.1997 H   0  0  0  0  0  0  0  0  0  0  0  0
  136.4849  142.4586  161.0624 H   0  0  0  0  0  0  0  0  0  0  0  0
  137.0198  140.9610  162.9424 H   0  0  0  0  0  0  0  0  0  0  0  0
  136.1618  138.6531  162.9603 H   0  0  0  0  0  0  0  0  0  0  0  0
  132.4623  138.7594  160.3487 H   0  0  0  0  0  0  0  0  0  0  0  0
  130.2357  137.8630  163.1261 H   0  0  0  0  0  0  0  0  0  0  0  0
  129.4828  139.4684  164.8346 H   0  0  0  0  0  0  0  0  0  0  0  0
  130.4827  141.7163  164.9373 H   0  0  0  0  0  0  0  0  0  0  0  0
  132.2419  142.3556  163.3373 H   0  0  0  0  0  0  0  0  0  0  0  0
  133.0013  140.7469  161.6348 H   0  0  0  0  0  0  0  0  0  0  0  0
  130.1447  138.6472  159.4216 H   0  0  0  0  0  0  0  0  0  0  0  0
  129.4797  138.8201  161.0636 H   0  0  0  0  0  0  0  0  0  0  0  0
  129.3615  136.8891  157.9422 H   0  0  0  0  0  0  0  0  0  0  0  0
  127.5047  135.3849  157.3483 H   0  0  0  0  0  0  0  0  0  0  0  0
  125.7804  134.8383  159.0190 H   0  0  0  0  0  0  0  0  0  0  0  0
  125.9073  135.8039  161.2805 H   0  0  0  0  0  0  0  0  0  0  0  0
  127.7681  137.3023  161.8768 H   0  0  0  0  0  0  0  0  0  0  0  0
  132.1236  136.5807  159.2240 H   0  0  0  0  0  0  0  0  0  0  0  0
  128.9046  132.6266  160.6613 H   0  0  0  0  0  0  0  0  0  0  0  0
  130.6870  130.8440  159.0213 H   0  0  0  0  0  0  0  0  0  0  0  0
  131.4257  132.7337  156.6295 H   0  0  0  0  0  0  0  0  0  0  0  0
  131.6589  130.9049  156.6788 H   0  0  0  0  0  0  0  0  0  0  0  0
  129.1631  130.5954  157.0088 H   0  0  0  0  0  0  0  0  0  0  0  0
  128.9298  132.4242  156.9596 H   0  0  0  0  0  0  0  0  0  0  0  0
  1  2  1  0
  1 38  1  0
  1 39  1  0
  1 40  1  0
  2  3  2  0
  2 41  1  0
  3  4  1  0
  3 11  1  0
  4  5  1  0
  4 42  1  0
  4 43  1  0
  5 10  1  0
  5  6  2  0
  6  7  1  0
  6 44  1  0
  7  8  2  0
  7 45  1  0
  8  9  1  0
  8 46  1  0
  9 10  2  0
  9 47  1  0
 10 48  1  0
 11 12  1  0
 11 18  1  0
 11 49  1  6
 12 17  1  0
 12 13  2  0
 13 14  1  0
 13 50  1  0
 14 15  2  0
 14 51  1  0
 15 16  1  0
 15 52  1  0
 16 17  2  0
 16 53  1  0
 17 54  1  0
 18 19  1  1
 18 20  1  0
 18 27  1  0
 20 21  1  0
 20 55  1  0
 20 56  1  0
 21 26  1  0
 21 22  2  0
 22 23  1  0
 22 57  1  0
 23 24  2  0
 23 58  1  0
 24 25  1  0
 24 59  1  0
 25 26  2  0
 25 60  1  0
 26 61  1  0
 27 62  1  0
 28 27  1  0
 28 36  2  0
 28 29  1  0
 29 30  1  0
 29 31  1  0
 31 32  2  0
 31 63  1  0
 32 33  1  0
 32 36  1  0
 33 35  1  0
 33 34  1  0
 33 64  1  0
 34 35  1  0
 34 65  1  0
 34 66  1  0
 35 67  1  0
 35 68  1  0
 36 37  1  0
M  CHG  1  36   1
M  END
>  <DOCK_score>  (1) 
-60.446632

>  <SMILES>  (1) 
CC=C(Cc1ccccc1)C(c1ccccc1)[C@@H](Cc1ccccc1)Nc1[nH]cc(C2CC2)[nH+]1

$$$$
