Cc1cccc([C@@H](Nc2[nH]cc(-c3ccc(Br)cc3)[nH+]2)c2ccc(C3CC3)cc2)c1
     RDKit          3D

 55 59  0  0  1  0  0  0  0  0999 V2000
  125.9874  134.2719  162.7992 C   0  0  0  0  0  0  0  0  0  0  0  0
  126.7149  134.7803  161.5813 C   0  0  0  0  0  0  0  0  0  0  0  0
  126.0004  135.2603  160.4995 C   0  0  0  0  0  0  0  0  0  0  0  0
  126.6675  135.7261  159.3822 C   0  0  0  0  0  0  0  0  0  0  0  0
  128.0496  135.7119  159.3464 C   0  0  0  0  0  0  0  0  0  0  0  0
  128.7640  135.2319  160.4279 C   0  0  0  0  0  0  0  0  0  0  0  0
  130.2704  135.2160  160.3888 C   0  0  1  0  0  0  0  0  0  0  0  0
  130.6408  134.3886  160.9941 H   0  0  0  0  0  0  0  0  0  0  0  0
  130.7211  135.0486  159.0049 N   0  0  0  0  0  0  0  0  0  0  0  0
  130.3560  133.9211  158.2895 C   0  0  0  0  0  0  0  0  0  0  0  0
  129.5807  132.9038  158.7545 N   0  0  0  0  0  0  0  0  0  0  0  0
  129.1881  132.8388  159.6391 H   0  0  0  0  0  0  0  0  0  0  0  0
  129.4571  131.9858  157.7399 C   0  0  0  0  0  0  0  0  0  0  0  0
  130.1598  132.4682  156.6852 C   0  0  0  0  0  0  0  0  0  0  0  0
  130.3114  131.8115  155.3638 C   0  0  0  0  0  0  0  0  0  0  0  0
  129.8654  132.4523  154.2091 C   0  0  0  0  0  0  0  0  0  0  0  0
  130.0141  131.8395  152.9817 C   0  0  0  0  0  0  0  0  0  0  0  0
  130.5945  130.5860  152.8970 C   0  0  0  0  0  0  0  0  0  0  0  0
  130.7871  129.7484  151.2126 Br  0  0  0  0  0  0  0  0  0  0  0  0
  131.0341  129.9427  154.0413 C   0  0  0  0  0  0  0  0  0  0  0  0
  130.8952  130.5491  155.2729 C   0  0  0  0  0  0  0  0  0  0  0  0
  130.6954  133.6598  157.0507 N   0  0  0  0  0  0  0  0  0  0  0  0
  131.2441  134.2267  156.4864 H   0  0  0  0  0  0  0  0  0  0  0  0
  130.8008  136.5159  160.9363 C   0  0  0  0  0  0  0  0  0  0  0  0
  129.9239  137.4906  161.3740 C   0  0  0  0  0  0  0  0  0  0  0  0
  130.4106  138.6829  161.8768 C   0  0  0  0  0  0  0  0  0  0  0  0
  131.7748  138.9007  161.9401 C   0  0  0  0  0  0  0  0  0  0  0  0
  132.3054  140.2007  162.4875 C   0  0  0  0  0  0  0  0  0  0  0  0
  131.7382  141.4970  161.9039 C   0  0  0  0  0  0  0  0  0  0  0  0
  133.1639  141.0606  161.5579 C   0  0  0  0  0  0  0  0  0  0  0  0
  132.6511  137.9271  161.5002 C   0  0  0  0  0  0  0  0  0  0  0  0
  132.1643  136.7348  160.9980 C   0  0  0  0  0  0  0  0  0  0  0  0
  128.0965  134.7612  161.5434 C   0  0  0  0  0  0  0  0  0  0  0  0
  125.7922  133.2055  162.6870 H   0  0  0  0  0  0  0  0  0  0  0  0
  126.6012  134.4378  163.6846 H   0  0  0  0  0  0  0  0  0  0  0  0
  125.0427  134.8049  162.9068 H   0  0  0  0  0  0  0  0  0  0  0  0
  124.9207  135.2711  160.5273 H   0  0  0  0  0  0  0  0  0  0  0  0
  126.1095  136.1008  158.5370 H   0  0  0  0  0  0  0  0  0  0  0  0
  128.5710  136.0753  158.4733 H   0  0  0  0  0  0  0  0  0  0  0  0
  131.2755  135.7279  158.5899 H   0  0  0  0  0  0  0  0  0  0  0  0
  128.9054  131.0581  157.7753 H   0  0  0  0  0  0  0  0  0  0  0  0
  129.4083  133.4287  154.2746 H   0  0  0  0  0  0  0  0  0  0  0  0
  129.6726  132.3371  152.0859 H   0  0  0  0  0  0  0  0  0  0  0  0
  131.4864  128.9645  153.9698 H   0  0  0  0  0  0  0  0  0  0  0  0
  131.2388  130.0466  156.1651 H   0  0  0  0  0  0  0  0  0  0  0  0
  128.8586  137.3200  161.3251 H   0  0  0  0  0  0  0  0  0  0  0  0
  129.7255  139.4421  162.2242 H   0  0  0  0  0  0  0  0  0  0  0  0
  132.5600  140.1955  163.5469 H   0  0  0  0  0  0  0  0  0  0  0  0
  130.9814  141.4093  161.1241 H   0  0  0  0  0  0  0  0  0  0  0  0
  131.6210  142.3443  162.5796 H   0  0  0  0  0  0  0  0  0  0  0  0
  133.9844  141.6211  162.0063 H   0  0  0  0  0  0  0  0  0  0  0  0
  133.3457  140.6857  160.5508 H   0  0  0  0  0  0  0  0  0  0  0  0
  133.7164  138.0979  161.5489 H   0  0  0  0  0  0  0  0  0  0  0  0
  132.8495  135.9738  160.6543 H   0  0  0  0  0  0  0  0  0  0  0  0
  128.6546  134.3819  162.3867 H   0  0  0  0  0  0  0  0  0  0  0  0
  1  2  1  0
  1 34  1  0
  1 35  1  0
  1 36  1  0
  2 33  2  0
  2  3  1  0
  3  4  2  0
  3 37  1  0
  4  5  1  0
  4 38  1  0
  5  6  2  0
  5 39  1  0
  6  7  1  0
  6 33  1  0
  7  8  1  1
  7  9  1  0
  7 24  1  0
  9 40  1  0
 10  9  1  0
 10 22  2  0
 10 11  1  0
 11 12  1  0
 11 13  1  0
 13 14  2  0
 13 41  1  0
 14 15  1  0
 14 22  1  0
 15 21  1  0
 15 16  2  0
 16 17  1  0
 16 42  1  0
 17 18  2  0
 17 43  1  0
 18 19  1  0
 18 20  1  0
 20 21  2  0
 20 44  1  0
 21 45  1  0
 22 23  1  0
 24 32  1  0
 24 25  2  0
 25 26  1  0
 25 46  1  0
 26 27  2  0
 26 47  1  0
 27 28  1  0
 27 31  1  0
 28 30  1  0
 28 29  1  0
 28 48  1  0
 29 30  1  0
 29 49  1  0
 29 50  1  0
 30 51  1  0
 30 52  1  0
 31 32  2  0
 31 53  1  0
 32 54  1  0
 33 55  1  0
M  CHG  1  22   1
M  END
>  <DOCK_score>  (1) 
-60.311646

>  <SMILES>  (1) 
Cc1cccc([C@@H](Nc2[nH]cc(-c3ccc(Br)cc3)[nH+]2)c2ccc(C3CC3)cc2)c1

$$$$
