O=C1CC[C@H](NC(NC2CC3(CCC3)C2)=[NH+]C2CC2)CN1
     RDKit          3D

 48 51  0  0  1  0  0  0  0  0999 V2000
  123.6817  133.5391  161.6378 O   0  0  0  0  0  0  0  0  0  0  0  0
  124.8302  133.8309  161.3797 C   0  0  0  0  0  0  0  0  0  0  0  0
  125.7244  132.7653  160.8142 C   0  0  0  0  0  0  0  0  0  0  0  0
  127.1899  133.1802  160.9667 C   0  0  0  0  0  0  0  0  0  0  0  0
  127.3429  134.6166  160.4521 C   0  0  2  0  0  0  0  0  0  0  0  0
  126.9232  134.6924  159.4489 H   0  0  0  0  0  0  0  0  0  0  0  0
  128.7621  134.9786  160.4197 N   0  0  0  0  0  0  0  0  0  0  0  0
  129.5067  134.7402  159.2888 C   0  0  0  0  0  0  0  0  0  0  0  0
  128.9194  134.1622  158.1882 N   0  0  0  0  0  0  0  0  0  0  0  0
  129.7127  133.9083  156.9831 C   0  0  0  0  0  0  0  0  0  0  0  0
  129.1205  132.8154  156.0747 C   0  0  0  0  0  0  0  0  0  0  0  0
  130.5571  132.3261  155.8751 C   0  0  0  0  0  0  0  0  0  0  0  0
  130.8602  130.8532  155.5978 C   0  0  0  0  0  0  0  0  0  0  0  0
  131.0038  131.2511  154.1176 C   0  0  0  0  0  0  0  0  0  0  0  0
  131.3393  132.6716  154.6075 C   0  0  0  0  0  0  0  0  0  0  0  0
  130.9069  132.9659  157.2192 C   0  0  0  0  0  0  0  0  0  0  0  0
  130.7693  135.0623  159.2599 N   0  0  0  0  0  0  0  0  0  0  0  0
  131.1868  135.3135  158.4212 H   0  0  0  0  0  0  0  0  0  0  0  0
  131.5582  135.0450  160.4944 C   0  0  0  0  0  0  0  0  0  0  0  0
  132.5908  136.1570  160.6886 C   0  0  0  0  0  0  0  0  0  0  0  0
  133.0507  134.7312  160.3746 C   0  0  0  0  0  0  0  0  0  0  0  0
  126.5915  135.5573  161.3949 C   0  0  0  0  0  0  0  0  0  0  0  0
  125.2313  135.0811  161.6133 N   0  0  0  0  0  0  0  0  0  0  0  0
  125.4961  132.6240  159.7579 H   0  0  0  0  0  0  0  0  0  0  0  0
  125.5556  131.8300  161.3481 H   0  0  0  0  0  0  0  0  0  0  0  0
  127.4769  133.1343  162.0173 H   0  0  0  0  0  0  0  0  0  0  0  0
  127.8232  132.5120  160.3832 H   0  0  0  0  0  0  0  0  0  0  0  0
  129.1766  135.3862  161.1962 H   0  0  0  0  0  0  0  0  0  0  0  0
  127.9796  133.9227  158.2096 H   0  0  0  0  0  0  0  0  0  0  0  0
  129.9769  134.8220  156.4505 H   0  0  0  0  0  0  0  0  0  0  0  0
  128.4855  132.1042  156.6032 H   0  0  0  0  0  0  0  0  0  0  0  0
  128.6595  133.2038  155.1666 H   0  0  0  0  0  0  0  0  0  0  0  0
  131.7893  130.5052  156.0494 H   0  0  0  0  0  0  0  0  0  0  0  0
  130.0182  130.1891  155.7926 H   0  0  0  0  0  0  0  0  0  0  0  0
  130.0704  131.1922  153.5578 H   0  0  0  0  0  0  0  0  0  0  0  0
  131.8333  130.7570  153.6117 H   0  0  0  0  0  0  0  0  0  0  0  0
  130.8801  133.4599  154.0112 H   0  0  0  0  0  0  0  0  0  0  0  0
  132.4028  132.8363  154.7809 H   0  0  0  0  0  0  0  0  0  0  0  0
  131.8711  133.4743  157.2239 H   0  0  0  0  0  0  0  0  0  0  0  0
  130.7756  132.2981  158.0706 H   0  0  0  0  0  0  0  0  0  0  0  0
  131.0369  134.6818  161.3801 H   0  0  0  0  0  0  0  0  0  0  0  0
  132.6834  136.9015  159.8978 H   0  0  0  0  0  0  0  0  0  0  0  0
  132.7493  136.5253  161.7021 H   0  0  0  0  0  0  0  0  0  0  0  0
  133.5117  134.1620  161.1819 H   0  0  0  0  0  0  0  0  0  0  0  0
  133.4459  134.5371  159.3775 H   0  0  0  0  0  0  0  0  0  0  0  0
  127.1147  135.6034  162.3500 H   0  0  0  0  0  0  0  0  0  0  0  0
  126.5549  136.5541  160.9556 H   0  0  0  0  0  0  0  0  0  0  0  0
  124.5769  135.7132  161.9495 H   0  0  0  0  0  0  0  0  0  0  0  0
  1  2  2  0
  2 23  1  0
  2  3  1  0
  3  4  1  0
  3 24  1  0
  3 25  1  0
  4  5  1  0
  4 26  1  0
  4 27  1  0
  5  6  1  6
  5  7  1  0
  5 22  1  0
  7 28  1  0
  8  7  1  0
  8  9  1  0
  8 17  2  0
  9 10  1  0
  9 29  1  0
 10 16  1  0
 10 11  1  0
 10 30  1  0
 11 12  1  0
 11 31  1  0
 11 32  1  0
 12 15  1  0
 12 13  1  0
 12 16  1  0
 13 14  1  0
 13 33  1  0
 13 34  1  0
 14 15  1  0
 14 35  1  0
 14 36  1  0
 15 37  1  0
 15 38  1  0
 16 39  1  0
 16 40  1  0
 17 18  1  0
 17 19  1  0
 19 21  1  0
 19 20  1  0
 19 41  1  0
 20 21  1  0
 20 42  1  0
 20 43  1  0
 21 44  1  0
 21 45  1  0
 22 23  1  0
 22 46  1  0
 22 47  1  0
 23 48  1  0
M  CHG  1  17   1
M  END
>  <DOCK_score>  (1) 
-43.658649

>  <SMILES>  (1) 
O=C1CC[C@H](NC(NC2CC3(CCC3)C2)=[NH+]C2CC2)CN1

$$$$
