Cn1nccc1[C@H](CSCc1cc(F)ccc1F)Nc1[nH]cc(-c2ccc(F)cc2)[nH+]1
     RDKit          3D

 52 55  0  0  1  0  0  0  0  0999 V2000
  127.6141  134.5090  162.3951 C   0  0  0  0  0  0  0  0  0  0  0  0
  127.2174  134.9213  161.0465 N   0  0  0  0  0  0  0  0  0  0  0  0
  125.9112  134.9382  160.5406 N   0  0  0  0  0  0  0  0  0  0  0  0
  125.9577  135.3600  159.3030 C   0  0  0  0  0  0  0  0  0  0  0  0
  127.2922  135.6295  158.9831 C   0  0  0  0  0  0  0  0  0  0  0  0
  128.0454  135.3546  160.0730 C   0  0  0  0  0  0  0  0  0  0  0  0
  129.5417  135.4997  160.1787 C   0  0  2  0  0  0  0  0  0  0  0  0
  129.9299  134.7607  160.8793 H   0  0  0  0  0  0  0  0  0  0  0  0
  129.8836  136.9050  160.6781 C   0  0  0  0  0  0  0  0  0  0  0  0
  131.6847  137.0798  160.8054 S   0  0  0  0  0  0  0  0  0  0  0  0
  131.9218  138.8782  160.7969 C   0  0  0  0  0  0  0  0  0  0  0  0
  133.3425  139.1959  160.4076 C   0  0  0  0  0  0  0  0  0  0  0  0
  134.3168  139.3098  161.3812 C   0  0  0  0  0  0  0  0  0  0  0  0
  135.6228  139.5968  161.0232 C   0  0  0  0  0  0  0  0  0  0  0  0
  136.5764  139.7028  161.9744 F   0  0  0  0  0  0  0  0  0  0  0  0
  135.9509  139.7806  159.6906 C   0  0  0  0  0  0  0  0  0  0  0  0
  134.9759  139.6719  158.7177 C   0  0  0  0  0  0  0  0  0  0  0  0
  133.6706  139.3791  159.0754 C   0  0  0  0  0  0  0  0  0  0  0  0
  132.7173  139.2728  158.1241 F   0  0  0  0  0  0  0  0  0  0  0  0
  130.1471  135.2889  158.8614 N   0  0  0  0  0  0  0  0  0  0  0  0
  129.9737  134.0824  158.2050 C   0  0  0  0  0  0  0  0  0  0  0  0
  129.2618  133.0210  158.6723 N   0  0  0  0  0  0  0  0  0  0  0  0
  128.7891  132.9737  159.5180 H   0  0  0  0  0  0  0  0  0  0  0  0
  129.3370  132.0281  157.7253 C   0  0  0  0  0  0  0  0  0  0  0  0
  130.0919  132.5114  156.7078 C   0  0  0  0  0  0  0  0  0  0  0  0
  130.4445  131.7871  155.4620 C   0  0  0  0  0  0  0  0  0  0  0  0
  130.0568  132.2965  154.2239 C   0  0  0  0  0  0  0  0  0  0  0  0
  130.3919  131.6224  153.0675 C   0  0  0  0  0  0  0  0  0  0  0  0
  131.1027  130.4352  153.1364 C   0  0  0  0  0  0  0  0  0  0  0  0
  131.4240  129.7753  152.0021 F   0  0  0  0  0  0  0  0  0  0  0  0
  131.4852  129.9223  154.3652 C   0  0  0  0  0  0  0  0  0  0  0  0
  131.1594  130.5925  155.5265 C   0  0  0  0  0  0  0  0  0  0  0  0
  130.4635  133.7761  157.0284 N   0  0  0  0  0  0  0  0  0  0  0  0
  131.0070  134.3597  156.4762 H   0  0  0  0  0  0  0  0  0  0  0  0
  127.5949  135.3729  163.0596 H   0  0  0  0  0  0  0  0  0  0  0  0
  126.9207  133.7526  162.7626 H   0  0  0  0  0  0  0  0  0  0  0  0
  128.6220  134.0948  162.3667 H   0  0  0  0  0  0  0  0  0  0  0  0
  125.1114  135.4798  158.6427 H   0  0  0  0  0  0  0  0  0  0  0  0
  127.6571  135.9934  158.0338 H   0  0  0  0  0  0  0  0  0  0  0  0
  129.4955  137.6441  159.9773 H   0  0  0  0  0  0  0  0  0  0  0  0
  129.4332  137.0619  161.6582 H   0  0  0  0  0  0  0  0  0  0  0  0
  131.2383  139.3314  160.0789 H   0  0  0  0  0  0  0  0  0  0  0  0
  131.7200  139.2760  161.7915 H   0  0  0  0  0  0  0  0  0  0  0  0
  134.0600  139.1709  162.4211 H   0  0  0  0  0  0  0  0  0  0  0  0
  136.9689  140.0094  159.4116 H   0  0  0  0  0  0  0  0  0  0  0  0
  135.2318  139.8155  157.6783 H   0  0  0  0  0  0  0  0  0  0  0  0
  130.6694  135.9948  158.4490 H   0  0  0  0  0  0  0  0  0  0  0  0
  128.8816  131.0504  157.7805 H   0  0  0  0  0  0  0  0  0  0  0  0
  129.4989  133.2197  154.1695 H   0  0  0  0  0  0  0  0  0  0  0  0
  130.0954  132.0184  152.1074 H   0  0  0  0  0  0  0  0  0  0  0  0
  132.0388  128.9963  154.4142 H   0  0  0  0  0  0  0  0  0  0  0  0
  131.4584  130.1922  156.4840 H   0  0  0  0  0  0  0  0  0  0  0  0
  1  2  1  0
  1 35  1  0
  1 36  1  0
  1 37  1  0
  2  6  1  0
  2  3  1  0
  3  4  2  0
  4  5  1  0
  4 38  1  0
  5  6  2  0
  5 39  1  0
  6  7  1  0
  7  8  1  1
  7  9  1  0
  7 20  1  0
  9 10  1  0
  9 40  1  0
  9 41  1  0
 10 11  1  0
 11 12  1  0
 11 42  1  0
 11 43  1  0
 12 18  1  0
 12 13  2  0
 13 14  1  0
 13 44  1  0
 14 15  1  0
 14 16  2  0
 16 17  1  0
 16 45  1  0
 17 18  2  0
 17 46  1  0
 18 19  1  0
 20 47  1  0
 21 20  1  0
 21 33  2  0
 21 22  1  0
 22 23  1  0
 22 24  1  0
 24 25  2  0
 24 48  1  0
 25 26  1  0
 25 33  1  0
 26 32  1  0
 26 27  2  0
 27 28  1  0
 27 49  1  0
 28 29  2  0
 28 50  1  0
 29 30  1  0
 29 31  1  0
 31 32  2  0
 31 51  1  0
 32 52  1  0
 33 34  1  0
M  CHG  1  33   1
M  END
>  <DOCK_score>  (1) 
-60.484562

>  <SMILES>  (1) 
Cn1nccc1[C@H](CSCc1cc(F)ccc1F)Nc1[nH]cc(-c2ccc(F)cc2)[nH+]1

$$$$
