C1=CCC(c2c[nH]c(NC[C@H](Cc3ccccc3)c3ccccc3)[nH+]2)=CC1
     RDKit          3D

 53 56  0  0  1  0  0  0  0  0999 V2000
  131.3804  130.0914  152.4694 C   0  0  0  0  0  0  0  0  0  0  0  0
  131.8522  129.6772  153.6049 C   0  0  0  0  0  0  0  0  0  0  0  0
  131.2621  130.0641  154.9251 C   0  0  0  0  0  0  0  0  0  0  0  0
  130.4135  131.2942  154.8029 C   0  0  0  0  0  0  0  0  0  0  0  0
  130.1076  132.0687  156.0231 C   0  0  0  0  0  0  0  0  0  0  0  0
  129.4481  131.6091  157.1182 C   0  0  0  0  0  0  0  0  0  0  0  0
  129.3830  132.6509  158.0101 N   0  0  0  0  0  0  0  0  0  0  0  0
  128.9700  132.6307  158.8876 H   0  0  0  0  0  0  0  0  0  0  0  0
  130.0040  133.7176  157.4361 C   0  0  0  0  0  0  0  0  0  0  0  0
  130.1546  134.9677  158.0113 N   0  0  0  0  0  0  0  0  0  0  0  0
  129.2813  135.3764  159.1144 C   0  0  0  0  0  0  0  0  0  0  0  0
  129.9167  134.9696  160.4454 C   0  0  2  0  0  0  0  0  0  0  0  0
  130.3705  133.9838  160.3450 H   0  0  0  0  0  0  0  0  0  0  0  0
  128.8405  134.9274  161.5323 C   0  0  0  0  0  0  0  0  0  0  0  0
  127.7826  133.9236  161.1527 C   0  0  0  0  0  0  0  0  0  0  0  0
  126.6875  134.3214  160.4088 C   0  0  0  0  0  0  0  0  0  0  0  0
  125.7142  133.4017  160.0656 C   0  0  0  0  0  0  0  0  0  0  0  0
  125.8412  132.0822  160.4572 C   0  0  0  0  0  0  0  0  0  0  0  0
  126.9362  131.6844  161.2012 C   0  0  0  0  0  0  0  0  0  0  0  0
  127.9070  132.6051  161.5491 C   0  0  0  0  0  0  0  0  0  0  0  0
  130.9748  135.9735  160.8247 C   0  0  0  0  0  0  0  0  0  0  0  0
  132.2819  135.7880  160.4150 C   0  0  0  0  0  0  0  0  0  0  0  0
  133.2516  136.7113  160.7592 C   0  0  0  0  0  0  0  0  0  0  0  0
  132.9158  137.8150  161.5206 C   0  0  0  0  0  0  0  0  0  0  0  0
  131.6096  137.9976  161.9348 C   0  0  0  0  0  0  0  0  0  0  0  0
  130.6391  137.0768  161.5869 C   0  0  0  0  0  0  0  0  0  0  0  0
  130.4306  133.3686  156.2473 N   0  0  0  0  0  0  0  0  0  0  0  0
  130.9033  133.9459  155.6274 H   0  0  0  0  0  0  0  0  0  0  0  0
  129.9351  131.7142  153.6517 C   0  0  0  0  0  0  0  0  0  0  0  0
  130.1914  130.9973  152.3600 C   0  0  0  0  0  0  0  0  0  0  0  0
  131.8672  129.7686  151.5610 H   0  0  0  0  0  0  0  0  0  0  0  0
  132.7133  129.0254  153.5979 H   0  0  0  0  0  0  0  0  0  0  0  0
  132.0664  130.2542  155.6358 H   0  0  0  0  0  0  0  0  0  0  0  0
  130.6483  129.2419  155.2931 H   0  0  0  0  0  0  0  0  0  0  0  0
  129.0514  130.6146  157.2601 H   0  0  0  0  0  0  0  0  0  0  0  0
  130.8383  135.5728  157.6842 H   0  0  0  0  0  0  0  0  0  0  0  0
  128.3121  134.8887  159.0103 H   0  0  0  0  0  0  0  0  0  0  0  0
  129.1483  136.4581  159.0907 H   0  0  0  0  0  0  0  0  0  0  0  0
  128.3869  135.9133  161.6328 H   0  0  0  0  0  0  0  0  0  0  0  0
  129.2932  134.6373  162.4805 H   0  0  0  0  0  0  0  0  0  0  0  0
  126.5902  135.3516  160.0995 H   0  0  0  0  0  0  0  0  0  0  0  0
  124.8564  133.7135  159.4881 H   0  0  0  0  0  0  0  0  0  0  0  0
  125.0827  131.3629  160.1858 H   0  0  0  0  0  0  0  0  0  0  0  0
  127.0333  130.6543  161.5111 H   0  0  0  0  0  0  0  0  0  0  0  0
  128.7623  132.2943  162.1304 H   0  0  0  0  0  0  0  0  0  0  0  0
  132.5449  134.9238  159.8232 H   0  0  0  0  0  0  0  0  0  0  0  0
  134.2720  136.5687  160.4354 H   0  0  0  0  0  0  0  0  0  0  0  0
  133.6740  138.5349  161.7918 H   0  0  0  0  0  0  0  0  0  0  0  0
  131.3473  138.8600  162.5296 H   0  0  0  0  0  0  0  0  0  0  0  0
  129.6187  137.2195  161.9104 H   0  0  0  0  0  0  0  0  0  0  0  0
  129.3340  132.6113  153.6363 H   0  0  0  0  0  0  0  0  0  0  0  0
  129.3139  130.4053  152.0997 H   0  0  0  0  0  0  0  0  0  0  0  0
  130.3732  131.7307  151.5744 H   0  0  0  0  0  0  0  0  0  0  0  0
  1 30  1  0
  1  2  2  0
  1 31  1  0
  2  3  1  0
  2 32  1  0
  3  4  1  0
  3 33  1  0
  3 34  1  0
  4  5  1  0
  4 29  2  0
  5 27  1  0
  5  6  2  0
  6  7  1  0
  6 35  1  0
  7  8  1  0
  7  9  1  0
  9 10  1  0
  9 27  2  0
 10 11  1  0
 10 36  1  0
 11 12  1  0
 11 37  1  0
 11 38  1  0
 12 13  1  6
 12 14  1  0
 12 21  1  0
 14 15  1  0
 14 39  1  0
 14 40  1  0
 15 20  1  0
 15 16  2  0
 16 17  1  0
 16 41  1  0
 17 18  2  0
 17 42  1  0
 18 19  1  0
 18 43  1  0
 19 20  2  0
 19 44  1  0
 20 45  1  0
 21 26  1  0
 21 22  2  0
 22 23  1  0
 22 46  1  0
 23 24  2  0
 23 47  1  0
 24 25  1  0
 24 48  1  0
 25 26  2  0
 25 49  1  0
 26 50  1  0
 27 28  1  0
 29 30  1  0
 29 51  1  0
 30 52  1  0
 30 53  1  0
M  CHG  1  27   1
M  END
>  <DOCK_score>  (1) 
-56.592274

>  <SMILES>  (1) 
C1=CCC(c2c[nH]c(NC[C@H](Cc3ccccc3)c3ccccc3)[nH+]2)=CC1

$$$$
