CC1=C(c2ccc3c(c2)C[C@@H](NC(NC2CC=CC2)=[NH+][C@@H]2C=C[C@@H](O)[C@H]2Br)C3)CCC1
     RDKit          3D

 64 68  0  0  1  0  0  0  0  0999 V2000
  137.1558  133.9637  164.3274 C   0  0  0  0  0  0  0  0  0  0  0  0
  137.0372  135.4224  164.6869 C   0  0  0  0  0  0  0  0  0  0  0  0
  135.9830  136.1758  164.4266 C   0  0  0  0  0  0  0  0  0  0  0  0
  134.7614  135.7019  163.7426 C   0  0  0  0  0  0  0  0  0  0  0  0
  133.7026  135.1743  164.4830 C   0  0  0  0  0  0  0  0  0  0  0  0
  132.5675  134.7346  163.8369 C   0  0  0  0  0  0  0  0  0  0  0  0
  132.4709  134.8134  162.4560 C   0  0  0  0  0  0  0  0  0  0  0  0
  133.5173  135.3354  161.7166 C   0  0  0  0  0  0  0  0  0  0  0  0
  134.6607  135.7791  162.3546 C   0  0  0  0  0  0  0  0  0  0  0  0
  133.1653  135.3107  160.2443 C   0  0  0  0  0  0  0  0  0  0  0  0
  131.6335  135.1280  160.1981 C   0  0  1  0  0  0  0  0  0  0  0  0
  131.1260  136.0922  160.1646 H   0  0  0  0  0  0  0  0  0  0  0  0
  131.2425  134.2965  159.0571 N   0  0  0  0  0  0  0  0  0  0  0  0
  129.9155  134.0124  158.8362 C   0  0  0  0  0  0  0  0  0  0  0  0
  129.5486  133.2319  157.7655 N   0  0  0  0  0  0  0  0  0  0  0  0
  130.5717  132.7030  156.8599 C   0  0  0  0  0  0  0  0  0  0  0  0
  129.9642  132.3485  155.4828 C   0  0  0  0  0  0  0  0  0  0  0  0
  130.6879  131.0916  155.0566 C   0  0  0  0  0  0  0  0  0  0  0  0
  131.2939  130.5320  156.0682 C   0  0  0  0  0  0  0  0  0  0  0  0
  131.0754  131.3215  157.3380 C   0  0  0  0  0  0  0  0  0  0  0  0
  129.0053  134.4827  159.6420 N   0  0  0  0  0  0  0  0  0  0  0  0
  129.1503  135.3267  160.0976 H   0  0  0  0  0  0  0  0  0  0  0  0
  127.7635  133.7366  159.8598 C   0  0  2  0  0  0  0  0  0  0  0  0
  127.9402  132.6666  159.7507 H   0  0  0  0  0  0  0  0  0  0  0  0
  126.6972  134.1954  158.8924 C   0  0  0  0  0  0  0  0  0  0  0  0
  125.8445  134.9927  159.4764 C   0  0  0  0  0  0  0  0  0  0  0  0
  126.1945  135.1909  160.9329 C   0  0  1  0  0  0  0  0  0  0  0  0
  126.6714  136.1605  161.0766 H   0  0  0  0  0  0  0  0  0  0  0  0
  125.0270  135.0855  161.7500 O   0  0  0  0  0  0  0  0  0  0  0  0
  127.1854  134.0496  161.2595 C   0  0  1  0  0  0  0  0  0  0  0  0
  127.9668  134.3919  161.9379 H   0  0  0  0  0  0  0  0  0  0  0  0
  126.2468  132.4891  162.0004 Br  0  0  0  0  0  0  0  0  0  0  0  0
  131.3458  134.4026  161.5296 C   0  0  0  0  0  0  0  0  0  0  0  0
  136.1981  137.5888  164.9170 C   0  0  0  0  0  0  0  0  0  0  0  0
  137.3815  137.4854  165.9090 C   0  0  0  0  0  0  0  0  0  0  0  0
  138.1072  136.2211  165.3944 C   0  0  0  0  0  0  0  0  0  0  0  0
  137.5921  133.8689  163.3331 H   0  0  0  0  0  0  0  0  0  0  0  0
  137.7944  133.4612  165.0539 H   0  0  0  0  0  0  0  0  0  0  0  0
  136.1667  133.5059  164.3353 H   0  0  0  0  0  0  0  0  0  0  0  0
  133.7723  135.1115  165.5590 H   0  0  0  0  0  0  0  0  0  0  0  0
  131.7479  134.3264  164.4098 H   0  0  0  0  0  0  0  0  0  0  0  0
  135.4771  136.1863  161.7766 H   0  0  0  0  0  0  0  0  0  0  0  0
  133.6608  134.4746  159.7509 H   0  0  0  0  0  0  0  0  0  0  0  0
  133.4483  136.2513  159.7719 H   0  0  0  0  0  0  0  0  0  0  0  0
  131.9197  133.9463  158.4575 H   0  0  0  0  0  0  0  0  0  0  0  0
  128.6125  133.0314  157.6096 H   0  0  0  0  0  0  0  0  0  0  0  0
  131.3982  133.4057  156.7538 H   0  0  0  0  0  0  0  0  0  0  0  0
  128.8952  132.1577  155.5770 H   0  0  0  0  0  0  0  0  0  0  0  0
  130.1459  133.1524  154.7693 H   0  0  0  0  0  0  0  0  0  0  0  0
  130.7017  130.7073  154.0474 H   0  0  0  0  0  0  0  0  0  0  0  0
  131.8756  129.6243  156.0057 H   0  0  0  0  0  0  0  0  0  0  0  0
  132.0122  131.4275  157.8851 H   0  0  0  0  0  0  0  0  0  0  0  0
  130.3233  130.8377  157.9611 H   0  0  0  0  0  0  0  0  0  0  0  0
  126.6496  133.9056  157.8532 H   0  0  0  0  0  0  0  0  0  0  0  0
  124.9987  135.4490  158.9838 H   0  0  0  0  0  0  0  0  0  0  0  0
  124.3699  135.7764  161.5881 H   0  0  0  0  0  0  0  0  0  0  0  0
  130.3860  134.7231  161.9350 H   0  0  0  0  0  0  0  0  0  0  0  0
  131.3513  133.3229  161.3809 H   0  0  0  0  0  0  0  0  0  0  0  0
  136.4537  138.2446  164.0847 H   0  0  0  0  0  0  0  0  0  0  0  0
  135.3070  137.9529  165.4281 H   0  0  0  0  0  0  0  0  0  0  0  0
  137.0286  137.3445  166.9305 H   0  0  0  0  0  0  0  0  0  0  0  0
  138.0258  138.3617  165.8380 H   0  0  0  0  0  0  0  0  0  0  0  0
  138.5159  135.6519  166.2293 H   0  0  0  0  0  0  0  0  0  0  0  0
  138.8991  136.4954  164.6974 H   0  0  0  0  0  0  0  0  0  0  0  0
  1  2  1  0
  1 37  1  0
  1 38  1  0
  1 39  1  0
  2 36  1  0
  2  3  2  0
  3  4  1  0
  3 34  1  0
  4  9  1  0
  4  5  2  0
  5  6  1  0
  5 40  1  0
  6  7  2  0
  6 41  1  0
  7 33  1  0
  7  8  1  0
  8  9  2  0
  8 10  1  0
  9 42  1  0
 10 11  1  0
 10 43  1  0
 10 44  1  0
 11 12  1  1
 11 13  1  0
 11 33  1  0
 13 45  1  0
 14 13  1  0
 14 15  1  0
 14 21  2  0
 15 16  1  0
 15 46  1  0
 16 20  1  0
 16 17  1  0
 16 47  1  0
 17 18  1  0
 17 48  1  0
 17 49  1  0
 18 19  2  0
 18 50  1  0
 19 20  1  0
 19 51  1  0
 20 52  1  0
 20 53  1  0
 21 22  1  0
 21 23  1  0
 23 24  1  1
 23 30  1  0
 23 25  1  0
 25 26  2  0
 25 54  1  0
 26 27  1  0
 26 55  1  0
 27 28  1  6
 27 29  1  0
 27 30  1  0
 29 56  1  0
 30 31  1  1
 30 32  1  0
 33 57  1  0
 33 58  1  0
 34 35  1  0
 34 59  1  0
 34 60  1  0
 35 36  1  0
 35 61  1  0
 35 62  1  0
 36 63  1  0
 36 64  1  0
M  CHG  1  21   1
M  END
>  <DOCK_score>  (1) 
-50.674706

>  <SMILES>  (1) 
CC1=C(c2ccc3c(c2)C[C@@H](NC(NC2CC=CC2)=[NH+][C@@H]2C=C[C@@H](O)[C@H]2Br)C3)CCC1

$$$$
