Cc1cccc(C2=CC[N@@H+](CC3=Cc4cc(Br)ccc4OC3)CC2)c1C
     RDKit          3D

 51 54  0  0  1  0  0  0  0  0999 V2000
  136.2717  141.0329  163.0870 C   0  0  0  0  0  0  0  0  0  0  0  0
  135.6821  140.6488  161.7544 C   0  0  0  0  0  0  0  0  0  0  0  0
  136.1080  141.2850  160.6012 C   0  0  0  0  0  0  0  0  0  0  0  0
  135.5714  140.9389  159.3750 C   0  0  0  0  0  0  0  0  0  0  0  0
  134.6067  139.9555  159.2931 C   0  0  0  0  0  0  0  0  0  0  0  0
  134.1730  139.3100  160.4515 C   0  0  0  0  0  0  0  0  0  0  0  0
  133.1396  138.2561  160.3712 C   0  0  0  0  0  0  0  0  0  0  0  0
  133.4353  137.0446  160.7903 C   0  0  0  0  0  0  0  0  0  0  0  0
  132.4556  135.9073  160.7573 C   0  0  0  0  0  0  0  0  0  0  0  0
  131.3535  136.2078  159.8361 N   0  0  1  0  0  0  0  0  0  0  0  0
  131.7022  136.2342  158.8896 H   0  0  0  0  0  0  0  0  0  0  0  0
  130.3192  135.1712  159.9522 C   0  0  0  0  0  0  0  0  0  0  0  0
  130.7341  133.9568  159.1621 C   0  0  0  0  0  0  0  0  0  0  0  0
  130.3862  133.8479  157.8837 C   0  0  0  0  0  0  0  0  0  0  0  0
  130.7796  132.6254  157.1517 C   0  0  0  0  0  0  0  0  0  0  0  0
  130.7079  132.5560  155.7646 C   0  0  0  0  0  0  0  0  0  0  0  0
  131.0988  131.3980  155.1190 C   0  0  0  0  0  0  0  0  0  0  0  0
  131.0033  131.2934  153.2333 Br  0  0  0  0  0  0  0  0  0  0  0  0
  131.5600  130.3140  155.8470 C   0  0  0  0  0  0  0  0  0  0  0  0
  131.6291  130.3733  157.2275 C   0  0  0  0  0  0  0  0  0  0  0  0
  131.2344  131.5226  157.8869 C   0  0  0  0  0  0  0  0  0  0  0  0
  131.2546  131.5999  159.2426 O   0  0  0  0  0  0  0  0  0  0  0  0
  131.5466  132.8743  159.8220 C   0  0  0  0  0  0  0  0  0  0  0  0
  130.7802  137.5169  160.1864 C   0  0  0  0  0  0  0  0  0  0  0  0
  131.7878  138.6072  159.8130 C   0  0  0  0  0  0  0  0  0  0  0  0
  134.7148  139.6675  161.6868 C   0  0  0  0  0  0  0  0  0  0  0  0
  134.2477  138.9798  162.9438 C   0  0  0  0  0  0  0  0  0  0  0  0
  135.6799  141.8346  163.5286 H   0  0  0  0  0  0  0  0  0  0  0  0
  136.2643  140.1679  163.7504 H   0  0  0  0  0  0  0  0  0  0  0  0
  137.2974  141.3738  162.9458 H   0  0  0  0  0  0  0  0  0  0  0  0
  136.8622  142.0559  160.6607 H   0  0  0  0  0  0  0  0  0  0  0  0
  135.9079  141.4393  158.4790 H   0  0  0  0  0  0  0  0  0  0  0  0
  134.1885  139.6860  158.3346 H   0  0  0  0  0  0  0  0  0  0  0  0
  134.4272  136.8601  161.1756 H   0  0  0  0  0  0  0  0  0  0  0  0
  132.0552  135.7468  161.7583 H   0  0  0  0  0  0  0  0  0  0  0  0
  132.9653  135.0023  160.4266 H   0  0  0  0  0  0  0  0  0  0  0  0
  130.1947  134.8978  161.0000 H   0  0  0  0  0  0  0  0  0  0  0  0
  129.3760  135.5536  159.5619 H   0  0  0  0  0  0  0  0  0  0  0  0
  129.8300  134.6325  157.3922 H   0  0  0  0  0  0  0  0  0  0  0  0
  130.3493  133.4010  155.1957 H   0  0  0  0  0  0  0  0  0  0  0  0
  131.8677  129.4152  155.3333 H   0  0  0  0  0  0  0  0  0  0  0  0
  131.9901  129.5238  157.7884 H   0  0  0  0  0  0  0  0  0  0  0  0
  132.6068  133.0950  159.6971 H   0  0  0  0  0  0  0  0  0  0  0  0
  131.3098  132.8462  160.8856 H   0  0  0  0  0  0  0  0  0  0  0  0
  129.8534  137.6703  159.6334 H   0  0  0  0  0  0  0  0  0  0  0  0
  130.5807  137.5543  161.2573 H   0  0  0  0  0  0  0  0  0  0  0  0
  131.8524  138.6855  158.7277 H   0  0  0  0  0  0  0  0  0  0  0  0
  131.4609  139.5609  160.2270 H   0  0  0  0  0  0  0  0  0  0  0  0
  134.8685  138.1035  163.1307 H   0  0  0  0  0  0  0  0  0  0  0  0
  134.3273  139.6677  163.7854 H   0  0  0  0  0  0  0  0  0  0  0  0
  133.2094  138.6704  162.8243 H   0  0  0  0  0  0  0  0  0  0  0  0
  1  2  1  0
  1 28  1  0
  1 29  1  0
  1 30  1  0
  2 26  2  0
  2  3  1  0
  3  4  2  0
  3 31  1  0
  4  5  1  0
  4 32  1  0
  5  6  2  0
  5 33  1  0
  6  7  1  0
  6 26  1  0
  7 25  1  0
  7  8  2  0
  8  9  1  0
  8 34  1  0
  9 10  1  0
  9 35  1  0
  9 36  1  0
 10 11  1  6
 10 12  1  0
 10 24  1  0
 12 13  1  0
 12 37  1  0
 12 38  1  0
 13 23  1  0
 13 14  2  0
 14 15  1  0
 14 39  1  0
 15 21  2  0
 15 16  1  0
 16 17  2  0
 16 40  1  0
 17 18  1  0
 17 19  1  0
 19 20  2  0
 19 41  1  0
 20 21  1  0
 20 42  1  0
 21 22  1  0
 22 23  1  0
 23 43  1  0
 23 44  1  0
 24 25  1  0
 24 45  1  0
 24 46  1  0
 25 47  1  0
 25 48  1  0
 26 27  1  0
 27 49  1  0
 27 50  1  0
 27 51  1  0
M  CHG  1  10   1
M  END
>  <DOCK_score>  (1) 
-57.314598

>  <SMILES>  (1) 
Cc1cccc(C2=CC[N@@H+](CC3=Cc4cc(Br)ccc4OC3)CC2)c1C

$$$$
