Cc1nn(C(C)C)cc1[C@H]1[NH2+]CCc2c1[nH]c1ccc(O)cc21
     RDKit          3D

 46 49  0  0  1  0  0  0  0  0999 V2000
  131.1673  129.9545  158.6299 C   0  0  0  0  0  0  0  0  0  0  0  0
  130.7579  130.7881  157.4431 C   0  0  0  0  0  0  0  0  0  0  0  0
  130.6783  130.3731  156.2048 N   0  0  0  0  0  0  0  0  0  0  0  0
  130.2645  131.4486  155.4084 N   0  0  0  0  0  0  0  0  0  0  0  0
  130.0489  131.4156  153.9599 C   0  0  0  0  0  0  0  0  0  0  0  0
  130.3399  132.7966  153.3692 C   0  0  0  0  0  0  0  0  0  0  0  0
  130.9852  130.3833  153.3284 C   0  0  0  0  0  0  0  0  0  0  0  0
  130.0942  132.5192  156.2122 C   0  0  0  0  0  0  0  0  0  0  0  0
  130.3980  132.1393  157.4750 C   0  0  0  0  0  0  0  0  0  0  0  0
  130.3507  133.0156  158.7001 C   0  0  1  0  0  0  0  0  0  0  0  0
  131.0920  132.6747  159.4228 H   0  0  0  0  0  0  0  0  0  0  0  0
  130.6335  134.4091  158.3221 N   0  0  0  0  0  0  0  0  0  0  0  0
  130.0214  134.6814  157.5677 H   0  0  0  0  0  0  0  0  0  0  0  0
  131.5925  134.4823  158.0173 H   0  0  0  0  0  0  0  0  0  0  0  0
  130.4183  135.3010  159.4693 C   0  0  0  0  0  0  0  0  0  0  0  0
  128.9123  135.4358  159.7383 C   0  0  0  0  0  0  0  0  0  0  0  0
  128.3276  134.0468  159.7761 C   0  0  0  0  0  0  0  0  0  0  0  0
  128.9738  132.9539  159.3193 C   0  0  0  0  0  0  0  0  0  0  0  0
  128.1878  131.8533  159.4939 N   0  0  0  0  0  0  0  0  0  0  0  0
  128.4323  130.9487  159.2433 H   0  0  0  0  0  0  0  0  0  0  0  0
  126.9945  132.2171  160.0860 C   0  0  0  0  0  0  0  0  0  0  0  0
  125.8694  131.5005  160.4788 C   0  0  0  0  0  0  0  0  0  0  0  0
  124.8038  132.1520  161.0577 C   0  0  0  0  0  0  0  0  0  0  0  0
  124.8390  133.5302  161.2557 C   0  0  0  0  0  0  0  0  0  0  0  0
  123.7778  134.1592  161.8279 O   0  0  0  0  0  0  0  0  0  0  0  0
  125.9459  134.2601  160.8734 C   0  0  0  0  0  0  0  0  0  0  0  0
  127.0348  133.6110  160.2856 C   0  0  0  0  0  0  0  0  0  0  0  0
  130.2849  129.4885  159.0684 H   0  0  0  0  0  0  0  0  0  0  0  0
  131.8643  129.1809  158.3075 H   0  0  0  0  0  0  0  0  0  0  0  0
  131.6489  130.5910  159.3722 H   0  0  0  0  0  0  0  0  0  0  0  0
  129.0142  131.1424  153.7527 H   0  0  0  0  0  0  0  0  0  0  0  0
  131.3746  133.0698  153.5764 H   0  0  0  0  0  0  0  0  0  0  0  0
  130.1796  132.7719  152.2914 H   0  0  0  0  0  0  0  0  0  0  0  0
  129.6729  133.5321  153.8191 H   0  0  0  0  0  0  0  0  0  0  0  0
  130.8248  130.3586  152.2506 H   0  0  0  0  0  0  0  0  0  0  0  0
  132.0198  130.6563  153.5356 H   0  0  0  0  0  0  0  0  0  0  0  0
  130.7778  129.3994  153.7492 H   0  0  0  0  0  0  0  0  0  0  0  0
  129.7752  133.5035  155.9028 H   0  0  0  0  0  0  0  0  0  0  0  0
  130.8373  136.2829  159.2497 H   0  0  0  0  0  0  0  0  0  0  0  0
  130.9087  134.8854  160.3496 H   0  0  0  0  0  0  0  0  0  0  0  0
  128.4446  136.0120  158.9400 H   0  0  0  0  0  0  0  0  0  0  0  0
  128.7509  135.9309  160.6959 H   0  0  0  0  0  0  0  0  0  0  0  0
  125.8317  130.4315  160.3300 H   0  0  0  0  0  0  0  0  0  0  0  0
  123.9328  131.5897  161.3605 H   0  0  0  0  0  0  0  0  0  0  0  0
  123.8922  135.1144  161.9248 H   0  0  0  0  0  0  0  0  0  0  0  0
  125.9708  135.3285  161.0285 H   0  0  0  0  0  0  0  0  0  0  0  0
  1  2  1  0
  1 28  1  0
  1 29  1  0
  1 30  1  0
  2  9  1  0
  2  3  2  0
  3  4  1  0
  4  5  1  0
  4  8  1  0
  5  6  1  0
  5  7  1  0
  5 31  1  0
  6 32  1  0
  6 33  1  0
  6 34  1  0
  7 35  1  0
  7 36  1  0
  7 37  1  0
  8  9  2  0
  8 38  1  0
  9 10  1  0
 10 11  1  1
 10 18  1  0
 10 12  1  0
 12 13  1  0
 12 14  1  0
 12 15  1  0
 15 16  1  0
 15 39  1  0
 15 40  1  0
 16 17  1  0
 16 41  1  0
 16 42  1  0
 17 27  1  0
 17 18  2  0
 18 19  1  0
 19 20  1  0
 19 21  1  0
 21 27  2  0
 21 22  1  0
 22 23  2  0
 22 43  1  0
 23 24  1  0
 23 44  1  0
 24 25  1  0
 24 26  2  0
 25 45  1  0
 26 27  1  0
 26 46  1  0
M  CHG  1  12   1
M  END
>  <DOCK_score>  (1) 
-46.911514

>  <SMILES>  (1) 
Cc1nn(C(C)C)cc1[C@H]1[NH2+]CCc2c1[nH]c1ccc(O)cc21

$$$$
