Cc1ccc(C[N@H+]2CC=C(c3cccc(-c4ccc(-c5ccccc5)cc4)c3)CC2)[nH]1
     RDKit          3D

 60 64  0  0  1  0  0  0  0  0999 V2000
  130.9573  132.1504  155.9038 C   0  0  0  0  0  0  0  0  0  0  0  0
  130.4302  132.6179  157.2360 C   0  0  0  0  0  0  0  0  0  0  0  0
  129.9438  131.8282  158.2149 C   0  0  0  0  0  0  0  0  0  0  0  0
  129.5621  132.6656  159.2817 C   0  0  0  0  0  0  0  0  0  0  0  0
  129.8296  133.9351  158.9141 C   0  0  0  0  0  0  0  0  0  0  0  0
  129.5819  135.1667  159.7463 C   0  0  0  0  0  0  0  0  0  0  0  0
  130.7557  136.0475  159.6789 N   0  0  1  0  0  0  0  0  0  0  0  0
  131.1193  136.0541  158.7377 H   0  0  0  0  0  0  0  0  0  0  0  0
  130.3705  137.4096  160.0662 C   0  0  0  0  0  0  0  0  0  0  0  0
  131.5861  138.2834  160.1849 C   0  0  0  0  0  0  0  0  0  0  0  0
  132.8046  137.8027  160.3060 C   0  0  0  0  0  0  0  0  0  0  0  0
  133.9355  138.7480  160.4194 C   0  0  0  0  0  0  0  0  0  0  0  0
  134.5869  139.2010  159.2704 C   0  0  0  0  0  0  0  0  0  0  0  0
  135.6427  140.0840  159.3755 C   0  0  0  0  0  0  0  0  0  0  0  0
  136.0614  140.5243  160.6160 C   0  0  0  0  0  0  0  0  0  0  0  0
  135.4190  140.0793  161.7710 C   0  0  0  0  0  0  0  0  0  0  0  0
  135.8706  140.5537  163.1018 C   0  0  0  0  0  0  0  0  0  0  0  0
  135.7213  139.7356  164.2211 C   0  0  0  0  0  0  0  0  0  0  0  0
  136.1451  140.1742  165.4563 C   0  0  0  0  0  0  0  0  0  0  0  0
  136.7132  141.4407  165.5893 C   0  0  0  0  0  0  0  0  0  0  0  0
  137.1633  141.9155  166.9202 C   0  0  0  0  0  0  0  0  0  0  0  0
  138.2336  142.8027  167.0211 C   0  0  0  0  0  0  0  0  0  0  0  0
  138.6451  143.2449  168.2620 C   0  0  0  0  0  0  0  0  0  0  0  0
  138.0040  142.8020  169.4046 C   0  0  0  0  0  0  0  0  0  0  0  0
  136.9445  141.9171  169.3108 C   0  0  0  0  0  0  0  0  0  0  0  0
  136.5214  141.4719  168.0750 C   0  0  0  0  0  0  0  0  0  0  0  0
  136.8576  142.2610  164.4707 C   0  0  0  0  0  0  0  0  0  0  0  0
  136.4391  141.8200  163.2346 C   0  0  0  0  0  0  0  0  0  0  0  0
  134.3503  139.1936  161.6724 C   0  0  0  0  0  0  0  0  0  0  0  0
  133.0884  136.3259  160.3324 C   0  0  0  0  0  0  0  0  0  0  0  0
  131.7913  135.5595  160.6034 C   0  0  0  0  0  0  0  0  0  0  0  0
  130.3626  133.9123  157.6594 N   0  0  0  0  0  0  0  0  0  0  0  0
  130.6471  134.6883  157.1520 H   0  0  0  0  0  0  0  0  0  0  0  0
  132.0266  131.9556  155.9844 H   0  0  0  0  0  0  0  0  0  0  0  0
  130.4422  131.2359  155.6100 H   0  0  0  0  0  0  0  0  0  0  0  0
  130.7841  132.9221  155.1536 H   0  0  0  0  0  0  0  0  0  0  0  0
  129.8625  130.7516  158.1866 H   0  0  0  0  0  0  0  0  0  0  0  0
  129.1376  132.3486  160.2228 H   0  0  0  0  0  0  0  0  0  0  0  0
  128.7089  135.6948  159.3629 H   0  0  0  0  0  0  0  0  0  0  0  0
  129.4048  134.8760  160.7818 H   0  0  0  0  0  0  0  0  0  0  0  0
  129.6999  137.8226  159.3126 H   0  0  0  0  0  0  0  0  0  0  0  0
  129.8547  137.3793  161.0260 H   0  0  0  0  0  0  0  0  0  0  0  0
  131.4537  139.3552  160.1687 H   0  0  0  0  0  0  0  0  0  0  0  0
  134.2639  138.8601  158.2978 H   0  0  0  0  0  0  0  0  0  0  0  0
  136.1436  140.4318  158.4842 H   0  0  0  0  0  0  0  0  0  0  0  0
  136.8879  141.2153  160.6915 H   0  0  0  0  0  0  0  0  0  0  0  0
  135.2768  138.7566  164.1189 H   0  0  0  0  0  0  0  0  0  0  0  0
  136.0332  139.5388  166.3224 H   0  0  0  0  0  0  0  0  0  0  0  0
  138.7375  143.1462  166.1299 H   0  0  0  0  0  0  0  0  0  0  0  0
  139.4719  143.9353  168.3412 H   0  0  0  0  0  0  0  0  0  0  0  0
  138.3322  143.1478  170.3738 H   0  0  0  0  0  0  0  0  0  0  0  0
  136.4479  141.5740  170.2065 H   0  0  0  0  0  0  0  0  0  0  0  0
  135.6947  140.7807  168.0029 H   0  0  0  0  0  0  0  0  0  0  0  0
  137.2974  143.2420  164.5737 H   0  0  0  0  0  0  0  0  0  0  0  0
  136.5510  142.4553  162.3683 H   0  0  0  0  0  0  0  0  0  0  0  0
  133.8473  138.8495  162.5640 H   0  0  0  0  0  0  0  0  0  0  0  0
  133.8097  136.1090  161.1203 H   0  0  0  0  0  0  0  0  0  0  0  0
  133.4981  136.0177  159.3705 H   0  0  0  0  0  0  0  0  0  0  0  0
  131.4734  135.7302  161.6320 H   0  0  0  0  0  0  0  0  0  0  0  0
  131.9526  134.4935  160.4425 H   0  0  0  0  0  0  0  0  0  0  0  0
  1  2  1  0
  1 34  1  0
  1 35  1  0
  1 36  1  0
  2 32  1  0
  2  3  2  0
  3  4  1  0
  3 37  1  0
  4  5  2  0
  4 38  1  0
  5  6  1  0
  5 32  1  0
  6  7  1  0
  6 39  1  0
  6 40  1  0
  7  8  1  6
  7 31  1  0
  7  9  1  0
  9 10  1  0
  9 41  1  0
  9 42  1  0
 10 11  2  0
 10 43  1  0
 11 12  1  0
 11 30  1  0
 12 29  1  0
 12 13  2  0
 13 14  1  0
 13 44  1  0
 14 15  2  0
 14 45  1  0
 15 16  1  0
 15 46  1  0
 16 17  1  0
 16 29  2  0
 17 28  1  0
 17 18  2  0
 18 19  1  0
 18 47  1  0
 19 20  2  0
 19 48  1  0
 20 21  1  0
 20 27  1  0
 21 26  1  0
 21 22  2  0
 22 23  1  0
 22 49  1  0
 23 24  2  0
 23 50  1  0
 24 25  1  0
 24 51  1  0
 25 26  2  0
 25 52  1  0
 26 53  1  0
 27 28  2  0
 27 54  1  0
 28 55  1  0
 29 56  1  0
 30 31  1  0
 30 57  1  0
 30 58  1  0
 31 59  1  0
 31 60  1  0
 32 33  1  0
M  CHG  1   7   1
M  END
>  <DOCK_score>  (1) 
-60.229202

>  <SMILES>  (1) 
Cc1ccc(C[N@H+]2CC=C(c3cccc(-c4ccc(-c5ccccc5)cc4)c3)CC2)[nH]1

$$$$
