Cc1ccc(N[C@H](C)c2ccoc2)c(N[C@@H](C)c2ccnn2C)[nH+]1
     RDKit          3D

 48 50  0  0  1  0  0  0  0  0999 V2000
  133.1110  135.6445  164.5275 C   0  0  0  0  0  0  0  0  0  0  0  0
  132.4318  135.5617  163.1847 C   0  0  0  0  0  0  0  0  0  0  0  0
  131.4275  134.6361  162.9869 C   0  0  0  0  0  0  0  0  0  0  0  0
  130.8035  134.5619  161.7489 C   0  0  0  0  0  0  0  0  0  0  0  0
  131.2173  135.4295  160.7467 C   0  0  0  0  0  0  0  0  0  0  0  0
  130.6182  135.3920  159.4818 N   0  0  0  0  0  0  0  0  0  0  0  0
  129.5461  134.4322  159.2074 C   0  0  2  0  0  0  0  0  0  0  0  0
  129.7840  133.4776  159.6766 H   0  0  0  0  0  0  0  0  0  0  0  0
  129.4102  134.2377  157.6957 C   0  0  0  0  0  0  0  0  0  0  0  0
  128.2478  134.9562  159.7650 C   0  0  0  0  0  0  0  0  0  0  0  0
  126.9865  134.3206  159.7026 C   0  0  0  0  0  0  0  0  0  0  0  0
  126.1102  135.1320  160.3217 C   0  0  0  0  0  0  0  0  0  0  0  0
  126.7702  136.2192  160.7532 O   0  0  0  0  0  0  0  0  0  0  0  0
  128.0679  136.1157  160.4230 C   0  0  0  0  0  0  0  0  0  0  0  0
  132.2407  136.3405  161.0203 C   0  0  0  0  0  0  0  0  0  0  0  0
  132.6685  137.2180  160.0267 N   0  0  0  0  0  0  0  0  0  0  0  0
  133.1977  138.5347  160.3907 C   0  0  1  0  0  0  0  0  0  0  0  0
  133.8222  138.4424  161.2791 H   0  0  0  0  0  0  0  0  0  0  0  0
  134.0342  139.0857  159.2340 C   0  0  0  0  0  0  0  0  0  0  0  0
  132.0544  139.4743  160.6757 C   0  0  0  0  0  0  0  0  0  0  0  0
  130.8239  139.4268  160.1148 C   0  0  0  0  0  0  0  0  0  0  0  0
  130.0657  140.4726  160.6515 C   0  0  0  0  0  0  0  0  0  0  0  0
  130.8142  141.1245  161.5039 N   0  0  0  0  0  0  0  0  0  0  0  0
  132.0726  140.5102  161.5404 N   0  0  0  0  0  0  0  0  0  0  0  0
  133.2088  140.9215  162.3688 C   0  0  0  0  0  0  0  0  0  0  0  0
  132.8103  136.3723  162.2135 N   0  0  0  0  0  0  0  0  0  0  0  0
  133.5216  137.0102  162.3806 H   0  0  0  0  0  0  0  0  0  0  0  0
  133.9710  134.9751  164.5417 H   0  0  0  0  0  0  0  0  0  0  0  0
  133.4437  136.6674  164.7038 H   0  0  0  0  0  0  0  0  0  0  0  0
  132.4091  135.3511  165.3083 H   0  0  0  0  0  0  0  0  0  0  0  0
  131.1298  133.9752  163.7877 H   0  0  0  0  0  0  0  0  0  0  0  0
  130.0153  133.8457  161.5692 H   0  0  0  0  0  0  0  0  0  0  0  0
  130.9132  136.0014  158.7873 H   0  0  0  0  0  0  0  0  0  0  0  0
  128.6125  133.5235  157.4916 H   0  0  0  0  0  0  0  0  0  0  0  0
  129.1723  135.1922  157.2266 H   0  0  0  0  0  0  0  0  0  0  0  0
  130.3491  133.8587  157.2924 H   0  0  0  0  0  0  0  0  0  0  0  0
  126.7683  133.3665  159.2461 H   0  0  0  0  0  0  0  0  0  0  0  0
  125.0549  134.9415  160.4501 H   0  0  0  0  0  0  0  0  0  0  0  0
  128.8362  136.8414  160.6455 H   0  0  0  0  0  0  0  0  0  0  0  0
  132.6159  136.9573  159.0939 H   0  0  0  0  0  0  0  0  0  0  0  0
  134.4279  140.0652  159.5047 H   0  0  0  0  0  0  0  0  0  0  0  0
  134.8611  138.4060  159.0278 H   0  0  0  0  0  0  0  0  0  0  0  0
  133.4096  139.1778  158.3455 H   0  0  0  0  0  0  0  0  0  0  0  0
  130.4869  138.7087  159.3820 H   0  0  0  0  0  0  0  0  0  0  0  0
  129.0399  140.7026  160.4043 H   0  0  0  0  0  0  0  0  0  0  0  0
  133.8136  141.6454  161.8224 H   0  0  0  0  0  0  0  0  0  0  0  0
  132.8418  141.3757  163.2892 H   0  0  0  0  0  0  0  0  0  0  0  0
  133.8164  140.0496  162.6111 H   0  0  0  0  0  0  0  0  0  0  0  0
  1 28  1  0
  1 29  1  0
  1 30  1  0
  2  1  1  0
  2 26  2  0
  2  3  1  0
  3  4  2  0
  3 31  1  0
  4  5  1  0
  4 32  1  0
  5  6  1  0
  5 15  2  0
  6  7  1  0
  6 33  1  0
  7  8  1  1
  7  9  1  0
  7 10  1  0
  9 34  1  0
  9 35  1  0
  9 36  1  0
 10 14  2  0
 10 11  1  0
 11 12  2  0
 11 37  1  0
 12 13  1  0
 12 38  1  0
 13 14  1  0
 14 39  1  0
 15 16  1  0
 15 26  1  0
 16 17  1  0
 16 40  1  0
 17 18  1  1
 17 19  1  0
 17 20  1  0
 19 41  1  0
 19 42  1  0
 19 43  1  0
 20 24  1  0
 20 21  2  0
 21 22  1  0
 21 44  1  0
 22 23  2  0
 22 45  1  0
 23 24  1  0
 24 25  1  0
 25 46  1  0
 25 47  1  0
 25 48  1  0
 26 27  1  0
M  CHG  1  26   1
M  END
>  <DOCK_score>  (1) 
-41.886391

>  <SMILES>  (1) 
Cc1ccc(N[C@H](C)c2ccoc2)c(N[C@@H](C)c2ccnn2C)[nH+]1

$$$$
