CCc1ccc(-c2c[nH]c(N[C@@H](C)Cc3ccc(C4CC4)cc3)[nH+]2)cc1
     RDKit          3D

 54 57  0  0  1  0  0  0  0  0999 V2000
  130.0349  129.3295  151.7904 C   0  0  0  0  0  0  0  0  0  0  0  0
  131.3391  129.8808  152.3700 C   0  0  0  0  0  0  0  0  0  0  0  0
  131.0488  130.6084  153.6574 C   0  0  0  0  0  0  0  0  0  0  0  0
  131.0749  129.9218  154.8579 C   0  0  0  0  0  0  0  0  0  0  0  0
  130.8154  130.5842  156.0405 C   0  0  0  0  0  0  0  0  0  0  0  0
  130.5154  131.9451  156.0224 C   0  0  0  0  0  0  0  0  0  0  0  0
  130.2301  132.6615  157.2896 C   0  0  0  0  0  0  0  0  0  0  0  0
  129.6798  132.1215  158.4052 C   0  0  0  0  0  0  0  0  0  0  0  0
  129.5938  133.1291  159.3350 N   0  0  0  0  0  0  0  0  0  0  0  0
  129.2410  133.0515  160.2352 H   0  0  0  0  0  0  0  0  0  0  0  0
  130.0946  134.2563  158.7599 C   0  0  0  0  0  0  0  0  0  0  0  0
  130.1878  135.4975  159.3657 N   0  0  0  0  0  0  0  0  0  0  0  0
  129.7241  135.6766  160.7439 C   0  0  1  0  0  0  0  0  0  0  0  0
  128.8015  135.1156  160.8924 H   0  0  0  0  0  0  0  0  0  0  0  0
  130.7931  135.1663  161.7122 C   0  0  0  0  0  0  0  0  0  0  0  0
  129.4658  137.1618  161.0060 C   0  0  0  0  0  0  0  0  0  0  0  0
  130.7414  137.9375  160.8005 C   0  0  0  0  0  0  0  0  0  0  0  0
  131.0463  138.4481  159.5527 C   0  0  0  0  0  0  0  0  0  0  0  0
  132.2142  139.1636  159.3651 C   0  0  0  0  0  0  0  0  0  0  0  0
  133.0817  139.3602  160.4233 C   0  0  0  0  0  0  0  0  0  0  0  0
  134.3567  140.1370  160.2180 C   0  0  0  0  0  0  0  0  0  0  0  0
  135.2612  139.7161  159.0579 C   0  0  0  0  0  0  0  0  0  0  0  0
  135.6763  139.4156  160.4995 C   0  0  0  0  0  0  0  0  0  0  0  0
  132.7793  138.8452  161.6698 C   0  0  0  0  0  0  0  0  0  0  0  0
  131.6092  138.1335  161.8585 C   0  0  0  0  0  0  0  0  0  0  0  0
  130.4791  133.9715  157.5396 N   0  0  0  0  0  0  0  0  0  0  0  0
  130.8761  134.5980  156.9144 H   0  0  0  0  0  0  0  0  0  0  0  0
  130.4850  132.6306  154.8092 C   0  0  0  0  0  0  0  0  0  0  0  0
  130.7516  131.9592  153.6334 C   0  0  0  0  0  0  0  0  0  0  0  0
  129.3474  130.1524  151.5955 H   0  0  0  0  0  0  0  0  0  0  0  0
  130.2449  128.8031  150.8594 H   0  0  0  0  0  0  0  0  0  0  0  0
  129.5831  128.6399  152.5037 H   0  0  0  0  0  0  0  0  0  0  0  0
  132.0266  129.0576  152.5650 H   0  0  0  0  0  0  0  0  0  0  0  0
  131.7908  130.5702  151.6568 H   0  0  0  0  0  0  0  0  0  0  0  0
  131.3028  128.8661  154.8702 H   0  0  0  0  0  0  0  0  0  0  0  0
  130.8407  130.0482  156.9778 H   0  0  0  0  0  0  0  0  0  0  0  0
  129.3685  131.0959  158.5372 H   0  0  0  0  0  0  0  0  0  0  0  0
  130.5604  136.2486  158.8779 H   0  0  0  0  0  0  0  0  0  0  0  0
  131.7157  135.7273  161.5633 H   0  0  0  0  0  0  0  0  0  0  0  0
  130.4480  135.2996  162.7374 H   0  0  0  0  0  0  0  0  0  0  0  0
  130.9772  134.1083  161.5253 H   0  0  0  0  0  0  0  0  0  0  0  0
  128.7043  137.5254  160.3161 H   0  0  0  0  0  0  0  0  0  0  0  0
  129.1207  137.2951  162.0313 H   0  0  0  0  0  0  0  0  0  0  0  0
  130.3705  138.2912  158.7249 H   0  0  0  0  0  0  0  0  0  0  0  0
  132.4504  139.5663  158.3912 H   0  0  0  0  0  0  0  0  0  0  0  0
  134.3033  141.1994  160.4551 H   0  0  0  0  0  0  0  0  0  0  0  0
  134.9340  138.8776  158.4432 H   0  0  0  0  0  0  0  0  0  0  0  0
  135.8030  140.5019  158.5315 H   0  0  0  0  0  0  0  0  0  0  0  0
  136.4912  140.0037  160.9216 H   0  0  0  0  0  0  0  0  0  0  0  0
  135.6222  138.3795  160.8337 H   0  0  0  0  0  0  0  0  0  0  0  0
  133.4569  138.9989  162.4967 H   0  0  0  0  0  0  0  0  0  0  0  0
  131.3730  137.7310  162.8324 H   0  0  0  0  0  0  0  0  0  0  0  0
  130.2528  133.6853  154.7894 H   0  0  0  0  0  0  0  0  0  0  0  0
  130.7280  132.4893  152.6927 H   0  0  0  0  0  0  0  0  0  0  0  0
  1  2  1  0
  1 30  1  0
  1 31  1  0
  1 32  1  0
  2  3  1  0
  2 33  1  0
  2 34  1  0
  3 29  2  0
  3  4  1  0
  4  5  2  0
  4 35  1  0
  5  6  1  0
  5 36  1  0
  6  7  1  0
  6 28  2  0
  7 26  1  0
  7  8  2  0
  8  9  1  0
  8 37  1  0
  9 10  1  0
  9 11  1  0
 11 12  1  0
 11 26  2  0
 12 13  1  0
 12 38  1  0
 13 14  1  6
 13 15  1  0
 13 16  1  0
 15 39  1  0
 15 40  1  0
 15 41  1  0
 16 17  1  0
 16 42  1  0
 16 43  1  0
 17 25  1  0
 17 18  2  0
 18 19  1  0
 18 44  1  0
 19 20  2  0
 19 45  1  0
 20 21  1  0
 20 24  1  0
 21 23  1  0
 21 22  1  0
 21 46  1  0
 22 23  1  0
 22 47  1  0
 22 48  1  0
 23 49  1  0
 23 50  1  0
 24 25  2  0
 24 51  1  0
 25 52  1  0
 26 27  1  0
 28 29  1  0
 28 53  1  0
 29 54  1  0
M  CHG  1  26   1
M  END
>  <DOCK_score>  (1) 
-56.271706

>  <SMILES>  (1) 
CCc1ccc(-c2c[nH]c(N[C@@H](C)Cc3ccc(C4CC4)cc3)[nH+]2)cc1

$$$$
