CCc1ccc([C@H](Nc2[nH]cc(-c3ccc(N)cc3)[nH+]2)c2cccnc2)cc1
     RDKit          3D

 52 55  0  0  1  0  0  0  0  0999 V2000
  131.4917  140.6028  162.5147 C   0  0  0  0  0  0  0  0  0  0  0  0
  130.1277  140.6066  161.8228 C   0  0  0  0  0  0  0  0  0  0  0  0
  129.8401  139.2349  161.2691 C   0  0  0  0  0  0  0  0  0  0  0  0
  129.1849  138.2990  162.0472 C   0  0  0  0  0  0  0  0  0  0  0  0
  128.9215  137.0405  161.5395 C   0  0  0  0  0  0  0  0  0  0  0  0
  129.3136  136.7178  160.2538 C   0  0  0  0  0  0  0  0  0  0  0  0
  129.0265  135.3459  159.7003 C   0  0  2  0  0  0  0  0  0  0  0  0
  129.0194  134.6202  160.5136 H   0  0  0  0  0  0  0  0  0  0  0  0
  130.0637  134.9834  158.7313 N   0  0  0  0  0  0  0  0  0  0  0  0
  130.0113  133.7592  158.0868 C   0  0  0  0  0  0  0  0  0  0  0  0
  129.4719  132.6182  158.5953 N   0  0  0  0  0  0  0  0  0  0  0  0
  129.0590  132.5166  159.4672 H   0  0  0  0  0  0  0  0  0  0  0  0
  129.6206  131.6356  157.6452 C   0  0  0  0  0  0  0  0  0  0  0  0
  130.2459  132.2050  156.5853 C   0  0  0  0  0  0  0  0  0  0  0  0
  130.6159  131.5235  155.3207 C   0  0  0  0  0  0  0  0  0  0  0  0
  130.0932  131.9706  154.1081 C   0  0  0  0  0  0  0  0  0  0  0  0
  130.4430  131.3391  152.9332 C   0  0  0  0  0  0  0  0  0  0  0  0
  131.3069  130.2505  152.9585 C   0  0  0  0  0  0  0  0  0  0  0  0
  131.6556  129.6087  151.7677 N   0  0  0  0  0  0  0  0  0  0  0  0
  131.8245  129.7995  154.1669 C   0  0  0  0  0  0  0  0  0  0  0  0
  131.4821  130.4315  155.3438 C   0  0  0  0  0  0  0  0  0  0  0  0
  130.4681  133.5097  156.8837 N   0  0  0  0  0  0  0  0  0  0  0  0
  130.8982  134.1544  156.3005 H   0  0  0  0  0  0  0  0  0  0  0  0
  127.6823  135.3502  159.0191 C   0  0  0  0  0  0  0  0  0  0  0  0
  126.6705  134.5089  159.4571 C   0  0  0  0  0  0  0  0  0  0  0  0
  125.4489  134.5502  158.8033 C   0  0  0  0  0  0  0  0  0  0  0  0
  125.2839  135.4153  157.7378 C   0  0  0  0  0  0  0  0  0  0  0  0
  126.2701  136.1977  157.3456 N   0  0  0  0  0  0  0  0  0  0  0  0
  127.4440  136.1885  157.9467 C   0  0  0  0  0  0  0  0  0  0  0  0
  129.9741  137.6519  159.4776 C   0  0  0  0  0  0  0  0  0  0  0  0
  130.2339  138.9117  159.9839 C   0  0  0  0  0  0  0  0  0  0  0  0
  132.2639  140.3329  161.7944 H   0  0  0  0  0  0  0  0  0  0  0  0
  131.6991  141.5953  162.9150 H   0  0  0  0  0  0  0  0  0  0  0  0
  131.4843  139.8774  163.3282 H   0  0  0  0  0  0  0  0  0  0  0  0
  130.1348  141.3324  161.0090 H   0  0  0  0  0  0  0  0  0  0  0  0
  129.3552  140.8768  162.5428 H   0  0  0  0  0  0  0  0  0  0  0  0
  128.8779  138.5512  163.0514 H   0  0  0  0  0  0  0  0  0  0  0  0
  128.4091  136.3093  162.1473 H   0  0  0  0  0  0  0  0  0  0  0  0
  130.7894  135.5993  158.5443 H   0  0  0  0  0  0  0  0  0  0  0  0
  129.3007  130.6074  157.7273 H   0  0  0  0  0  0  0  0  0  0  0  0
  129.4182  132.8133  154.0885 H   0  0  0  0  0  0  0  0  0  0  0  0
  130.0422  131.6881  151.9930 H   0  0  0  0  0  0  0  0  0  0  0  0
  132.2586  128.8495  151.7844 H   0  0  0  0  0  0  0  0  0  0  0  0
  131.2946  129.9233  150.9238 H   0  0  0  0  0  0  0  0  0  0  0  0
  132.4953  128.9533  154.1844 H   0  0  0  0  0  0  0  0  0  0  0  0
  131.8849  130.0810  156.2824 H   0  0  0  0  0  0  0  0  0  0  0  0
  126.8294  133.8401  160.2902 H   0  0  0  0  0  0  0  0  0  0  0  0
  124.6374  133.9116  159.1198 H   0  0  0  0  0  0  0  0  0  0  0  0
  124.3363  135.4512  157.2211 H   0  0  0  0  0  0  0  0  0  0  0  0
  128.2280  136.8437  157.5970 H   0  0  0  0  0  0  0  0  0  0  0  0
  130.2843  137.3984  158.4747 H   0  0  0  0  0  0  0  0  0  0  0  0
  130.7466  139.6427  159.3763 H   0  0  0  0  0  0  0  0  0  0  0  0
  1  2  1  0
  1 32  1  0
  1 33  1  0
  1 34  1  0
  2  3  1  0
  2 35  1  0
  2 36  1  0
  3 31  2  0
  3  4  1  0
  4  5  2  0
  4 37  1  0
  5  6  1  0
  5 38  1  0
  6  7  1  0
  6 30  2  0
  7  8  1  1
  7  9  1  0
  7 24  1  0
  9 39  1  0
 10  9  1  0
 10 22  2  0
 10 11  1  0
 11 12  1  0
 11 13  1  0
 13 14  2  0
 13 40  1  0
 14 15  1  0
 14 22  1  0
 15 21  1  0
 15 16  2  0
 16 17  1  0
 16 41  1  0
 17 18  2  0
 17 42  1  0
 18 19  1  0
 18 20  1  0
 19 43  1  0
 19 44  1  0
 20 21  2  0
 20 45  1  0
 21 46  1  0
 22 23  1  0
 24 29  1  0
 24 25  2  0
 25 26  1  0
 25 47  1  0
 26 27  2  0
 26 48  1  0
 27 28  1  0
 27 49  1  0
 28 29  2  0
 29 50  1  0
 30 31  1  0
 30 51  1  0
 31 52  1  0
M  CHG  1  22   1
M  END
>  <DOCK_score>  (1) 
-58.190826

>  <SMILES>  (1) 
CCc1ccc([C@H](Nc2[nH]cc(-c3ccc(N)cc3)[nH+]2)c2cccnc2)cc1

$$$$
