Nc1ccc(-c2c[nH]c(N[C@@H](Cc3ncccc3C3CC3)c3cccc4ccccc34)[nH+]2)cc1
     RDKit          3D

 62 67  0  0  1  0  0  0  0  0999 V2000
  131.1858  129.6350  152.6051 N   0  0  0  0  0  0  0  0  0  0  0  0
  131.0551  130.3826  153.7781 C   0  0  0  0  0  0  0  0  0  0  0  0
  130.5795  131.6872  153.7200 C   0  0  0  0  0  0  0  0  0  0  0  0
  130.4502  132.4271  154.8764 C   0  0  0  0  0  0  0  0  0  0  0  0
  130.7965  131.8653  156.1044 C   0  0  0  0  0  0  0  0  0  0  0  0
  130.6587  132.6595  157.3499 C   0  0  0  0  0  0  0  0  0  0  0  0
  130.3896  132.1674  158.5842 C   0  0  0  0  0  0  0  0  0  0  0  0
  130.3493  133.2414  159.4416 N   0  0  0  0  0  0  0  0  0  0  0  0
  130.1773  133.2091  160.3956 H   0  0  0  0  0  0  0  0  0  0  0  0
  130.5953  134.3584  158.7043 C   0  0  0  0  0  0  0  0  0  0  0  0
  130.6430  135.6528  159.1929 N   0  0  0  0  0  0  0  0  0  0  0  0
  129.8295  136.0287  160.3518 C   0  0  1  0  0  0  0  0  0  0  0  0
  130.1096  135.4138  161.2072 H   0  0  0  0  0  0  0  0  0  0  0  0
  130.0661  137.5032  160.6843 C   0  0  0  0  0  0  0  0  0  0  0  0
  131.5233  137.7190  161.0023 C   0  0  0  0  0  0  0  0  0  0  0  0
  132.4344  136.9520  160.4359 N   0  0  0  0  0  0  0  0  0  0  0  0
  133.7207  137.1079  160.6799 C   0  0  0  0  0  0  0  0  0  0  0  0
  134.1613  138.0828  161.5550 C   0  0  0  0  0  0  0  0  0  0  0  0
  133.2324  138.9047  162.1740 C   0  0  0  0  0  0  0  0  0  0  0  0
  131.8888  138.7145  161.8882 C   0  0  0  0  0  0  0  0  0  0  0  0
  130.8406  139.5821  162.5360 C   0  0  0  0  0  0  0  0  0  0  0  0
  130.2956  140.7579  161.7228 C   0  0  0  0  0  0  0  0  0  0  0  0
  131.2366  141.0137  162.9026 C   0  0  0  0  0  0  0  0  0  0  0  0
  128.3723  135.8130  160.0340 C   0  0  0  0  0  0  0  0  0  0  0  0
  127.9255  135.9368  158.7540 C   0  0  0  0  0  0  0  0  0  0  0  0
  126.5819  135.7414  158.4410 C   0  0  0  0  0  0  0  0  0  0  0  0
  125.6769  135.4212  159.4061 C   0  0  0  0  0  0  0  0  0  0  0  0
  126.1006  135.2848  160.7387 C   0  0  0  0  0  0  0  0  0  0  0  0
  125.1955  134.9556  161.7624 C   0  0  0  0  0  0  0  0  0  0  0  0
  125.6421  134.8324  163.0419 C   0  0  0  0  0  0  0  0  0  0  0  0
  126.9861  135.0282  163.3551 C   0  0  0  0  0  0  0  0  0  0  0  0
  127.8911  135.3474  162.3903 C   0  0  0  0  0  0  0  0  0  0  0  0
  127.4675  135.4834  161.0571 C   0  0  0  0  0  0  0  0  0  0  0  0
  130.7740  134.0072  157.4540 N   0  0  0  0  0  0  0  0  0  0  0  0
  130.9609  134.6140  156.7207 H   0  0  0  0  0  0  0  0  0  0  0  0
  131.2779  130.5582  156.1597 C   0  0  0  0  0  0  0  0  0  0  0  0
  131.4006  129.8203  155.0012 C   0  0  0  0  0  0  0  0  0  0  0  0
  130.9446  130.0266  151.7512 H   0  0  0  0  0  0  0  0  0  0  0  0
  131.5177  128.7244  152.6448 H   0  0  0  0  0  0  0  0  0  0  0  0
  130.3113  132.1219  152.7685 H   0  0  0  0  0  0  0  0  0  0  0  0
  130.0806  133.4407  154.8309 H   0  0  0  0  0  0  0  0  0  0  0  0
  130.2357  131.1305  158.8442 H   0  0  0  0  0  0  0  0  0  0  0  0
  131.2149  136.3108  158.7680 H   0  0  0  0  0  0  0  0  0  0  0  0
  129.7858  138.1180  159.8290 H   0  0  0  0  0  0  0  0  0  0  0  0
  129.4607  137.7829  161.5466 H   0  0  0  0  0  0  0  0  0  0  0  0
  134.4382  136.4632  160.1939 H   0  0  0  0  0  0  0  0  0  0  0  0
  135.2162  138.2030  161.7539 H   0  0  0  0  0  0  0  0  0  0  0  0
  133.5473  139.6748  162.8627 H   0  0  0  0  0  0  0  0  0  0  0  0
  130.1480  139.0657  163.2005 H   0  0  0  0  0  0  0  0  0  0  0  0
  130.6951  140.9039  160.7192 H   0  0  0  0  0  0  0  0  0  0  0  0
  129.2444  141.0153  161.8527 H   0  0  0  0  0  0  0  0  0  0  0  0
  130.8042  141.4393  163.8082 H   0  0  0  0  0  0  0  0  0  0  0  0
  132.2554  141.3279  162.6756 H   0  0  0  0  0  0  0  0  0  0  0  0
  128.6232  136.1898  157.9694 H   0  0  0  0  0  0  0  0  0  0  0  0
  126.2535  135.8461  157.4175 H   0  0  0  0  0  0  0  0  0  0  0  0
  124.6378  135.2771  159.1494 H   0  0  0  0  0  0  0  0  0  0  0  0
  124.1511  134.8017  161.5347 H   0  0  0  0  0  0  0  0  0  0  0  0
  124.9445  134.5793  163.8266 H   0  0  0  0  0  0  0  0  0  0  0  0
  127.3141  134.9246  164.3788 H   0  0  0  0  0  0  0  0  0  0  0  0
  128.9295  135.4955  162.6477 H   0  0  0  0  0  0  0  0  0  0  0  0
  131.5505  130.1225  157.1095 H   0  0  0  0  0  0  0  0  0  0  0  0
  131.7696  128.8063  155.0441 H   0  0  0  0  0  0  0  0  0  0  0  0
  1  2  1  0
  1 38  1  0
  1 39  1  0
  2 37  2  0
  2  3  1  0
  3  4  2  0
  3 40  1  0
  4  5  1  0
  4 41  1  0
  5  6  1  0
  5 36  2  0
  6 34  1  0
  6  7  2  0
  7  8  1  0
  7 42  1  0
  8  9  1  0
  8 10  1  0
 10 11  1  0
 10 34  2  0
 11 12  1  0
 11 43  1  0
 12 13  1  1
 12 14  1  0
 12 24  1  0
 14 15  1  0
 14 44  1  0
 14 45  1  0
 15 20  1  0
 15 16  2  0
 16 17  1  0
 17 18  2  0
 17 46  1  0
 18 19  1  0
 18 47  1  0
 19 20  2  0
 19 48  1  0
 20 21  1  0
 21 23  1  0
 21 22  1  0
 21 49  1  0
 22 23  1  0
 22 50  1  0
 22 51  1  0
 23 52  1  0
 23 53  1  0
 24 33  1  0
 24 25  2  0
 25 26  1  0
 25 54  1  0
 26 27  2  0
 26 55  1  0
 27 28  1  0
 27 56  1  0
 28 33  2  0
 28 29  1  0
 29 30  2  0
 29 57  1  0
 30 31  1  0
 30 58  1  0
 31 32  2  0
 31 59  1  0
 32 33  1  0
 32 60  1  0
 34 35  1  0
 36 37  1  0
 36 61  1  0
 37 62  1  0
M  CHG  1  34   1
M  END
>  <DOCK_score>  (1) 
-63.937172

>  <SMILES>  (1) 
Nc1ccc(-c2c[nH]c(N[C@@H](Cc3ncccc3C3CC3)c3cccc4ccccc34)[nH+]2)cc1

$$$$
