CCC[C@@H](Nc1[nH]cc(-c2ccc(Br)cc2)[nH+]1)c1cnn(C(C)(C)C)c1
     RDKit          3D

 53 55  0  0  1  0  0  0  0  0999 V2000
  126.5336  135.6288  160.4883 C   0  0  0  0  0  0  0  0  0  0  0  0
  127.9264  134.9968  160.4543 C   0  0  0  0  0  0  0  0  0  0  0  0
  128.9848  136.0844  160.6487 C   0  0  0  0  0  0  0  0  0  0  0  0
  130.3777  135.4525  160.6147 C   0  0  1  0  0  0  0  0  0  0  0  0
  130.3586  134.5019  161.1480 H   0  0  0  0  0  0  0  0  0  0  0  0
  130.7765  135.2239  159.2237 N   0  0  0  0  0  0  0  0  0  0  0  0
  130.4705  134.0243  158.6040 C   0  0  0  0  0  0  0  0  0  0  0  0
  129.8013  132.9856  159.1743 N   0  0  0  0  0  0  0  0  0  0  0  0
  129.4562  132.9527  160.0802 H   0  0  0  0  0  0  0  0  0  0  0  0
  129.7048  131.9923  158.2302 C   0  0  0  0  0  0  0  0  0  0  0  0
  130.3172  132.4522  157.1111 C   0  0  0  0  0  0  0  0  0  0  0  0
  130.4588  131.7191  155.8294 C   0  0  0  0  0  0  0  0  0  0  0  0
  129.9101  132.2426  154.6600 C   0  0  0  0  0  0  0  0  0  0  0  0
  130.0501  131.5597  153.4691 C   0  0  0  0  0  0  0  0  0  0  0  0
  130.7232  130.3506  153.4369 C   0  0  0  0  0  0  0  0  0  0  0  0
  130.9038  129.4159  151.8030 Br  0  0  0  0  0  0  0  0  0  0  0  0
  131.2648  129.8236  154.5964 C   0  0  0  0  0  0  0  0  0  0  0  0
  131.1360  130.5015  155.7914 C   0  0  0  0  0  0  0  0  0  0  0  0
  130.7725  133.7039  157.3695 N   0  0  0  0  0  0  0  0  0  0  0  0
  131.2478  134.2703  156.7416 H   0  0  0  0  0  0  0  0  0  0  0  0
  131.3661  136.3790  161.2749 C   0  0  0  0  0  0  0  0  0  0  0  0
  131.7051  136.3891  162.6318 C   0  0  0  0  0  0  0  0  0  0  0  0
  132.5959  137.3280  162.8235 N   0  0  0  0  0  0  0  0  0  0  0  0
  132.8448  137.9526  161.5946 N   0  0  0  0  0  0  0  0  0  0  0  0
  133.7733  139.0621  161.3642 C   0  0  0  0  0  0  0  0  0  0  0  0
  135.1886  138.6323  161.7553 C   0  0  0  0  0  0  0  0  0  0  0  0
  133.7485  139.4490  159.8842 C   0  0  0  0  0  0  0  0  0  0  0  0
  133.3525  140.2639  162.2126 C   0  0  0  0  0  0  0  0  0  0  0  0
  132.0780  137.3520  160.6606 C   0  0  0  0  0  0  0  0  0  0  0  0
  126.3796  136.1177  161.4502 H   0  0  0  0  0  0  0  0  0  0  0  0
  126.4490  136.3651  159.6889 H   0  0  0  0  0  0  0  0  0  0  0  0
  125.7795  134.8540  160.3497 H   0  0  0  0  0  0  0  0  0  0  0  0
  128.0802  134.5079  159.4924 H   0  0  0  0  0  0  0  0  0  0  0  0
  128.0109  134.2605  161.2536 H   0  0  0  0  0  0  0  0  0  0  0  0
  128.8310  136.5733  161.6108 H   0  0  0  0  0  0  0  0  0  0  0  0
  128.9003  136.8206  159.8495 H   0  0  0  0  0  0  0  0  0  0  0  0
  131.2550  135.9131  158.7368 H   0  0  0  0  0  0  0  0  0  0  0  0
  129.2312  131.0297  158.3550 H   0  0  0  0  0  0  0  0  0  0  0  0
  129.3803  133.1834  154.6850 H   0  0  0  0  0  0  0  0  0  0  0  0
  129.6295  131.9669  152.5615 H   0  0  0  0  0  0  0  0  0  0  0  0
  131.7892  128.8797  154.5660 H   0  0  0  0  0  0  0  0  0  0  0  0
  131.5594  130.0895  156.6956 H   0  0  0  0  0  0  0  0  0  0  0  0
  131.3033  135.7331  163.3898 H   0  0  0  0  0  0  0  0  0  0  0  0
  135.4885  137.7762  161.1510 H   0  0  0  0  0  0  0  0  0  0  0  0
  135.8795  139.4578  161.5841 H   0  0  0  0  0  0  0  0  0  0  0  0
  135.2064  138.3566  162.8098 H   0  0  0  0  0  0  0  0  0  0  0  0
  132.7402  139.7553  159.6055 H   0  0  0  0  0  0  0  0  0  0  0  0
  134.4394  140.2746  159.7129 H   0  0  0  0  0  0  0  0  0  0  0  0
  134.0483  138.5929  159.2797 H   0  0  0  0  0  0  0  0  0  0  0  0
  133.3702  139.9881  163.2670 H   0  0  0  0  0  0  0  0  0  0  0  0
  134.0434  141.0894  162.0413 H   0  0  0  0  0  0  0  0  0  0  0  0
  132.3442  140.5700  161.9340 H   0  0  0  0  0  0  0  0  0  0  0  0
  132.0393  137.6033  159.6109 H   0  0  0  0  0  0  0  0  0  0  0  0
  1  2  1  0
  1 30  1  0
  1 31  1  0
  1 32  1  0
  2  3  1  0
  2 33  1  0
  2 34  1  0
  3  4  1  0
  3 35  1  0
  3 36  1  0
  4  5  1  1
  4  6  1  0
  4 21  1  0
  6 37  1  0
  7  6  1  0
  7 19  2  0
  7  8  1  0
  8  9  1  0
  8 10  1  0
 10 11  2  0
 10 38  1  0
 11 12  1  0
 11 19  1  0
 12 18  1  0
 12 13  2  0
 13 14  1  0
 13 39  1  0
 14 15  2  0
 14 40  1  0
 15 16  1  0
 15 17  1  0
 17 18  2  0
 17 41  1  0
 18 42  1  0
 19 20  1  0
 21 29  2  0
 21 22  1  0
 22 23  2  0
 22 43  1  0
 23 24  1  0
 24 25  1  0
 24 29  1  0
 25 26  1  0
 25 27  1  0
 25 28  1  0
 26 44  1  0
 26 45  1  0
 26 46  1  0
 27 47  1  0
 27 48  1  0
 27 49  1  0
 28 50  1  0
 28 51  1  0
 28 52  1  0
 29 53  1  0
M  CHG  1  19   1
M  END
>  <DOCK_score>  (1) 
-57.453621

>  <SMILES>  (1) 
CCC[C@@H](Nc1[nH]cc(-c2ccc(Br)cc2)[nH+]1)c1cnn(C(C)(C)C)c1

$$$$
