Cc1ccc(Br)cc1C[NH+]=C(NCc1cccs1)N[C@H]1C[C@@H](O)C1
     RDKit          3D

 47 49  0  0  1  0  0  0  0  0999 V2000
  131.5244  139.3928  158.9909 C   0  0  0  0  0  0  0  0  0  0  0  0
  132.5363  138.7207  159.8829 C   0  0  0  0  0  0  0  0  0  0  0  0
  133.8441  139.1688  159.9045 C   0  0  0  0  0  0  0  0  0  0  0  0
  134.7725  138.5526  160.7218 C   0  0  0  0  0  0  0  0  0  0  0  0
  134.3931  137.4872  161.5186 C   0  0  0  0  0  0  0  0  0  0  0  0
  135.6631  136.6430  162.6369 Br  0  0  0  0  0  0  0  0  0  0  0  0
  133.0834  137.0429  161.5009 C   0  0  0  0  0  0  0  0  0  0  0  0
  132.1568  137.6563  160.6786 C   0  0  0  0  0  0  0  0  0  0  0  0
  130.7311  137.1684  160.6547 C   0  0  0  0  0  0  0  0  0  0  0  0
  130.5860  136.1347  159.6268 N   0  0  0  0  0  0  0  0  0  0  0  0
  131.1462  136.1557  158.8353 H   0  0  0  0  0  0  0  0  0  0  0  0
  129.7041  135.1865  159.7759 C   0  0  0  0  0  0  0  0  0  0  0  0
  129.9301  133.9454  159.2297 N   0  0  0  0  0  0  0  0  0  0  0  0
  131.1624  133.6883  158.4802 C   0  0  0  0  0  0  0  0  0  0  0  0
  131.1646  132.2628  157.9911 C   0  0  0  0  0  0  0  0  0  0  0  0
  131.6646  131.2216  158.6585 C   0  0  0  0  0  0  0  0  0  0  0  0
  131.5509  130.0040  158.0098 C   0  0  0  0  0  0  0  0  0  0  0  0
  130.9666  130.0578  156.8120 C   0  0  0  0  0  0  0  0  0  0  0  0
  130.5152  131.7186  156.4498 S   0  0  0  0  0  0  0  0  0  0  0  0
  128.5478  135.4279  160.4794 N   0  0  0  0  0  0  0  0  0  0  0  0
  127.5564  134.3623  160.6470 C   0  0  1  0  0  0  0  0  0  0  0  0
  128.0026  133.3678  160.6625 H   0  0  0  0  0  0  0  0  0  0  0  0
  126.5676  134.6151  161.8009 C   0  0  0  0  0  0  0  0  0  0  0  0
  125.4737  134.0509  160.8791 C   0  0  1  0  0  0  0  0  0  0  0  0
  125.3494  132.9710  160.9591 H   0  0  0  0  0  0  0  0  0  0  0  0
  124.2353  134.7595  160.9601 O   0  0  0  0  0  0  0  0  0  0  0  0
  126.3547  134.4837  159.6953 C   0  0  0  0  0  0  0  0  0  0  0  0
  131.0444  140.2065  159.5347 H   0  0  0  0  0  0  0  0  0  0  0  0
  132.0257  139.7914  158.1088 H   0  0  0  0  0  0  0  0  0  0  0  0
  130.7715  138.6668  158.6842 H   0  0  0  0  0  0  0  0  0  0  0  0
  134.1402  140.0008  159.2827 H   0  0  0  0  0  0  0  0  0  0  0  0
  135.7939  138.9029  160.7390 H   0  0  0  0  0  0  0  0  0  0  0  0
  132.7857  136.2142  162.1262 H   0  0  0  0  0  0  0  0  0  0  0  0
  130.0657  138.0015  160.4285 H   0  0  0  0  0  0  0  0  0  0  0  0
  130.4734  136.7514  161.6283 H   0  0  0  0  0  0  0  0  0  0  0  0
  129.2738  133.2398  159.3408 H   0  0  0  0  0  0  0  0  0  0  0  0
  131.2166  134.3649  157.6274 H   0  0  0  0  0  0  0  0  0  0  0  0
  132.0230  133.8511  159.1289 H   0  0  0  0  0  0  0  0  0  0  0  0
  132.1212  131.3209  159.6321 H   0  0  0  0  0  0  0  0  0  0  0  0
  131.9114  129.0811  158.4395 H   0  0  0  0  0  0  0  0  0  0  0  0
  130.7964  129.2108  156.1638 H   0  0  0  0  0  0  0  0  0  0  0  0
  128.3883  136.3035  160.8648 H   0  0  0  0  0  0  0  0  0  0  0  0
  126.4359  135.6704  162.0398 H   0  0  0  0  0  0  0  0  0  0  0  0
  126.7559  134.0010  162.6816 H   0  0  0  0  0  0  0  0  0  0  0  0
  124.3351  135.7180  161.0396 H   0  0  0  0  0  0  0  0  0  0  0  0
  126.3711  133.7636  158.8771 H   0  0  0  0  0  0  0  0  0  0  0  0
  126.1639  135.5027  159.3585 H   0  0  0  0  0  0  0  0  0  0  0  0
  1  2  1  0
  1 28  1  0
  1 29  1  0
  1 30  1  0
  2  8  2  0
  2  3  1  0
  3  4  2  0
  3 31  1  0
  4  5  1  0
  4 32  1  0
  5  6  1  0
  5  7  2  0
  7  8  1  0
  7 33  1  0
  8  9  1  0
  9 10  1  0
  9 34  1  0
  9 35  1  0
 10 11  1  0
 12 10  2  0
 12 13  1  0
 12 20  1  0
 13 14  1  0
 13 36  1  0
 14 15  1  0
 14 37  1  0
 14 38  1  0
 15 19  1  0
 15 16  2  0
 16 17  1  0
 16 39  1  0
 17 18  2  0
 17 40  1  0
 18 19  1  0
 18 41  1  0
 20 21  1  0
 20 42  1  0
 21 22  1  1
 21 27  1  0
 21 23  1  0
 23 24  1  0
 23 43  1  0
 23 44  1  0
 24 25  1  1
 24 26  1  0
 24 27  1  0
 26 45  1  0
 27 46  1  0
 27 47  1  0
M  CHG  1  10   1
M  END
>  <DOCK_score>  (1) 
-49.714832

>  <SMILES>  (1) 
Cc1ccc(Br)cc1C[NH+]=C(NCc1cccs1)N[C@H]1C[C@@H](O)C1

$$$$
