O=C1NCC(NC(NC2CCCC2)=[NH+][C@H]2COc3ccc(-c4ccccc4)cc3C2)CN1
     RDKit          3D

 64 68  0  0  1  0  0  0  0  0999 V2000
  123.5293  133.2844  161.0635 O   0  0  0  0  0  0  0  0  0  0  0  0
  124.7083  133.5809  161.0861 C   0  0  0  0  0  0  0  0  0  0  0  0
  125.6058  132.6880  160.6429 N   0  0  0  0  0  0  0  0  0  0  0  0
  127.0401  132.9800  160.6550 C   0  0  0  0  0  0  0  0  0  0  0  0
  127.2469  134.4913  160.5089 C   0  0  0  0  0  0  0  0  0  0  0  0
  128.6719  134.8073  160.6345 N   0  0  0  0  0  0  0  0  0  0  0  0
  129.4734  134.8236  159.5176 C   0  0  0  0  0  0  0  0  0  0  0  0
  129.1843  134.0046  158.4520 N   0  0  0  0  0  0  0  0  0  0  0  0
  130.2648  133.5052  157.5978 C   0  0  0  0  0  0  0  0  0  0  0  0
  129.6937  132.5568  156.5235 C   0  0  0  0  0  0  0  0  0  0  0  0
  130.7714  131.4539  156.3788 C   0  0  0  0  0  0  0  0  0  0  0  0
  131.2538  131.2539  157.8371 C   0  0  0  0  0  0  0  0  0  0  0  0
  131.2567  132.6768  158.4330 C   0  0  0  0  0  0  0  0  0  0  0  0
  130.5075  135.6158  159.4691 N   0  0  0  0  0  0  0  0  0  0  0  0
  131.0731  135.6274  158.6812 H   0  0  0  0  0  0  0  0  0  0  0  0
  130.8155  136.4886  160.6048 C   0  0  1  0  0  0  0  0  0  0  0  0
  130.9910  135.8847  161.4952 H   0  0  0  0  0  0  0  0  0  0  0  0
  132.0638  137.3234  160.2917 C   0  0  0  0  0  0  0  0  0  0  0  0
  132.3990  138.0848  161.4526 O   0  0  0  0  0  0  0  0  0  0  0  0
  131.4088  138.7930  162.0557 C   0  0  0  0  0  0  0  0  0  0  0  0
  131.7654  139.8075  162.9408 C   0  0  0  0  0  0  0  0  0  0  0  0
  130.7954  140.5484  163.5785 C   0  0  0  0  0  0  0  0  0  0  0  0
  129.4485  140.2818  163.3371 C   0  0  0  0  0  0  0  0  0  0  0  0
  128.3980  141.0749  164.0215 C   0  0  0  0  0  0  0  0  0  0  0  0
  127.1605  140.4997  164.3045 C   0  0  0  0  0  0  0  0  0  0  0  0
  126.1892  141.2402  164.9470 C   0  0  0  0  0  0  0  0  0  0  0  0
  126.4374  142.5548  165.2985 C   0  0  0  0  0  0  0  0  0  0  0  0
  127.6619  143.1326  165.0150 C   0  0  0  0  0  0  0  0  0  0  0  0
  128.6429  142.3994  164.3785 C   0  0  0  0  0  0  0  0  0  0  0  0
  129.0935  139.2687  162.4509 C   0  0  0  0  0  0  0  0  0  0  0  0
  130.0711  138.5286  161.8116 C   0  0  0  0  0  0  0  0  0  0  0  0
  129.6469  137.4458  160.8517 C   0  0  0  0  0  0  0  0  0  0  0  0
  126.4629  135.2006  161.6179 C   0  0  0  0  0  0  0  0  0  0  0  0
  125.0598  134.7883  161.5531 N   0  0  0  0  0  0  0  0  0  0  0  0
  125.2980  131.8316  160.3072 H   0  0  0  0  0  0  0  0  0  0  0  0
  127.4726  132.6425  161.5970 H   0  0  0  0  0  0  0  0  0  0  0  0
  127.5238  132.4642  159.8256 H   0  0  0  0  0  0  0  0  0  0  0  0
  126.8811  134.8183  159.5357 H   0  0  0  0  0  0  0  0  0  0  0  0
  129.0499  135.0049  161.5057 H   0  0  0  0  0  0  0  0  0  0  0  0
  128.2651  133.7576  158.2654 H   0  0  0  0  0  0  0  0  0  0  0  0
  130.7815  134.3396  157.1237 H   0  0  0  0  0  0  0  0  0  0  0  0
  128.7497  132.1262  156.8576 H   0  0  0  0  0  0  0  0  0  0  0  0
  129.5600  133.0857  155.5798 H   0  0  0  0  0  0  0  0  0  0  0  0
  131.5898  131.7943  155.7445 H   0  0  0  0  0  0  0  0  0  0  0  0
  130.3342  130.5354  155.9872 H   0  0  0  0  0  0  0  0  0  0  0  0
  132.2588  130.8321  157.8520 H   0  0  0  0  0  0  0  0  0  0  0  0
  130.5636  130.6123  158.3848 H   0  0  0  0  0  0  0  0  0  0  0  0
  132.2551  133.1087  158.3635 H   0  0  0  0  0  0  0  0  0  0  0  0
  130.9342  132.6465  159.4737 H   0  0  0  0  0  0  0  0  0  0  0  0
  132.8918  136.6632  160.0339 H   0  0  0  0  0  0  0  0  0  0  0  0
  131.8566  137.9952  159.4586 H   0  0  0  0  0  0  0  0  0  0  0  0
  132.8087  140.0141  163.1283 H   0  0  0  0  0  0  0  0  0  0  0  0
  131.0774  141.3337  164.2642 H   0  0  0  0  0  0  0  0  0  0  0  0
  126.9639  139.4750  164.0257 H   0  0  0  0  0  0  0  0  0  0  0  0
  125.2316  140.7939  165.1712 H   0  0  0  0  0  0  0  0  0  0  0  0
  125.6727  143.1320  165.7967 H   0  0  0  0  0  0  0  0  0  0  0  0
  127.8504  144.1592  165.2918 H   0  0  0  0  0  0  0  0  0  0  0  0
  129.5983  142.8516  164.1572 H   0  0  0  0  0  0  0  0  0  0  0  0
  128.0508  139.0599  162.2620 H   0  0  0  0  0  0  0  0  0  0  0  0
  129.3421  137.8972  159.9076 H   0  0  0  0  0  0  0  0  0  0  0  0
  128.8087  136.8931  161.2760 H   0  0  0  0  0  0  0  0  0  0  0  0
  126.5323  136.2796  161.4797 H   0  0  0  0  0  0  0  0  0  0  0  0
  126.8778  134.9294  162.5887 H   0  0  0  0  0  0  0  0  0  0  0  0
  124.3702  135.4008  161.8535 H   0  0  0  0  0  0  0  0  0  0  0  0
  1  2  2  0
  2 34  1  0
  2  3  1  0
  3  4  1  0
  3 35  1  0
  4  5  1  0
  4 36  1  0
  4 37  1  0
  5  6  1  0
  5 33  1  0
  5 38  1  0
  6 39  1  0
  7  6  1  0
  7  8  1  0
  7 14  2  0
  8  9  1  0
  8 40  1  0
  9 13  1  0
  9 10  1  0
  9 41  1  0
 10 11  1  0
 10 42  1  0
 10 43  1  0
 11 12  1  0
 11 44  1  0
 11 45  1  0
 12 13  1  0
 12 46  1  0
 12 47  1  0
 13 48  1  0
 13 49  1  0
 14 15  1  0
 14 16  1  0
 16 17  1  1
 16 32  1  0
 16 18  1  0
 18 19  1  0
 18 50  1  0
 18 51  1  0
 19 20  1  0
 20 31  2  0
 20 21  1  0
 21 22  2  0
 21 52  1  0
 22 23  1  0
 22 53  1  0
 23 24  1  0
 23 30  2  0
 24 29  1  0
 24 25  2  0
 25 26  1  0
 25 54  1  0
 26 27  2  0
 26 55  1  0
 27 28  1  0
 27 56  1  0
 28 29  2  0
 28 57  1  0
 29 58  1  0
 30 31  1  0
 30 59  1  0
 31 32  1  0
 32 60  1  0
 32 61  1  0
 33 34  1  0
 33 62  1  0
 33 63  1  0
 34 64  1  0
M  CHG  1  14   1
M  END
>  <DOCK_score>  (1) 
-49.706383

>  <SMILES>  (1) 
O=C1NCC(NC(NC2CCCC2)=[NH+][C@H]2COc3ccc(-c4ccccc4)cc3C2)CN1

$$$$
