Cc1ccc(C[C@H](Cc2cccc3c2CCCC3)N2CC[NH+](Cc3cccc4ccccc34)CC2)cc1
     RDKit          3D

 78 83  0  0  1  0  0  0  0  0999 V2000
  136.9531  141.9645  161.9574 C   0  0  0  0  0  0  0  0  0  0  0  0
  136.0988  140.7597  161.6580 C   0  0  0  0  0  0  0  0  0  0  0  0
  135.0919  140.8435  160.7146 C   0  0  0  0  0  0  0  0  0  0  0  0
  134.3120  139.7366  160.4360 C   0  0  0  0  0  0  0  0  0  0  0  0
  134.5356  138.5475  161.1046 C   0  0  0  0  0  0  0  0  0  0  0  0
  133.6853  137.3409  160.8008 C   0  0  0  0  0  0  0  0  0  0  0  0
  132.4636  137.3329  161.7216 C   0  0  2  0  0  0  0  0  0  0  0  0
  132.0838  138.3488  161.8301 H   0  0  0  0  0  0  0  0  0  0  0  0
  132.8631  136.7885  163.0945 C   0  0  0  0  0  0  0  0  0  0  0  0
  131.6595  136.7806  164.0015 C   0  0  0  0  0  0  0  0  0  0  0  0
  130.8501  135.6645  164.0545 C   0  0  0  0  0  0  0  0  0  0  0  0
  129.7457  135.6566  164.8855 C   0  0  0  0  0  0  0  0  0  0  0  0
  129.4586  136.7659  165.6540 C   0  0  0  0  0  0  0  0  0  0  0  0
  130.2710  137.8908  165.6009 C   0  0  0  0  0  0  0  0  0  0  0  0
  131.3776  137.8946  164.7812 C   0  0  0  0  0  0  0  0  0  0  0  0
  132.3072  139.0755  164.6798 C   0  0  0  0  0  0  0  0  0  0  0  0
  131.6405  140.3347  165.2303 C   0  0  0  0  0  0  0  0  0  0  0  0
  131.0814  140.0169  166.6221 C   0  0  0  0  0  0  0  0  0  0  0  0
  129.8945  139.0694  166.4599 C   0  0  0  0  0  0  0  0  0  0  0  0
  131.4187  136.4789  161.1413 N   0  0  0  0  0  0  0  0  0  0  0  0
  131.9887  135.2266  160.6245 C   0  0  0  0  0  0  0  0  0  0  0  0
  130.8629  134.3421  160.0842 C   0  0  0  0  0  0  0  0  0  0  0  0
  130.1510  135.0541  159.0147 N   0  0  0  0  0  0  0  0  0  0  0  0
  130.7977  135.2821  158.2745 H   0  0  0  0  0  0  0  0  0  0  0  0
  129.0820  134.1976  158.4839 C   0  0  0  0  0  0  0  0  0  0  0  0
  129.6698  133.2007  157.5186 C   0  0  0  0  0  0  0  0  0  0  0  0
  129.7636  133.5036  156.1948 C   0  0  0  0  0  0  0  0  0  0  0  0
  130.3083  132.5965  155.2881 C   0  0  0  0  0  0  0  0  0  0  0  0
  130.7535  131.3772  155.6984 C   0  0  0  0  0  0  0  0  0  0  0  0
  130.6683  131.0270  157.0563 C   0  0  0  0  0  0  0  0  0  0  0  0
  131.1180  129.7777  157.5174 C   0  0  0  0  0  0  0  0  0  0  0  0
  131.0199  129.4731  158.8401 C   0  0  0  0  0  0  0  0  0  0  0  0
  130.4788  130.3820  159.7478 C   0  0  0  0  0  0  0  0  0  0  0  0
  130.0336  131.6010  159.3379 C   0  0  0  0  0  0  0  0  0  0  0  0
  130.1184  131.9515  157.9795 C   0  0  0  0  0  0  0  0  0  0  0  0
  129.5666  136.2901  159.5518 C   0  0  0  0  0  0  0  0  0  0  0  0
  130.6815  137.1908  160.0878 C   0  0  0  0  0  0  0  0  0  0  0  0
  135.5387  138.4654  162.0522 C   0  0  0  0  0  0  0  0  0  0  0  0
  136.3186  139.5723  162.3308 C   0  0  0  0  0  0  0  0  0  0  0  0
  136.4972  142.5425  162.7613 H   0  0  0  0  0  0  0  0  0  0  0  0
  137.9472  141.6383  162.2629 H   0  0  0  0  0  0  0  0  0  0  0  0
  137.0327  142.5843  161.0643 H   0  0  0  0  0  0  0  0  0  0  0  0
  134.9175  141.7724  160.1920 H   0  0  0  0  0  0  0  0  0  0  0  0
  133.5283  139.8007  159.6957 H   0  0  0  0  0  0  0  0  0  0  0  0
  133.3573  137.3799  159.7621 H   0  0  0  0  0  0  0  0  0  0  0  0
  134.2691  136.4349  160.9638 H   0  0  0  0  0  0  0  0  0  0  0  0
  133.2428  135.7725  162.9859 H   0  0  0  0  0  0  0  0  0  0  0  0
  133.6383  137.4221  163.5251 H   0  0  0  0  0  0  0  0  0  0  0  0
  131.0785  134.8002  163.4485 H   0  0  0  0  0  0  0  0  0  0  0  0
  129.1094  134.7852  164.9328 H   0  0  0  0  0  0  0  0  0  0  0  0
  128.5945  136.7594  166.3021 H   0  0  0  0  0  0  0  0  0  0  0  0
  132.5744  139.2375  163.6356 H   0  0  0  0  0  0  0  0  0  0  0  0
  133.2101  138.8665  165.2536 H   0  0  0  0  0  0  0  0  0  0  0  0
  130.8291  140.6393  164.5694 H   0  0  0  0  0  0  0  0  0  0  0  0
  132.3753  141.1366  165.3041 H   0  0  0  0  0  0  0  0  0  0  0  0
  130.7530  140.9374  167.1046 H   0  0  0  0  0  0  0  0  0  0  0  0
  131.8521  139.5394  167.2271 H   0  0  0  0  0  0  0  0  0  0  0  0
  129.0681  139.6053  165.9928 H   0  0  0  0  0  0  0  0  0  0  0  0
  129.5821  138.7134  167.4416 H   0  0  0  0  0  0  0  0  0  0  0  0
  132.6919  135.4509  159.8224 H   0  0  0  0  0  0  0  0  0  0  0  0
  132.5077  134.7044  161.4282 H   0  0  0  0  0  0  0  0  0  0  0  0
  130.1673  134.1068  160.8895 H   0  0  0  0  0  0  0  0  0  0  0  0
  131.2850  133.4187  159.6873 H   0  0  0  0  0  0  0  0  0  0  0  0
  128.5998  133.6674  159.3051 H   0  0  0  0  0  0  0  0  0  0  0  0
  128.3459  134.8134  157.9670 H   0  0  0  0  0  0  0  0  0  0  0  0
  129.4139  134.4627  155.8425 H   0  0  0  0  0  0  0  0  0  0  0  0
  130.3746  132.8632  154.2437 H   0  0  0  0  0  0  0  0  0  0  0  0
  131.1704  130.6830  154.9838 H   0  0  0  0  0  0  0  0  0  0  0  0
  131.5388  129.0632  156.8255 H   0  0  0  0  0  0  0  0  0  0  0  0
  131.3662  128.5124  159.1917 H   0  0  0  0  0  0  0  0  0  0  0  0
  130.4121  130.1150  160.7921 H   0  0  0  0  0  0  0  0  0  0  0  0
  129.6174  132.2953  160.0527 H   0  0  0  0  0  0  0  0  0  0  0  0
  128.8775  136.0448  160.3599 H   0  0  0  0  0  0  0  0  0  0  0  0
  129.0275  136.8109  158.7603 H   0  0  0  0  0  0  0  0  0  0  0  0
  130.2468  138.1014  160.4998 H   0  0  0  0  0  0  0  0  0  0  0  0
  131.3632  137.4474  159.2769 H   0  0  0  0  0  0  0  0  0  0  0  0
  135.7129  137.5366  162.5751 H   0  0  0  0  0  0  0  0  0  0  0  0
  137.1021  139.5082  163.0714 H   0  0  0  0  0  0  0  0  0  0  0  0
  1  2  1  0
  1 40  1  0
  1 41  1  0
  1 42  1  0
  2 39  2  0
  2  3  1  0
  3  4  2  0
  3 43  1  0
  4  5  1  0
  4 44  1  0
  5  6  1  0
  5 38  2  0
  6  7  1  0
  6 45  1  0
  6 46  1  0
  7  8  1  1
  7  9  1  0
  7 20  1  0
  9 10  1  0
  9 47  1  0
  9 48  1  0
 10 15  1  0
 10 11  2  0
 11 12  1  0
 11 49  1  0
 12 13  2  0
 12 50  1  0
 13 14  1  0
 13 51  1  0
 14 19  1  0
 14 15  2  0
 15 16  1  0
 16 17  1  0
 16 52  1  0
 16 53  1  0
 17 18  1  0
 17 54  1  0
 17 55  1  0
 18 19  1  0
 18 56  1  0
 18 57  1  0
 19 58  1  0
 19 59  1  0
 20 37  1  0
 20 21  1  0
 21 22  1  0
 21 60  1  0
 21 61  1  0
 22 23  1  0
 22 62  1  0
 22 63  1  0
 23 24  1  0
 23 25  1  0
 23 36  1  0
 25 26  1  0
 25 64  1  0
 25 65  1  0
 26 35  1  0
 26 27  2  0
 27 28  1  0
 27 66  1  0
 28 29  2  0
 28 67  1  0
 29 30  1  0
 29 68  1  0
 30 35  2  0
 30 31  1  0
 31 32  2  0
 31 69  1  0
 32 33  1  0
 32 70  1  0
 33 34  2  0
 33 71  1  0
 34 35  1  0
 34 72  1  0
 36 37  1  0
 36 73  1  0
 36 74  1  0
 37 75  1  0
 37 76  1  0
 38 39  1  0
 38 77  1  0
 39 78  1  0
M  CHG  1  23   1
M  END
>  <DOCK_score>  (1) 
-56.732521

>  <SMILES>  (1) 
Cc1ccc(C[C@H](Cc2cccc3c2CCCC3)N2CC[NH+](Cc3cccc4ccccc34)CC2)cc1

$$$$
