c1ccc(C[C@H](CCc2cccc3ccccc23)Nc2[nH]cc(-c3cccnc3)[nH+]2)nc1
     RDKit          3D

 58 62  0  0  1  0  0  0  0  0999 V2000
  126.4313  132.7610  160.8008 C   0  0  0  0  0  0  0  0  0  0  0  0
  125.8396  133.8222  160.1322 C   0  0  0  0  0  0  0  0  0  0  0  0
  126.5278  135.0234  160.0613 C   0  0  0  0  0  0  0  0  0  0  0  0
  127.7720  135.1231  160.6553 C   0  0  0  0  0  0  0  0  0  0  0  0
  128.5318  136.4222  160.5792 C   0  0  0  0  0  0  0  0  0  0  0  0
  130.0347  136.1353  160.5863 C   0  0  2  0  0  0  0  0  0  0  0  0
  130.2478  135.3315  161.2911 H   0  0  0  0  0  0  0  0  0  0  0  0
  130.7926  137.3963  161.0064 C   0  0  0  0  0  0  0  0  0  0  0  0
  132.1911  137.0120  161.4938 C   0  0  0  0  0  0  0  0  0  0  0  0
  132.9376  138.2540  161.9076 C   0  0  0  0  0  0  0  0  0  0  0  0
  132.8674  138.6983  163.1924 C   0  0  0  0  0  0  0  0  0  0  0  0
  133.5515  139.8440  163.5936 C   0  0  0  0  0  0  0  0  0  0  0  0
  134.3095  140.5525  162.7124 C   0  0  0  0  0  0  0  0  0  0  0  0
  134.4057  140.1249  161.3775 C   0  0  0  0  0  0  0  0  0  0  0  0
  135.1781  140.8304  160.4388 C   0  0  0  0  0  0  0  0  0  0  0  0
  135.2476  140.3865  159.1542 C   0  0  0  0  0  0  0  0  0  0  0  0
  134.5630  139.2406  158.7528 C   0  0  0  0  0  0  0  0  0  0  0  0
  133.8052  138.5323  159.6337 C   0  0  0  0  0  0  0  0  0  0  0  0
  133.7146  138.9562  160.9707 C   0  0  0  0  0  0  0  0  0  0  0  0
  130.4614  135.7335  159.2437 N   0  0  0  0  0  0  0  0  0  0  0  0
  130.4429  134.3973  158.8825 C   0  0  0  0  0  0  0  0  0  0  0  0
  130.0573  133.3654  159.6815 N   0  0  0  0  0  0  0  0  0  0  0  0
  129.7485  133.4332  160.5985 H   0  0  0  0  0  0  0  0  0  0  0  0
  130.1831  132.2102  158.9486 C   0  0  0  0  0  0  0  0  0  0  0  0
  130.6497  132.5683  157.7268 C   0  0  0  0  0  0  0  0  0  0  0  0
  130.9449  131.6485  156.6011 C   0  0  0  0  0  0  0  0  0  0  0  0
  130.8082  132.0783  155.2779 C   0  0  0  0  0  0  0  0  0  0  0  0
  131.1016  131.1837  154.2636 C   0  0  0  0  0  0  0  0  0  0  0  0
  131.5057  129.9011  154.5885 C   0  0  0  0  0  0  0  0  0  0  0  0
  131.6203  129.5224  155.8464 N   0  0  0  0  0  0  0  0  0  0  0  0
  131.3573  130.3401  156.8454 C   0  0  0  0  0  0  0  0  0  0  0  0
  130.7993  133.9167  157.7162 N   0  0  0  0  0  0  0  0  0  0  0  0
  131.1185  134.4414  156.9654 H   0  0  0  0  0  0  0  0  0  0  0  0
  128.3039  134.0928  161.2831 N   0  0  0  0  0  0  0  0  0  0  0  0
  127.6781  132.9351  161.3702 C   0  0  0  0  0  0  0  0  0  0  0  0
  125.9240  131.8105  160.8753 H   0  0  0  0  0  0  0  0  0  0  0  0
  124.8660  133.7151  159.6772 H   0  0  0  0  0  0  0  0  0  0  0  0
  126.0971  135.8709  159.5489 H   0  0  0  0  0  0  0  0  0  0  0  0
  128.2661  136.9453  159.6606 H   0  0  0  0  0  0  0  0  0  0  0  0
  128.2764  137.0433  161.4377 H   0  0  0  0  0  0  0  0  0  0  0  0
  130.8773  138.0703  160.1540 H   0  0  0  0  0  0  0  0  0  0  0  0
  130.2514  137.8943  161.8110 H   0  0  0  0  0  0  0  0  0  0  0  0
  132.1062  136.3382  162.3463 H   0  0  0  0  0  0  0  0  0  0  0  0
  132.7320  136.5140  160.6893 H   0  0  0  0  0  0  0  0  0  0  0  0
  132.2729  138.1546  163.9116 H   0  0  0  0  0  0  0  0  0  0  0  0
  133.4790  140.1750  164.6190 H   0  0  0  0  0  0  0  0  0  0  0  0
  134.8340  141.4388  163.0376 H   0  0  0  0  0  0  0  0  0  0  0  0
  135.7134  141.7202  160.7354 H   0  0  0  0  0  0  0  0  0  0  0  0
  135.8419  140.9305  158.4350 H   0  0  0  0  0  0  0  0  0  0  0  0
  134.6349  138.9101  157.7271 H   0  0  0  0  0  0  0  0  0  0  0  0
  133.2803  137.6463  159.3083 H   0  0  0  0  0  0  0  0  0  0  0  0
  130.7569  136.4038  158.6079 H   0  0  0  0  0  0  0  0  0  0  0  0
  129.9576  131.2083  159.2829 H   0  0  0  0  0  0  0  0  0  0  0  0
  130.4860  133.0843  155.0529 H   0  0  0  0  0  0  0  0  0  0  0  0
  131.0119  131.4821  153.2294 H   0  0  0  0  0  0  0  0  0  0  0  0
  131.7311  129.1991  153.7993 H   0  0  0  0  0  0  0  0  0  0  0  0
  131.4629  129.9934  157.8627 H   0  0  0  0  0  0  0  0  0  0  0  0
  128.1457  132.1136  161.8928 H   0  0  0  0  0  0  0  0  0  0  0  0
  1 35  2  0
  1  2  1  0
  1 36  1  0
  2  3  2  0
  2 37  1  0
  3  4  1  0
  3 38  1  0
  4  5  1  0
  4 34  2  0
  5  6  1  0
  5 39  1  0
  5 40  1  0
  6  7  1  1
  6  8  1  0
  6 20  1  0
  8  9  1  0
  8 41  1  0
  8 42  1  0
  9 10  1  0
  9 43  1  0
  9 44  1  0
 10 19  1  0
 10 11  2  0
 11 12  1  0
 11 45  1  0
 12 13  2  0
 12 46  1  0
 13 14  1  0
 13 47  1  0
 14 19  2  0
 14 15  1  0
 15 16  2  0
 15 48  1  0
 16 17  1  0
 16 49  1  0
 17 18  2  0
 17 50  1  0
 18 19  1  0
 18 51  1  0
 20 52  1  0
 21 20  1  0
 21 32  2  0
 21 22  1  0
 22 23  1  0
 22 24  1  0
 24 25  2  0
 24 53  1  0
 25 26  1  0
 25 32  1  0
 26 31  1  0
 26 27  2  0
 27 28  1  0
 27 54  1  0
 28 29  2  0
 28 55  1  0
 29 30  1  0
 29 56  1  0
 30 31  2  0
 31 57  1  0
 32 33  1  0
 34 35  1  0
 35 58  1  0
M  CHG  1  32   1
M  END
>  <DOCK_score>  (1) 
-59.957394

>  <SMILES>  (1) 
c1ccc(C[C@H](CCc2cccc3ccccc23)Nc2[nH]cc(-c3cccnc3)[nH+]2)nc1

$$$$
