CCc1ccc(-c2c[nH]c(N[C@H](c3ccccc3)c3nc(-c4ccccc4)no3)[nH+]2)cc1
     RDKit          3D

 56 60  0  0  1  0  0  0  0  0999 V2000
  130.5932  128.3595  151.5273 C   0  0  0  0  0  0  0  0  0  0  0  0
  131.6742  129.3834  151.8790 C   0  0  0  0  0  0  0  0  0  0  0  0
  131.2792  130.1206  153.1326 C   0  0  0  0  0  0  0  0  0  0  0  0
  131.6645  129.6337  154.3682 C   0  0  0  0  0  0  0  0  0  0  0  0
  131.3106  130.3076  155.5195 C   0  0  0  0  0  0  0  0  0  0  0  0
  130.5536  131.4748  155.4357 C   0  0  0  0  0  0  0  0  0  0  0  0
  130.1654  132.2005  156.6697 C   0  0  0  0  0  0  0  0  0  0  0  0
  129.4253  131.7006  157.6902 C   0  0  0  0  0  0  0  0  0  0  0  0
  129.3045  132.7019  158.6228 N   0  0  0  0  0  0  0  0  0  0  0  0
  128.8289  132.6469  159.4664 H   0  0  0  0  0  0  0  0  0  0  0  0
  129.9749  133.7854  158.1447 C   0  0  0  0  0  0  0  0  0  0  0  0
  130.0951  135.0066  158.7854 N   0  0  0  0  0  0  0  0  0  0  0  0
  129.0316  135.4731  159.6785 C   0  0  2  0  0  0  0  0  0  0  0  0
  128.9023  134.7601  160.4927 H   0  0  0  0  0  0  0  0  0  0  0  0
  127.7432  135.5924  158.9059 C   0  0  0  0  0  0  0  0  0  0  0  0
  126.5332  135.3955  159.5449 C   0  0  0  0  0  0  0  0  0  0  0  0
  125.3512  135.5094  158.8372 C   0  0  0  0  0  0  0  0  0  0  0  0
  125.3795  135.8112  157.4884 C   0  0  0  0  0  0  0  0  0  0  0  0
  126.5896  136.0028  156.8483 C   0  0  0  0  0  0  0  0  0  0  0  0
  127.7715  135.8932  157.5570 C   0  0  0  0  0  0  0  0  0  0  0  0
  129.4047  136.8192  160.2439 C   0  0  0  0  0  0  0  0  0  0  0  0
  130.6174  137.2577  160.4732 N   0  0  0  0  0  0  0  0  0  0  0  0
  130.4643  138.5038  160.9750 C   0  0  0  0  0  0  0  0  0  0  0  0
  131.5502  139.4240  161.3953 C   0  0  0  0  0  0  0  0  0  0  0  0
  131.2420  140.6888  161.8919 C   0  0  0  0  0  0  0  0  0  0  0  0
  132.2556  141.5387  162.2858 C   0  0  0  0  0  0  0  0  0  0  0  0
  133.5760  141.1409  162.1783 C   0  0  0  0  0  0  0  0  0  0  0  0
  133.8880  139.8884  161.6812 C   0  0  0  0  0  0  0  0  0  0  0  0
  132.8819  139.0285  161.2893 C   0  0  0  0  0  0  0  0  0  0  0  0
  129.1802  138.7466  161.0205 N   0  0  0  0  0  0  0  0  0  0  0  0
  128.5605  137.7923  160.6002 O   0  0  0  0  0  0  0  0  0  0  0  0
  130.4929  133.4801  156.9800 N   0  0  0  0  0  0  0  0  0  0  0  0
  131.0236  134.0747  156.4271 H   0  0  0  0  0  0  0  0  0  0  0  0
  130.1632  131.9580  154.1880 C   0  0  0  0  0  0  0  0  0  0  0  0
  130.5277  131.2790  153.0431 C   0  0  0  0  0  0  0  0  0  0  0  0
  130.4854  127.6496  152.3474 H   0  0  0  0  0  0  0  0  0  0  0  0
  129.6455  128.8725  151.3640 H   0  0  0  0  0  0  0  0  0  0  0  0
  130.8788  127.8264  150.6205 H   0  0  0  0  0  0  0  0  0  0  0  0
  132.6216  128.8709  152.0417 H   0  0  0  0  0  0  0  0  0  0  0  0
  131.7817  130.0939  151.0584 H   0  0  0  0  0  0  0  0  0  0  0  0
  132.2470  128.7265  154.4322 H   0  0  0  0  0  0  0  0  0  0  0  0
  131.6159  129.9289  156.4837 H   0  0  0  0  0  0  0  0  0  0  0  0
  129.0100  130.7059  157.7567 H   0  0  0  0  0  0  0  0  0  0  0  0
  130.8835  135.5535  158.6431 H   0  0  0  0  0  0  0  0  0  0  0  0
  126.5113  135.1562  160.5978 H   0  0  0  0  0  0  0  0  0  0  0  0
  124.4058  135.3599  159.3375 H   0  0  0  0  0  0  0  0  0  0  0  0
  124.4561  135.8974  156.9350 H   0  0  0  0  0  0  0  0  0  0  0  0
  126.6118  136.2385  155.7946 H   0  0  0  0  0  0  0  0  0  0  0  0
  128.7168  136.0430  157.0569 H   0  0  0  0  0  0  0  0  0  0  0  0
  130.2115  141.0020  161.9723 H   0  0  0  0  0  0  0  0  0  0  0  0
  132.0176  142.5177  162.6750 H   0  0  0  0  0  0  0  0  0  0  0  0
  134.3662  141.8105  162.4841 H   0  0  0  0  0  0  0  0  0  0  0  0
  134.9205  139.5827  161.5997 H   0  0  0  0  0  0  0  0  0  0  0  0
  133.1266  138.0507  160.9015 H   0  0  0  0  0  0  0  0  0  0  0  0
  129.5764  132.8620  154.1172 H   0  0  0  0  0  0  0  0  0  0  0  0
  130.2255  131.6524  152.0757 H   0  0  0  0  0  0  0  0  0  0  0  0
  1  2  1  0
  1 36  1  0
  1 37  1  0
  1 38  1  0
  2  3  1  0
  2 39  1  0
  2 40  1  0
  3 35  2  0
  3  4  1  0
  4  5  2  0
  4 41  1  0
  5  6  1  0
  5 42  1  0
  6  7  1  0
  6 34  2  0
  7 32  1  0
  7  8  2  0
  8  9  1  0
  8 43  1  0
  9 10  1  0
  9 11  1  0
 11 12  1  0
 11 32  2  0
 12 13  1  0
 12 44  1  0
 13 14  1  1
 13 15  1  0
 13 21  1  0
 15 20  1  0
 15 16  2  0
 16 17  1  0
 16 45  1  0
 17 18  2  0
 17 46  1  0
 18 19  1  0
 18 47  1  0
 19 20  2  0
 19 48  1  0
 20 49  1  0
 21 31  1  0
 21 22  2  0
 22 23  1  0
 23 24  1  0
 23 30  2  0
 24 29  1  0
 24 25  2  0
 25 26  1  0
 25 50  1  0
 26 27  2  0
 26 51  1  0
 27 28  1  0
 27 52  1  0
 28 29  2  0
 28 53  1  0
 29 54  1  0
 30 31  1  0
 32 33  1  0
 34 35  1  0
 34 55  1  0
 35 56  1  0
M  CHG  1  32   1
M  END
>  <DOCK_score>  (1) 
-64.614189

>  <SMILES>  (1) 
CCc1ccc(-c2c[nH]c(N[C@H](c3ccccc3)c3nc(-c4ccccc4)no3)[nH+]2)cc1

$$$$
