Nc1ccccc1NC1CC([NH2+]C2c3cc(O)ccc3-c3ccc(O)cc32)C1
     RDKit          3D

 52 56  0  0  1  0  0  0  0  0999 V2000
  134.1340  138.5207  158.3328 N   0  0  0  0  0  0  0  0  0  0  0  0
  134.1902  138.7804  159.7076 C   0  0  0  0  0  0  0  0  0  0  0  0
  135.2606  139.4836  160.2391 C   0  0  0  0  0  0  0  0  0  0  0  0
  135.3142  139.7385  161.5971 C   0  0  0  0  0  0  0  0  0  0  0  0
  134.3031  139.2937  162.4285 C   0  0  0  0  0  0  0  0  0  0  0  0
  133.2293  138.5968  161.9061 C   0  0  0  0  0  0  0  0  0  0  0  0
  133.1699  138.3322  160.5463 C   0  0  0  0  0  0  0  0  0  0  0  0
  132.0860  137.6221  160.0158 N   0  0  0  0  0  0  0  0  0  0  0  0
  130.7701  137.7099  160.6535 C   0  0  1  0  0  0  0  0  0  0  0  0
  129.6503  137.0250  159.8523 C   0  0  0  0  0  0  0  0  0  0  0  0
  129.9940  135.7388  160.6220 C   0  0  2  0  0  0  0  0  0  0  0  0
  128.8149  134.9578  161.0192 N   0  0  0  0  0  0  0  0  0  0  0  0
  128.2260  135.5182  161.6170 H   0  0  0  0  0  0  0  0  0  0  0  0
  129.1108  134.1317  161.5172 H   0  0  0  0  0  0  0  0  0  0  0  0
  128.0621  134.5639  159.8208 C   0  0  0  0  0  0  0  0  0  0  0  0
  126.6684  134.1285  160.2023 C   0  0  0  0  0  0  0  0  0  0  0  0
  125.6280  134.7925  160.8149 C   0  0  0  0  0  0  0  0  0  0  0  0
  124.4287  134.1345  161.0531 C   0  0  0  0  0  0  0  0  0  0  0  0
  123.4040  134.7877  161.6610 O   0  0  0  0  0  0  0  0  0  0  0  0
  124.2750  132.8104  160.6644 C   0  0  0  0  0  0  0  0  0  0  0  0
  125.3115  132.1442  160.0471 C   0  0  0  0  0  0  0  0  0  0  0  0
  126.5216  132.8005  159.8098 C   0  0  0  0  0  0  0  0  0  0  0  0
  127.7780  132.3310  159.1751 C   0  0  0  0  0  0  0  0  0  0  0  0
  128.1232  131.0937  158.6266 C   0  0  0  0  0  0  0  0  0  0  0  0
  129.3773  130.9039  158.0876 C   0  0  0  0  0  0  0  0  0  0  0  0
  130.3013  131.9401  158.0868 C   0  0  0  0  0  0  0  0  0  0  0  0
  131.5365  131.7487  157.5538 O   0  0  0  0  0  0  0  0  0  0  0  0
  129.9627  133.1720  158.6304 C   0  0  0  0  0  0  0  0  0  0  0  0
  128.7100  133.3658  159.1708 C   0  0  0  0  0  0  0  0  0  0  0  0
  130.5369  136.6457  161.7389 C   0  0  0  0  0  0  0  0  0  0  0  0
  133.3847  138.0285  157.9624 H   0  0  0  0  0  0  0  0  0  0  0  0
  134.8443  138.8332  157.7508 H   0  0  0  0  0  0  0  0  0  0  0  0
  136.0525  139.8318  159.5926 H   0  0  0  0  0  0  0  0  0  0  0  0
  136.1487  140.2862  162.0095 H   0  0  0  0  0  0  0  0  0  0  0  0
  134.3502  139.4949  163.4886 H   0  0  0  0  0  0  0  0  0  0  0  0
  132.4389  138.2548  162.5578 H   0  0  0  0  0  0  0  0  0  0  0  0
  132.2065  137.0718  159.2261 H   0  0  0  0  0  0  0  0  0  0  0  0
  130.5217  138.7219  160.9737 H   0  0  0  0  0  0  0  0  0  0  0  0
  129.8541  136.9619  158.7834 H   0  0  0  0  0  0  0  0  0  0  0  0
  128.6552  137.4123  160.0715 H   0  0  0  0  0  0  0  0  0  0  0  0
  130.7602  135.1324  160.1389 H   0  0  0  0  0  0  0  0  0  0  0  0
  128.0173  135.3944  159.1163 H   0  0  0  0  0  0  0  0  0  0  0  0
  125.7464  135.8238  161.1130 H   0  0  0  0  0  0  0  0  0  0  0  0
  123.6036  135.7056  161.8903 H   0  0  0  0  0  0  0  0  0  0  0  0
  123.3402  132.3010  160.8463 H   0  0  0  0  0  0  0  0  0  0  0  0
  125.1881  131.1143  159.7465 H   0  0  0  0  0  0  0  0  0  0  0  0
  127.4071  130.2853  158.6253 H   0  0  0  0  0  0  0  0  0  0  0  0
  129.6419  129.9462  157.6641 H   0  0  0  0  0  0  0  0  0  0  0  0
  132.1092  132.5266  157.5991 H   0  0  0  0  0  0  0  0  0  0  0  0
  130.6813  133.9782  158.6302 H   0  0  0  0  0  0  0  0  0  0  0  0
  129.7849  136.9300  162.4747 H   0  0  0  0  0  0  0  0  0  0  0  0
  131.4565  136.2765  162.1929 H   0  0  0  0  0  0  0  0  0  0  0  0
  1  2  1  0
  1 31  1  0
  1 32  1  0
  2  7  2  0
  2  3  1  0
  3  4  2  0
  3 33  1  0
  4  5  1  0
  4 34  1  0
  5  6  2  0
  5 35  1  0
  6  7  1  0
  6 36  1  0
  7  8  1  0
  8  9  1  0
  8 37  1  0
  9 30  1  0
  9 10  1  0
  9 38  1  1
 10 11  1  0
 10 39  1  0
 10 40  1  0
 11 12  1  0
 11 30  1  0
 11 41  1  6
 12 13  1  0
 12 14  1  0
 12 15  1  0
 15 29  1  0
 15 16  1  0
 15 42  1  0
 16 22  1  0
 16 17  2  0
 17 18  1  0
 17 43  1  0
 18 19  1  0
 18 20  2  0
 19 44  1  0
 20 21  1  0
 20 45  1  0
 21 22  2  0
 21 46  1  0
 22 23  1  0
 23 29  2  0
 23 24  1  0
 24 25  2  0
 24 47  1  0
 25 26  1  0
 25 48  1  0
 26 27  1  0
 26 28  2  0
 27 49  1  0
 28 29  1  0
 28 50  1  0
 30 51  1  0
 30 52  1  0
M  CHG  1  12   1
M  END
>  <DOCK_score>  (1) 
-51.402775

>  <SMILES>  (1) 
Nc1ccccc1NC1CC([NH2+]C2c3cc(O)ccc3-c3ccc(O)cc32)C1

$$$$
