COc1cc(C[NH+]=C(NCC2C[C@H](O)C2(C)C)NC2CCCCC2)ccc1C
     RDKit          3D

 66 68  0  0  1  0  0  0  0  0999 V2000
  134.9252  140.0465  164.1256 C   0  0  0  0  0  0  0  0  0  0  0  0
  135.6402  139.4158  163.0613 O   0  0  0  0  0  0  0  0  0  0  0  0
  135.2509  138.1605  162.7152 C   0  0  0  0  0  0  0  0  0  0  0  0
  134.2758  137.9782  161.7450 C   0  0  0  0  0  0  0  0  0  0  0  0
  133.8815  136.7015  161.3954 C   0  0  0  0  0  0  0  0  0  0  0  0
  132.8224  136.5026  160.3419 C   0  0  0  0  0  0  0  0  0  0  0  0
  131.5022  136.4727  160.9761 N   0  0  0  0  0  0  0  0  0  0  0  0
  131.3437  136.9756  161.7903 H   0  0  0  0  0  0  0  0  0  0  0  0
  130.5405  135.7703  160.4464 C   0  0  0  0  0  0  0  0  0  0  0  0
  129.3014  135.7422  161.0415 N   0  0  0  0  0  0  0  0  0  0  0  0
  129.0620  136.5018  162.2711 C   0  0  0  0  0  0  0  0  0  0  0  0
  127.6137  136.3003  162.7211 C   0  0  1  0  0  0  0  0  0  0  0  0
  127.3883  135.0035  163.5163 C   0  0  0  0  0  0  0  0  0  0  0  0
  126.4533  135.8171  164.4266 C   0  0  2  0  0  0  0  0  0  0  0  0
  126.5489  135.5692  165.4839 H   0  0  0  0  0  0  0  0  0  0  0  0
  125.0953  135.8389  163.9824 O   0  0  0  0  0  0  0  0  0  0  0  0
  127.2579  137.0598  164.0101 C   0  0  0  0  0  0  0  0  0  0  0  0
  126.3923  138.2988  163.7725 C   0  0  0  0  0  0  0  0  0  0  0  0
  128.4637  137.3391  164.9096 C   0  0  0  0  0  0  0  0  0  0  0  0
  130.7651  135.0574  159.2924 N   0  0  0  0  0  0  0  0  0  0  0  0
  130.0219  133.8205  159.0392 C   0  0  0  0  0  0  0  0  0  0  0  0
  130.3086  132.8153  160.1565 C   0  0  0  0  0  0  0  0  0  0  0  0
  129.5325  131.5237  159.8920 C   0  0  0  0  0  0  0  0  0  0  0  0
  129.9684  130.9325  158.5498 C   0  0  0  0  0  0  0  0  0  0  0  0
  129.6816  131.9377  157.4326 C   0  0  0  0  0  0  0  0  0  0  0  0
  130.4578  133.2294  157.6970 C   0  0  0  0  0  0  0  0  0  0  0  0
  134.4538  135.6057  162.0153 C   0  0  0  0  0  0  0  0  0  0  0  0
  135.4296  135.7847  162.9781 C   0  0  0  0  0  0  0  0  0  0  0  0
  135.8274  137.0597  163.3314 C   0  0  0  0  0  0  0  0  0  0  0  0
  136.8864  137.2542  164.3859 C   0  0  0  0  0  0  0  0  0  0  0  0
  133.8723  140.1302  163.8565 H   0  0  0  0  0  0  0  0  0  0  0  0
  135.0221  139.4496  165.0324 H   0  0  0  0  0  0  0  0  0  0  0  0
  135.3358  141.0411  164.3000 H   0  0  0  0  0  0  0  0  0  0  0  0
  133.8257  138.8338  161.2636 H   0  0  0  0  0  0  0  0  0  0  0  0
  132.9980  135.5599  159.8236 H   0  0  0  0  0  0  0  0  0  0  0  0
  132.8633  137.3237  159.6262 H   0  0  0  0  0  0  0  0  0  0  0  0
  128.5858  135.2195  160.6472 H   0  0  0  0  0  0  0  0  0  0  0  0
  129.2406  137.5607  162.0846 H   0  0  0  0  0  0  0  0  0  0  0  0
  129.7372  136.1514  163.0520 H   0  0  0  0  0  0  0  0  0  0  0  0
  126.8954  136.4484  161.9148 H   0  0  0  0  0  0  0  0  0  0  0  0
  128.2830  134.6404  164.0220 H   0  0  0  0  0  0  0  0  0  0  0  0
  126.8771  134.2263  162.9482 H   0  0  0  0  0  0  0  0  0  0  0  0
  124.9964  135.9102  163.0231 H   0  0  0  0  0  0  0  0  0  0  0  0
  126.1372  138.7529  164.7300 H   0  0  0  0  0  0  0  0  0  0  0  0
  126.9443  139.0166  163.1656 H   0  0  0  0  0  0  0  0  0  0  0  0
  125.4790  138.0098  163.2525 H   0  0  0  0  0  0  0  0  0  0  0  0
  129.0831  136.4447  164.9749 H   0  0  0  0  0  0  0  0  0  0  0  0
  129.0490  138.1567  164.4889 H   0  0  0  0  0  0  0  0  0  0  0  0
  128.1176  137.6150  165.9058 H   0  0  0  0  0  0  0  0  0  0  0  0
  131.4156  135.3734  158.6460 H   0  0  0  0  0  0  0  0  0  0  0  0
  128.9541  134.0376  159.0109 H   0  0  0  0  0  0  0  0  0  0  0  0
  131.3764  132.5983  160.1846 H   0  0  0  0  0  0  0  0  0  0  0  0
  129.9982  133.2365  161.1126 H   0  0  0  0  0  0  0  0  0  0  0  0
  128.4647  131.7407  159.8638 H   0  0  0  0  0  0  0  0  0  0  0  0
  129.7368  130.8075  160.6879 H   0  0  0  0  0  0  0  0  0  0  0  0
  129.4154  130.0122  158.3614 H   0  0  0  0  0  0  0  0  0  0  0  0
  131.0362  130.7155  158.5780 H   0  0  0  0  0  0  0  0  0  0  0  0
  128.6138  132.1546  157.4043 H   0  0  0  0  0  0  0  0  0  0  0  0
  129.9922  131.5165  156.4764 H   0  0  0  0  0  0  0  0  0  0  0  0
  130.2534  133.9455  156.9011 H   0  0  0  0  0  0  0  0  0  0  0  0
  131.5256  133.0123  157.7253 H   0  0  0  0  0  0  0  0  0  0  0  0
  134.1406  134.6083  161.7439 H   0  0  0  0  0  0  0  0  0  0  0  0
  135.8778  134.9272  163.4578 H   0  0  0  0  0  0  0  0  0  0  0  0
  136.4145  137.3266  165.3657 H   0  0  0  0  0  0  0  0  0  0  0  0
  137.5711  136.4062  164.3738 H   0  0  0  0  0  0  0  0  0  0  0  0
  137.4396  138.1708  164.1803 H   0  0  0  0  0  0  0  0  0  0  0  0
  1  2  1  0
  1 31  1  0
  1 32  1  0
  1 33  1  0
  2  3  1  0
  3 29  2  0
  3  4  1  0
  4  5  2  0
  4 34  1  0
  5  6  1  0
  5 27  1  0
  6  7  1  0
  6 35  1  0
  6 36  1  0
  7  8  1  0
  9  7  2  0
  9 10  1  0
  9 20  1  0
 10 11  1  0
 10 37  1  0
 11 12  1  0
 11 38  1  0
 11 39  1  0
 12 17  1  0
 12 13  1  0
 12 40  1  6
 13 14  1  0
 13 41  1  0
 13 42  1  0
 14 15  1  1
 14 16  1  0
 14 17  1  0
 16 43  1  0
 17 18  1  0
 17 19  1  0
 18 44  1  0
 18 45  1  0
 18 46  1  0
 19 47  1  0
 19 48  1  0
 19 49  1  0
 20 21  1  0
 20 50  1  0
 21 26  1  0
 21 22  1  0
 21 51  1  0
 22 23  1  0
 22 52  1  0
 22 53  1  0
 23 24  1  0
 23 54  1  0
 23 55  1  0
 24 25  1  0
 24 56  1  0
 24 57  1  0
 25 26  1  0
 25 58  1  0
 25 59  1  0
 26 60  1  0
 26 61  1  0
 27 28  2  0
 27 62  1  0
 28 29  1  0
 28 63  1  0
 29 30  1  0
 30 64  1  0
 30 65  1  0
 30 66  1  0
M  CHG  1   7   1
M  END
>  <DOCK_score>  (1) 
-42.646336

>  <SMILES>  (1) 
COc1cc(C[NH+]=C(NCC2C[C@H](O)C2(C)C)NC2CCCCC2)ccc1C

$$$$
