O=C1CC[C@H](NC(NC2CC3C=CC2O3)=[NH+]C2CC2)CN1
     RDKit          3D

 44 47  0  0  1  0  0  0  0  0999 V2000
  123.8527  133.6674  161.7031 O   0  0  0  0  0  0  0  0  0  0  0  0
  124.9950  133.9631  161.4227 C   0  0  0  0  0  0  0  0  0  0  0  0
  125.9628  132.8547  161.1226 C   0  0  0  0  0  0  0  0  0  0  0  0
  127.3988  133.3746  161.2270 C   0  0  0  0  0  0  0  0  0  0  0  0
  127.5020  134.6772  160.4245 C   0  0  2  0  0  0  0  0  0  0  0  0
  127.1233  134.5160  159.4152 H   0  0  0  0  0  0  0  0  0  0  0  0
  128.9015  135.1060  160.3615 N   0  0  0  0  0  0  0  0  0  0  0  0
  129.7056  134.6790  159.3314 C   0  0  0  0  0  0  0  0  0  0  0  0
  129.1963  133.8496  158.3604 N   0  0  0  0  0  0  0  0  0  0  0  0
  130.0531  133.3946  157.2625 C   0  0  2  0  0  0  0  0  0  0  0  0
  129.3294  132.3265  156.3994 C   0  0  0  0  0  0  0  0  0  0  0  0
  130.2549  131.0836  156.5865 C   0  0  2  0  0  0  0  0  0  0  0  0
  130.0665  130.6631  158.0462 C   0  0  0  0  0  0  0  0  0  0  0  0
  130.6829  131.5728  158.7815 C   0  0  0  0  0  0  0  0  0  0  0  0
  131.2767  132.5915  157.8052 C   0  0  1  0  0  0  0  0  0  0  0  0
  131.5738  131.7243  156.6587 O   0  0  0  0  0  0  0  0  0  0  0  0
  130.9507  135.0606  159.2751 N   0  0  0  0  0  0  0  0  0  0  0  0
  131.3911  135.1535  158.4160 H   0  0  0  0  0  0  0  0  0  0  0  0
  131.6849  135.3490  160.5097 C   0  0  0  0  0  0  0  0  0  0  0  0
  132.2687  134.1618  161.2781 C   0  0  0  0  0  0  0  0  0  0  0  0
  133.1951  135.1041  160.5070 C   0  0  0  0  0  0  0  0  0  0  0  0
  126.6667  135.7526  161.1203 C   0  0  0  0  0  0  0  0  0  0  0  0
  125.3245  135.2549  161.3978 N   0  0  0  0  0  0  0  0  0  0  0  0
  125.7851  132.4820  160.1138 H   0  0  0  0  0  0  0  0  0  0  0  0
  125.8183  132.0444  161.8372 H   0  0  0  0  0  0  0  0  0  0  0  0
  128.0873  132.6356  160.8173 H   0  0  0  0  0  0  0  0  0  0  0  0
  127.6445  133.5666  162.2715 H   0  0  0  0  0  0  0  0  0  0  0  0
  129.2607  135.6913  161.0466 H   0  0  0  0  0  0  0  0  0  0  0  0
  128.2698  133.5657  158.4019 H   0  0  0  0  0  0  0  0  0  0  0  0
  130.3792  134.2357  156.6507 H   0  0  0  0  0  0  0  0  0  0  0  0
  128.3283  132.1286  156.7824 H   0  0  0  0  0  0  0  0  0  0  0  0
  129.2919  132.6307  155.3532 H   0  0  0  0  0  0  0  0  0  0  0  0
  130.1494  130.2887  155.8483 H   0  0  0  0  0  0  0  0  0  0  0  0
  129.5343  129.7947  158.4051 H   0  0  0  0  0  0  0  0  0  0  0  0
  130.7541  131.5930  159.8589 H   0  0  0  0  0  0  0  0  0  0  0  0
  132.1013  133.1909  158.1908 H   0  0  0  0  0  0  0  0  0  0  0  0
  131.3127  136.1917  161.0923 H   0  0  0  0  0  0  0  0  0  0  0  0
  132.1065  133.1662  160.8653 H   0  0  0  0  0  0  0  0  0  0  0  0
  132.2806  134.2234  162.3664 H   0  0  0  0  0  0  0  0  0  0  0  0
  133.8165  135.7857  161.0879 H   0  0  0  0  0  0  0  0  0  0  0  0
  133.6425  134.7284  159.5868 H   0  0  0  0  0  0  0  0  0  0  0  0
  127.1468  136.0305  162.0587 H   0  0  0  0  0  0  0  0  0  0  0  0
  126.6028  136.6308  160.4779 H   0  0  0  0  0  0  0  0  0  0  0  0
  124.6266  135.9056  161.5730 H   0  0  0  0  0  0  0  0  0  0  0  0
  1  2  2  0
  2 23  1  0
  2  3  1  0
  3  4  1  0
  3 24  1  0
  3 25  1  0
  4  5  1  0
  4 26  1  0
  4 27  1  0
  5  6  1  6
  5  7  1  0
  5 22  1  0
  7 28  1  0
  8  7  1  0
  8  9  1  0
  8 17  2  0
  9 10  1  0
  9 29  1  0
 10 15  1  0
 10 11  1  0
 10 30  1  6
 11 12  1  0
 11 31  1  0
 11 32  1  0
 12 16  1  0
 12 13  1  0
 12 33  1  6
 13 14  2  0
 13 34  1  0
 14 15  1  0
 14 35  1  0
 15 16  1  0
 15 36  1  1
 17 18  1  0
 17 19  1  0
 19 21  1  0
 19 20  1  0
 19 37  1  0
 20 21  1  0
 20 38  1  0
 20 39  1  0
 21 40  1  0
 21 41  1  0
 22 23  1  0
 22 42  1  0
 22 43  1  0
 23 44  1  0
M  CHG  1  17   1
M  END
>  <DOCK_score>  (1) 
-43.032719

>  <SMILES>  (1) 
O=C1CC[C@H](NC(NC2CC3C=CC2O3)=[NH+]C2CC2)CN1

$$$$
