CCc1ccc(-c2c[nH]c(N[C@@H](CC3=CCC=CC3)c3ccc(C)cc3)[nH+]2)cc1
     RDKit          3D

 59 62  0  0  1  0  0  0  0  0999 V2000
  130.1347  128.7350  151.4661 C   0  0  0  0  0  0  0  0  0  0  0  0
  131.2981  129.6525  151.8475 C   0  0  0  0  0  0  0  0  0  0  0  0
  130.9733  130.3675  153.1336 C   0  0  0  0  0  0  0  0  0  0  0  0
  131.3262  129.8002  154.3450 C   0  0  0  0  0  0  0  0  0  0  0  0
  131.0359  130.4525  155.5260 C   0  0  0  0  0  0  0  0  0  0  0  0
  130.3762  131.6800  155.4971 C   0  0  0  0  0  0  0  0  0  0  0  0
  130.0568  132.3834  156.7633 C   0  0  0  0  0  0  0  0  0  0  0  0
  129.2852  131.9037  157.7700 C   0  0  0  0  0  0  0  0  0  0  0  0
  129.2533  132.8719  158.7440 N   0  0  0  0  0  0  0  0  0  0  0  0
  128.7805  132.8210  159.5894 H   0  0  0  0  0  0  0  0  0  0  0  0
  130.0072  133.9160  158.3036 C   0  0  0  0  0  0  0  0  0  0  0  0
  130.2310  135.0959  158.9922 N   0  0  0  0  0  0  0  0  0  0  0  0
  130.2411  135.0985  160.4570 C   0  0  1  0  0  0  0  0  0  0  0  0
  131.0247  134.4313  160.8162 H   0  0  0  0  0  0  0  0  0  0  0  0
  130.5081  136.5177  160.9628 C   0  0  0  0  0  0  0  0  0  0  0  0
  131.9848  136.8084  160.8870 C   0  0  0  0  0  0  0  0  0  0  0  0
  132.3859  137.7984  160.1493 C   0  0  0  0  0  0  0  0  0  0  0  0
  133.8305  138.1718  160.0051 C   0  0  0  0  0  0  0  0  0  0  0  0
  134.6498  137.6111  161.1284 C   0  0  0  0  0  0  0  0  0  0  0  0
  134.2490  136.6206  161.8658 C   0  0  0  0  0  0  0  0  0  0  0  0
  132.9268  135.9454  161.6716 C   0  0  0  0  0  0  0  0  0  0  0  0
  128.9050  134.6257  160.9694 C   0  0  0  0  0  0  0  0  0  0  0  0
  127.7546  135.3188  160.6421 C   0  0  0  0  0  0  0  0  0  0  0  0
  126.5286  134.8825  161.1084 C   0  0  0  0  0  0  0  0  0  0  0  0
  126.4539  133.7584  161.9096 C   0  0  0  0  0  0  0  0  0  0  0  0
  125.1178  133.2850  162.4211 C   0  0  0  0  0  0  0  0  0  0  0  0
  127.6049  133.0684  162.2413 C   0  0  0  0  0  0  0  0  0  0  0  0
  128.8306  133.5022  161.7714 C   0  0  0  0  0  0  0  0  0  0  0  0
  130.4898  133.6183  157.1219 N   0  0  0  0  0  0  0  0  0  0  0  0
  131.0632  134.1901  156.5881 H   0  0  0  0  0  0  0  0  0  0  0  0
  130.0183  132.2442  154.2739 C   0  0  0  0  0  0  0  0  0  0  0  0
  130.3185  131.5854  153.0989 C   0  0  0  0  0  0  0  0  0  0  0  0
  130.3695  128.2181  150.5356 H   0  0  0  0  0  0  0  0  0  0  0  0
  129.9749  128.0031  152.2580 H   0  0  0  0  0  0  0  0  0  0  0  0
  129.2310  129.3298  151.3334 H   0  0  0  0  0  0  0  0  0  0  0  0
  132.2017  129.0581  151.9800 H   0  0  0  0  0  0  0  0  0  0  0  0
  131.4578  130.3847  151.0554 H   0  0  0  0  0  0  0  0  0  0  0  0
  131.8335  128.8471  154.3663 H   0  0  0  0  0  0  0  0  0  0  0  0
  131.3158  130.0108  156.4710 H   0  0  0  0  0  0  0  0  0  0  0  0
  128.7902  130.9443  157.8001 H   0  0  0  0  0  0  0  0  0  0  0  0
  130.3813  135.9209  158.5046 H   0  0  0  0  0  0  0  0  0  0  0  0
  129.9649  137.2320  160.3441 H   0  0  0  0  0  0  0  0  0  0  0  0
  130.1734  136.6040  161.9965 H   0  0  0  0  0  0  0  0  0  0  0  0
  131.6467  138.3784  159.6165 H   0  0  0  0  0  0  0  0  0  0  0  0
  134.2076  137.7829  159.0592 H   0  0  0  0  0  0  0  0  0  0  0  0
  133.9207  139.2580  160.0059 H   0  0  0  0  0  0  0  0  0  0  0  0
  135.6153  138.0497  161.3328 H   0  0  0  0  0  0  0  0  0  0  0  0
  134.8954  136.2710  162.6573 H   0  0  0  0  0  0  0  0  0  0  0  0
  132.4869  135.7299  162.6454 H   0  0  0  0  0  0  0  0  0  0  0  0
  133.0837  135.0091  161.1362 H   0  0  0  0  0  0  0  0  0  0  0  0
  127.8133  136.1991  160.0191 H   0  0  0  0  0  0  0  0  0  0  0  0
  125.6294  135.4214  160.8491 H   0  0  0  0  0  0  0  0  0  0  0  0
  124.9073  133.7587  163.3799 H   0  0  0  0  0  0  0  0  0  0  0  0
  124.3398  133.5515  161.7057 H   0  0  0  0  0  0  0  0  0  0  0  0
  125.1400  132.2027  162.5476 H   0  0  0  0  0  0  0  0  0  0  0  0
  127.5466  132.1903  162.8672 H   0  0  0  0  0  0  0  0  0  0  0  0
  129.7297  132.9631  162.0305 H   0  0  0  0  0  0  0  0  0  0  0  0
  129.5067  133.1949  154.2457 H   0  0  0  0  0  0  0  0  0  0  0  0
  130.0414  132.0216  152.1506 H   0  0  0  0  0  0  0  0  0  0  0  0
  1  2  1  0
  1 33  1  0
  1 34  1  0
  1 35  1  0
  2  3  1  0
  2 36  1  0
  2 37  1  0
  3 32  2  0
  3  4  1  0
  4  5  2  0
  4 38  1  0
  5  6  1  0
  5 39  1  0
  6  7  1  0
  6 31  2  0
  7 29  1  0
  7  8  2  0
  8  9  1  0
  8 40  1  0
  9 10  1  0
  9 11  1  0
 11 12  1  0
 11 29  2  0
 12 13  1  0
 12 41  1  0
 13 14  1  6
 13 15  1  0
 13 22  1  0
 15 16  1  0
 15 42  1  0
 15 43  1  0
 16 21  1  0
 16 17  2  0
 17 18  1  0
 17 44  1  0
 18 19  1  0
 18 45  1  0
 18 46  1  0
 19 20  2  0
 19 47  1  0
 20 21  1  0
 20 48  1  0
 21 49  1  0
 21 50  1  0
 22 28  1  0
 22 23  2  0
 23 24  1  0
 23 51  1  0
 24 25  2  0
 24 52  1  0
 25 26  1  0
 25 27  1  0
 26 53  1  0
 26 54  1  0
 26 55  1  0
 27 28  2  0
 27 56  1  0
 28 57  1  0
 29 30  1  0
 31 32  1  0
 31 58  1  0
 32 59  1  0
M  CHG  1  29   1
M  END
>  <DOCK_score>  (1) 
-59.239777

>  <SMILES>  (1) 
CCc1ccc(-c2c[nH]c(N[C@@H](CC3=CCC=CC3)c3ccc(C)cc3)[nH+]2)cc1

$$$$
