Nc1ccc(-c2c[nH]c(N[C@@H](CC=CCc3ccccc3)c3ccccc3)[nH+]2)cc1
     RDKit          3D

 57 60  0  0  1  0  0  0  0  0999 V2000
  131.3201  129.5505  152.2965 N   0  0  0  0  0  0  0  0  0  0  0  0
  130.9987  130.2333  153.4719 C   0  0  0  0  0  0  0  0  0  0  0  0
  129.9904  131.1907  153.4639 C   0  0  0  0  0  0  0  0  0  0  0  0
  129.6713  131.8668  154.6225 C   0  0  0  0  0  0  0  0  0  0  0  0
  130.3603  131.5896  155.8023 C   0  0  0  0  0  0  0  0  0  0  0  0
  130.0192  132.3161  157.0500 C   0  0  0  0  0  0  0  0  0  0  0  0
  129.5784  131.7568  158.2038 C   0  0  0  0  0  0  0  0  0  0  0  0
  129.3858  132.7841  159.0968 N   0  0  0  0  0  0  0  0  0  0  0  0
  129.0731  132.6999  160.0111 H   0  0  0  0  0  0  0  0  0  0  0  0
  129.7152  133.9412  158.4610 C   0  0  0  0  0  0  0  0  0  0  0  0
  129.6603  135.2092  159.0142 N   0  0  0  0  0  0  0  0  0  0  0  0
  129.2175  135.3853  160.3995 C   0  0  1  0  0  0  0  0  0  0  0  0
  129.6302  134.5877  161.0171 H   0  0  0  0  0  0  0  0  0  0  0  0
  129.7038  136.7386  160.9222 C   0  0  0  0  0  0  0  0  0  0  0  0
  131.1505  136.6291  161.3298 C   0  0  0  0  0  0  0  0  0  0  0  0
  132.0970  136.8727  160.4574 C   0  0  0  0  0  0  0  0  0  0  0  0
  133.5438  136.7633  160.8650 C   0  0  0  0  0  0  0  0  0  0  0  0
  134.2222  138.0950  160.6719 C   0  0  0  0  0  0  0  0  0  0  0  0
  134.8298  138.3927  159.4665 C   0  0  0  0  0  0  0  0  0  0  0  0
  135.4479  139.6162  159.2877 C   0  0  0  0  0  0  0  0  0  0  0  0
  135.4675  140.5378  160.3178 C   0  0  0  0  0  0  0  0  0  0  0  0
  134.8643  140.2380  161.5250 C   0  0  0  0  0  0  0  0  0  0  0  0
  134.2417  139.0165  161.7021 C   0  0  0  0  0  0  0  0  0  0  0  0
  127.7123  135.3367  160.4557 C   0  0  0  0  0  0  0  0  0  0  0  0
  127.0779  134.8634  161.5890 C   0  0  0  0  0  0  0  0  0  0  0  0
  125.6972  134.8185  161.6405 C   0  0  0  0  0  0  0  0  0  0  0  0
  124.9510  135.2454  160.5580 C   0  0  0  0  0  0  0  0  0  0  0  0
  125.5854  135.7174  159.4241 C   0  0  0  0  0  0  0  0  0  0  0  0
  126.9660  135.7627  159.3729 C   0  0  0  0  0  0  0  0  0  0  0  0
  130.0878  133.6580  157.2366 N   0  0  0  0  0  0  0  0  0  0  0  0
  130.3695  134.3046  156.5706 H   0  0  0  0  0  0  0  0  0  0  0  0
  131.3741  130.6329  155.8064 C   0  0  0  0  0  0  0  0  0  0  0  0
  131.6862  129.9555  154.6467 C   0  0  0  0  0  0  0  0  0  0  0  0
  130.8402  129.7439  151.4760 H   0  0  0  0  0  0  0  0  0  0  0  0
  132.0235  128.8824  152.3009 H   0  0  0  0  0  0  0  0  0  0  0  0
  129.4569  131.4052  152.5497 H   0  0  0  0  0  0  0  0  0  0  0  0
  128.8880  132.6103  154.6161 H   0  0  0  0  0  0  0  0  0  0  0  0
  129.4100  130.7056  158.3862 H   0  0  0  0  0  0  0  0  0  0  0  0
  129.9151  135.9808  158.4845 H   0  0  0  0  0  0  0  0  0  0  0  0
  129.6031  137.4887  160.1378 H   0  0  0  0  0  0  0  0  0  0  0  0
  129.1047  137.0317  161.7843 H   0  0  0  0  0  0  0  0  0  0  0  0
  131.4070  136.3498  162.3409 H   0  0  0  0  0  0  0  0  0  0  0  0
  131.8405  137.1520  159.4463 H   0  0  0  0  0  0  0  0  0  0  0  0
  133.6048  136.4731  161.9139 H   0  0  0  0  0  0  0  0  0  0  0  0
  134.0384  136.0110  160.2505 H   0  0  0  0  0  0  0  0  0  0  0  0
  134.8184  137.6709  158.6632 H   0  0  0  0  0  0  0  0  0  0  0  0
  135.9194  139.8503  158.3448 H   0  0  0  0  0  0  0  0  0  0  0  0
  135.9542  141.4919  160.1797 H   0  0  0  0  0  0  0  0  0  0  0  0
  134.8799  140.9577  162.3300 H   0  0  0  0  0  0  0  0  0  0  0  0
  133.7708  138.7822  162.6454 H   0  0  0  0  0  0  0  0  0  0  0  0
  127.6609  134.5302  162.4349 H   0  0  0  0  0  0  0  0  0  0  0  0
  125.2015  134.4539  162.5280 H   0  0  0  0  0  0  0  0  0  0  0  0
  123.8723  135.2099  160.5981 H   0  0  0  0  0  0  0  0  0  0  0  0
  125.0024  136.0502  158.5781 H   0  0  0  0  0  0  0  0  0  0  0  0
  127.4617  136.1308  158.4867 H   0  0  0  0  0  0  0  0  0  0  0  0
  131.9120  130.4194  156.7184 H   0  0  0  0  0  0  0  0  0  0  0  0
  132.4688  129.2112  154.6504 H   0  0  0  0  0  0  0  0  0  0  0  0
  1  2  1  0
  1 34  1  0
  1 35  1  0
  2 33  2  0
  2  3  1  0
  3  4  2  0
  3 36  1  0
  4  5  1  0
  4 37  1  0
  5  6  1  0
  5 32  2  0
  6 30  1  0
  6  7  2  0
  7  8  1  0
  7 38  1  0
  8  9  1  0
  8 10  1  0
 10 11  1  0
 10 30  2  0
 11 12  1  0
 11 39  1  0
 12 13  1  1
 12 14  1  0
 12 24  1  0
 14 15  1  0
 14 40  1  0
 14 41  1  0
 15 16  2  0
 15 42  1  0
 16 17  1  0
 16 43  1  0
 17 18  1  0
 17 44  1  0
 17 45  1  0
 18 23  1  0
 18 19  2  0
 19 20  1  0
 19 46  1  0
 20 21  2  0
 20 47  1  0
 21 22  1  0
 21 48  1  0
 22 23  2  0
 22 49  1  0
 23 50  1  0
 24 29  1  0
 24 25  2  0
 25 26  1  0
 25 51  1  0
 26 27  2  0
 26 52  1  0
 27 28  1  0
 27 53  1  0
 28 29  2  0
 28 54  1  0
 29 55  1  0
 30 31  1  0
 32 33  1  0
 32 56  1  0
 33 57  1  0
M  CHG  1  30   1
M  END
>  <DOCK_score>  (1) 
-57.416237

>  <SMILES>  (1) 
Nc1ccc(-c2c[nH]c(N[C@@H](CC=CCc3ccccc3)c3ccccc3)[nH+]2)cc1

$$$$
