FCCc1ccc(-c2c[nH]c(Nc3ccncc3C3=CC[N@@H+](C4=CCCCC4)C3)[nH+]2)cc1
     RDKit          3D

 62 66  0  0  1  0  0  0  0  0999 V2000
  130.6548  127.5628  153.0993 F   0  0  0  0  0  0  0  0  0  0  0  0
  130.5120  128.3723  151.9672 C   0  0  0  0  0  0  0  0  0  0  0  0
  131.4348  129.5861  152.0892 C   0  0  0  0  0  0  0  0  0  0  0  0
  131.0677  130.3744  153.3201 C   0  0  0  0  0  0  0  0  0  0  0  0
  131.6715  130.0841  154.5297 C   0  0  0  0  0  0  0  0  0  0  0  0
  131.3434  130.8065  155.6589 C   0  0  0  0  0  0  0  0  0  0  0  0
  130.3929  131.8228  155.5809 C   0  0  0  0  0  0  0  0  0  0  0  0
  130.0316  132.5988  156.7924 C   0  0  0  0  0  0  0  0  0  0  0  0
  129.5112  132.0932  157.9386 C   0  0  0  0  0  0  0  0  0  0  0  0
  129.3293  133.1511  158.7944 N   0  0  0  0  0  0  0  0  0  0  0  0
  128.9713  133.1068  159.6948 H   0  0  0  0  0  0  0  0  0  0  0  0
  129.7440  134.2739  158.1462 C   0  0  0  0  0  0  0  0  0  0  0  0
  129.7257  135.5588  158.6648 N   0  0  0  0  0  0  0  0  0  0  0  0
  128.7595  135.9180  159.5987 C   0  0  0  0  0  0  0  0  0  0  0  0
  127.5022  135.3183  159.5948 C   0  0  0  0  0  0  0  0  0  0  0  0
  126.5708  135.7014  160.5375 C   0  0  0  0  0  0  0  0  0  0  0  0
  126.8512  136.6242  161.4397 N   0  0  0  0  0  0  0  0  0  0  0  0
  128.0244  137.2222  161.4874 C   0  0  0  0  0  0  0  0  0  0  0  0
  129.0267  136.8930  160.5773 C   0  0  0  0  0  0  0  0  0  0  0  0
  130.3436  137.5596  160.6349 C   0  0  0  0  0  0  0  0  0  0  0  0
  130.5516  138.8634  160.5046 C   0  0  0  0  0  0  0  0  0  0  0  0
  132.0315  139.1446  160.6263 C   0  0  0  0  0  0  0  0  0  0  0  0
  132.6986  137.8385  160.4141 N   0  0  1  0  0  0  0  0  0  0  0  0
  132.9267  137.7087  159.4398 H   0  0  0  0  0  0  0  0  0  0  0  0
  133.8427  137.7328  161.2104 C   0  0  0  0  0  0  0  0  0  0  0  0
  134.7841  138.6046  161.0391 C   0  0  0  0  0  0  0  0  0  0  0  0
  136.0695  138.6171  161.8132 C   0  0  0  0  0  0  0  0  0  0  0  0
  135.9381  137.7537  163.0698 C   0  0  0  0  0  0  0  0  0  0  0  0
  135.3492  136.3961  162.6662 C   0  0  0  0  0  0  0  0  0  0  0  0
  133.9057  136.6121  162.2064 C   0  0  0  0  0  0  0  0  0  0  0  0
  131.6687  136.8639  160.8450 C   0  0  0  0  0  0  0  0  0  0  0  0
  130.1684  133.9385  156.9522 N   0  0  0  0  0  0  0  0  0  0  0  0
  130.5213  134.5511  156.2881 H   0  0  0  0  0  0  0  0  0  0  0  0
  129.7836  132.1077  154.3603 C   0  0  0  0  0  0  0  0  0  0  0  0
  130.1238  131.3828  153.2363 C   0  0  0  0  0  0  0  0  0  0  0  0
  129.4779  128.7080  151.8887 H   0  0  0  0  0  0  0  0  0  0  0  0
  130.7774  127.8020  151.0770 H   0  0  0  0  0  0  0  0  0  0  0  0
  132.4687  129.2510  152.1674 H   0  0  0  0  0  0  0  0  0  0  0  0
  131.3234  130.2174  151.2068 H   0  0  0  0  0  0  0  0  0  0  0  0
  132.4041  129.2930  154.5900 H   0  0  0  0  0  0  0  0  0  0  0  0
  131.8191  130.5818  156.6022 H   0  0  0  0  0  0  0  0  0  0  0  0
  129.2832  131.0567  158.1393 H   0  0  0  0  0  0  0  0  0  0  0  0
  130.3866  136.2077  158.3767 H   0  0  0  0  0  0  0  0  0  0  0  0
  127.2592  134.5630  158.8622 H   0  0  0  0  0  0  0  0  0  0  0  0
  125.5948  135.2388  160.5377 H   0  0  0  0  0  0  0  0  0  0  0  0
  128.2124  137.9718  162.2419 H   0  0  0  0  0  0  0  0  0  0  0  0
  129.7850  139.6060  160.3394 H   0  0  0  0  0  0  0  0  0  0  0  0
  132.2655  139.5309  161.6183 H   0  0  0  0  0  0  0  0  0  0  0  0
  132.3434  139.8561  159.8616 H   0  0  0  0  0  0  0  0  0  0  0  0
  134.6334  139.3729  160.2953 H   0  0  0  0  0  0  0  0  0  0  0  0
  136.3104  139.6403  162.1016 H   0  0  0  0  0  0  0  0  0  0  0  0
  136.8691  138.2228  161.1861 H   0  0  0  0  0  0  0  0  0  0  0  0
  135.2749  138.2433  163.7831 H   0  0  0  0  0  0  0  0  0  0  0  0
  136.9205  137.6081  163.5188 H   0  0  0  0  0  0  0  0  0  0  0  0
  135.3640  135.7212  163.5220 H   0  0  0  0  0  0  0  0  0  0  0  0
  135.9339  135.9710  161.8503 H   0  0  0  0  0  0  0  0  0  0  0  0
  133.2852  136.8589  163.0679 H   0  0  0  0  0  0  0  0  0  0  0  0
  133.5350  135.6970  161.7446 H   0  0  0  0  0  0  0  0  0  0  0  0
  131.8016  136.6155  161.8980 H   0  0  0  0  0  0  0  0  0  0  0  0
  131.7223  135.9619  160.2354 H   0  0  0  0  0  0  0  0  0  0  0  0
  129.0466  132.8945  154.2941 H   0  0  0  0  0  0  0  0  0  0  0  0
  129.6523  131.6026  152.2900 H   0  0  0  0  0  0  0  0  0  0  0  0
  1  2  1  0
  2  3  1  0
  2 36  1  0
  2 37  1  0
  3  4  1  0
  3 38  1  0
  3 39  1  0
  4 35  2  0
  4  5  1  0
  5  6  2  0
  5 40  1  0
  6  7  1  0
  6 41  1  0
  7  8  1  0
  7 34  2  0
  8 32  1  0
  8  9  2  0
  9 10  1  0
  9 42  1  0
 10 11  1  0
 10 12  1  0
 12 13  1  0
 12 32  2  0
 13 14  1  0
 13 43  1  0
 14 19  1  0
 14 15  2  0
 15 16  1  0
 15 44  1  0
 16 17  2  0
 16 45  1  0
 17 18  1  0
 18 19  2  0
 18 46  1  0
 19 20  1  0
 20 31  1  0
 20 21  2  0
 21 22  1  0
 21 47  1  0
 22 23  1  0
 22 48  1  0
 22 49  1  0
 23 24  1  6
 23 25  1  0
 23 31  1  0
 25 30  1  0
 25 26  2  0
 26 27  1  0
 26 50  1  0
 27 28  1  0
 27 51  1  0
 27 52  1  0
 28 29  1  0
 28 53  1  0
 28 54  1  0
 29 30  1  0
 29 55  1  0
 29 56  1  0
 30 57  1  0
 30 58  1  0
 31 59  1  0
 31 60  1  0
 32 33  1  0
 34 35  1  0
 34 61  1  0
 35 62  1  0
M  CHG  2  23   1  32   1
M  END
>  <DOCK_score>  (1) 
-55.929871

>  <SMILES>  (1) 
FCCc1ccc(-c2c[nH]c(Nc3ccncc3C3=CC[N@@H+](C4=CCCCC4)C3)[nH+]2)cc1

$$$$
