O=C1CC[C@H](NC(NC2CC=CC2)=[NH+]C[C@H](O)c2ccc(-c3ccccc3)cc2)CN1
     RDKit          3D

 62 65  0  0  1  0  0  0  0  0999 V2000
  124.0431  134.1713  161.9360 O   0  0  0  0  0  0  0  0  0  0  0  0
  125.2298  134.3213  161.7356 C   0  0  0  0  0  0  0  0  0  0  0  0
  126.0440  133.1179  161.3556 C   0  0  0  0  0  0  0  0  0  0  0  0
  127.5316  133.4057  161.5734 C   0  0  0  0  0  0  0  0  0  0  0  0
  127.8649  134.7534  160.9222 C   0  0  2  0  0  0  0  0  0  0  0  0
  127.5235  134.7538  159.8871 H   0  0  0  0  0  0  0  0  0  0  0  0
  129.3127  134.9740  160.9625 N   0  0  0  0  0  0  0  0  0  0  0  0
  130.1033  134.5395  159.9251 C   0  0  0  0  0  0  0  0  0  0  0  0
  129.5353  133.8981  158.8498 N   0  0  0  0  0  0  0  0  0  0  0  0
  130.3779  133.4353  157.7443 C   0  0  0  0  0  0  0  0  0  0  0  0
  129.5484  133.2555  156.4518 C   0  0  0  0  0  0  0  0  0  0  0  0
  129.1353  131.8021  156.4563 C   0  0  0  0  0  0  0  0  0  0  0  0
  129.8579  131.1107  157.2951 C   0  0  0  0  0  0  0  0  0  0  0  0
  130.8735  131.9879  157.9899 C   0  0  0  0  0  0  0  0  0  0  0  0
  131.3914  134.7359  159.9608 N   0  0  0  0  0  0  0  0  0  0  0  0
  131.9491  134.4294  159.2287 H   0  0  0  0  0  0  0  0  0  0  0  0
  131.9966  135.4197  161.1063 C   0  0  0  0  0  0  0  0  0  0  0  0
  133.5092  135.5200  160.8993 C   0  0  2  0  0  0  0  0  0  0  0  0
  133.7185  135.7531  159.8553 H   0  0  0  0  0  0  0  0  0  0  0  0
  134.1204  134.2742  161.2411 O   0  0  0  0  0  0  0  0  0  0  0  0
  134.0653  136.6102  161.7786 C   0  0  0  0  0  0  0  0  0  0  0  0
  133.9189  136.5299  163.1518 C   0  0  0  0  0  0  0  0  0  0  0  0
  134.4312  137.5228  163.9622 C   0  0  0  0  0  0  0  0  0  0  0  0
  135.0869  138.6131  163.3940 C   0  0  0  0  0  0  0  0  0  0  0  0
  135.6350  139.6863  164.2599 C   0  0  0  0  0  0  0  0  0  0  0  0
  135.7191  140.9935  163.7848 C   0  0  0  0  0  0  0  0  0  0  0  0
  136.2251  141.9887  164.5960 C   0  0  0  0  0  0  0  0  0  0  0  0
  136.6577  141.6886  165.8751 C   0  0  0  0  0  0  0  0  0  0  0  0
  136.5814  140.3918  166.3501 C   0  0  0  0  0  0  0  0  0  0  0  0
  136.0726  139.3896  165.5490 C   0  0  0  0  0  0  0  0  0  0  0  0
  135.2267  138.6916  162.0099 C   0  0  0  0  0  0  0  0  0  0  0  0
  134.7155  137.6903  161.2093 C   0  0  0  0  0  0  0  0  0  0  0  0
  127.1552  135.8620  161.7005 C   0  0  0  0  0  0  0  0  0  0  0  0
  125.7419  135.5457  161.8647 N   0  0  0  0  0  0  0  0  0  0  0  0
  125.8710  132.8805  160.3059 H   0  0  0  0  0  0  0  0  0  0  0  0
  125.7454  132.2695  161.9713 H   0  0  0  0  0  0  0  0  0  0  0  0
  128.1288  132.6183  161.1136 H   0  0  0  0  0  0  0  0  0  0  0  0
  127.7438  133.4516  162.6415 H   0  0  0  0  0  0  0  0  0  0  0  0
  129.7133  135.4264  161.7212 H   0  0  0  0  0  0  0  0  0  0  0  0
  128.5768  133.7520  158.8231 H   0  0  0  0  0  0  0  0  0  0  0  0
  131.2145  134.1145  157.5810 H   0  0  0  0  0  0  0  0  0  0  0  0
  130.1587  133.4739  155.5755 H   0  0  0  0  0  0  0  0  0  0  0  0
  128.6696  133.9001  156.4718 H   0  0  0  0  0  0  0  0  0  0  0  0
  128.3460  131.3893  155.8456 H   0  0  0  0  0  0  0  0  0  0  0  0
  129.7451  130.0509  157.4695 H   0  0  0  0  0  0  0  0  0  0  0  0
  130.8956  131.7706  159.0577 H   0  0  0  0  0  0  0  0  0  0  0  0
  131.8616  131.8438  157.5531 H   0  0  0  0  0  0  0  0  0  0  0  0
  131.5750  136.4207  161.1962 H   0  0  0  0  0  0  0  0  0  0  0  0
  131.7910  134.8557  162.0161 H   0  0  0  0  0  0  0  0  0  0  0  0
  135.0815  134.2651  161.1338 H   0  0  0  0  0  0  0  0  0  0  0  0
  133.4065  135.6867  163.5908 H   0  0  0  0  0  0  0  0  0  0  0  0
  134.3201  137.4570  165.0343 H   0  0  0  0  0  0  0  0  0  0  0  0
  135.3857  141.2281  162.7846 H   0  0  0  0  0  0  0  0  0  0  0  0
  136.2873  143.0030  164.2301 H   0  0  0  0  0  0  0  0  0  0  0  0
  137.0568  142.4697  166.5052 H   0  0  0  0  0  0  0  0  0  0  0  0
  136.9208  140.1629  167.3494 H   0  0  0  0  0  0  0  0  0  0  0  0
  136.0142  138.3773  165.9206 H   0  0  0  0  0  0  0  0  0  0  0  0
  135.7343  139.5343  161.5642 H   0  0  0  0  0  0  0  0  0  0  0  0
  134.8228  137.7503  160.1363 H   0  0  0  0  0  0  0  0  0  0  0  0
  127.6176  135.9659  162.6821 H   0  0  0  0  0  0  0  0  0  0  0  0
  127.2532  136.8024  161.1581 H   0  0  0  0  0  0  0  0  0  0  0  0
  125.1359  136.2714  162.0815 H   0  0  0  0  0  0  0  0  0  0  0  0
  1  2  2  0
  2 34  1  0
  2  3  1  0
  3  4  1  0
  3 35  1  0
  3 36  1  0
  4  5  1  0
  4 37  1  0
  4 38  1  0
  5  6  1  6
  5  7  1  0
  5 33  1  0
  7 39  1  0
  8  7  1  0
  8  9  1  0
  8 15  2  0
  9 10  1  0
  9 40  1  0
 10 14  1  0
 10 11  1  0
 10 41  1  0
 11 12  1  0
 11 42  1  0
 11 43  1  0
 12 13  2  0
 12 44  1  0
 13 14  1  0
 13 45  1  0
 14 46  1  0
 14 47  1  0
 15 16  1  0
 15 17  1  0
 17 18  1  0
 17 48  1  0
 17 49  1  0
 18 19  1  6
 18 20  1  0
 18 21  1  0
 20 50  1  0
 21 32  1  0
 21 22  2  0
 22 23  1  0
 22 51  1  0
 23 24  2  0
 23 52  1  0
 24 25  1  0
 24 31  1  0
 25 30  1  0
 25 26  2  0
 26 27  1  0
 26 53  1  0
 27 28  2  0
 27 54  1  0
 28 29  1  0
 28 55  1  0
 29 30  2  0
 29 56  1  0
 30 57  1  0
 31 32  2  0
 31 58  1  0
 32 59  1  0
 33 34  1  0
 33 60  1  0
 33 61  1  0
 34 62  1  0
M  CHG  1  15   1
M  END
>  <DOCK_score>  (1) 
-50.698181

>  <SMILES>  (1) 
O=C1CC[C@H](NC(NC2CC=CC2)=[NH+]C[C@H](O)c2ccc(-c3ccccc3)cc2)CN1

$$$$
