CNc1ccc([N@H+](C)C2CCC(C)C2)c(Nc2ccc(-c3ccncc3)cc2)c1
     RDKit          3D

 60 63  0  0  1  0  0  0  0  0999 V2000
  127.1478  136.2788  164.8266 C   0  0  0  0  0  0  0  0  0  0  0  0
  126.4790  136.1435  163.5301 N   0  0  0  0  0  0  0  0  0  0  0  0
  127.2249  135.8457  162.3874 C   0  0  0  0  0  0  0  0  0  0  0  0
  126.5913  135.7171  161.1570 C   0  0  0  0  0  0  0  0  0  0  0  0
  127.3282  135.4221  160.0263 C   0  0  0  0  0  0  0  0  0  0  0  0
  128.6968  135.2540  160.1142 C   0  0  0  0  0  0  0  0  0  0  0  0
  129.4388  134.9557  158.9675 N   0  0  2  0  0  0  0  0  0  0  0  0
  130.4132  134.8627  159.2122 H   0  0  0  0  0  0  0  0  0  0  0  0
  129.2811  136.0379  157.9870 C   0  0  0  0  0  0  0  0  0  0  0  0
  128.9574  133.6949  158.3871 C   0  0  2  0  0  0  0  0  0  0  0  0
  129.1726  132.5292  159.3743 C   0  0  0  0  0  0  0  0  0  0  0  0
  129.5819  131.3083  158.5318 C   0  0  0  0  0  0  0  0  0  0  0  0
  129.6010  131.7739  157.0613 C   0  0  2  0  0  0  0  0  0  0  0  0
  130.7593  131.1182  156.3069 C   0  0  0  0  0  0  0  0  0  0  0  0
  129.8070  133.3065  157.1507 C   0  0  0  0  0  0  0  0  0  0  0  0
  129.3359  135.3756  161.3423 C   0  0  0  0  0  0  0  0  0  0  0  0
  130.7189  135.1994  161.4314 N   0  0  0  0  0  0  0  0  0  0  0  0
  131.5727  136.2915  161.2742 C   0  0  0  0  0  0  0  0  0  0  0  0
  132.5203  136.2911  160.2563 C   0  0  0  0  0  0  0  0  0  0  0  0
  133.3609  137.3712  160.0958 C   0  0  0  0  0  0  0  0  0  0  0  0
  133.2686  138.4602  160.9618 C   0  0  0  0  0  0  0  0  0  0  0  0
  134.1760  139.6207  160.7941 C   0  0  0  0  0  0  0  0  0  0  0  0
  134.5614  140.3954  161.8929 C   0  0  0  0  0  0  0  0  0  0  0  0
  135.4103  141.4642  161.6929 C   0  0  0  0  0  0  0  0  0  0  0  0
  135.8487  141.7642  160.4851 N   0  0  0  0  0  0  0  0  0  0  0  0
  135.5053  141.0623  159.4220 C   0  0  0  0  0  0  0  0  0  0  0  0
  134.6640  139.9747  159.5330 C   0  0  0  0  0  0  0  0  0  0  0  0
  132.3215  138.4562  161.9854 C   0  0  0  0  0  0  0  0  0  0  0  0
  131.4789  137.3764  162.1390 C   0  0  0  0  0  0  0  0  0  0  0  0
  128.5991  135.6775  162.4794 C   0  0  0  0  0  0  0  0  0  0  0  0
  127.6496  135.3440  165.0759 H   0  0  0  0  0  0  0  0  0  0  0  0
  127.8821  137.0827  164.7744 H   0  0  0  0  0  0  0  0  0  0  0  0
  126.4092  136.5106  165.5939 H   0  0  0  0  0  0  0  0  0  0  0  0
  125.5184  136.2607  163.4654 H   0  0  0  0  0  0  0  0  0  0  0  0
  125.5217  135.8474  161.0848 H   0  0  0  0  0  0  0  0  0  0  0  0
  126.8335  135.3232  159.0714 H   0  0  0  0  0  0  0  0  0  0  0  0
  128.2283  136.1383  157.7226 H   0  0  0  0  0  0  0  0  0  0  0  0
  129.6383  136.9733  158.4176 H   0  0  0  0  0  0  0  0  0  0  0  0
  129.8596  135.8053  157.0928 H   0  0  0  0  0  0  0  0  0  0  0  0
  127.9047  133.7760  158.1162 H   0  0  0  0  0  0  0  0  0  0  0  0
  128.2476  132.3190  159.9113 H   0  0  0  0  0  0  0  0  0  0  0  0
  129.9652  132.7787  160.0798 H   0  0  0  0  0  0  0  0  0  0  0  0
  130.5735  130.9659  158.8279 H   0  0  0  0  0  0  0  0  0  0  0  0
  128.8562  130.5054  158.6607 H   0  0  0  0  0  0  0  0  0  0  0  0
  128.6522  131.5443  156.5762 H   0  0  0  0  0  0  0  0  0  0  0  0
  130.6296  130.0359  156.3117 H   0  0  0  0  0  0  0  0  0  0  0  0
  130.7727  131.4780  155.2780 H   0  0  0  0  0  0  0  0  0  0  0  0
  131.7006  131.3735  156.7934 H   0  0  0  0  0  0  0  0  0  0  0  0
  130.8578  133.5461  157.3141 H   0  0  0  0  0  0  0  0  0  0  0  0
  129.4351  133.7993  156.2525 H   0  0  0  0  0  0  0  0  0  0  0  0
  131.0854  134.3179  161.6026 H   0  0  0  0  0  0  0  0  0  0  0  0
  132.5948  135.4454  159.5887 H   0  0  0  0  0  0  0  0  0  0  0  0
  134.0939  137.3724  159.3026 H   0  0  0  0  0  0  0  0  0  0  0  0
  134.2029  140.1582  162.8836 H   0  0  0  0  0  0  0  0  0  0  0  0
  135.7168  142.0660  162.5358 H   0  0  0  0  0  0  0  0  0  0  0  0
  135.8877  141.3433  158.4518 H   0  0  0  0  0  0  0  0  0  0  0  0
  134.3865  139.4051  158.6583 H   0  0  0  0  0  0  0  0  0  0  0  0
  132.2485  139.2984  162.6575 H   0  0  0  0  0  0  0  0  0  0  0  0
  130.7451  137.3731  162.9315 H   0  0  0  0  0  0  0  0  0  0  0  0
  129.0937  135.7766  163.4342 H   0  0  0  0  0  0  0  0  0  0  0  0
  1  2  1  0
  1 31  1  0
  1 32  1  0
  1 33  1  0
  2  3  1  0
  2 34  1  0
  3 30  2  0
  3  4  1  0
  4  5  2  0
  4 35  1  0
  5  6  1  0
  5 36  1  0
  6  7  1  0
  6 16  2  0
  7  8  1  1
  7  9  1  0
  7 10  1  0
  9 37  1  0
  9 38  1  0
  9 39  1  0
 10 15  1  0
 10 11  1  0
 10 40  1  6
 11 12  1  0
 11 41  1  0
 11 42  1  0
 12 13  1  0
 12 43  1  0
 12 44  1  0
 13 14  1  0
 13 15  1  0
 13 45  1  6
 14 46  1  0
 14 47  1  0
 14 48  1  0
 15 49  1  0
 15 50  1  0
 16 17  1  0
 16 30  1  0
 17 18  1  0
 17 51  1  0
 18 29  1  0
 18 19  2  0
 19 20  1  0
 19 52  1  0
 20 21  2  0
 20 53  1  0
 21 22  1  0
 21 28  1  0
 22 27  1  0
 22 23  2  0
 23 24  1  0
 23 54  1  0
 24 25  2  0
 24 55  1  0
 25 26  1  0
 26 27  2  0
 26 56  1  0
 27 57  1  0
 28 29  2  0
 28 58  1  0
 29 59  1  0
 30 60  1  0
M  CHG  1   7   1
M  END
>  <DOCK_score>  (1) 
-41.666718

>  <SMILES>  (1) 
CNc1ccc([N@H+](C)C2CCC(C)C2)c(Nc2ccc(-c3ccncc3)cc2)c1

$$$$
