Clc1ccc2c(c1)OC[C@H]([NH2+]Cc1c[nH]nc1-c1ccc(Nc3c[nH]c4ccccc34)o1)C2
     RDKit          3D

 56 61  0  0  1  0  0  0  0  0999 V2000
  135.4811  141.3005  164.7628 Cl  0  0  0  0  0  0  0  0  0  0  0  0
  134.9032  140.2600  163.4989 C   0  0  0  0  0  0  0  0  0  0  0  0
  135.3656  140.4199  162.2043 C   0  0  0  0  0  0  0  0  0  0  0  0
  134.9061  139.5907  161.2003 C   0  0  0  0  0  0  0  0  0  0  0  0
  133.9823  138.5975  161.4812 C   0  0  0  0  0  0  0  0  0  0  0  0
  133.5157  138.4366  162.7741 C   0  0  0  0  0  0  0  0  0  0  0  0
  133.9815  139.2721  163.7843 C   0  0  0  0  0  0  0  0  0  0  0  0
  132.6020  137.4829  163.0919 O   0  0  0  0  0  0  0  0  0  0  0  0
  132.4063  136.4117  162.1675 C   0  0  0  0  0  0  0  0  0  0  0  0
  132.2095  137.0098  160.7686 C   0  0  2  0  0  0  0  0  0  0  0  0
  131.3931  137.7317  160.7893 H   0  0  0  0  0  0  0  0  0  0  0  0
  131.8998  135.9393  159.8116 N   0  0  0  0  0  0  0  0  0  0  0  0
  132.0921  136.2601  158.8744 H   0  0  0  0  0  0  0  0  0  0  0  0
  132.4698  135.1318  160.0142 H   0  0  0  0  0  0  0  0  0  0  0  0
  130.4806  135.5775  159.9239 C   0  0  0  0  0  0  0  0  0  0  0  0
  130.1628  134.4794  158.9421 C   0  0  0  0  0  0  0  0  0  0  0  0
  131.0306  133.9077  158.0801 C   0  0  0  0  0  0  0  0  0  0  0  0
  130.3639  132.9663  157.3777 N   0  0  0  0  0  0  0  0  0  0  0  0
  130.7410  132.3969  156.6889 H   0  0  0  0  0  0  0  0  0  0  0  0
  129.0320  132.9587  157.8115 N   0  0  0  0  0  0  0  0  0  0  0  0
  128.9041  133.8698  158.7559 C   0  0  0  0  0  0  0  0  0  0  0  0
  127.6632  134.1948  159.4888 C   0  0  0  0  0  0  0  0  0  0  0  0
  126.4538  133.6004  159.3098 C   0  0  0  0  0  0  0  0  0  0  0  0
  125.5603  134.2137  160.2094 C   0  0  0  0  0  0  0  0  0  0  0  0
  126.2662  135.1502  160.8922 C   0  0  0  0  0  0  0  0  0  0  0  0
  125.7618  135.9861  161.8803 N   0  0  0  0  0  0  0  0  0  0  0  0
  126.5993  136.4343  162.9169 C   0  0  0  0  0  0  0  0  0  0  0  0
  126.4934  137.5979  163.5865 C   0  0  0  0  0  0  0  0  0  0  0  0
  127.4917  137.6844  164.5284 N   0  0  0  0  0  0  0  0  0  0  0  0
  127.6229  138.4304  165.1344 H   0  0  0  0  0  0  0  0  0  0  0  0
  128.2766  136.5545  164.4831 C   0  0  0  0  0  0  0  0  0  0  0  0
  129.3939  136.1374  165.2005 C   0  0  0  0  0  0  0  0  0  0  0  0
  129.9739  134.9208  164.9173 C   0  0  0  0  0  0  0  0  0  0  0  0
  129.4551  134.1039  163.9214 C   0  0  0  0  0  0  0  0  0  0  0  0
  128.3591  134.4939  163.2050 C   0  0  0  0  0  0  0  0  0  0  0  0
  127.7516  135.7202  163.4797 C   0  0  0  0  0  0  0  0  0  0  0  0
  127.5373  135.1287  160.4551 O   0  0  0  0  0  0  0  0  0  0  0  0
  133.5074  137.7102  160.3585 C   0  0  0  0  0  0  0  0  0  0  0  0
  136.0858  141.1926  161.9794 H   0  0  0  0  0  0  0  0  0  0  0  0
  135.2689  139.7170  160.1910 H   0  0  0  0  0  0  0  0  0  0  0  0
  133.6212  139.1477  164.7947 H   0  0  0  0  0  0  0  0  0  0  0  0
  131.5225  135.8399  162.4501 H   0  0  0  0  0  0  0  0  0  0  0  0
  133.2809  135.7612  162.1690 H   0  0  0  0  0  0  0  0  0  0  0  0
  130.2729  135.2312  160.9363 H   0  0  0  0  0  0  0  0  0  0  0  0
  129.8648  136.4500  159.7050 H   0  0  0  0  0  0  0  0  0  0  0  0
  132.0758  134.1575  157.9730 H   0  0  0  0  0  0  0  0  0  0  0  0
  126.2226  132.8095  158.6118 H   0  0  0  0  0  0  0  0  0  0  0  0
  124.5126  133.9822  160.3327 H   0  0  0  0  0  0  0  0  0  0  0  0
  124.8318  136.2605  161.8550 H   0  0  0  0  0  0  0  0  0  0  0  0
  125.7381  138.3495  163.4107 H   0  0  0  0  0  0  0  0  0  0  0  0
  129.8049  136.7659  165.9767 H   0  0  0  0  0  0  0  0  0  0  0  0
  130.8409  134.5990  165.4749 H   0  0  0  0  0  0  0  0  0  0  0  0
  129.9218  133.1529  163.7115 H   0  0  0  0  0  0  0  0  0  0  0  0
  127.9611  133.8532  162.4319 H   0  0  0  0  0  0  0  0  0  0  0  0
  134.2697  136.9624  160.1401 H   0  0  0  0  0  0  0  0  0  0  0  0
  133.3279  138.3148  159.4695 H   0  0  0  0  0  0  0  0  0  0  0  0
  1  2  1  0
  2  7  2  0
  2  3  1  0
  3  4  2  0
  3 39  1  0
  4  5  1  0
  4 40  1  0
  5 38  1  0
  5  6  2  0
  6  7  1  0
  6  8  1  0
  7 41  1  0
  8  9  1  0
  9 10  1  0
  9 42  1  0
  9 43  1  0
 10 11  1  1
 10 12  1  0
 10 38  1  0
 12 13  1  0
 12 14  1  0
 12 15  1  0
 15 16  1  0
 15 44  1  0
 15 45  1  0
 16 21  1  0
 16 17  2  0
 17 18  1  0
 17 46  1  0
 18 19  1  0
 18 20  1  0
 20 21  2  0
 21 22  1  0
 22 37  1  0
 22 23  2  0
 23 24  1  0
 23 47  1  0
 24 25  2  0
 24 48  1  0
 25 26  1  0
 25 37  1  0
 26 27  1  0
 26 49  1  0
 27 36  1  0
 27 28  2  0
 28 29  1  0
 28 50  1  0
 29 30  1  0
 29 31  1  0
 31 36  2  0
 31 32  1  0
 32 33  2  0
 32 51  1  0
 33 34  1  0
 33 52  1  0
 34 35  2  0
 34 53  1  0
 35 36  1  0
 35 54  1  0
 38 55  1  0
 38 56  1  0
M  CHG  1  12   1
M  END
>  <DOCK_score>  (1) 
-48.392632

>  <SMILES>  (1) 
Clc1ccc2c(c1)OC[C@H]([NH2+]Cc1c[nH]nc1-c1ccc(Nc3c[nH]c4ccccc34)o1)C2

$$$$
