Nc1ccc(-c2c[nH]c(N[C@H](c3ccccc3)c3ccc(OC4=CCC4)cc3)[nH+]2)cc1
     RDKit          3D

 56 60  0  0  1  0  0  0  0  0999 V2000
  131.2938  129.4437  151.9852 N   0  0  0  0  0  0  0  0  0  0  0  0
  131.0370  130.0962  153.1934 C   0  0  0  0  0  0  0  0  0  0  0  0
  130.1253  131.1454  153.2346 C   0  0  0  0  0  0  0  0  0  0  0  0
  129.8704  131.7919  154.4256 C   0  0  0  0  0  0  0  0  0  0  0  0
  130.5273  131.3927  155.5886 C   0  0  0  0  0  0  0  0  0  0  0  0
  130.2550  132.0871  156.8711 C   0  0  0  0  0  0  0  0  0  0  0  0
  129.7602  131.5174  157.9975 C   0  0  0  0  0  0  0  0  0  0  0  0
  129.6657  132.5139  158.9399 N   0  0  0  0  0  0  0  0  0  0  0  0
  129.3444  132.4157  159.8498 H   0  0  0  0  0  0  0  0  0  0  0  0
  130.1060  133.6635  158.3601 C   0  0  0  0  0  0  0  0  0  0  0  0
  130.1722  134.9025  158.9744 N   0  0  0  0  0  0  0  0  0  0  0  0
  129.7456  135.0529  160.3678 C   0  0  2  0  0  0  0  0  0  0  0  0
  130.0786  134.1901  160.9448 H   0  0  0  0  0  0  0  0  0  0  0  0
  128.2426  135.1462  160.4258 C   0  0  0  0  0  0  0  0  0  0  0  0
  127.5634  134.6788  161.5352 C   0  0  0  0  0  0  0  0  0  0  0  0
  126.1851  134.7682  161.5903 C   0  0  0  0  0  0  0  0  0  0  0  0
  125.4852  135.3168  160.5318 C   0  0  0  0  0  0  0  0  0  0  0  0
  126.1641  135.7794  159.4200 C   0  0  0  0  0  0  0  0  0  0  0  0
  127.5427  135.6939  159.3668 C   0  0  0  0  0  0  0  0  0  0  0  0
  130.3494  136.3070  160.9454 C   0  0  0  0  0  0  0  0  0  0  0  0
  131.5715  136.7605  160.4837 C   0  0  0  0  0  0  0  0  0  0  0  0
  132.1272  137.9097  161.0114 C   0  0  0  0  0  0  0  0  0  0  0  0
  131.4580  138.6094  162.0056 C   0  0  0  0  0  0  0  0  0  0  0  0
  132.0029  139.7400  162.5260 O   0  0  0  0  0  0  0  0  0  0  0  0
  132.8152  139.6164  163.6061 C   0  0  0  0  0  0  0  0  0  0  0  0
  133.4776  140.4832  164.3246 C   0  0  0  0  0  0  0  0  0  0  0  0
  134.0499  139.4471  165.2437 C   0  0  0  0  0  0  0  0  0  0  0  0
  133.2777  138.4366  164.4060 C   0  0  0  0  0  0  0  0  0  0  0  0
  130.2345  138.1491  162.4707 C   0  0  0  0  0  0  0  0  0  0  0  0
  129.6808  137.0019  161.9363 C   0  0  0  0  0  0  0  0  0  0  0  0
  130.4520  133.4056  157.1224 N   0  0  0  0  0  0  0  0  0  0  0  0
  130.7958  134.0537  156.4879 H   0  0  0  0  0  0  0  0  0  0  0  0
  131.4445  130.3440  155.5435 C   0  0  0  0  0  0  0  0  0  0  0  0
  131.6924  129.6969  154.3515 C   0  0  0  0  0  0  0  0  0  0  0  0
  130.8363  129.7219  151.1765 H   0  0  0  0  0  0  0  0  0  0  0  0
  131.9296  128.7117  151.9555 H   0  0  0  0  0  0  0  0  0  0  0  0
  129.6167  131.4543  152.3333 H   0  0  0  0  0  0  0  0  0  0  0  0
  129.1622  132.6065  154.4574 H   0  0  0  0  0  0  0  0  0  0  0  0
  129.4913  130.4797  158.1291 H   0  0  0  0  0  0  0  0  0  0  0  0
  130.5010  135.6709  158.4822 H   0  0  0  0  0  0  0  0  0  0  0  0
  128.1098  134.2467  162.3606 H   0  0  0  0  0  0  0  0  0  0  0  0
  125.6546  134.4071  162.4590 H   0  0  0  0  0  0  0  0  0  0  0  0
  124.4081  135.3843  160.5736 H   0  0  0  0  0  0  0  0  0  0  0  0
  125.6175  136.2080  158.5931 H   0  0  0  0  0  0  0  0  0  0  0  0
  128.0732  136.0553  158.4982 H   0  0  0  0  0  0  0  0  0  0  0  0
  132.0916  136.2158  159.7096 H   0  0  0  0  0  0  0  0  0  0  0  0
  133.0815  138.2637  160.6502 H   0  0  0  0  0  0  0  0  0  0  0  0
  133.5796  141.5571  164.2724 H   0  0  0  0  0  0  0  0  0  0  0  0
  135.1325  139.3437  165.1705 H   0  0  0  0  0  0  0  0  0  0  0  0
  133.6969  139.5276  166.2719 H   0  0  0  0  0  0  0  0  0  0  0  0
  132.4785  137.9331  164.9500 H   0  0  0  0  0  0  0  0  0  0  0  0
  133.9123  137.7482  163.8481 H   0  0  0  0  0  0  0  0  0  0  0  0
  129.7138  138.6892  163.2477 H   0  0  0  0  0  0  0  0  0  0  0  0
  128.7266  136.6456  162.2951 H   0  0  0  0  0  0  0  0  0  0  0  0
  131.9576  130.0358  156.4427 H   0  0  0  0  0  0  0  0  0  0  0  0
  132.3998  128.8817  154.3169 H   0  0  0  0  0  0  0  0  0  0  0  0
  1  2  1  0
  1 35  1  0
  1 36  1  0
  2 34  2  0
  2  3  1  0
  3  4  2  0
  3 37  1  0
  4  5  1  0
  4 38  1  0
  5  6  1  0
  5 33  2  0
  6 31  1  0
  6  7  2  0
  7  8  1  0
  7 39  1  0
  8  9  1  0
  8 10  1  0
 10 11  1  0
 10 31  2  0
 11 12  1  0
 11 40  1  0
 12 13  1  1
 12 14  1  0
 12 20  1  0
 14 19  1  0
 14 15  2  0
 15 16  1  0
 15 41  1  0
 16 17  2  0
 16 42  1  0
 17 18  1  0
 17 43  1  0
 18 19  2  0
 18 44  1  0
 19 45  1  0
 20 30  1  0
 20 21  2  0
 21 22  1  0
 21 46  1  0
 22 23  2  0
 22 47  1  0
 23 24  1  0
 23 29  1  0
 24 25  1  0
 25 28  1  0
 25 26  2  0
 26 27  1  0
 26 48  1  0
 27 28  1  0
 27 49  1  0
 27 50  1  0
 28 51  1  0
 28 52  1  0
 29 30  2  0
 29 53  1  0
 30 54  1  0
 31 32  1  0
 33 34  1  0
 33 55  1  0
 34 56  1  0
M  CHG  1  31   1
M  END
>  <DOCK_score>  (1) 
-56.872734

>  <SMILES>  (1) 
Nc1ccc(-c2c[nH]c(N[C@H](c3ccccc3)c3ccc(OC4=CCC4)cc3)[nH+]2)cc1

$$$$
