CCC=Cc1ccc(-c2c[nH]c(NC(c3ccccc3)c3ccccc3)[nH+]2)cc1
     RDKit          3D

 55 58  0  0  1  0  0  0  0  0999 V2000
  129.7874  127.7472  150.2036 C   0  0  0  0  0  0  0  0  0  0  0  0
  130.6113  129.0359  150.1661 C   0  0  0  0  0  0  0  0  0  0  0  0
  130.3383  129.8429  151.4091 C   0  0  0  0  0  0  0  0  0  0  0  0
  131.0809  129.6623  152.4935 C   0  0  0  0  0  0  0  0  0  0  0  0
  130.8134  130.4531  153.7120 C   0  0  0  0  0  0  0  0  0  0  0  0
  130.0962  131.6486  153.6255 C   0  0  0  0  0  0  0  0  0  0  0  0
  129.8467  132.3850  154.7617 C   0  0  0  0  0  0  0  0  0  0  0  0
  130.3099  131.9372  155.9993 C   0  0  0  0  0  0  0  0  0  0  0  0
  130.0410  132.7307  157.2220 C   0  0  0  0  0  0  0  0  0  0  0  0
  129.3527  132.3089  158.3125 C   0  0  0  0  0  0  0  0  0  0  0  0
  129.3461  133.3510  159.2072 N   0  0  0  0  0  0  0  0  0  0  0  0
  128.9336  133.3518  160.0851 H   0  0  0  0  0  0  0  0  0  0  0  0
  130.0230  134.3832  158.6336 C   0  0  0  0  0  0  0  0  0  0  0  0
  130.2406  135.6233  159.2091 N   0  0  0  0  0  0  0  0  0  0  0  0
  129.7223  135.9101  160.5490 C   0  0  0  0  0  0  0  0  0  0  0  0
  130.0926  137.3175  160.9403 C   0  0  0  0  0  0  0  0  0  0  0  0
  130.2876  137.6361  162.2712 C   0  0  0  0  0  0  0  0  0  0  0  0
  130.6319  138.9259  162.6298 C   0  0  0  0  0  0  0  0  0  0  0  0
  130.7708  139.8996  161.6584 C   0  0  0  0  0  0  0  0  0  0  0  0
  130.5706  139.5822  160.3280 C   0  0  0  0  0  0  0  0  0  0  0  0
  130.2314  138.2912  159.9690 C   0  0  0  0  0  0  0  0  0  0  0  0
  128.2220  135.7670  160.5487 C   0  0  0  0  0  0  0  0  0  0  0  0
  127.5656  135.3680  161.6979 C   0  0  0  0  0  0  0  0  0  0  0  0
  126.1891  135.2415  161.6989 C   0  0  0  0  0  0  0  0  0  0  0  0
  125.4699  135.5039  160.5479 C   0  0  0  0  0  0  0  0  0  0  0  0
  126.1270  135.8979  159.3972 C   0  0  0  0  0  0  0  0  0  0  0  0
  127.5030  136.0294  159.3976 C   0  0  0  0  0  0  0  0  0  0  0  0
  130.4397  134.0078  157.4492 N   0  0  0  0  0  0  0  0  0  0  0  0
  130.9513  134.5554  156.8332 H   0  0  0  0  0  0  0  0  0  0  0  0
  131.0310  130.7458  156.0856 C   0  0  0  0  0  0  0  0  0  0  0  0
  131.2770  130.0058  154.9511 C   0  0  0  0  0  0  0  0  0  0  0  0
  130.0635  127.1649  151.0827 H   0  0  0  0  0  0  0  0  0  0  0  0
  128.7270  127.9950  150.2503 H   0  0  0  0  0  0  0  0  0  0  0  0
  129.9849  127.1634  149.3045 H   0  0  0  0  0  0  0  0  0  0  0  0
  130.3352  129.6181  149.2870 H   0  0  0  0  0  0  0  0  0  0  0  0
  131.6716  128.7881  150.1194 H   0  0  0  0  0  0  0  0  0  0  0  0
  129.5383  130.5684  151.4172 H   0  0  0  0  0  0  0  0  0  0  0  0
  131.8809  128.9369  152.4855 H   0  0  0  0  0  0  0  0  0  0  0  0
  129.7376  131.9953  152.6675 H   0  0  0  0  0  0  0  0  0  0  0  0
  129.2922  133.3094  154.6950 H   0  0  0  0  0  0  0  0  0  0  0  0
  128.9002  131.3382  158.4521 H   0  0  0  0  0  0  0  0  0  0  0  0
  130.7326  136.3037  158.7235 H   0  0  0  0  0  0  0  0  0  0  0  0
  130.1539  135.2089  161.2633 H   0  0  0  0  0  0  0  0  0  0  0  0
  130.1748  136.8764  163.0305 H   0  0  0  0  0  0  0  0  0  0  0  0
  130.7881  139.1741  163.6693 H   0  0  0  0  0  0  0  0  0  0  0  0
  131.0355  140.9085  161.9390 H   0  0  0  0  0  0  0  0  0  0  0  0
  130.6787  140.3430  159.5692 H   0  0  0  0  0  0  0  0  0  0  0  0
  130.0746  138.0432  158.9296 H   0  0  0  0  0  0  0  0  0  0  0  0
  128.1277  135.1587  162.5960 H   0  0  0  0  0  0  0  0  0  0  0  0
  125.6758  134.9334  162.5979 H   0  0  0  0  0  0  0  0  0  0  0  0
  124.3949  135.4008  160.5474 H   0  0  0  0  0  0  0  0  0  0  0  0
  125.5651  136.1024  158.4978 H   0  0  0  0  0  0  0  0  0  0  0  0
  128.0163  136.3369  158.4984 H   0  0  0  0  0  0  0  0  0  0  0  0
  131.3926  130.4019  157.0435 H   0  0  0  0  0  0  0  0  0  0  0  0
  131.8315  129.0816  155.0187 H   0  0  0  0  0  0  0  0  0  0  0  0
  1  2  1  0
  1 32  1  0
  1 33  1  0
  1 34  1  0
  2  3  1  0
  2 35  1  0
  2 36  1  0
  3  4  2  0
  3 37  1  0
  4  5  1  0
  4 38  1  0
  5 31  2  0
  5  6  1  0
  6  7  2  0
  6 39  1  0
  7  8  1  0
  7 40  1  0
  8  9  1  0
  8 30  2  0
  9 28  1  0
  9 10  2  0
 10 11  1  0
 10 41  1  0
 11 12  1  0
 11 13  1  0
 13 14  1  0
 13 28  2  0
 14 15  1  0
 14 42  1  0
 15 16  1  0
 15 22  1  0
 15 43  1  0
 16 21  1  0
 16 17  2  0
 17 18  1  0
 17 44  1  0
 18 19  2  0
 18 45  1  0
 19 20  1  0
 19 46  1  0
 20 21  2  0
 20 47  1  0
 21 48  1  0
 22 27  1  0
 22 23  2  0
 23 24  1  0
 23 49  1  0
 24 25  2  0
 24 50  1  0
 25 26  1  0
 25 51  1  0
 26 27  2  0
 26 52  1  0
 27 53  1  0
 28 29  1  0
 30 31  1  0
 30 54  1  0
 31 55  1  0
M  CHG  1  28   1
M  END
>  <DOCK_score>  (1) 
-62.262024

>  <SMILES>  (1) 
CCC=Cc1ccc(-c2c[nH]c(NC(c3ccccc3)c3ccccc3)[nH+]2)cc1

$$$$
