Cc1ccc(-c2ccc(-c3n[nH]cc3CNc3[nH]cc(-c4ccc(C(F)(F)F)cc4)[nH+]3)cc2)cc1
     RDKit          3D

 58 62  0  0  1  0  0  0  0  0999 V2000
  131.3961  135.5954  171.8855 C   0  0  0  0  0  0  0  0  0  0  0  0
  130.8953  135.6897  170.4673 C   0  0  0  0  0  0  0  0  0  0  0  0
  129.5617  135.4484  170.1901 C   0  0  0  0  0  0  0  0  0  0  0  0
  129.0963  135.5390  168.8940 C   0  0  0  0  0  0  0  0  0  0  0  0
  129.9740  135.8690  167.8626 C   0  0  0  0  0  0  0  0  0  0  0  0
  129.4799  135.9673  166.4677 C   0  0  0  0  0  0  0  0  0  0  0  0
  130.0862  136.8491  165.5738 C   0  0  0  0  0  0  0  0  0  0  0  0
  129.6303  136.9368  164.2768 C   0  0  0  0  0  0  0  0  0  0  0  0
  128.5558  136.1515  163.8608 C   0  0  0  0  0  0  0  0  0  0  0  0
  128.0610  136.2504  162.4659 C   0  0  0  0  0  0  0  0  0  0  0  0
  126.8448  136.5953  162.0979 N   0  0  0  0  0  0  0  0  0  0  0  0
  126.7890  136.5674  160.6987 N   0  0  0  0  0  0  0  0  0  0  0  0
  126.0138  136.7797  160.1557 H   0  0  0  0  0  0  0  0  0  0  0  0
  128.0005  136.1893  160.2369 C   0  0  0  0  0  0  0  0  0  0  0  0
  128.8075  135.9861  161.3008 C   0  0  0  0  0  0  0  0  0  0  0  0
  130.2504  135.5543  161.2503 C   0  0  0  0  0  0  0  0  0  0  0  0
  130.6601  135.3820  159.8543 N   0  0  0  0  0  0  0  0  0  0  0  0
  130.5115  134.1524  159.2360 C   0  0  0  0  0  0  0  0  0  0  0  0
  130.0059  133.0296  159.8156 N   0  0  0  0  0  0  0  0  0  0  0  0
  129.6875  132.9476  160.7281 H   0  0  0  0  0  0  0  0  0  0  0  0
  130.0269  132.0345  158.8687 C   0  0  0  0  0  0  0  0  0  0  0  0
  130.5520  132.5750  157.7414 C   0  0  0  0  0  0  0  0  0  0  0  0
  130.7722  131.8691  156.4556 C   0  0  0  0  0  0  0  0  0  0  0  0
  130.7050  132.5697  155.2525 C   0  0  0  0  0  0  0  0  0  0  0  0
  130.9159  131.9087  154.0595 C   0  0  0  0  0  0  0  0  0  0  0  0
  131.1831  130.5516  154.0555 C   0  0  0  0  0  0  0  0  0  0  0  0
  131.4068  129.8343  152.7491 C   0  0  0  0  0  0  0  0  0  0  0  0
  131.2947  130.7443  151.6925 F   0  0  0  0  0  0  0  0  0  0  0  0
  132.6853  129.2664  152.7419 F   0  0  0  0  0  0  0  0  0  0  0  0
  130.4481  128.8264  152.6004 F   0  0  0  0  0  0  0  0  0  0  0  0
  131.2453  129.8501  155.2461 C   0  0  0  0  0  0  0  0  0  0  0  0
  131.0413  130.5016  156.4455 C   0  0  0  0  0  0  0  0  0  0  0  0
  130.8396  133.8759  157.9975 N   0  0  0  0  0  0  0  0  0  0  0  0
  131.2263  134.5016  157.3651 H   0  0  0  0  0  0  0  0  0  0  0  0
  127.9462  135.2735  164.7561 C   0  0  0  0  0  0  0  0  0  0  0  0
  128.4054  135.1818  166.0517 C   0  0  0  0  0  0  0  0  0  0  0  0
  131.3177  136.1059  168.1472 C   0  0  0  0  0  0  0  0  0  0  0  0
  131.7719  136.0124  169.4470 C   0  0  0  0  0  0  0  0  0  0  0  0
  131.7262  134.5763  172.0872 H   0  0  0  0  0  0  0  0  0  0  0  0
  132.2317  136.2817  172.0222 H   0  0  0  0  0  0  0  0  0  0  0  0
  130.5926  135.8597  172.5729 H   0  0  0  0  0  0  0  0  0  0  0  0
  128.8824  135.1932  170.9900 H   0  0  0  0  0  0  0  0  0  0  0  0
  128.0541  135.3541  168.6791 H   0  0  0  0  0  0  0  0  0  0  0  0
  130.9155  137.4606  165.8970 H   0  0  0  0  0  0  0  0  0  0  0  0
  130.1025  137.6168  163.5832 H   0  0  0  0  0  0  0  0  0  0  0  0
  128.2755  136.0703  159.1994 H   0  0  0  0  0  0  0  0  0  0  0  0
  130.8739  136.3148  161.7206 H   0  0  0  0  0  0  0  0  0  0  0  0
  130.3659  134.6099  161.7820 H   0  0  0  0  0  0  0  0  0  0  0  0
  131.0354  136.1296  159.3633 H   0  0  0  0  0  0  0  0  0  0  0  0
  129.6934  131.0155  158.9989 H   0  0  0  0  0  0  0  0  0  0  0  0
  130.4924  133.6284  155.2542 H   0  0  0  0  0  0  0  0  0  0  0  0
  130.8679  132.4513  153.1269 H   0  0  0  0  0  0  0  0  0  0  0  0
  131.4543  128.7905  155.2371 H   0  0  0  0  0  0  0  0  0  0  0  0
  131.0898  129.9528  157.3743 H   0  0  0  0  0  0  0  0  0  0  0  0
  127.1137  134.6655  164.4340 H   0  0  0  0  0  0  0  0  0  0  0  0
  127.9329  134.5021  166.7453 H   0  0  0  0  0  0  0  0  0  0  0  0
  132.0020  136.3622  167.3520 H   0  0  0  0  0  0  0  0  0  0  0  0
  132.8129  136.1960  169.6687 H   0  0  0  0  0  0  0  0  0  0  0  0
  1  2  1  0
  1 39  1  0
  1 40  1  0
  1 41  1  0
  2 38  2  0
  2  3  1  0
  3  4  2  0
  3 42  1  0
  4  5  1  0
  4 43  1  0
  5  6  1  0
  5 37  2  0
  6 36  1  0
  6  7  2  0
  7  8  1  0
  7 44  1  0
  8  9  2  0
  8 45  1  0
  9 10  1  0
  9 35  1  0
 10 15  1  0
 10 11  2  0
 11 12  1  0
 12 13  1  0
 12 14  1  0
 14 15  2  0
 14 46  1  0
 15 16  1  0
 16 17  1  0
 16 47  1  0
 16 48  1  0
 17 49  1  0
 18 17  1  0
 18 33  2  0
 18 19  1  0
 19 20  1  0
 19 21  1  0
 21 22  2  0
 21 50  1  0
 22 23  1  0
 22 33  1  0
 23 32  1  0
 23 24  2  0
 24 25  1  0
 24 51  1  0
 25 26  2  0
 25 52  1  0
 26 27  1  0
 26 31  1  0
 27 28  1  0
 27 29  1  0
 27 30  1  0
 31 32  2  0
 31 53  1  0
 32 54  1  0
 33 34  1  0
 35 36  2  0
 35 55  1  0
 36 56  1  0
 37 38  1  0
 37 57  1  0
 38 58  1  0
M  CHG  1  33   1
M  END
>  <DOCK_score>  (1) 
-51.93824

>  <SMILES>  (1) 
Cc1ccc(-c2ccc(-c3n[nH]cc3CNc3[nH]cc(-c4ccc(C(F)(F)F)cc4)[nH+]3)cc2)cc1

$$$$
