CC[C@H]1CC[C@H](Nc2ccc(-c3n[nH]cc3C[NH2+]CC3CC4C[C@@H]4C3)o2)CC1
     RDKit          3D

 63 67  0  0  1  0  0  0  0  0999 V2000
  127.6934  139.9524  167.2144 C   0  0  0  0  0  0  0  0  0  0  0  0
  128.5405  139.6546  165.9757 C   0  0  0  0  0  0  0  0  0  0  0  0
  127.6699  138.9827  164.9120 C   0  0  1  0  0  0  0  0  0  0  0  0
  126.8500  139.6475  164.6403 H   0  0  0  0  0  0  0  0  0  0  0  0
  128.5170  138.6851  163.6732 C   0  0  0  0  0  0  0  0  0  0  0  0
  127.6465  138.0129  162.6096 C   0  0  0  0  0  0  0  0  0  0  0  0
  127.0797  136.7054  163.1659 C   0  0  2  0  0  0  0  0  0  0  0  0
  127.8996  136.0404  163.4377 H   0  0  0  0  0  0  0  0  0  0  0  0
  126.2461  136.0618  162.1475 N   0  0  0  0  0  0  0  0  0  0  0  0
  126.8133  135.1634  161.2512 C   0  0  0  0  0  0  0  0  0  0  0  0
  126.1800  134.1100  160.6775 C   0  0  0  0  0  0  0  0  0  0  0  0
  127.1184  133.4708  159.8434 C   0  0  0  0  0  0  0  0  0  0  0  0
  128.2800  134.1683  159.9506 C   0  0  0  0  0  0  0  0  0  0  0  0
  129.5434  133.8587  159.2499 C   0  0  0  0  0  0  0  0  0  0  0  0
  129.7411  132.8618  158.4100 N   0  0  0  0  0  0  0  0  0  0  0  0
  131.0710  132.9180  157.9739 N   0  0  0  0  0  0  0  0  0  0  0  0
  131.4924  132.3037  157.3528 H   0  0  0  0  0  0  0  0  0  0  0  0
  131.6650  133.9759  158.5678 C   0  0  0  0  0  0  0  0  0  0  0  0
  130.7513  134.5794  159.3577 C   0  0  0  0  0  0  0  0  0  0  0  0
  130.9827  135.8016  160.2085 C   0  0  0  0  0  0  0  0  0  0  0  0
  132.3702  136.2558  160.0462 N   0  0  0  0  0  0  0  0  0  0  0  0
  132.5385  136.4833  159.0778 H   0  0  0  0  0  0  0  0  0  0  0  0
  133.0001  135.5219  160.3337 H   0  0  0  0  0  0  0  0  0  0  0  0
  132.5957  137.4473  160.8755 C   0  0  0  0  0  0  0  0  0  0  0  0
  134.0408  137.9202  160.7065 C   0  0  2  0  0  0  0  0  0  0  0  0
  134.4152  138.9580  161.7985 C   0  0  0  0  0  0  0  0  0  0  0  0
  135.5760  139.7613  161.1763 C   0  0  2  0  0  0  0  0  0  0  0  0
  135.2330  140.9798  160.3168 C   0  0  0  0  0  0  0  0  0  0  0  0
  135.4409  139.6184  159.6501 C   0  0  2  0  0  0  0  0  0  0  0  0
  136.3057  139.4676  159.0038 H   0  0  0  0  0  0  0  0  0  0  0  0
  134.2030  138.7333  159.3982 C   0  0  0  0  0  0  0  0  0  0  0  0
  128.0829  135.1891  160.8114 O   0  0  0  0  0  0  0  0  0  0  0  0
  126.2326  137.0030  164.4048 C   0  0  0  0  0  0  0  0  0  0  0  0
  127.1031  137.6750  165.4684 C   0  0  0  0  0  0  0  0  0  0  0  0
  127.2896  139.0206  167.6109 H   0  0  0  0  0  0  0  0  0  0  0  0
  128.3137  140.4312  167.9721 H   0  0  0  0  0  0  0  0  0  0  0  0
  126.8734  140.6171  166.9429 H   0  0  0  0  0  0  0  0  0  0  0  0
  129.3604  138.9898  166.2473 H   0  0  0  0  0  0  0  0  0  0  0  0
  128.9443  140.5863  165.5793 H   0  0  0  0  0  0  0  0  0  0  0  0
  129.3370  138.0201  163.9449 H   0  0  0  0  0  0  0  0  0  0  0  0
  128.9209  139.6165  163.2767 H   0  0  0  0  0  0  0  0  0  0  0  0
  128.2500  137.8009  161.7270 H   0  0  0  0  0  0  0  0  0  0  0  0
  126.8266  138.6778  162.3377 H   0  0  0  0  0  0  0  0  0  0  0  0
  125.2984  136.2628  162.0984 H   0  0  0  0  0  0  0  0  0  0  0  0
  125.1519  133.8169  160.8310 H   0  0  0  0  0  0  0  0  0  0  0  0
  126.9477  132.5943  159.2358 H   0  0  0  0  0  0  0  0  0  0  0  0
  132.6912  134.2848  158.4341 H   0  0  0  0  0  0  0  0  0  0  0  0
  130.8008  135.5558  161.2547 H   0  0  0  0  0  0  0  0  0  0  0  0
  130.3021  136.5945  159.8979 H   0  0  0  0  0  0  0  0  0  0  0  0
  132.4137  137.2014  161.9217 H   0  0  0  0  0  0  0  0  0  0  0  0
  131.9152  138.2401  160.5649 H   0  0  0  0  0  0  0  0  0  0  0  0
  134.7294  137.0754  160.7240 H   0  0  0  0  0  0  0  0  0  0  0  0
  134.7441  138.4537  162.7070 H   0  0  0  0  0  0  0  0  0  0  0  0
  133.5696  139.6122  162.0114 H   0  0  0  0  0  0  0  0  0  0  0  0
  136.5483  139.7111  161.6665 H   0  0  0  0  0  0  0  0  0  0  0  0
  136.0099  141.7314  160.1777 H   0  0  0  0  0  0  0  0  0  0  0  0
  134.2137  141.3622  160.3715 H   0  0  0  0  0  0  0  0  0  0  0  0
  133.3222  139.3507  159.2212 H   0  0  0  0  0  0  0  0  0  0  0  0
  134.3762  138.0664  158.5535 H   0  0  0  0  0  0  0  0  0  0  0  0
  125.4126  137.6678  164.1331 H   0  0  0  0  0  0  0  0  0  0  0  0
  125.8288  136.0713  164.8013 H   0  0  0  0  0  0  0  0  0  0  0  0
  127.9230  137.0101  165.7402 H   0  0  0  0  0  0  0  0  0  0  0  0
  126.4996  137.8869  166.3510 H   0  0  0  0  0  0  0  0  0  0  0  0
  1  2  1  0
  1 35  1  0
  1 36  1  0
  1 37  1  0
  2  3  1  0
  2 38  1  0
  2 39  1  0
  3  4  1  6
  3 34  1  0
  3  5  1  0
  5  6  1  0
  5 40  1  0
  5 41  1  0
  6  7  1  0
  6 42  1  0
  6 43  1  0
  7  8  1  1
  7  9  1  0
  7 33  1  0
  9 10  1  0
  9 44  1  0
 10 32  1  0
 10 11  2  0
 11 12  1  0
 11 45  1  0
 12 13  2  0
 12 46  1  0
 13 14  1  0
 13 32  1  0
 14 19  1  0
 14 15  2  0
 15 16  1  0
 16 17  1  0
 16 18  1  0
 18 19  2  0
 18 47  1  0
 19 20  1  0
 20 21  1  0
 20 48  1  0
 20 49  1  0
 21 22  1  0
 21 23  1  0
 21 24  1  0
 24 25  1  0
 24 50  1  0
 24 51  1  0
 25 31  1  0
 25 26  1  0
 25 52  1  6
 26 27  1  0
 26 53  1  0
 26 54  1  0
 27 29  1  0
 27 28  1  0
 27 55  1  1
 28 29  1  0
 28 56  1  0
 28 57  1  0
 29 30  1  6
 29 31  1  0
 31 58  1  0
 31 59  1  0
 33 34  1  0
 33 60  1  0
 33 61  1  0
 34 62  1  0
 34 63  1  0
M  CHG  1  21   1
M  END
>  <DOCK_score>  (1) 
-46.788551

>  <SMILES>  (1) 
CC[C@H]1CC[C@H](Nc2ccc(-c3n[nH]cc3C[NH2+]CC3CC4C[C@@H]4C3)o2)CC1

$$$$
