Cc1cc(NC(C)C(F)F)cc(C(C)[NH2+][C@H](C)CN2CC[C@]3(O)CCOC[C@@H]3C2)c1
     RDKit          3D

 68 70  0  0  1  0  0  0  0  0999 V2000
  126.3501  135.3875  158.2471 C   0  0  0  0  0  0  0  0  0  0  0  0
  127.0490  135.9755  159.4458 C   0  0  0  0  0  0  0  0  0  0  0  0
  126.4001  136.0317  160.6638 C   0  0  0  0  0  0  0  0  0  0  0  0
  127.0448  136.5744  161.7680 C   0  0  0  0  0  0  0  0  0  0  0  0
  126.3916  136.6327  163.0010 N   0  0  0  0  0  0  0  0  0  0  0  0
  127.1643  136.5600  164.2436 C   0  0  1  0  0  0  0  0  0  0  0  0
  126.2149  136.6456  165.4403 C   0  0  0  0  0  0  0  0  0  0  0  0
  127.9281  135.2351  164.2923 C   0  0  0  0  0  0  0  0  0  0  0  0
  127.1151  134.2097  163.7980 F   0  0  0  0  0  0  0  0  0  0  0  0
  129.0829  135.3336  163.5087 F   0  0  0  0  0  0  0  0  0  0  0  0
  128.3431  137.0533  161.6443 C   0  0  0  0  0  0  0  0  0  0  0  0
  128.9838  136.9991  160.4224 C   0  0  0  0  0  0  0  0  0  0  0  0
  130.3898  137.5241  160.2860 C   0  0  2  0  0  0  0  0  0  0  0  0
  130.4146  138.6541  159.2549 C   0  0  0  0  0  0  0  0  0  0  0  0
  131.2769  136.4393  159.8450 N   0  0  0  0  0  0  0  0  0  0  0  0
  132.1146  136.8322  159.4428 H   0  0  0  0  0  0  0  0  0  0  0  0
  130.8032  135.8777  159.1533 H   0  0  0  0  0  0  0  0  0  0  0  0
  131.6338  135.5998  160.9964 C   0  0  2  0  0  0  0  0  0  0  0  0
  130.7596  135.4670  161.6340 H   0  0  0  0  0  0  0  0  0  0  0  0
  132.7493  136.2769  161.7950 C   0  0  0  0  0  0  0  0  0  0  0  0
  132.1167  134.2347  160.5022 C   0  0  0  0  0  0  0  0  0  0  0  0
  131.0456  133.5845  159.7354 N   0  0  0  0  0  0  0  0  0  0  0  0
  130.0079  133.0521  160.6279 C   0  0  0  0  0  0  0  0  0  0  0  0
  128.8426  132.5173  159.7925 C   0  0  0  0  0  0  0  0  0  0  0  0
  129.3509  131.4173  158.8581 C   0  0  2  0  0  0  0  0  0  0  0  0
  128.2816  130.9483  158.0343 O   0  0  0  0  0  0  0  0  0  0  0  0
  129.9042  130.2569  159.6901 C   0  0  0  0  0  0  0  0  0  0  0  0
  130.4898  129.1992  158.7509 C   0  0  0  0  0  0  0  0  0  0  0  0
  131.5022  129.7944  157.9368 O   0  0  0  0  0  0  0  0  0  0  0  0
  131.0313  130.8540  157.1014 C   0  0  0  0  0  0  0  0  0  0  0  0
  130.4702  131.9790  157.9756 C   0  0  2  0  0  0  0  0  0  0  0  0
  130.0725  132.7710  157.3411 H   0  0  0  0  0  0  0  0  0  0  0  0
  131.5858  132.5334  158.8643 C   0  0  0  0  0  0  0  0  0  0  0  0
  128.3388  136.4586  159.3248 C   0  0  0  0  0  0  0  0  0  0  0  0
  126.5518  134.3174  158.1978 H   0  0  0  0  0  0  0  0  0  0  0  0
  125.2762  135.5510  158.3362 H   0  0  0  0  0  0  0  0  0  0  0  0
  126.7169  135.8685  157.3404 H   0  0  0  0  0  0  0  0  0  0  0  0
  125.3924  135.6545  160.7576 H   0  0  0  0  0  0  0  0  0  0  0  0
  125.4262  136.7214  163.0348 H   0  0  0  0  0  0  0  0  0  0  0  0
  127.8714  137.3886  164.2808 H   0  0  0  0  0  0  0  0  0  0  0  0
  125.5077  135.8168  165.4031 H   0  0  0  0  0  0  0  0  0  0  0  0
  126.7897  136.5913  166.3648 H   0  0  0  0  0  0  0  0  0  0  0  0
  125.6706  137.5894  165.4055 H   0  0  0  0  0  0  0  0  0  0  0  0
  128.2061  135.0137  165.3229 H   0  0  0  0  0  0  0  0  0  0  0  0
  128.8490  137.4715  162.5020 H   0  0  0  0  0  0  0  0  0  0  0  0
  130.7312  137.9035  161.2491 H   0  0  0  0  0  0  0  0  0  0  0  0
  129.6913  139.4191  159.5369 H   0  0  0  0  0  0  0  0  0  0  0  0
  131.4120  139.0923  159.2199 H   0  0  0  0  0  0  0  0  0  0  0  0
  130.1582  138.2559  158.2732 H   0  0  0  0  0  0  0  0  0  0  0  0
  132.3700  137.1960  162.2416 H   0  0  0  0  0  0  0  0  0  0  0  0
  133.0921  135.6051  162.5820 H   0  0  0  0  0  0  0  0  0  0  0  0
  133.5806  136.5122  161.1304 H   0  0  0  0  0  0  0  0  0  0  0  0
  132.3814  133.6118  161.3566 H   0  0  0  0  0  0  0  0  0  0  0  0
  132.9908  134.3675  159.8646 H   0  0  0  0  0  0  0  0  0  0  0  0
  129.6506  133.8457  161.2841 H   0  0  0  0  0  0  0  0  0  0  0  0
  130.4252  132.2440  161.2288 H   0  0  0  0  0  0  0  0  0  0  0  0
  128.4166  133.3282  159.2017 H   0  0  0  0  0  0  0  0  0  0  0  0
  128.0787  132.1085  160.4538 H   0  0  0  0  0  0  0  0  0  0  0  0
  128.5374  130.2477  157.4190 H   0  0  0  0  0  0  0  0  0  0  0  0
  129.1004  129.8156  160.2795 H   0  0  0  0  0  0  0  0  0  0  0  0
  130.6846  130.6247  160.3560 H   0  0  0  0  0  0  0  0  0  0  0  0
  129.6995  128.8006  158.1147 H   0  0  0  0  0  0  0  0  0  0  0  0
  130.9249  128.3914  159.3394 H   0  0  0  0  0  0  0  0  0  0  0  0
  130.2467  130.4780  156.4447 H   0  0  0  0  0  0  0  0  0  0  0  0
  131.8561  131.2374  156.5006 H   0  0  0  0  0  0  0  0  0  0  0  0
  131.9953  131.7298  159.4763 H   0  0  0  0  0  0  0  0  0  0  0  0
  132.3747  132.9505  158.2385 H   0  0  0  0  0  0  0  0  0  0  0  0
  128.8438  136.4135  158.3713 H   0  0  0  0  0  0  0  0  0  0  0  0
  1  2  1  0
  1 35  1  0
  1 36  1  0
  1 37  1  0
  2 34  2  0
  2  3  1  0
  3  4  2  0
  3 38  1  0
  4  5  1  0
  4 11  1  0
  5  6  1  0
  5 39  1  0
  6  7  1  0
  6  8  1  0
  6 40  1  1
  7 41  1  0
  7 42  1  0
  7 43  1  0
  8  9  1  0
  8 10  1  0
  8 44  1  0
 11 12  2  0
 11 45  1  0
 12 13  1  0
 12 34  1  0
 13 14  1  0
 13 15  1  0
 13 46  1  1
 14 47  1  0
 14 48  1  0
 14 49  1  0
 15 16  1  0
 15 17  1  0
 15 18  1  0
 18 19  1  1
 18 20  1  0
 18 21  1  0
 20 50  1  0
 20 51  1  0
 20 52  1  0
 21 22  1  0
 21 53  1  0
 21 54  1  0
 22 33  1  0
 22 23  1  0
 23 24  1  0
 23 55  1  0
 23 56  1  0
 24 25  1  0
 24 57  1  0
 24 58  1  0
 25 31  1  0
 25 26  1  6
 25 27  1  0
 26 59  1  0
 27 28  1  0
 27 60  1  0
 27 61  1  0
 28 29  1  0
 28 62  1  0
 28 63  1  0
 29 30  1  0
 30 31  1  0
 30 64  1  0
 30 65  1  0
 31 32  1  6
 31 33  1  0
 33 66  1  0
 33 67  1  0
 34 68  1  0
M  CHG  1  15   1
M  END
>  <DOCK_score>  (1) 
-44.707874

>  <SMILES>  (1) 
Cc1cc(NC(C)C(F)F)cc(C(C)[NH2+][C@H](C)CN2CC[C@]3(O)CCOC[C@@H]3C2)c1

$$$$
