Cc1ccc(-c2ccc(C[C@@H](C)Nc3[nH]cc(-c4ccc(N)cc4)[nH+]3)cc2)cc1
     RDKit          3D

 56 59  0  0  1  0  0  0  0  0999 V2000
  136.3172  135.0055  167.2478 C   0  0  0  0  0  0  0  0  0  0  0  0
  135.3274  135.2805  166.1452 C   0  0  0  0  0  0  0  0  0  0  0  0
  135.5975  134.8587  164.8560 C   0  0  0  0  0  0  0  0  0  0  0  0
  134.6920  135.1027  163.8434 C   0  0  0  0  0  0  0  0  0  0  0  0
  133.5064  135.7802  164.1208 C   0  0  0  0  0  0  0  0  0  0  0  0
  132.5288  136.0453  163.0364 C   0  0  0  0  0  0  0  0  0  0  0  0
  131.1675  136.1185  163.3245 C   0  0  0  0  0  0  0  0  0  0  0  0
  130.2631  136.3695  162.3126 C   0  0  0  0  0  0  0  0  0  0  0  0
  130.7050  136.5383  161.0128 C   0  0  0  0  0  0  0  0  0  0  0  0
  129.7123  136.8069  159.9113 C   0  0  0  0  0  0  0  0  0  0  0  0
  129.2465  135.4795  159.3096 C   0  0  1  0  0  0  0  0  0  0  0  0
  129.1078  134.7483  160.1060 H   0  0  0  0  0  0  0  0  0  0  0  0
  127.9215  135.6900  158.5742 C   0  0  0  0  0  0  0  0  0  0  0  0
  130.2556  134.9896  158.3673 N   0  0  0  0  0  0  0  0  0  0  0  0
  130.0533  133.7966  157.6947 C   0  0  0  0  0  0  0  0  0  0  0  0
  129.3402  132.7353  158.1602 N   0  0  0  0  0  0  0  0  0  0  0  0
  128.8864  132.6787  159.0157 H   0  0  0  0  0  0  0  0  0  0  0  0
  129.3819  131.7581  157.1941 C   0  0  0  0  0  0  0  0  0  0  0  0
  130.1187  132.2507  156.1680 C   0  0  0  0  0  0  0  0  0  0  0  0
  130.4330  131.5453  154.9014 C   0  0  0  0  0  0  0  0  0  0  0  0
  130.0223  132.0828  153.6826 C   0  0  0  0  0  0  0  0  0  0  0  0
  130.3206  131.4283  152.5061 C   0  0  0  0  0  0  0  0  0  0  0  0
  131.0200  130.2275  152.5358 C   0  0  0  0  0  0  0  0  0  0  0  0
  131.3163  129.5628  151.3434 N   0  0  0  0  0  0  0  0  0  0  0  0
  131.4256  129.6869  153.7501 C   0  0  0  0  0  0  0  0  0  0  0  0
  131.1344  130.3410  154.9286 C   0  0  0  0  0  0  0  0  0  0  0  0
  130.5125  133.5052  156.5020 N   0  0  0  0  0  0  0  0  0  0  0  0
  131.0499  134.0922  155.9475 H   0  0  0  0  0  0  0  0  0  0  0  0
  132.0548  136.4619  160.7203 C   0  0  0  0  0  0  0  0  0  0  0  0
  132.9685  136.2161  161.7253 C   0  0  0  0  0  0  0  0  0  0  0  0
  133.2419  136.2076  165.4204 C   0  0  0  0  0  0  0  0  0  0  0  0
  134.1546  135.9581  166.4253 C   0  0  0  0  0  0  0  0  0  0  0  0
  137.0219  135.8341  167.3185 H   0  0  0  0  0  0  0  0  0  0  0  0
  135.7867  134.8982  168.1941 H   0  0  0  0  0  0  0  0  0  0  0  0
  136.8590  134.0854  167.0288 H   0  0  0  0  0  0  0  0  0  0  0  0
  136.5165  134.3333  164.6420 H   0  0  0  0  0  0  0  0  0  0  0  0
  134.9021  134.7696  162.8378 H   0  0  0  0  0  0  0  0  0  0  0  0
  130.8211  135.9823  164.3383 H   0  0  0  0  0  0  0  0  0  0  0  0
  129.2082  136.4301  162.5354 H   0  0  0  0  0  0  0  0  0  0  0  0
  128.8544  137.3424  160.3180 H   0  0  0  0  0  0  0  0  0  0  0  0
  130.1838  137.4114  159.1365 H   0  0  0  0  0  0  0  0  0  0  0  0
  127.1706  136.0545  159.2753 H   0  0  0  0  0  0  0  0  0  0  0  0
  128.0602  136.4211  157.7778 H   0  0  0  0  0  0  0  0  0  0  0  0
  127.5896  134.7443  158.1455 H   0  0  0  0  0  0  0  0  0  0  0  0
  131.0655  135.5013  158.2147 H   0  0  0  0  0  0  0  0  0  0  0  0
  128.9169  130.7845  157.2431 H   0  0  0  0  0  0  0  0  0  0  0  0
  129.4746  133.0134  153.6594 H   0  0  0  0  0  0  0  0  0  0  0  0
  130.0062  131.8465  151.5612 H   0  0  0  0  0  0  0  0  0  0  0  0
  131.8048  128.7258  151.3626 H   0  0  0  0  0  0  0  0  0  0  0  0
  131.0338  129.9404  150.4949 H   0  0  0  0  0  0  0  0  0  0  0  0
  131.9686  128.7537  153.7708 H   0  0  0  0  0  0  0  0  0  0  0  0
  131.4500  129.9205  155.8721 H   0  0  0  0  0  0  0  0  0  0  0  0
  132.3944  136.5945  159.7037 H   0  0  0  0  0  0  0  0  0  0  0  0
  134.0221  136.1566  161.4959 H   0  0  0  0  0  0  0  0  0  0  0  0
  132.3247  136.7335  165.6409 H   0  0  0  0  0  0  0  0  0  0  0  0
  133.9506  136.2889  167.4330 H   0  0  0  0  0  0  0  0  0  0  0  0
  1  2  1  0
  1 33  1  0
  1 34  1  0
  1 35  1  0
  2 32  2  0
  2  3  1  0
  3  4  2  0
  3 36  1  0
  4  5  1  0
  4 37  1  0
  5  6  1  0
  5 31  2  0
  6 30  1  0
  6  7  2  0
  7  8  1  0
  7 38  1  0
  8  9  2  0
  8 39  1  0
  9 10  1  0
  9 29  1  0
 10 11  1  0
 10 40  1  0
 10 41  1  0
 11 12  1  1
 11 13  1  0
 11 14  1  0
 13 42  1  0
 13 43  1  0
 13 44  1  0
 14 45  1  0
 15 14  1  0
 15 27  2  0
 15 16  1  0
 16 17  1  0
 16 18  1  0
 18 19  2  0
 18 46  1  0
 19 20  1  0
 19 27  1  0
 20 26  1  0
 20 21  2  0
 21 22  1  0
 21 47  1  0
 22 23  2  0
 22 48  1  0
 23 24  1  0
 23 25  1  0
 24 49  1  0
 24 50  1  0
 25 26  2  0
 25 51  1  0
 26 52  1  0
 27 28  1  0
 29 30  2  0
 29 53  1  0
 30 54  1  0
 31 32  1  0
 31 55  1  0
 32 56  1  0
M  CHG  1  27   1
M  END
>  <DOCK_score>  (1) 
-57.665298

>  <SMILES>  (1) 
Cc1ccc(-c2ccc(C[C@@H](C)Nc3[nH]cc(-c4ccc(N)cc4)[nH+]3)cc2)cc1

$$$$
