Cc1ccccc1COc1cccc([C@@H]([NH3+])C(=O)Nc2cccc(O)c2)c1
     RDKit          3D

 50 52  0  0  1  0  0  0  0  0999 V2000
  134.4662  139.5251  159.2869 C   0  0  0  0  0  0  0  0  0  0  0  0
  135.2884  139.0957  160.4746 C   0  0  0  0  0  0  0  0  0  0  0  0
  136.3167  139.8996  160.9306 C   0  0  0  0  0  0  0  0  0  0  0  0
  137.0704  139.5060  162.0201 C   0  0  0  0  0  0  0  0  0  0  0  0
  136.7959  138.3086  162.6544 C   0  0  0  0  0  0  0  0  0  0  0  0
  135.7674  137.5054  162.1992 C   0  0  0  0  0  0  0  0  0  0  0  0
  135.0168  137.8966  161.1060 C   0  0  0  0  0  0  0  0  0  0  0  0
  133.8993  137.0179  160.6057 C   0  0  0  0  0  0  0  0  0  0  0  0
  133.8172  135.8440  161.4165 O   0  0  0  0  0  0  0  0  0  0  0  0
  132.8540  134.9399  161.0973 C   0  0  0  0  0  0  0  0  0  0  0  0
  132.7213  133.7747  161.8392 C   0  0  0  0  0  0  0  0  0  0  0  0
  131.7376  132.8604  161.5165 C   0  0  0  0  0  0  0  0  0  0  0  0
  130.8933  133.0995  160.4477 C   0  0  0  0  0  0  0  0  0  0  0  0
  131.0271  134.2569  159.7037 C   0  0  0  0  0  0  0  0  0  0  0  0
  130.1047  134.5149  158.5402 C   0  0  1  0  0  0  0  0  0  0  0  0
  129.9670  135.5891  158.4168 H   0  0  0  0  0  0  0  0  0  0  0  0
  130.6910  133.9525  157.3163 N   0  0  0  0  0  0  0  0  0  0  0  0
  130.0734  134.1252  156.5374 H   0  0  0  0  0  0  0  0  0  0  0  0
  131.5842  134.3879  157.1405 H   0  0  0  0  0  0  0  0  0  0  0  0
  130.8184  132.9581  157.4307 H   0  0  0  0  0  0  0  0  0  0  0  0
  128.7708  133.8645  158.8029 C   0  0  0  0  0  0  0  0  0  0  0  0
  128.3501  133.0160  158.0452 O   0  0  0  0  0  0  0  0  0  0  0  0
  128.0454  134.2256  159.8798 N   0  0  0  0  0  0  0  0  0  0  0  0
  126.8069  133.6220  160.1236 C   0  0  0  0  0  0  0  0  0  0  0  0
  126.5759  132.3161  159.7094 C   0  0  0  0  0  0  0  0  0  0  0  0
  125.3552  131.7185  159.9553 C   0  0  0  0  0  0  0  0  0  0  0  0
  124.3568  132.4211  160.6033 C   0  0  0  0  0  0  0  0  0  0  0  0
  124.5799  133.7276  161.0141 C   0  0  0  0  0  0  0  0  0  0  0  0
  123.5972  134.4173  161.6507 O   0  0  0  0  0  0  0  0  0  0  0  0
  125.8057  134.3289  160.7743 C   0  0  0  0  0  0  0  0  0  0  0  0
  132.0055  135.1776  160.0260 C   0  0  0  0  0  0  0  0  0  0  0  0
  134.9232  139.1465  158.3726 H   0  0  0  0  0  0  0  0  0  0  0  0
  133.4563  139.1257  159.3806 H   0  0  0  0  0  0  0  0  0  0  0  0
  134.4243  140.6136  159.2484 H   0  0  0  0  0  0  0  0  0  0  0  0
  136.5307  140.8353  160.4355 H   0  0  0  0  0  0  0  0  0  0  0  0
  137.8737  140.1340  162.3763 H   0  0  0  0  0  0  0  0  0  0  0  0
  137.3850  138.0010  163.5058 H   0  0  0  0  0  0  0  0  0  0  0  0
  135.5529  136.5699  162.6947 H   0  0  0  0  0  0  0  0  0  0  0  0
  132.9569  137.5628  160.6589 H   0  0  0  0  0  0  0  0  0  0  0  0
  134.0962  136.7326  159.5724 H   0  0  0  0  0  0  0  0  0  0  0  0
  133.3839  133.5851  162.6707 H   0  0  0  0  0  0  0  0  0  0  0  0
  131.6308  131.9556  162.0965 H   0  0  0  0  0  0  0  0  0  0  0  0
  130.1278  132.3811  160.1941 H   0  0  0  0  0  0  0  0  0  0  0  0
  128.3818  134.9043  160.4858 H   0  0  0  0  0  0  0  0  0  0  0  0
  127.3529  131.7666  159.1990 H   0  0  0  0  0  0  0  0  0  0  0  0
  125.1789  130.7019  159.6362 H   0  0  0  0  0  0  0  0  0  0  0  0
  123.4020  131.9525  160.7904 H   0  0  0  0  0  0  0  0  0  0  0  0
  123.8459  135.3185  161.8979 H   0  0  0  0  0  0  0  0  0  0  0  0
  125.9812  135.3455  161.0936 H   0  0  0  0  0  0  0  0  0  0  0  0
  132.1099  136.0815  159.4443 H   0  0  0  0  0  0  0  0  0  0  0  0
  1  2  1  0
  1 32  1  0
  1 33  1  0
  1 34  1  0
  2  7  2  0
  2  3  1  0
  3  4  2  0
  3 35  1  0
  4  5  1  0
  4 36  1  0
  5  6  2  0
  5 37  1  0
  6  7  1  0
  6 38  1  0
  7  8  1  0
  8  9  1  0
  8 39  1  0
  8 40  1  0
  9 10  1  0
 10 31  1  0
 10 11  2  0
 11 12  1  0
 11 41  1  0
 12 13  2  0
 12 42  1  0
 13 14  1  0
 13 43  1  0
 14 15  1  0
 14 31  2  0
 15 16  1  6
 15 17  1  0
 15 21  1  0
 17 18  1  0
 17 19  1  0
 17 20  1  0
 21 22  2  0
 21 23  1  0
 23 24  1  0
 23 44  1  0
 24 30  1  0
 24 25  2  0
 25 26  1  0
 25 45  1  0
 26 27  2  0
 26 46  1  0
 27 28  1  0
 27 47  1  0
 28 29  1  0
 28 30  2  0
 29 48  1  0
 30 49  1  0
 31 50  1  0
M  CHG  1  17   1
M  END
>  <DOCK_score>  (1) 
-51.932289

>  <SMILES>  (1) 
Cc1ccccc1COc1cccc([C@@H]([NH3+])C(=O)Nc2cccc(O)c2)c1

$$$$
