[NH3+]C(Cc1ccccc1C[C@@H]1CCC(=O)NC1)C(=O)Nc1cccc(O)c1
     RDKit          3D

 53 55  0  0  1  0  0  0  0  0999 V2000
  130.6579  133.6236  156.8654 N   0  0  0  0  0  0  0  0  0  0  0  0
  129.9405  134.1181  156.3563 H   0  0  0  0  0  0  0  0  0  0  0  0
  131.5637  133.9851  156.6066 H   0  0  0  0  0  0  0  0  0  0  0  0
  130.6117  132.6407  156.6423 H   0  0  0  0  0  0  0  0  0  0  0  0
  130.4505  133.8087  158.3078 C   0  0  2  0  0  0  0  0  0  0  0  0
  131.5382  133.0590  159.0798 C   0  0  0  0  0  0  0  0  0  0  0  0
  131.3254  133.2489  160.5595 C   0  0  0  0  0  0  0  0  0  0  0  0
  130.5315  132.3623  161.2631 C   0  0  0  0  0  0  0  0  0  0  0  0
  130.3402  132.5338  162.6212 C   0  0  0  0  0  0  0  0  0  0  0  0
  130.9342  133.5979  163.2741 C   0  0  0  0  0  0  0  0  0  0  0  0
  131.7238  134.4872  162.5697 C   0  0  0  0  0  0  0  0  0  0  0  0
  131.9193  134.3127  161.2122 C   0  0  0  0  0  0  0  0  0  0  0  0
  132.7798  135.2826  160.4440 C   0  0  0  0  0  0  0  0  0  0  0  0
  132.6992  136.6639  161.0972 C   0  0  2  0  0  0  0  0  0  0  0  0
  133.0527  136.6027  162.1265 H   0  0  0  0  0  0  0  0  0  0  0  0
  131.2480  137.1588  161.0766 C   0  0  0  0  0  0  0  0  0  0  0  0
  131.1660  138.4505  161.8939 C   0  0  0  0  0  0  0  0  0  0  0  0
  132.2540  139.3943  161.4684 C   0  0  0  0  0  0  0  0  0  0  0  0
  132.1479  140.5648  161.7675 O   0  0  0  0  0  0  0  0  0  0  0  0
  133.3307  139.0140  160.7796 N   0  0  0  0  0  0  0  0  0  0  0  0
  133.5650  137.6524  160.3153 C   0  0  0  0  0  0  0  0  0  0  0  0
  129.0976  133.2689  158.6943 C   0  0  0  0  0  0  0  0  0  0  0  0
  128.6146  132.3440  158.0759 O   0  0  0  0  0  0  0  0  0  0  0  0
  128.4245  133.8138  159.7268 N   0  0  0  0  0  0  0  0  0  0  0  0
  127.1683  133.3127  160.0856 C   0  0  0  0  0  0  0  0  0  0  0  0
  126.8651  131.9745  159.8677 C   0  0  0  0  0  0  0  0  0  0  0  0
  125.6270  131.4788  160.2269 C   0  0  0  0  0  0  0  0  0  0  0  0
  124.6831  132.3142  160.7938 C   0  0  0  0  0  0  0  0  0  0  0  0
  124.9784  133.6530  161.0084 C   0  0  0  0  0  0  0  0  0  0  0  0
  124.0490  134.4734  161.5651 O   0  0  0  0  0  0  0  0  0  0  0  0
  126.2218  134.1530  160.6542 C   0  0  0  0  0  0  0  0  0  0  0  0
  130.5003  134.8706  158.5488 H   0  0  0  0  0  0  0  0  0  0  0  0
  132.5168  133.4497  158.8005 H   0  0  0  0  0  0  0  0  0  0  0  0
  131.4886  131.9972  158.8388 H   0  0  0  0  0  0  0  0  0  0  0  0
  130.0638  131.5337  160.7523 H   0  0  0  0  0  0  0  0  0  0  0  0
  129.7229  131.8391  163.1715 H   0  0  0  0  0  0  0  0  0  0  0  0
  130.7811  133.7344  164.3344 H   0  0  0  0  0  0  0  0  0  0  0  0
  132.1876  135.3185  163.0796 H   0  0  0  0  0  0  0  0  0  0  0  0
  133.8134  134.9365  160.4523 H   0  0  0  0  0  0  0  0  0  0  0  0
  132.4260  135.3460  159.4150 H   0  0  0  0  0  0  0  0  0  0  0  0
  130.9416  137.3544  160.0490 H   0  0  0  0  0  0  0  0  0  0  0  0
  130.5966  136.4040  161.5169 H   0  0  0  0  0  0  0  0  0  0  0  0
  131.2826  138.2173  162.9524 H   0  0  0  0  0  0  0  0  0  0  0  0
  130.1957  138.9196  161.7313 H   0  0  0  0  0  0  0  0  0  0  0  0
  134.0001  139.6856  160.5751 H   0  0  0  0  0  0  0  0  0  0  0  0
  134.6160  137.4000  160.4550 H   0  0  0  0  0  0  0  0  0  0  0  0
  133.3197  137.5861  159.2552 H   0  0  0  0  0  0  0  0  0  0  0  0
  128.8109  134.5535  160.2213 H   0  0  0  0  0  0  0  0  0  0  0  0
  127.5995  131.3205  159.4212 H   0  0  0  0  0  0  0  0  0  0  0  0
  125.3945  130.4372  160.0605 H   0  0  0  0  0  0  0  0  0  0  0  0
  123.7143  131.9247  161.0697 H   0  0  0  0  0  0  0  0  0  0  0  0
  124.3462  135.3871  161.6750 H   0  0  0  0  0  0  0  0  0  0  0  0
  126.4532  135.1948  160.8201 H   0  0  0  0  0  0  0  0  0  0  0  0
  1  2  1  0
  1  3  1  0
  1  4  1  0
  1  5  1  0
  5  6  1  0
  5 22  1  0
  5 32  1  6
  6  7  1  0
  6 33  1  0
  6 34  1  0
  7 12  1  0
  7  8  2  0
  8  9  1  0
  8 35  1  0
  9 10  2  0
  9 36  1  0
 10 11  1  0
 10 37  1  0
 11 12  2  0
 11 38  1  0
 12 13  1  0
 13 14  1  0
 13 39  1  0
 13 40  1  0
 14 15  1  1
 14 21  1  0
 14 16  1  0
 16 17  1  0
 16 41  1  0
 16 42  1  0
 17 18  1  0
 17 43  1  0
 17 44  1  0
 18 19  2  0
 18 20  1  0
 20 21  1  0
 20 45  1  0
 21 46  1  0
 21 47  1  0
 22 23  2  0
 22 24  1  0
 24 25  1  0
 24 48  1  0
 25 31  1  0
 25 26  2  0
 26 27  1  0
 26 49  1  0
 27 28  2  0
 27 50  1  0
 28 29  1  0
 28 51  1  0
 29 30  1  0
 29 31  2  0
 30 52  1  0
 31 53  1  0
M  CHG  1   1   1
M  END
>  <DOCK_score>  (1) 
-48.00235

>  <SMILES>  (1) 
[NH3+]C(Cc1ccccc1C[C@@H]1CCC(=O)NC1)C(=O)Nc1cccc(O)c1

$$$$
