CCN1CC[NH+]=C1NCc1ccc(Nc2cccc(OCCF)c2)cc1
     RDKit          3D

 52 54  0  0  1  0  0  0  0  0999 V2000
  131.5489  130.5547  158.8207 C   0  0  0  0  0  0  0  0  0  0  0  0
  130.3101  130.3891  157.9383 C   0  0  0  0  0  0  0  0  0  0  0  0
  130.4681  131.1874  156.7200 N   0  0  0  0  0  0  0  0  0  0  0  0
  131.0730  130.7254  155.4595 C   0  0  0  0  0  0  0  0  0  0  0  0
  130.9731  131.9623  154.5449 C   0  0  0  0  0  0  0  0  0  0  0  0
  130.3219  132.9755  155.3867 N   0  0  0  0  0  0  0  0  0  0  0  0
  130.1073  133.8783  155.1042 H   0  0  0  0  0  0  0  0  0  0  0  0
  130.0788  132.4888  156.5597 C   0  0  0  0  0  0  0  0  0  0  0  0
  129.4753  133.2155  157.5586 N   0  0  0  0  0  0  0  0  0  0  0  0
  129.0837  134.6066  157.3182 C   0  0  0  0  0  0  0  0  0  0  0  0
  128.4485  135.1719  158.5625 C   0  0  0  0  0  0  0  0  0  0  0  0
  128.8079  136.4301  159.0098 C   0  0  0  0  0  0  0  0  0  0  0  0
  128.2237  136.9536  160.1464 C   0  0  0  0  0  0  0  0  0  0  0  0
  127.2821  136.2098  160.8469 C   0  0  0  0  0  0  0  0  0  0  0  0
  126.6929  136.7343  162.0001 N   0  0  0  0  0  0  0  0  0  0  0  0
  127.4883  137.0822  163.0946 C   0  0  0  0  0  0  0  0  0  0  0  0
  128.6760  136.4019  163.3361 C   0  0  0  0  0  0  0  0  0  0  0  0
  129.4626  136.7466  164.4177 C   0  0  0  0  0  0  0  0  0  0  0  0
  129.0711  137.7682  165.2626 C   0  0  0  0  0  0  0  0  0  0  0  0
  127.8860  138.4506  165.0270 C   0  0  0  0  0  0  0  0  0  0  0  0
  127.5026  139.4545  165.8589 O   0  0  0  0  0  0  0  0  0  0  0  0
  126.7252  140.5089  165.2881 C   0  0  0  0  0  0  0  0  0  0  0  0
  127.0030  141.8120  166.0402 C   0  0  0  0  0  0  0  0  0  0  0  0
  126.2420  142.8443  165.4815 F   0  0  0  0  0  0  0  0  0  0  0  0
  127.0965  138.1119  163.9391 C   0  0  0  0  0  0  0  0  0  0  0  0
  126.9275  134.9440  160.3978 C   0  0  0  0  0  0  0  0  0  0  0  0
  127.5116  134.4290  159.2573 C   0  0  0  0  0  0  0  0  0  0  0  0
  131.4313  129.9607  159.7271 H   0  0  0  0  0  0  0  0  0  0  0  0
  132.4307  130.2163  158.2763 H   0  0  0  0  0  0  0  0  0  0  0  0
  131.6673  131.6049  159.0873 H   0  0  0  0  0  0  0  0  0  0  0  0
  129.4284  130.7274  158.4826 H   0  0  0  0  0  0  0  0  0  0  0  0
  130.1917  129.3388  157.6716 H   0  0  0  0  0  0  0  0  0  0  0  0
  132.1147  130.4440  155.6135 H   0  0  0  0  0  0  0  0  0  0  0  0
  130.5077  129.8907  155.0450 H   0  0  0  0  0  0  0  0  0  0  0  0
  131.9660  132.2940  154.2411 H   0  0  0  0  0  0  0  0  0  0  0  0
  130.3607  131.7424  153.6704 H   0  0  0  0  0  0  0  0  0  0  0  0
  129.3088  132.8072  158.4226 H   0  0  0  0  0  0  0  0  0  0  0  0
  129.9659  135.1933  157.0621 H   0  0  0  0  0  0  0  0  0  0  0  0
  128.3697  134.6462  156.4957 H   0  0  0  0  0  0  0  0  0  0  0  0
  129.5435  137.0057  158.4674 H   0  0  0  0  0  0  0  0  0  0  0  0
  128.5016  137.9381  160.4927 H   0  0  0  0  0  0  0  0  0  0  0  0
  125.7315  136.8567  162.0408 H   0  0  0  0  0  0  0  0  0  0  0  0
  128.9840  135.6032  162.6775 H   0  0  0  0  0  0  0  0  0  0  0  0
  130.3854  136.2173  164.6035 H   0  0  0  0  0  0  0  0  0  0  0  0
  129.6885  138.0355  166.1075 H   0  0  0  0  0  0  0  0  0  0  0  0
  126.9934  140.6308  164.2387 H   0  0  0  0  0  0  0  0  0  0  0  0
  125.6661  140.2629  165.3663 H   0  0  0  0  0  0  0  0  0  0  0  0
  126.7350  141.6900  167.0897 H   0  0  0  0  0  0  0  0  0  0  0  0
  128.0621  142.0578  165.9620 H   0  0  0  0  0  0  0  0  0  0  0  0
  126.1764  138.6453  163.7513 H   0  0  0  0  0  0  0  0  0  0  0  0
  126.1957  134.3635  160.9397 H   0  0  0  0  0  0  0  0  0  0  0  0
  127.2367  133.4448  158.9078 H   0  0  0  0  0  0  0  0  0  0  0  0
  1  2  1  0
  1 28  1  0
  1 29  1  0
  1 30  1  0
  2  3  1  0
  2 31  1  0
  2 32  1  0
  3  8  1  0
  3  4  1  0
  4  5  1  0
  4 33  1  0
  4 34  1  0
  5  6  1  0
  5 35  1  0
  5 36  1  0
  6  7  1  0
  6  8  2  0
  8  9  1  0
  9 10  1  0
  9 37  1  0
 10 11  1  0
 10 38  1  0
 10 39  1  0
 11 27  1  0
 11 12  2  0
 12 13  1  0
 12 40  1  0
 13 14  2  0
 13 41  1  0
 14 15  1  0
 14 26  1  0
 15 16  1  0
 15 42  1  0
 16 25  1  0
 16 17  2  0
 17 18  1  0
 17 43  1  0
 18 19  2  0
 18 44  1  0
 19 20  1  0
 19 45  1  0
 20 21  1  0
 20 25  2  0
 21 22  1  0
 22 23  1  0
 22 46  1  0
 22 47  1  0
 23 24  1  0
 23 48  1  0
 23 49  1  0
 25 50  1  0
 26 27  2  0
 26 51  1  0
 27 52  1  0
M  CHG  1   6   1
M  END
>  <DOCK_score>  (1) 
-41.948082

>  <SMILES>  (1) 
CCN1CC[NH+]=C1NCc1ccc(Nc2cccc(OCCF)c2)cc1

$$$$
