Nc1ccc(-c2c[nH]c(NC(c3cccc4ccccc34)[C@H](O)c3ccc(O)c4ccccc34)[nH+]2)cc1
     RDKit          3D

 64 69  0  0  1  0  0  0  0  0999 V2000
  130.7141  129.8517  152.5834 N   0  0  0  0  0  0  0  0  0  0  0  0
  130.7145  130.5554  153.7902 C   0  0  0  0  0  0  0  0  0  0  0  0
  130.4765  131.9246  153.7950 C   0  0  0  0  0  0  0  0  0  0  0  0
  130.4769  132.6213  154.9850 C   0  0  0  0  0  0  0  0  0  0  0  0
  130.7158  131.9511  156.1838 C   0  0  0  0  0  0  0  0  0  0  0  0
  130.7168  132.6985  157.4653 C   0  0  0  0  0  0  0  0  0  0  0  0
  130.3676  132.2029  158.6781 C   0  0  0  0  0  0  0  0  0  0  0  0
  130.5181  133.2253  159.5849 N   0  0  0  0  0  0  0  0  0  0  0  0
  130.3482  133.1772  160.5387 H   0  0  0  0  0  0  0  0  0  0  0  0
  130.9462  134.3181  158.8965 C   0  0  0  0  0  0  0  0  0  0  0  0
  131.2155  135.5612  159.4434 N   0  0  0  0  0  0  0  0  0  0  0  0
  131.0438  135.7814  160.8815 C   0  0  1  0  0  0  0  0  0  0  0  0
  132.3603  136.1946  161.4873 C   0  0  0  0  0  0  0  0  0  0  0  0
  133.2693  136.8833  160.7439 C   0  0  0  0  0  0  0  0  0  0  0  0
  134.4890  137.2797  161.2888 C   0  0  0  0  0  0  0  0  0  0  0  0
  134.8122  136.9787  162.5764 C   0  0  0  0  0  0  0  0  0  0  0  0
  133.9020  136.2635  163.3727 C   0  0  0  0  0  0  0  0  0  0  0  0
  134.2003  135.9345  164.7061 C   0  0  0  0  0  0  0  0  0  0  0  0
  133.2944  135.2403  165.4472 C   0  0  0  0  0  0  0  0  0  0  0  0
  132.0719  134.8491  164.9040 C   0  0  0  0  0  0  0  0  0  0  0  0
  131.7483  135.1504  163.6170 C   0  0  0  0  0  0  0  0  0  0  0  0
  132.6584  135.8661  162.8204 C   0  0  0  0  0  0  0  0  0  0  0  0
  130.0091  136.8854  161.1084 C   0  0  2  0  0  0  0  0  0  0  0  0
  129.1925  136.7700  160.3958 H   0  0  0  0  0  0  0  0  0  0  0  0
  130.6258  138.1613  160.9238 O   0  0  0  0  0  0  0  0  0  0  0  0
  129.4690  136.7871  162.5119 C   0  0  0  0  0  0  0  0  0  0  0  0
  130.0759  137.4629  163.5265 C   0  0  0  0  0  0  0  0  0  0  0  0
  129.5938  137.3856  164.8300 C   0  0  0  0  0  0  0  0  0  0  0  0
  128.4960  136.6286  165.1292 C   0  0  0  0  0  0  0  0  0  0  0  0
  128.0381  136.5629  166.4059 O   0  0  0  0  0  0  0  0  0  0  0  0
  127.8427  135.9159  164.1033 C   0  0  0  0  0  0  0  0  0  0  0  0
  126.7123  135.1264  164.3693 C   0  0  0  0  0  0  0  0  0  0  0  0
  126.1075  134.4518  163.3532 C   0  0  0  0  0  0  0  0  0  0  0  0
  126.5936  134.5317  162.0496 C   0  0  0  0  0  0  0  0  0  0  0  0
  127.6871  135.2865  161.7549 C   0  0  0  0  0  0  0  0  0  0  0  0
  128.3341  136.0022  162.7770 C   0  0  0  0  0  0  0  0  0  0  0  0
  131.0671  133.9984  157.6311 N   0  0  0  0  0  0  0  0  0  0  0  0
  131.3602  134.5962  156.9255 H   0  0  0  0  0  0  0  0  0  0  0  0
  130.9596  130.5786  156.1758 C   0  0  0  0  0  0  0  0  0  0  0  0
  130.9525  129.8849  154.9842 C   0  0  0  0  0  0  0  0  0  0  0  0
  130.5478  130.3188  151.7496 H   0  0  0  0  0  0  0  0  0  0  0  0
  130.8801  128.8961  152.5792 H   0  0  0  0  0  0  0  0  0  0  0  0
  130.2915  132.4436  152.8660 H   0  0  0  0  0  0  0  0  0  0  0  0
  130.2919  133.6854  154.9884 H   0  0  0  0  0  0  0  0  0  0  0  0
  130.0387  131.1966  158.8917 H   0  0  0  0  0  0  0  0  0  0  0  0
  131.5179  136.2862  158.8745 H   0  0  0  0  0  0  0  0  0  0  0  0
  130.7007  134.8599  161.3519 H   0  0  0  0  0  0  0  0  0  0  0  0
  133.0396  137.1306  159.7180 H   0  0  0  0  0  0  0  0  0  0  0  0
  135.1905  137.8294  160.6788 H   0  0  0  0  0  0  0  0  0  0  0  0
  135.7637  137.2876  162.9836 H   0  0  0  0  0  0  0  0  0  0  0  0
  135.1436  136.2315  165.1405 H   0  0  0  0  0  0  0  0  0  0  0  0
  133.5263  134.9886  166.4715 H   0  0  0  0  0  0  0  0  0  0  0  0
  131.3706  134.2989  165.5140 H   0  0  0  0  0  0  0  0  0  0  0  0
  130.7970  134.8412  163.2098 H   0  0  0  0  0  0  0  0  0  0  0  0
  131.3628  138.3329  161.5258 H   0  0  0  0  0  0  0  0  0  0  0  0
  130.9452  138.0684  163.3164 H   0  0  0  0  0  0  0  0  0  0  0  0
  130.0945  137.9315  165.6160 H   0  0  0  0  0  0  0  0  0  0  0  0
  128.5531  137.0854  167.0359 H   0  0  0  0  0  0  0  0  0  0  0  0
  126.3245  135.0551  165.3747 H   0  0  0  0  0  0  0  0  0  0  0  0
  125.2383  133.8453  163.5606 H   0  0  0  0  0  0  0  0  0  0  0  0
  126.0956  133.9864  161.2617 H   0  0  0  0  0  0  0  0  0  0  0  0
  128.0531  135.3389  160.7401 H   0  0  0  0  0  0  0  0  0  0  0  0
  131.1497  130.0582  157.1030 H   0  0  0  0  0  0  0  0  0  0  0  0
  131.1368  128.8208  154.9781 H   0  0  0  0  0  0  0  0  0  0  0  0
  1  2  1  0
  1 41  1  0
  1 42  1  0
  2 40  2  0
  2  3  1  0
  3  4  2  0
  3 43  1  0
  4  5  1  0
  4 44  1  0
  5  6  1  0
  5 39  2  0
  6 37  1  0
  6  7  2  0
  7  8  1  0
  7 45  1  0
  8  9  1  0
  8 10  1  0
 10 11  1  0
 10 37  2  0
 11 12  1  0
 11 46  1  0
 12 13  1  0
 12 23  1  0
 12 47  1  1
 13 22  1  0
 13 14  2  0
 14 15  1  0
 14 48  1  0
 15 16  2  0
 15 49  1  0
 16 17  1  0
 16 50  1  0
 17 22  2  0
 17 18  1  0
 18 19  2  0
 18 51  1  0
 19 20  1  0
 19 52  1  0
 20 21  2  0
 20 53  1  0
 21 22  1  0
 21 54  1  0
 23 24  1  6
 23 25  1  0
 23 26  1  0
 25 55  1  0
 26 36  1  0
 26 27  2  0
 27 28  1  0
 27 56  1  0
 28 29  2  0
 28 57  1  0
 29 30  1  0
 29 31  1  0
 30 58  1  0
 31 36  2  0
 31 32  1  0
 32 33  2  0
 32 59  1  0
 33 34  1  0
 33 60  1  0
 34 35  2  0
 34 61  1  0
 35 36  1  0
 35 62  1  0
 37 38  1  0
 39 40  1  0
 39 63  1  0
 40 64  1  0
M  CHG  1  37   1
M  END
>  <DOCK_score>  (1) 
-57.547905

>  <SMILES>  (1) 
Nc1ccc(-c2c[nH]c(NC(c3cccc4ccccc34)[C@H](O)c3ccc(O)c4ccccc34)[nH+]2)cc1

$$$$
