Nc1ccc(-c2c[nH]c(Nc3cc(O)c(O)cc3O)[nH+]2)cc1
     RDKit          3D

 37 39  0  0  1  0  0  0  0  0999 V2000
  131.2343  129.1594  151.8299 N   0  0  0  0  0  0  0  0  0  0  0  0
  130.9767  129.9174  152.9745 C   0  0  0  0  0  0  0  0  0  0  0  0
  130.1073  131.0002  152.9085 C   0  0  0  0  0  0  0  0  0  0  0  0
  129.8510  131.7497  154.0371 C   0  0  0  0  0  0  0  0  0  0  0  0
  130.4648  131.4210  155.2449 C   0  0  0  0  0  0  0  0  0  0  0  0
  130.1911  132.2262  156.4606 C   0  0  0  0  0  0  0  0  0  0  0  0
  129.6565  131.7661  157.6188 C   0  0  0  0  0  0  0  0  0  0  0  0
  129.5716  132.8396  158.4730 N   0  0  0  0  0  0  0  0  0  0  0  0
  129.2264  132.8270  159.3793 H   0  0  0  0  0  0  0  0  0  0  0  0
  130.0625  133.9236  157.8121 C   0  0  0  0  0  0  0  0  0  0  0  0
  130.1532  135.2072  158.3235 N   0  0  0  0  0  0  0  0  0  0  0  0
  129.2259  135.6488  159.2784 C   0  0  0  0  0  0  0  0  0  0  0  0
  129.6600  136.0487  160.5344 C   0  0  0  0  0  0  0  0  0  0  0  0
  128.7439  136.4896  161.4753 C   0  0  0  0  0  0  0  0  0  0  0  0
  129.1699  136.8872  162.7050 O   0  0  0  0  0  0  0  0  0  0  0  0
  127.3882  136.5208  161.1653 C   0  0  0  0  0  0  0  0  0  0  0  0
  126.4885  136.9488  162.0920 O   0  0  0  0  0  0  0  0  0  0  0  0
  126.9535  136.1165  159.9131 C   0  0  0  0  0  0  0  0  0  0  0  0
  127.8689  135.6807  158.9689 C   0  0  0  0  0  0  0  0  0  0  0  0
  127.4418  135.2834  157.7396 O   0  0  0  0  0  0  0  0  0  0  0  0
  130.4344  133.5519  156.6111 N   0  0  0  0  0  0  0  0  0  0  0  0
  130.8186  134.1332  155.9362 H   0  0  0  0  0  0  0  0  0  0  0  0
  131.3402  130.3380  155.3074 C   0  0  0  0  0  0  0  0  0  0  0  0
  131.5893  129.5881  154.1774 C   0  0  0  0  0  0  0  0  0  0  0  0
  130.8064  129.3888  150.9898 H   0  0  0  0  0  0  0  0  0  0  0  0
  131.8407  128.4040  151.8748 H   0  0  0  0  0  0  0  0  0  0  0  0
  129.6324  131.2548  151.9725 H   0  0  0  0  0  0  0  0  0  0  0  0
  129.1753  132.5905  153.9857 H   0  0  0  0  0  0  0  0  0  0  0  0
  129.3515  130.7515  157.8283 H   0  0  0  0  0  0  0  0  0  0  0  0
  130.8581  135.8011  158.0211 H   0  0  0  0  0  0  0  0  0  0  0  0
  130.7121  136.0204  160.7766 H   0  0  0  0  0  0  0  0  0  0  0  0
  130.1272  136.8262  162.8282 H   0  0  0  0  0  0  0  0  0  0  0  0
  125.5714  136.9350  161.7855 H   0  0  0  0  0  0  0  0  0  0  0  0
  125.9007  136.1411  159.6732 H   0  0  0  0  0  0  0  0  0  0  0  0
  128.1526  134.9962  157.1501 H   0  0  0  0  0  0  0  0  0  0  0  0
  131.8202  130.0844  156.2412 H   0  0  0  0  0  0  0  0  0  0  0  0
  132.2641  128.7464  154.2264 H   0  0  0  0  0  0  0  0  0  0  0  0
  1  2  1  0
  1 25  1  0
  1 26  1  0
  2 24  2  0
  2  3  1  0
  3  4  2  0
  3 27  1  0
  4  5  1  0
  4 28  1  0
  5  6  1  0
  5 23  2  0
  6 21  1  0
  6  7  2  0
  7  8  1  0
  7 29  1  0
  8  9  1  0
  8 10  1  0
 10 11  1  0
 10 21  2  0
 11 12  1  0
 11 30  1  0
 12 19  1  0
 12 13  2  0
 13 14  1  0
 13 31  1  0
 14 15  1  0
 14 16  2  0
 15 32  1  0
 16 17  1  0
 16 18  1  0
 17 33  1  0
 18 19  2  0
 18 34  1  0
 19 20  1  0
 20 35  1  0
 21 22  1  0
 23 24  1  0
 23 36  1  0
 24 37  1  0
M  CHG  1  21   1
M  END
>  <DOCK_score>  (1) 
-52.530178

>  <SMILES>  (1) 
Nc1ccc(-c2c[nH]c(Nc3cc(O)c(O)cc3O)[nH+]2)cc1

$$$$
