Cc1cc(O)ccc1N[C@@H]1C[C@@H]1[NH+]=C(NC[C@H]1CC(O)C1(C)C)NC1CCCCCC1
     RDKit          3D

 72 75  0  0  1  0  0  0  0  0999 V2000
  126.6309  132.0637  160.8552 C   0  0  0  0  0  0  0  0  0  0  0  0
  126.5429  133.2514  159.9319 C   0  0  0  0  0  0  0  0  0  0  0  0
  125.5648  134.2070  160.1267 C   0  0  0  0  0  0  0  0  0  0  0  0
  125.4796  135.2968  159.2733 C   0  0  0  0  0  0  0  0  0  0  0  0
  124.5123  136.2340  159.4623 O   0  0  0  0  0  0  0  0  0  0  0  0
  126.3810  135.4319  158.2276 C   0  0  0  0  0  0  0  0  0  0  0  0
  127.3635  134.4809  158.0351 C   0  0  0  0  0  0  0  0  0  0  0  0
  127.4491  133.3888  158.8889 C   0  0  0  0  0  0  0  0  0  0  0  0
  128.4444  132.4245  158.6946 N   0  0  0  0  0  0  0  0  0  0  0  0
  129.7313  132.8078  158.1089 C   0  0  2  0  0  0  0  0  0  0  0  0
  129.7900  132.7463  157.0221 H   0  0  0  0  0  0  0  0  0  0  0  0
  130.9966  132.4792  158.9051 C   0  0  0  0  0  0  0  0  0  0  0  0
  130.5152  133.9273  158.7965 C   0  0  2  0  0  0  0  0  0  0  0  0
  131.0896  134.6025  158.1622 H   0  0  0  0  0  0  0  0  0  0  0  0
  129.9213  134.5342  159.9904 N   0  0  0  0  0  0  0  0  0  0  0  0
  129.0622  134.2232  160.3163 H   0  0  0  0  0  0  0  0  0  0  0  0
  130.5474  135.4919  160.6147 C   0  0  0  0  0  0  0  0  0  0  0  0
  129.9901  136.0614  161.7350 N   0  0  0  0  0  0  0  0  0  0  0  0
  128.6926  135.5918  162.2271 C   0  0  0  0  0  0  0  0  0  0  0  0
  128.3032  136.3851  163.4761 C   0  0  1  0  0  0  0  0  0  0  0  0
  129.1476  136.5707  164.1399 H   0  0  0  0  0  0  0  0  0  0  0  0
  127.4688  137.6413  163.1749 C   0  0  0  0  0  0  0  0  0  0  0  0
  126.6346  137.2899  164.4214 C   0  0  2  0  0  0  0  0  0  0  0  0
  127.1445  137.8567  165.6299 O   0  0  0  0  0  0  0  0  0  0  0  0
  127.0633  135.8302  164.1969 C   0  0  0  0  0  0  0  0  0  0  0  0
  126.1202  135.0485  163.2801 C   0  0  0  0  0  0  0  0  0  0  0  0
  127.3902  135.0815  165.4904 C   0  0  0  0  0  0  0  0  0  0  0  0
  131.7650  135.9326  160.1529 N   0  0  0  0  0  0  0  0  0  0  0  0
  132.4688  137.0090  160.8545 C   0  0  0  0  0  0  0  0  0  0  0  0
  131.9801  138.3654  160.3066 C   0  0  0  0  0  0  0  0  0  0  0  0
  132.2865  139.4306  161.3243 C   0  0  0  0  0  0  0  0  0  0  0  0
  133.6321  140.1315  161.0573 C   0  0  0  0  0  0  0  0  0  0  0  0
  134.7441  139.1506  160.6394 C   0  0  0  0  0  0  0  0  0  0  0  0
  134.7261  137.8815  161.4477 C   0  0  0  0  0  0  0  0  0  0  0  0
  133.9023  136.8253  160.6829 C   0  0  0  0  0  0  0  0  0  0  0  0
  127.2829  132.3038  161.6951 H   0  0  0  0  0  0  0  0  0  0  0  0
  125.6361  131.8174  161.2263 H   0  0  0  0  0  0  0  0  0  0  0  0
  127.0375  131.2105  160.3120 H   0  0  0  0  0  0  0  0  0  0  0  0
  124.8626  134.1025  160.9407 H   0  0  0  0  0  0  0  0  0  0  0  0
  123.9328  136.0546  160.2153 H   0  0  0  0  0  0  0  0  0  0  0  0
  126.3146  136.2814  157.5640 H   0  0  0  0  0  0  0  0  0  0  0  0
  128.0653  134.5864  157.2211 H   0  0  0  0  0  0  0  0  0  0  0  0
  128.2821  131.5023  158.9478 H   0  0  0  0  0  0  0  0  0  0  0  0
  131.8876  132.2015  158.3420 H   0  0  0  0  0  0  0  0  0  0  0  0
  130.8716  131.9779  159.8649 H   0  0  0  0  0  0  0  0  0  0  0  0
  130.4560  136.7742  162.1997 H   0  0  0  0  0  0  0  0  0  0  0  0
  128.7600  134.5327  162.4759 H   0  0  0  0  0  0  0  0  0  0  0  0
  127.9371  135.7362  161.4548 H   0  0  0  0  0  0  0  0  0  0  0  0
  128.0289  138.5713  163.2722 H   0  0  0  0  0  0  0  0  0  0  0  0
  126.9078  137.5795  162.2424 H   0  0  0  0  0  0  0  0  0  0  0  0
  125.5649  137.4553  164.2934 H   0  0  0  0  0  0  0  0  0  0  0  0
  128.1101  137.8722  165.6803 H   0  0  0  0  0  0  0  0  0  0  0  0
  125.3400  134.5774  163.8779 H   0  0  0  0  0  0  0  0  0  0  0  0
  125.6654  135.7297  162.5608 H   0  0  0  0  0  0  0  0  0  0  0  0
  126.6834  134.2817  162.7481 H   0  0  0  0  0  0  0  0  0  0  0  0
  128.0195  134.2210  165.2631 H   0  0  0  0  0  0  0  0  0  0  0  0
  127.9185  135.7478  166.1723 H   0  0  0  0  0  0  0  0  0  0  0  0
  126.4657  134.7422  165.9574 H   0  0  0  0  0  0  0  0  0  0  0  0
  132.1583  135.5308  159.3623 H   0  0  0  0  0  0  0  0  0  0  0  0
  132.2301  136.9524  161.9167 H   0  0  0  0  0  0  0  0  0  0  0  0
  132.4968  138.5910  159.3737 H   0  0  0  0  0  0  0  0  0  0  0  0
  130.9050  138.3240  160.1321 H   0  0  0  0  0  0  0  0  0  0  0  0
  132.3165  138.9745  162.3139 H   0  0  0  0  0  0  0  0  0  0  0  0
  131.4909  140.1756  161.3055 H   0  0  0  0  0  0  0  0  0  0  0  0
  133.9439  140.6509  161.9635 H   0  0  0  0  0  0  0  0  0  0  0  0
  133.4932  140.8647  160.2629 H   0  0  0  0  0  0  0  0  0  0  0  0
  135.7109  139.6373  160.7688 H   0  0  0  0  0  0  0  0  0  0  0  0
  134.6141  138.9001  159.5866 H   0  0  0  0  0  0  0  0  0  0  0  0
  134.2671  138.0717  162.4178 H   0  0  0  0  0  0  0  0  0  0  0  0
  135.7454  137.5209  161.5860 H   0  0  0  0  0  0  0  0  0  0  0  0
  134.1768  135.8341  161.0440 H   0  0  0  0  0  0  0  0  0  0  0  0
  134.1423  136.8929  159.6218 H   0  0  0  0  0  0  0  0  0  0  0  0
  1  2  1  0
  1 36  1  0
  1 37  1  0
  1 38  1  0
  2  8  2  0
  2  3  1  0
  3  4  2  0
  3 39  1  0
  4  5  1  0
  4  6  1  0
  5 40  1  0
  6  7  2  0
  6 41  1  0
  7  8  1  0
  7 42  1  0
  8  9  1  0
  9 10  1  0
  9 43  1  0
 10 11  1  6
 10 13  1  0
 10 12  1  0
 12 13  1  0
 12 44  1  0
 12 45  1  0
 13 14  1  6
 13 15  1  0
 15 16  1  0
 17 15  2  0
 17 18  1  0
 17 28  1  0
 18 19  1  0
 18 46  1  0
 19 20  1  0
 19 47  1  0
 19 48  1  0
 20 21  1  1
 20 25  1  0
 20 22  1  0
 22 23  1  0
 22 49  1  0
 22 50  1  0
 23 24  1  0
 23 25  1  0
 23 51  1  6
 24 52  1  0
 25 26  1  0
 25 27  1  0
 26 53  1  0
 26 54  1  0
 26 55  1  0
 27 56  1  0
 27 57  1  0
 27 58  1  0
 28 29  1  0
 28 59  1  0
 29 35  1  0
 29 30  1  0
 29 60  1  0
 30 31  1  0
 30 61  1  0
 30 62  1  0
 31 32  1  0
 31 63  1  0
 31 64  1  0
 32 33  1  0
 32 65  1  0
 32 66  1  0
 33 34  1  0
 33 67  1  0
 33 68  1  0
 34 35  1  0
 34 69  1  0
 34 70  1  0
 35 71  1  0
 35 72  1  0
M  CHG  1  15   1
M  END
>  <DOCK_score>  (1) 
-43.389484

>  <SMILES>  (1) 
Cc1cc(O)ccc1N[C@@H]1C[C@@H]1[NH+]=C(NC[C@H]1CC(O)C1(C)C)NC1CCCCCC1

$$$$
