CCc1ccc(-c2c[nH]c(N[C@@H](Cc3ccc(Cc4ccccc4)cc3)c3ccnn3C)[nH+]2)cc1
     RDKit          3D

 67 71  0  0  1  0  0  0  0  0999 V2000
  129.8063  129.1602  151.2812 C   0  0  0  0  0  0  0  0  0  0  0  0
  131.0820  129.8236  151.8040 C   0  0  0  0  0  0  0  0  0  0  0  0
  130.7758  130.5658  153.0793 C   0  0  0  0  0  0  0  0  0  0  0  0
  130.8886  129.9191  154.2970 C   0  0  0  0  0  0  0  0  0  0  0  0
  130.6140  130.5952  155.4683 C   0  0  0  0  0  0  0  0  0  0  0  0
  130.2123  131.9290  155.4222 C   0  0  0  0  0  0  0  0  0  0  0  0
  129.9110  132.6595  156.6775 C   0  0  0  0  0  0  0  0  0  0  0  0
  129.4353  132.1135  157.8241 C   0  0  0  0  0  0  0  0  0  0  0  0
  129.3017  133.1389  158.7284 N   0  0  0  0  0  0  0  0  0  0  0  0
  128.9821  133.0620  159.6410 H   0  0  0  0  0  0  0  0  0  0  0  0
  129.7000  134.2826  158.1074 C   0  0  0  0  0  0  0  0  0  0  0  0
  129.7177  135.5447  158.6760 N   0  0  0  0  0  0  0  0  0  0  0  0
  129.2818  135.7297  160.0624 C   0  0  1  0  0  0  0  0  0  0  0  0
  129.9112  135.1341  160.7237 H   0  0  0  0  0  0  0  0  0  0  0  0
  129.3992  137.2075  160.4410 C   0  0  0  0  0  0  0  0  0  0  0  0
  130.8333  137.6492  160.3021 C   0  0  0  0  0  0  0  0  0  0  0  0
  131.8580  136.7430  160.5018 C   0  0  0  0  0  0  0  0  0  0  0  0
  133.1734  137.1471  160.3701 C   0  0  0  0  0  0  0  0  0  0  0  0
  133.4643  138.4596  160.0483 C   0  0  0  0  0  0  0  0  0  0  0  0
  134.8985  138.9012  159.9094 C   0  0  0  0  0  0  0  0  0  0  0  0
  135.4082  139.3802  161.2444 C   0  0  0  0  0  0  0  0  0  0  0  0
  135.2800  140.7109  161.5961 C   0  0  0  0  0  0  0  0  0  0  0  0
  135.7432  141.1492  162.8226 C   0  0  0  0  0  0  0  0  0  0  0  0
  136.3434  140.2588  163.6932 C   0  0  0  0  0  0  0  0  0  0  0  0
  136.4766  138.9292  163.3389 C   0  0  0  0  0  0  0  0  0  0  0  0
  136.0087  138.4899  162.1146 C   0  0  0  0  0  0  0  0  0  0  0  0
  132.4398  139.3669  159.8534 C   0  0  0  0  0  0  0  0  0  0  0  0
  131.1242  138.9618  159.9808 C   0  0  0  0  0  0  0  0  0  0  0  0
  127.8478  135.2878  160.2014 C   0  0  0  0  0  0  0  0  0  0  0  0
  126.9013  135.3352  159.2355 C   0  0  0  0  0  0  0  0  0  0  0  0
  125.7120  134.8325  159.7735 C   0  0  0  0  0  0  0  0  0  0  0  0
  125.9365  134.4955  161.0175 N   0  0  0  0  0  0  0  0  0  0  0  0
  127.2791  134.7687  161.3096 N   0  0  0  0  0  0  0  0  0  0  0  0
  127.9468  134.5354  162.5924 C   0  0  0  0  0  0  0  0  0  0  0  0
  130.0681  133.9913  156.8837 N   0  0  0  0  0  0  0  0  0  0  0  0
  130.3984  134.6267  156.2294 H   0  0  0  0  0  0  0  0  0  0  0  0
  130.0954  132.5740  154.1922 C   0  0  0  0  0  0  0  0  0  0  0  0
  130.3774  131.8895  153.0276 C   0  0  0  0  0  0  0  0  0  0  0  0
  129.0536  129.9238  151.0854 H   0  0  0  0  0  0  0  0  0  0  0  0
  130.0278  128.6233  150.3588 H   0  0  0  0  0  0  0  0  0  0  0  0
  129.4287  128.4606  152.0269 H   0  0  0  0  0  0  0  0  0  0  0  0
  131.8347  129.0599  151.9999 H   0  0  0  0  0  0  0  0  0  0  0  0
  131.4597  130.5232  151.0582 H   0  0  0  0  0  0  0  0  0  0  0  0
  131.1957  128.8842  154.3312 H   0  0  0  0  0  0  0  0  0  0  0  0
  130.7068  130.0906  156.4187 H   0  0  0  0  0  0  0  0  0  0  0  0
  129.2053  131.0721  157.9937 H   0  0  0  0  0  0  0  0  0  0  0  0
  130.0185  136.3065  158.1565 H   0  0  0  0  0  0  0  0  0  0  0  0
  128.7699  137.8031  159.7797 H   0  0  0  0  0  0  0  0  0  0  0  0
  129.0748  137.3451  161.4724 H   0  0  0  0  0  0  0  0  0  0  0  0
  131.6308  135.7186  160.7571 H   0  0  0  0  0  0  0  0  0  0  0  0
  133.9739  136.4382  160.5221 H   0  0  0  0  0  0  0  0  0  0  0  0
  135.5054  138.0627  159.5684 H   0  0  0  0  0  0  0  0  0  0  0  0
  134.9601  139.7130  159.1844 H   0  0  0  0  0  0  0  0  0  0  0  0
  134.8147  141.4073  160.9143 H   0  0  0  0  0  0  0  0  0  0  0  0
  135.6393  142.1880  163.0991 H   0  0  0  0  0  0  0  0  0  0  0  0
  136.7086  140.6020  164.6498 H   0  0  0  0  0  0  0  0  0  0  0  0
  136.9459  138.2337  164.0190 H   0  0  0  0  0  0  0  0  0  0  0  0
  136.1129  137.4511  161.8380 H   0  0  0  0  0  0  0  0  0  0  0  0
  132.6670  140.3923  159.6020 H   0  0  0  0  0  0  0  0  0  0  0  0
  130.3238  139.6707  159.8290 H   0  0  0  0  0  0  0  0  0  0  0  0
  127.0396  135.6974  158.2276 H   0  0  0  0  0  0  0  0  0  0  0  0
  124.7708  134.7391  159.2520 H   0  0  0  0  0  0  0  0  0  0  0  0
  127.8507  135.4221  163.2188 H   0  0  0  0  0  0  0  0  0  0  0  0
  127.4843  133.6848  163.0934 H   0  0  0  0  0  0  0  0  0  0  0  0
  129.0023  134.3252  162.4197 H   0  0  0  0  0  0  0  0  0  0  0  0
  129.7842  133.6073  154.1506 H   0  0  0  0  0  0  0  0  0  0  0  0
  130.2869  132.3882  152.0739 H   0  0  0  0  0  0  0  0  0  0  0  0
  1  2  1  0
  1 39  1  0
  1 40  1  0
  1 41  1  0
  2  3  1  0
  2 42  1  0
  2 43  1  0
  3 38  2  0
  3  4  1  0
  4  5  2  0
  4 44  1  0
  5  6  1  0
  5 45  1  0
  6  7  1  0
  6 37  2  0
  7 35  1  0
  7  8  2  0
  8  9  1  0
  8 46  1  0
  9 10  1  0
  9 11  1  0
 11 12  1  0
 11 35  2  0
 12 13  1  0
 12 47  1  0
 13 14  1  1
 13 15  1  0
 13 29  1  0
 15 16  1  0
 15 48  1  0
 15 49  1  0
 16 28  1  0
 16 17  2  0
 17 18  1  0
 17 50  1  0
 18 19  2  0
 18 51  1  0
 19 20  1  0
 19 27  1  0
 20 21  1  0
 20 52  1  0
 20 53  1  0
 21 26  1  0
 21 22  2  0
 22 23  1  0
 22 54  1  0
 23 24  2  0
 23 55  1  0
 24 25  1  0
 24 56  1  0
 25 26  2  0
 25 57  1  0
 26 58  1  0
 27 28  2  0
 27 59  1  0
 28 60  1  0
 29 33  1  0
 29 30  2  0
 30 31  1  0
 30 61  1  0
 31 32  2  0
 31 62  1  0
 32 33  1  0
 33 34  1  0
 34 63  1  0
 34 64  1  0
 34 65  1  0
 35 36  1  0
 37 38  1  0
 37 66  1  0
 38 67  1  0
M  CHG  1  35   1
M  END
>  <DOCK_score>  (1) 
-63.846714

>  <SMILES>  (1) 
CCc1ccc(-c2c[nH]c(N[C@@H](Cc3ccc(Cc4ccccc4)cc3)c3ccnn3C)[nH+]2)cc1

$$$$
