Cc1ccc(C[C@@H](CCl)N2CC[NH+](Cc3ccc(SC4=CCCC4)cc3)CC2)cc1
     RDKit          3D

 64 67  0  0  1  0  0  0  0  0999 V2000
  130.1477  129.1528  151.1676 C   0  0  0  0  0  0  0  0  0  0  0  0
  130.3919  129.9219  152.4404 C   0  0  0  0  0  0  0  0  0  0  0  0
  131.2153  129.3961  153.4184 C   0  0  0  0  0  0  0  0  0  0  0  0
  131.4393  130.1016  154.5858 C   0  0  0  0  0  0  0  0  0  0  0  0
  130.8400  131.3328  154.7753 C   0  0  0  0  0  0  0  0  0  0  0  0
  131.0838  132.1018  156.0482 C   0  0  0  0  0  0  0  0  0  0  0  0
  130.0337  131.7101  157.0897 C   0  0  1  0  0  0  0  0  0  0  0  0
  129.0633  131.6033  156.6048 H   0  0  0  0  0  0  0  0  0  0  0  0
  130.4288  130.3817  157.7379 C   0  0  0  0  0  0  0  0  0  0  0  0
  129.1914  129.9201  158.9652 Cl  0  0  0  0  0  0  0  0  0  0  0  0
  129.9537  132.7534  158.1207 N   0  0  0  0  0  0  0  0  0  0  0  0
  131.2949  133.1988  158.5246 C   0  0  0  0  0  0  0  0  0  0  0  0
  131.1694  134.2398  159.6392 C   0  0  0  0  0  0  0  0  0  0  0  0
  130.3802  135.3809  159.1569 N   0  0  0  0  0  0  0  0  0  0  0  0
  130.8342  135.7877  158.3528 H   0  0  0  0  0  0  0  0  0  0  0  0
  130.2752  136.3880  160.2212 C   0  0  0  0  0  0  0  0  0  0  0  0
  131.5428  137.2014  160.2700 C   0  0  0  0  0  0  0  0  0  0  0  0
  132.5919  136.7961  161.0751 C   0  0  0  0  0  0  0  0  0  0  0  0
  133.7547  137.5392  161.1228 C   0  0  0  0  0  0  0  0  0  0  0  0
  133.8704  138.6952  160.3602 C   0  0  0  0  0  0  0  0  0  0  0  0
  135.3522  139.6468  160.4184 S   0  0  0  0  0  0  0  0  0  0  0  0
  135.4647  140.1018  162.1168 C   0  0  0  0  0  0  0  0  0  0  0  0
  134.5587  140.8071  162.7673 C   0  0  0  0  0  0  0  0  0  0  0  0
  134.9675  141.0160  164.2068 C   0  0  0  0  0  0  0  0  0  0  0  0
  136.0761  139.9682  164.4582 C   0  0  0  0  0  0  0  0  0  0  0  0
  136.6138  139.7365  163.0275 C   0  0  0  0  0  0  0  0  0  0  0  0
  132.8125  139.1019  159.5562 C   0  0  0  0  0  0  0  0  0  0  0  0
  131.6543  138.3516  159.5101 C   0  0  0  0  0  0  0  0  0  0  0  0
  129.0357  134.9244  158.7809 C   0  0  0  0  0  0  0  0  0  0  0  0
  129.1435  133.8893  157.6590 C   0  0  0  0  0  0  0  0  0  0  0  0
  130.0126  131.8563  153.7994 C   0  0  0  0  0  0  0  0  0  0  0  0
  129.7930  131.1534  152.6295 C   0  0  0  0  0  0  0  0  0  0  0  0
  129.2792  128.5065  151.2945 H   0  0  0  0  0  0  0  0  0  0  0  0
  129.9649  129.8508  150.3505 H   0  0  0  0  0  0  0  0  0  0  0  0
  131.0225  128.5447  150.9370 H   0  0  0  0  0  0  0  0  0  0  0  0
  131.6832  128.4341  153.2706 H   0  0  0  0  0  0  0  0  0  0  0  0
  132.0822  129.6907  155.3502 H   0  0  0  0  0  0  0  0  0  0  0  0
  131.0142  133.1706  155.8461 H   0  0  0  0  0  0  0  0  0  0  0  0
  132.0780  131.8680  156.4291 H   0  0  0  0  0  0  0  0  0  0  0  0
  130.4882  129.6076  156.9728 H   0  0  0  0  0  0  0  0  0  0  0  0
  131.3993  130.4885  158.2227 H   0  0  0  0  0  0  0  0  0  0  0  0
  131.8040  133.6420  157.6687 H   0  0  0  0  0  0  0  0  0  0  0  0
  131.8679  132.3453  158.8869 H   0  0  0  0  0  0  0  0  0  0  0  0
  132.1624  134.5819  159.9303 H   0  0  0  0  0  0  0  0  0  0  0  0
  130.6724  133.7923  160.5000 H   0  0  0  0  0  0  0  0  0  0  0  0
  130.1258  135.8900  161.1792 H   0  0  0  0  0  0  0  0  0  0  0  0
  129.4296  137.0449  160.0177 H   0  0  0  0  0  0  0  0  0  0  0  0
  132.5014  135.8976  161.6675 H   0  0  0  0  0  0  0  0  0  0  0  0
  134.5733  137.2225  161.7523 H   0  0  0  0  0  0  0  0  0  0  0  0
  133.6466  141.1842  162.3286 H   0  0  0  0  0  0  0  0  0  0  0  0
  134.1213  140.8400  164.8711 H   0  0  0  0  0  0  0  0  0  0  0  0
  135.3582  142.0235  164.3499 H   0  0  0  0  0  0  0  0  0  0  0  0
  135.6593  139.0501  164.8725 H   0  0  0  0  0  0  0  0  0  0  0  0
  136.8538  140.3702  165.1077 H   0  0  0  0  0  0  0  0  0  0  0  0
  137.4707  140.3821  162.8348 H   0  0  0  0  0  0  0  0  0  0  0  0
  136.8891  138.6908  162.8902 H   0  0  0  0  0  0  0  0  0  0  0  0
  132.8974  140.0021  158.9656 H   0  0  0  0  0  0  0  0  0  0  0  0
  130.8330  138.6651  158.8828 H   0  0  0  0  0  0  0  0  0  0  0  0
  128.5499  134.4733  159.6461 H   0  0  0  0  0  0  0  0  0  0  0  0
  128.4467  135.7741  158.4356 H   0  0  0  0  0  0  0  0  0  0  0  0
  129.6171  134.3439  156.7887 H   0  0  0  0  0  0  0  0  0  0  0  0
  128.1470  133.5395  157.3893 H   0  0  0  0  0  0  0  0  0  0  0  0
  129.5408  132.8161  153.9493 H   0  0  0  0  0  0  0  0  0  0  0  0
  129.1501  131.5643  151.8652 H   0  0  0  0  0  0  0  0  0  0  0  0
  1  2  1  0
  1 33  1  0
  1 34  1  0
  1 35  1  0
  2 32  2  0
  2  3  1  0
  3  4  2  0
  3 36  1  0
  4  5  1  0
  4 37  1  0
  5  6  1  0
  5 31  2  0
  6  7  1  0
  6 38  1  0
  6 39  1  0
  7  8  1  6
  7  9  1  0
  7 11  1  0
  9 10  1  0
  9 40  1  0
  9 41  1  0
 11 30  1  0
 11 12  1  0
 12 13  1  0
 12 42  1  0
 12 43  1  0
 13 14  1  0
 13 44  1  0
 13 45  1  0
 14 15  1  0
 14 16  1  0
 14 29  1  0
 16 17  1  0
 16 46  1  0
 16 47  1  0
 17 28  1  0
 17 18  2  0
 18 19  1  0
 18 48  1  0
 19 20  2  0
 19 49  1  0
 20 21  1  0
 20 27  1  0
 21 22  1  0
 22 26  1  0
 22 23  2  0
 23 24  1  0
 23 50  1  0
 24 25  1  0
 24 51  1  0
 24 52  1  0
 25 26  1  0
 25 53  1  0
 25 54  1  0
 26 55  1  0
 26 56  1  0
 27 28  2  0
 27 57  1  0
 28 58  1  0
 29 30  1  0
 29 59  1  0
 29 60  1  0
 30 61  1  0
 30 62  1  0
 31 32  1  0
 31 63  1  0
 32 64  1  0
M  CHG  1  14   1
M  END
>  <DOCK_score>  (1) 
-59.129581

>  <SMILES>  (1) 
Cc1ccc(C[C@@H](CCl)N2CC[NH+](Cc3ccc(SC4=CCCC4)cc3)CC2)cc1

$$$$
