ClCC1CC(Nc2ccc(-c3n[nH]cc3C[NH2+]Cc3cccc(Cl)c3)o2)C1
     RDKit          3D

 50 53  0  0  1  0  0  0  0  0999 V2000
  127.5158  137.3348  167.2451 Cl  0  0  0  0  0  0  0  0  0  0  0  0
  127.0798  138.4673  165.9116 C   0  0  0  0  0  0  0  0  0  0  0  0
  126.7608  137.6672  164.6470 C   0  0  1  0  0  0  0  0  0  0  0  0
  126.4342  138.5461  163.4280 C   0  0  0  0  0  0  0  0  0  0  0  0
  127.2484  137.5473  162.5886 C   0  0  2  0  0  0  0  0  0  0  0  0
  126.4518  136.4354  162.0641 N   0  0  0  0  0  0  0  0  0  0  0  0
  127.0556  135.4540  161.2865 C   0  0  0  0  0  0  0  0  0  0  0  0
  126.4325  134.3784  160.7437 C   0  0  0  0  0  0  0  0  0  0  0  0
  127.4104  133.6493  160.0386 C   0  0  0  0  0  0  0  0  0  0  0  0
  128.5839  134.3187  160.1873 C   0  0  0  0  0  0  0  0  0  0  0  0
  129.8866  133.9191  159.6162 C   0  0  0  0  0  0  0  0  0  0  0  0
  130.1150  132.8528  158.8749 N   0  0  0  0  0  0  0  0  0  0  0  0
  131.4749  132.8399  158.5395 N   0  0  0  0  0  0  0  0  0  0  0  0
  131.9212  132.1688  157.9996 H   0  0  0  0  0  0  0  0  0  0  0  0
  132.0560  133.9265  159.0927 C   0  0  0  0  0  0  0  0  0  0  0  0
  131.1072  134.6101  159.7675 C   0  0  0  0  0  0  0  0  0  0  0  0
  131.3140  135.8877  160.5397 C   0  0  0  0  0  0  0  0  0  0  0  0
  131.1069  137.0373  159.6488 N   0  0  0  0  0  0  0  0  0  0  0  0
  130.1670  137.0140  159.2826 H   0  0  0  0  0  0  0  0  0  0  0  0
  131.7661  136.9948  158.8861 H   0  0  0  0  0  0  0  0  0  0  0  0
  131.3085  138.2826  160.4015 C   0  0  0  0  0  0  0  0  0  0  0  0
  132.7122  138.3174  160.9485 C   0  0  0  0  0  0  0  0  0  0  0  0
  132.9793  137.7957  162.2007 C   0  0  0  0  0  0  0  0  0  0  0  0
  134.2674  137.8229  162.7009 C   0  0  0  0  0  0  0  0  0  0  0  0
  135.2878  138.3815  161.9539 C   0  0  0  0  0  0  0  0  0  0  0  0
  135.0202  138.9085  160.7032 C   0  0  0  0  0  0  0  0  0  0  0  0
  136.3009  139.6096  159.7642 Cl  0  0  0  0  0  0  0  0  0  0  0  0
  133.7313  138.8762  160.2006 C   0  0  0  0  0  0  0  0  0  0  0  0
  128.3562  135.4080  160.9509 O   0  0  0  0  0  0  0  0  0  0  0  0
  128.0104  137.2041  163.8794 C   0  0  0  0  0  0  0  0  0  0  0  0
  127.9167  139.1376  165.7159 H   0  0  0  0  0  0  0  0  0  0  0  0
  126.2065  139.0514  166.2019 H   0  0  0  0  0  0  0  0  0  0  0  0
  126.0348  136.8727  164.8195 H   0  0  0  0  0  0  0  0  0  0  0  0
  126.8781  139.5405  163.4752 H   0  0  0  0  0  0  0  0  0  0  0  0
  125.3741  138.5663  163.1758 H   0  0  0  0  0  0  0  0  0  0  0  0
  127.8680  138.0205  161.8268 H   0  0  0  0  0  0  0  0  0  0  0  0
  125.5030  136.3840  162.2593 H   0  0  0  0  0  0  0  0  0  0  0  0
  125.3859  134.1282  160.8349 H   0  0  0  0  0  0  0  0  0  0  0  0
  127.2571  132.7339  159.4863 H   0  0  0  0  0  0  0  0  0  0  0  0
  133.0977  134.1996  159.0110 H   0  0  0  0  0  0  0  0  0  0  0  0
  132.3294  135.9129  160.9352 H   0  0  0  0  0  0  0  0  0  0  0  0
  130.6018  135.9336  161.3636 H   0  0  0  0  0  0  0  0  0  0  0  0
  130.5963  138.3284  161.2254 H   0  0  0  0  0  0  0  0  0  0  0  0
  131.1548  139.1356  159.7405 H   0  0  0  0  0  0  0  0  0  0  0  0
  132.1817  137.3632  162.7866 H   0  0  0  0  0  0  0  0  0  0  0  0
  134.4762  137.4115  163.6775 H   0  0  0  0  0  0  0  0  0  0  0  0
  136.2936  138.4062  162.3464 H   0  0  0  0  0  0  0  0  0  0  0  0
  133.5220  139.2871  159.2241 H   0  0  0  0  0  0  0  0  0  0  0  0
  128.2226  136.1409  163.9917 H   0  0  0  0  0  0  0  0  0  0  0  0
  128.8852  137.8316  164.0501 H   0  0  0  0  0  0  0  0  0  0  0  0
  1  2  1  0
  2  3  1  0
  2 31  1  0
  2 32  1  0
  3 30  1  0
  3  4  1  0
  3 33  1  1
  4  5  1  0
  4 34  1  0
  4 35  1  0
  5  6  1  0
  5 30  1  0
  5 36  1  6
  6  7  1  0
  6 37  1  0
  7 29  1  0
  7  8  2  0
  8  9  1  0
  8 38  1  0
  9 10  2  0
  9 39  1  0
 10 11  1  0
 10 29  1  0
 11 16  1  0
 11 12  2  0
 12 13  1  0
 13 14  1  0
 13 15  1  0
 15 16  2  0
 15 40  1  0
 16 17  1  0
 17 18  1  0
 17 41  1  0
 17 42  1  0
 18 19  1  0
 18 20  1  0
 18 21  1  0
 21 22  1  0
 21 43  1  0
 21 44  1  0
 22 28  1  0
 22 23  2  0
 23 24  1  0
 23 45  1  0
 24 25  2  0
 24 46  1  0
 25 26  1  0
 25 47  1  0
 26 27  1  0
 26 28  2  0
 28 48  1  0
 30 49  1  0
 30 50  1  0
M  CHG  1  18   1
M  END
>  <DOCK_score>  (1) 
-41.833874

>  <SMILES>  (1) 
ClCC1CC(Nc2ccc(-c3n[nH]cc3C[NH2+]Cc3cccc(Cl)c3)o2)C1

$$$$
