CCc1ccc(-c2c[nH]c(N[C@H](C)C(O)C3=CCCC3)[nH+]2)cc1
     RDKit          3D

 49 51  0  0  1  0  0  0  0  0999 V2000
  129.8916  128.7232  150.9574 C   0  0  0  0  0  0  0  0  0  0  0  0
  131.0842  129.6164  151.3045 C   0  0  0  0  0  0  0  0  0  0  0  0
  130.8137  130.3342  152.6017 C   0  0  0  0  0  0  0  0  0  0  0  0
  131.1925  129.7573  153.8000 C   0  0  0  0  0  0  0  0  0  0  0  0
  130.9525  130.4124  154.9908 C   0  0  0  0  0  0  0  0  0  0  0  0
  130.3167  131.6526  154.9848 C   0  0  0  0  0  0  0  0  0  0  0  0
  130.0509  132.3592  156.2617 C   0  0  0  0  0  0  0  0  0  0  0  0
  129.3018  131.8923  157.2912 C   0  0  0  0  0  0  0  0  0  0  0  0
  129.3190  132.8589  158.2671 N   0  0  0  0  0  0  0  0  0  0  0  0
  128.8718  132.8154  159.1267 H   0  0  0  0  0  0  0  0  0  0  0  0
  130.0789  133.8891  157.8051 C   0  0  0  0  0  0  0  0  0  0  0  0
  130.3473  135.0628  158.4883 N   0  0  0  0  0  0  0  0  0  0  0  0
  129.3711  135.5947  159.4424 C   0  0  2  0  0  0  0  0  0  0  0  0
  129.1996  134.8634  160.2323 H   0  0  0  0  0  0  0  0  0  0  0  0
  128.0542  135.8814  158.7182 C   0  0  0  0  0  0  0  0  0  0  0  0
  129.9092  136.8897  160.0542 C   0  0  2  0  0  0  0  0  0  0  0  0
  130.1340  137.8483  159.0184 O   0  0  0  0  0  0  0  0  0  0  0  0
  131.2063  136.6073  160.7674 C   0  0  0  0  0  0  0  0  0  0  0  0
  132.3489  137.1634  160.4696 C   0  0  0  0  0  0  0  0  0  0  0  0
  133.4499  136.6634  161.3757 C   0  0  0  0  0  0  0  0  0  0  0  0
  132.8753  135.3814  162.0218 C   0  0  0  0  0  0  0  0  0  0  0  0
  131.3535  135.6481  161.9256 C   0  0  0  0  0  0  0  0  0  0  0  0
  130.5193  133.5843  156.6088 N   0  0  0  0  0  0  0  0  0  0  0  0
  131.0873  134.1459  156.0585 H   0  0  0  0  0  0  0  0  0  0  0  0
  129.9320  132.2269  153.7745 C   0  0  0  0  0  0  0  0  0  0  0  0
  130.1822  131.5653  152.5894 C   0  0  0  0  0  0  0  0  0  0  0  0
  129.7420  127.9926  151.7523 H   0  0  0  0  0  0  0  0  0  0  0  0
  128.9962  129.3360  150.8539 H   0  0  0  0  0  0  0  0  0  0  0  0
  130.0872  128.2042  150.0191 H   0  0  0  0  0  0  0  0  0  0  0  0
  131.9795  129.0042  151.4075 H   0  0  0  0  0  0  0  0  0  0  0  0
  131.2336  130.3476  150.5091 H   0  0  0  0  0  0  0  0  0  0  0  0
  131.6808  128.7940  153.8037 H   0  0  0  0  0  0  0  0  0  0  0  0
  131.2529  129.9630  155.9257 H   0  0  0  0  0  0  0  0  0  0  0  0
  128.7894  130.9426  157.3352 H   0  0  0  0  0  0  0  0  0  0  0  0
  131.1819  135.5329  158.3354 H   0  0  0  0  0  0  0  0  0  0  0  0
  127.6709  134.9588  158.2823 H   0  0  0  0  0  0  0  0  0  0  0  0
  127.3279  136.2770  159.4280 H   0  0  0  0  0  0  0  0  0  0  0  0
  128.2258  136.6127  157.9281 H   0  0  0  0  0  0  0  0  0  0  0  0
  129.1829  137.2854  160.7641 H   0  0  0  0  0  0  0  0  0  0  0  0
  130.7710  137.5625  158.3495 H   0  0  0  0  0  0  0  0  0  0  0  0
  132.4892  137.8859  159.6792 H   0  0  0  0  0  0  0  0  0  0  0  0
  134.3423  136.4288  160.7951 H   0  0  0  0  0  0  0  0  0  0  0  0
  133.6780  137.4050  162.1411 H   0  0  0  0  0  0  0  0  0  0  0  0
  133.1580  134.4958  161.4526 H   0  0  0  0  0  0  0  0  0  0  0  0
  133.1900  135.2924  163.0616 H   0  0  0  0  0  0  0  0  0  0  0  0
  130.9864  136.1038  162.8452 H   0  0  0  0  0  0  0  0  0  0  0  0
  130.8189  134.7206  161.7207 H   0  0  0  0  0  0  0  0  0  0  0  0
  129.4388  133.1877  153.7640 H   0  0  0  0  0  0  0  0  0  0  0  0
  129.8843  132.0092  151.6510 H   0  0  0  0  0  0  0  0  0  0  0  0
  1  2  1  0
  1 27  1  0
  1 28  1  0
  1 29  1  0
  2  3  1  0
  2 30  1  0
  2 31  1  0
  3 26  2  0
  3  4  1  0
  4  5  2  0
  4 32  1  0
  5  6  1  0
  5 33  1  0
  6  7  1  0
  6 25  2  0
  7 23  1  0
  7  8  2  0
  8  9  1  0
  8 34  1  0
  9 10  1  0
  9 11  1  0
 11 12  1  0
 11 23  2  0
 12 13  1  0
 12 35  1  0
 13 14  1  1
 13 15  1  0
 13 16  1  0
 15 36  1  0
 15 37  1  0
 15 38  1  0
 16 17  1  0
 16 18  1  0
 16 39  1  1
 17 40  1  0
 18 22  1  0
 18 19  2  0
 19 20  1  0
 19 41  1  0
 20 21  1  0
 20 42  1  0
 20 43  1  0
 21 22  1  0
 21 44  1  0
 21 45  1  0
 22 46  1  0
 22 47  1  0
 23 24  1  0
 25 26  1  0
 25 48  1  0
 26 49  1  0
M  CHG  1  23   1
M  END
>  <DOCK_score>  (1) 
-58.873344

>  <SMILES>  (1) 
CCc1ccc(-c2c[nH]c(N[C@H](C)C(O)C3=CCCC3)[nH+]2)cc1

$$$$
