CCc1ccc(-c2c[nH]c(N[C@@H](SCc3ccccc3C)c3ccccc3)[nH+]2)cc1
     RDKit          3D

 58 61  0  0  1  0  0  0  0  0999 V2000
  129.7624  128.8273  151.0835 C   0  0  0  0  0  0  0  0  0  0  0  0
  130.9667  129.7436  151.3091 C   0  0  0  0  0  0  0  0  0  0  0  0
  130.8864  130.3488  152.6869 C   0  0  0  0  0  0  0  0  0  0  0  0
  131.4715  129.7005  153.7590 C   0  0  0  0  0  0  0  0  0  0  0  0
  131.4061  130.2528  155.0222 C   0  0  0  0  0  0  0  0  0  0  0  0
  130.7389  131.4607  155.2180 C   0  0  0  0  0  0  0  0  0  0  0  0
  130.6605  132.0565  156.5742 C   0  0  0  0  0  0  0  0  0  0  0  0
  130.1022  131.4807  157.6678 C   0  0  0  0  0  0  0  0  0  0  0  0
  130.2461  132.3708  158.7041 N   0  0  0  0  0  0  0  0  0  0  0  0
  129.9450  132.2429  159.6173 H   0  0  0  0  0  0  0  0  0  0  0  0
  130.8888  133.4654  158.2132 C   0  0  0  0  0  0  0  0  0  0  0  0
  131.2268  134.5949  158.9387 N   0  0  0  0  0  0  0  0  0  0  0  0
  130.8905  134.6790  160.3621 C   0  0  1  0  0  0  0  0  0  0  0  0
  131.0627  133.7116  160.8338 H   0  0  0  0  0  0  0  0  0  0  0  0
  131.9328  135.9332  161.1565 S   0  0  0  0  0  0  0  0  0  0  0  0
  131.1105  137.4879  160.7126 C   0  0  0  0  0  0  0  0  0  0  0  0
  131.8693  138.6456  161.3086 C   0  0  0  0  0  0  0  0  0  0  0  0
  131.5443  139.1091  162.5700 C   0  0  0  0  0  0  0  0  0  0  0  0
  132.2438  140.1673  163.1188 C   0  0  0  0  0  0  0  0  0  0  0  0
  133.2607  140.7698  162.4017 C   0  0  0  0  0  0  0  0  0  0  0  0
  133.5821  140.3099  161.1386 C   0  0  0  0  0  0  0  0  0  0  0  0
  132.8863  139.2476  160.5920 C   0  0  0  0  0  0  0  0  0  0  0  0
  133.2364  138.7464  159.2145 C   0  0  0  0  0  0  0  0  0  0  0  0
  129.4407  135.0612  160.5140 C   0  0  0  0  0  0  0  0  0  0  0  0
  128.7218  134.6232  161.6105 C   0  0  0  0  0  0  0  0  0  0  0  0
  127.3929  134.9770  161.7518 C   0  0  0  0  0  0  0  0  0  0  0  0
  126.7808  135.7621  160.7925 C   0  0  0  0  0  0  0  0  0  0  0  0
  127.4984  136.1956  159.6934 C   0  0  0  0  0  0  0  0  0  0  0  0
  128.8283  135.8451  159.5540 C   0  0  0  0  0  0  0  0  0  0  0  0
  131.1398  133.2714  156.9414 N   0  0  0  0  0  0  0  0  0  0  0  0
  131.5937  133.8974  156.3558 H   0  0  0  0  0  0  0  0  0  0  0  0
  130.1462  132.1070  154.1348 C   0  0  0  0  0  0  0  0  0  0  0  0
  130.2228  131.5484  152.8751 C   0  0  0  0  0  0  0  0  0  0  0  0
  129.8204  128.3897  150.0869 H   0  0  0  0  0  0  0  0  0  0  0  0
  129.7661  128.0330  151.8299 H   0  0  0  0  0  0  0  0  0  0  0  0
  128.8432  129.4061  151.1733 H   0  0  0  0  0  0  0  0  0  0  0  0
  131.8857  129.1655  151.2189 H   0  0  0  0  0  0  0  0  0  0  0  0
  130.9628  130.5386  150.5623 H   0  0  0  0  0  0  0  0  0  0  0  0
  131.9841  128.7622  153.6070 H   0  0  0  0  0  0  0  0  0  0  0  0
  131.8674  129.7478  155.8581 H   0  0  0  0  0  0  0  0  0  0  0  0
  129.6338  130.5087  157.7147 H   0  0  0  0  0  0  0  0  0  0  0  0
  131.6864  135.3306  158.5045 H   0  0  0  0  0  0  0  0  0  0  0  0
  131.0865  137.5893  159.6276 H   0  0  0  0  0  0  0  0  0  0  0  0
  130.0916  137.4836  161.0996 H   0  0  0  0  0  0  0  0  0  0  0  0
  130.7467  138.6416  163.1281 H   0  0  0  0  0  0  0  0  0  0  0  0
  131.9928  140.5266  164.1059 H   0  0  0  0  0  0  0  0  0  0  0  0
  133.8044  141.5997  162.8287 H   0  0  0  0  0  0  0  0  0  0  0  0
  134.3766  140.7804  160.5784 H   0  0  0  0  0  0  0  0  0  0  0  0
  132.6438  139.2807  158.4720 H   0  0  0  0  0  0  0  0  0  0  0  0
  134.2961  138.9164  159.0244 H   0  0  0  0  0  0  0  0  0  0  0  0
  133.0226  137.6794  159.1508 H   0  0  0  0  0  0  0  0  0  0  0  0
  129.1990  134.0072  162.3582 H   0  0  0  0  0  0  0  0  0  0  0  0
  126.8321  134.6379  162.6103 H   0  0  0  0  0  0  0  0  0  0  0  0
  125.7420  136.0363  160.9016 H   0  0  0  0  0  0  0  0  0  0  0  0
  127.0201  136.8085  158.9439 H   0  0  0  0  0  0  0  0  0  0  0  0
  129.3889  136.1838  158.6954 H   0  0  0  0  0  0  0  0  0  0  0  0
  129.6278  133.0432  154.2808 H   0  0  0  0  0  0  0  0  0  0  0  0
  129.7636  132.0482  152.0350 H   0  0  0  0  0  0  0  0  0  0  0  0
  1  2  1  0
  1 34  1  0
  1 35  1  0
  1 36  1  0
  2  3  1  0
  2 37  1  0
  2 38  1  0
  3 33  2  0
  3  4  1  0
  4  5  2  0
  4 39  1  0
  5  6  1  0
  5 40  1  0
  6  7  1  0
  6 32  2  0
  7 30  1  0
  7  8  2  0
  8  9  1  0
  8 41  1  0
  9 10  1  0
  9 11  1  0
 11 12  1  0
 11 30  2  0
 12 13  1  0
 12 42  1  0
 13 14  1  1
 13 15  1  0
 13 24  1  0
 15 16  1  0
 16 17  1  0
 16 43  1  0
 16 44  1  0
 17 22  1  0
 17 18  2  0
 18 19  1  0
 18 45  1  0
 19 20  2  0
 19 46  1  0
 20 21  1  0
 20 47  1  0
 21 22  2  0
 21 48  1  0
 22 23  1  0
 23 49  1  0
 23 50  1  0
 23 51  1  0
 24 29  1  0
 24 25  2  0
 25 26  1  0
 25 52  1  0
 26 27  2  0
 26 53  1  0
 27 28  1  0
 27 54  1  0
 28 29  2  0
 28 55  1  0
 29 56  1  0
 30 31  1  0
 32 33  1  0
 32 57  1  0
 33 58  1  0
M  CHG  1  30   1
M  END
>  <DOCK_score>  (1) 
-63.65461

>  <SMILES>  (1) 
CCc1ccc(-c2c[nH]c(N[C@@H](SCc3ccccc3C)c3ccccc3)[nH+]2)cc1

$$$$
