Cc1ccc(-c2c[nH]c(N[C@@H](Cc3ccc(F)cc3)c3ccc(F)cc3)[nH+]2)cc1
     RDKit          3D

 51 54  0  0  1  0  0  0  0  0999 V2000
  131.1324  129.3344  152.3571 C   0  0  0  0  0  0  0  0  0  0  0  0
  130.8664  130.1502  153.5961 C   0  0  0  0  0  0  0  0  0  0  0  0
  129.9894  131.2180  153.5429 C   0  0  0  0  0  0  0  0  0  0  0  0
  129.7383  131.9655  154.6755 C   0  0  0  0  0  0  0  0  0  0  0  0
  130.3787  131.6488  155.8724 C   0  0  0  0  0  0  0  0  0  0  0  0
  130.1169  132.4516  157.0918 C   0  0  0  0  0  0  0  0  0  0  0  0
  129.6138  131.9852  158.2616 C   0  0  0  0  0  0  0  0  0  0  0  0
  129.5348  133.0571  159.1170 N   0  0  0  0  0  0  0  0  0  0  0  0
  129.2121  133.0396  160.0316 H   0  0  0  0  0  0  0  0  0  0  0  0
  129.9923  134.1481  158.4446 C   0  0  0  0  0  0  0  0  0  0  0  0
  130.0767  135.4326  158.9539 N   0  0  0  0  0  0  0  0  0  0  0  0
  129.6518  135.7045  160.3294 C   0  0  1  0  0  0  0  0  0  0  0  0
  130.2493  135.1080  161.0188 H   0  0  0  0  0  0  0  0  0  0  0  0
  129.8467  137.1900  160.6393 C   0  0  0  0  0  0  0  0  0  0  0  0
  131.3021  137.5491  160.4828 C   0  0  0  0  0  0  0  0  0  0  0  0
  131.6603  138.8252  160.0902 C   0  0  0  0  0  0  0  0  0  0  0  0
  132.9947  139.1572  159.9516 C   0  0  0  0  0  0  0  0  0  0  0  0
  133.9724  138.2082  160.1958 C   0  0  0  0  0  0  0  0  0  0  0  0
  135.2770  138.5292  160.0540 F   0  0  0  0  0  0  0  0  0  0  0  0
  133.6124  136.9282  160.5829 C   0  0  0  0  0  0  0  0  0  0  0  0
  132.2776  136.6002  160.7265 C   0  0  0  0  0  0  0  0  0  0  0  0
  128.1966  135.3456  160.4859 C   0  0  0  0  0  0  0  0  0  0  0  0
  127.7201  134.9105  161.7086 C   0  0  0  0  0  0  0  0  0  0  0  0
  126.3846  134.5864  161.8547 C   0  0  0  0  0  0  0  0  0  0  0  0
  125.5260  134.6873  160.7731 C   0  0  0  0  0  0  0  0  0  0  0  0
  124.2214  134.3656  160.9134 F   0  0  0  0  0  0  0  0  0  0  0  0
  126.0055  135.1177  159.5476 C   0  0  0  0  0  0  0  0  0  0  0  0
  127.3403  135.4462  159.4053 C   0  0  0  0  0  0  0  0  0  0  0  0
  130.3440  133.7815  157.2363 N   0  0  0  0  0  0  0  0  0  0  0  0
  130.7070  134.3675  156.5539 H   0  0  0  0  0  0  0  0  0  0  0  0
  131.2656  130.5747  155.9190 C   0  0  0  0  0  0  0  0  0  0  0  0
  131.5051  129.8309  154.7814 C   0  0  0  0  0  0  0  0  0  0  0  0
  130.4226  128.5086  152.3065 H   0  0  0  0  0  0  0  0  0  0  0  0
  131.0198  129.9651  151.4760 H   0  0  0  0  0  0  0  0  0  0  0  0
  132.1476  128.9386  152.3938 H   0  0  0  0  0  0  0  0  0  0  0  0
  129.4971  131.4651  152.6140 H   0  0  0  0  0  0  0  0  0  0  0  0
  129.0504  132.7969  154.6335 H   0  0  0  0  0  0  0  0  0  0  0  0
  129.3293  130.9663  158.4788 H   0  0  0  0  0  0  0  0  0  0  0  0
  130.4172  136.1526  158.4003 H   0  0  0  0  0  0  0  0  0  0  0  0
  129.2493  137.7864  159.9498 H   0  0  0  0  0  0  0  0  0  0  0  0
  129.5307  137.3923  161.6626 H   0  0  0  0  0  0  0  0  0  0  0  0
  130.8972  139.5643  159.8954 H   0  0  0  0  0  0  0  0  0  0  0  0
  133.2745  140.1553  159.6489 H   0  0  0  0  0  0  0  0  0  0  0  0
  134.3743  136.1867  160.7732 H   0  0  0  0  0  0  0  0  0  0  0  0
  131.9964  135.6023  161.0289 H   0  0  0  0  0  0  0  0  0  0  0  0
  128.3909  134.8277  162.5508 H   0  0  0  0  0  0  0  0  0  0  0  0
  126.0116  134.2512  162.8111 H   0  0  0  0  0  0  0  0  0  0  0  0
  125.3367  135.1964  158.7032 H   0  0  0  0  0  0  0  0  0  0  0  0
  127.7146  135.7820  158.4495 H   0  0  0  0  0  0  0  0  0  0  0  0
  131.7643  130.3248  156.8438 H   0  0  0  0  0  0  0  0  0  0  0  0
  132.1918  128.9982  154.8165 H   0  0  0  0  0  0  0  0  0  0  0  0
  1  2  1  0
  1 33  1  0
  1 34  1  0
  1 35  1  0
  2 32  2  0
  2  3  1  0
  3  4  2  0
  3 36  1  0
  4  5  1  0
  4 37  1  0
  5  6  1  0
  5 31  2  0
  6 29  1  0
  6  7  2  0
  7  8  1  0
  7 38  1  0
  8  9  1  0
  8 10  1  0
 10 11  1  0
 10 29  2  0
 11 12  1  0
 11 39  1  0
 12 13  1  1
 12 14  1  0
 12 22  1  0
 14 15  1  0
 14 40  1  0
 14 41  1  0
 15 21  1  0
 15 16  2  0
 16 17  1  0
 16 42  1  0
 17 18  2  0
 17 43  1  0
 18 19  1  0
 18 20  1  0
 20 21  2  0
 20 44  1  0
 21 45  1  0
 22 28  1  0
 22 23  2  0
 23 24  1  0
 23 46  1  0
 24 25  2  0
 24 47  1  0
 25 26  1  0
 25 27  1  0
 27 28  2  0
 27 48  1  0
 28 49  1  0
 29 30  1  0
 31 32  1  0
 31 50  1  0
 32 51  1  0
M  CHG  1  29   1
M  END
>  <DOCK_score>  (1) 
-57.011494

>  <SMILES>  (1) 
Cc1ccc(-c2c[nH]c(N[C@@H](Cc3ccc(F)cc3)c3ccc(F)cc3)[nH+]2)cc1

$$$$
