CCOC(=O)c1oc2ccc(C3=CCCC3)cc2c1C[NH2+][C@H]1COC2(CCC2)C1
     RDKit          3D

 59 63  0  0  1  0  0  0  0  0999 V2000
  124.9772  134.9709  159.7982 C   0  0  0  0  0  0  0  0  0  0  0  0
  126.0579  134.4627  160.7546 C   0  0  0  0  0  0  0  0  0  0  0  0
  127.2650  135.2515  160.5840 O   0  0  0  0  0  0  0  0  0  0  0  0
  127.3910  136.3523  161.3530 C   0  0  0  0  0  0  0  0  0  0  0  0
  126.5155  136.6443  162.1443 O   0  0  0  0  0  0  0  0  0  0  0  0
  128.5853  137.1978  161.2344 C   0  0  0  0  0  0  0  0  0  0  0  0
  128.6200  138.5282  161.4573 O   0  0  0  0  0  0  0  0  0  0  0  0
  129.8619  139.0154  161.2666 C   0  0  0  0  0  0  0  0  0  0  0  0
  130.4062  140.2921  161.3669 C   0  0  0  0  0  0  0  0  0  0  0  0
  131.7315  140.4978  161.1142 C   0  0  0  0  0  0  0  0  0  0  0  0
  132.5628  139.4342  160.7399 C   0  0  0  0  0  0  0  0  0  0  0  0
  133.9948  139.6767  160.4648 C   0  0  0  0  0  0  0  0  0  0  0  0
  134.7283  138.9774  159.6122 C   0  0  0  0  0  0  0  0  0  0  0  0
  136.1486  139.4919  159.5758 C   0  0  0  0  0  0  0  0  0  0  0  0
  136.0790  140.8913  160.2286 C   0  0  0  0  0  0  0  0  0  0  0  0
  134.8232  140.7574  161.1200 C   0  0  0  0  0  0  0  0  0  0  0  0
  132.0423  138.1502  160.6331 C   0  0  0  0  0  0  0  0  0  0  0  0
  130.6887  137.9371  160.8966 C   0  0  0  0  0  0  0  0  0  0  0  0
  129.8225  136.7586  160.8843 C   0  0  0  0  0  0  0  0  0  0  0  0
  130.2213  135.3442  160.5500 C   0  0  0  0  0  0  0  0  0  0  0  0
  130.0558  135.1165  159.1082 N   0  0  0  0  0  0  0  0  0  0  0  0
  129.0906  135.2631  158.8533 H   0  0  0  0  0  0  0  0  0  0  0  0
  130.6404  135.7606  158.5968 H   0  0  0  0  0  0  0  0  0  0  0  0
  130.4445  133.7379  158.7824 C   0  0  1  0  0  0  0  0  0  0  0  0
  131.3294  133.4481  159.3491 H   0  0  0  0  0  0  0  0  0  0  0  0
  129.2804  132.7679  159.0671 C   0  0  0  0  0  0  0  0  0  0  0  0
  128.8968  132.1746  157.8126 O   0  0  0  0  0  0  0  0  0  0  0  0
  130.0420  132.2342  156.9567 C   0  0  0  0  0  0  0  0  0  0  0  0
  129.7958  131.9379  155.4797 C   0  0  0  0  0  0  0  0  0  0  0  0
  131.1675  131.2381  155.4821 C   0  0  0  0  0  0  0  0  0  0  0  0
  130.9756  131.0271  156.9952 C   0  0  0  0  0  0  0  0  0  0  0  0
  130.7000  133.5918  157.2607 C   0  0  0  0  0  0  0  0  0  0  0  0
  125.3291  134.8791  158.7707 H   0  0  0  0  0  0  0  0  0  0  0  0
  124.0711  134.3788  159.9264 H   0  0  0  0  0  0  0  0  0  0  0  0
  124.7616  136.0168  160.0164 H   0  0  0  0  0  0  0  0  0  0  0  0
  126.2735  133.4167  160.5364 H   0  0  0  0  0  0  0  0  0  0  0  0
  125.7061  134.5544  161.7822 H   0  0  0  0  0  0  0  0  0  0  0  0
  129.7777  141.1235  161.6502 H   0  0  0  0  0  0  0  0  0  0  0  0
  132.1431  141.4927  161.1992 H   0  0  0  0  0  0  0  0  0  0  0  0
  134.3602  138.1509  159.0224 H   0  0  0  0  0  0  0  0  0  0  0  0
  136.4973  139.5704  158.5460 H   0  0  0  0  0  0  0  0  0  0  0  0
  136.8055  138.8379  160.1491 H   0  0  0  0  0  0  0  0  0  0  0  0
  135.9424  141.6673  159.4754 H   0  0  0  0  0  0  0  0  0  0  0  0
  136.9664  141.0865  160.8308 H   0  0  0  0  0  0  0  0  0  0  0  0
  135.1049  140.4597  162.1300 H   0  0  0  0  0  0  0  0  0  0  0  0
  134.2716  141.6973  161.1420 H   0  0  0  0  0  0  0  0  0  0  0  0
  132.6789  137.3255  160.3488 H   0  0  0  0  0  0  0  0  0  0  0  0
  131.2640  135.1858  160.8255 H   0  0  0  0  0  0  0  0  0  0  0  0
  129.5899  134.6485  161.1026 H   0  0  0  0  0  0  0  0  0  0  0  0
  129.6062  131.9917  159.7595 H   0  0  0  0  0  0  0  0  0  0  0  0
  128.4381  133.3147  159.4910 H   0  0  0  0  0  0  0  0  0  0  0  0
  128.9597  131.2612  155.3026 H   0  0  0  0  0  0  0  0  0  0  0  0
  129.7607  132.8298  154.8543 H   0  0  0  0  0  0  0  0  0  0  0  0
  131.9962  131.9022  155.2361 H   0  0  0  0  0  0  0  0  0  0  0  0
  131.1844  130.3098  154.9110 H   0  0  0  0  0  0  0  0  0  0  0  0
  131.8813  131.1928  157.5786 H   0  0  0  0  0  0  0  0  0  0  0  0
  130.4733  130.0933  157.2482 H   0  0  0  0  0  0  0  0  0  0  0  0
  130.2133  134.3936  156.7052 H   0  0  0  0  0  0  0  0  0  0  0  0
  131.7682  133.5638  157.0458 H   0  0  0  0  0  0  0  0  0  0  0  0
  1  2  1  0
  1 33  1  0
  1 34  1  0
  1 35  1  0
  2  3  1  0
  2 36  1  0
  2 37  1  0
  3  4  1  0
  4  5  2  0
  4  6  1  0
  6 19  2  0
  6  7  1  0
  7  8  1  0
  8 18  2  0
  8  9  1  0
  9 10  2  0
  9 38  1  0
 10 11  1  0
 10 39  1  0
 11 12  1  0
 11 17  2  0
 12 16  1  0
 12 13  2  0
 13 14  1  0
 13 40  1  0
 14 15  1  0
 14 41  1  0
 14 42  1  0
 15 16  1  0
 15 43  1  0
 15 44  1  0
 16 45  1  0
 16 46  1  0
 17 18  1  0
 17 47  1  0
 18 19  1  0
 19 20  1  0
 20 21  1  0
 20 48  1  0
 20 49  1  0
 21 22  1  0
 21 23  1  0
 21 24  1  0
 24 25  1  1
 24 32  1  0
 24 26  1  0
 26 27  1  0
 26 50  1  0
 26 51  1  0
 27 28  1  0
 28 31  1  0
 28 29  1  0
 28 32  1  0
 29 30  1  0
 29 52  1  0
 29 53  1  0
 30 31  1  0
 30 54  1  0
 30 55  1  0
 31 56  1  0
 31 57  1  0
 32 58  1  0
 32 59  1  0
M  CHG  1  21   1
M  END
>  <DOCK_score>  (1) 
-43.385651

>  <SMILES>  (1) 
CCOC(=O)c1oc2ccc(C3=CCCC3)cc2c1C[NH2+][C@H]1COC2(CCC2)C1

$$$$
