Clc1ccc2c(c1)CC(Nc1ccc(-c3n[nH]cc3C[NH2+]C[C@@H]3CC4CC3C4)o1)C2
     RDKit          3D

 58 63  0  0  1  0  0  0  0  0999 V2000
  129.4399  135.8364  168.5176 Cl  0  0  0  0  0  0  0  0  0  0  0  0
  128.3382  136.2605  167.2446 C   0  0  0  0  0  0  0  0  0  0  0  0
  127.2563  137.0814  167.5097 C   0  0  0  0  0  0  0  0  0  0  0  0
  126.3815  137.4169  166.4954 C   0  0  0  0  0  0  0  0  0  0  0  0
  126.5828  136.9344  165.2128 C   0  0  0  0  0  0  0  0  0  0  0  0
  127.6635  136.1143  164.9474 C   0  0  0  0  0  0  0  0  0  0  0  0
  128.5405  135.7785  165.9652 C   0  0  0  0  0  0  0  0  0  0  0  0
  127.6665  135.7249  163.4815 C   0  0  0  0  0  0  0  0  0  0  0  0
  126.7247  136.7380  162.7966 C   0  0  1  0  0  0  0  0  0  0  0  0
  125.9746  136.1005  161.7116 N   0  0  0  0  0  0  0  0  0  0  0  0
  126.6034  135.1840  160.8769 C   0  0  0  0  0  0  0  0  0  0  0  0
  126.0049  134.1371  160.2560 C   0  0  0  0  0  0  0  0  0  0  0  0
  127.0015  133.4767  159.5107 C   0  0  0  0  0  0  0  0  0  0  0  0
  128.1626  134.1511  159.7215 C   0  0  0  0  0  0  0  0  0  0  0  0
  129.4778  133.8131  159.1393 C   0  0  0  0  0  0  0  0  0  0  0  0
  129.7307  132.8085  158.3236 N   0  0  0  0  0  0  0  0  0  0  0  0
  131.0957  132.8360  158.0106 N   0  0  0  0  0  0  0  0  0  0  0  0
  131.5593  132.2105  157.4319 H   0  0  0  0  0  0  0  0  0  0  0  0
  131.6547  133.8842  158.6532 C   0  0  0  0  0  0  0  0  0  0  0  0
  130.6855  134.5097  159.3549 C   0  0  0  0  0  0  0  0  0  0  0  0
  130.8635  135.7309  160.2199 C   0  0  0  0  0  0  0  0  0  0  0  0
  132.2691  136.1560  160.1837 N   0  0  0  0  0  0  0  0  0  0  0  0
  132.5298  136.3755  159.2339 H   0  0  0  0  0  0  0  0  0  0  0  0
  132.8549  135.4107  160.5294 H   0  0  0  0  0  0  0  0  0  0  0  0
  132.4426  137.3464  161.0267 C   0  0  0  0  0  0  0  0  0  0  0  0
  133.9066  137.7892  160.9889 C   0  0  2  0  0  0  0  0  0  0  0  0
  134.5668  137.0039  161.3573 H   0  0  0  0  0  0  0  0  0  0  0  0
  134.1214  139.1535  161.7655 C   0  0  0  0  0  0  0  0  0  0  0  0
  134.6040  140.0362  160.5639 C   0  0  2  0  0  0  0  0  0  0  0  0
  133.7278  139.6855  159.3229 C   0  0  0  0  0  0  0  0  0  0  0  0
  134.3252  138.2644  159.5556 C   0  0  1  0  0  0  0  0  0  0  0  0
  135.6003  139.1014  159.8315 C   0  0  0  0  0  0  0  0  0  0  0  0
  127.9068  135.1859  160.5492 O   0  0  0  0  0  0  0  0  0  0  0  0
  125.7818  137.1508  163.9467 C   0  0  0  0  0  0  0  0  0  0  0  0
  127.0965  137.4596  168.5086 H   0  0  0  0  0  0  0  0  0  0  0  0
  125.5374  138.0579  166.7029 H   0  0  0  0  0  0  0  0  0  0  0  0
  129.3850  135.1378  165.7585 H   0  0  0  0  0  0  0  0  0  0  0  0
  127.2847  134.7113  163.3595 H   0  0  0  0  0  0  0  0  0  0  0  0
  128.6719  135.8036  163.0678 H   0  0  0  0  0  0  0  0  0  0  0  0
  127.2835  137.5975  162.4262 H   0  0  0  0  0  0  0  0  0  0  0  0
  125.0392  136.3179  161.5757 H   0  0  0  0  0  0  0  0  0  0  0  0
  124.9618  133.8642  160.3179 H   0  0  0  0  0  0  0  0  0  0  0  0
  126.8689  132.6014  158.8921 H   0  0  0  0  0  0  0  0  0  0  0  0
  132.6950  134.1717  158.6128 H   0  0  0  0  0  0  0  0  0  0  0  0
  130.5820  135.4937  161.2459 H   0  0  0  0  0  0  0  0  0  0  0  0
  130.2307  136.5361  159.8465 H   0  0  0  0  0  0  0  0  0  0  0  0
  132.1611  137.1092  162.0526 H   0  0  0  0  0  0  0  0  0  0  0  0
  131.8098  138.1516  160.6531 H   0  0  0  0  0  0  0  0  0  0  0  0
  134.8916  139.0680  162.5320 H   0  0  0  0  0  0  0  0  0  0  0  0
  133.1863  139.5262  162.1836 H   0  0  0  0  0  0  0  0  0  0  0  0
  134.8654  141.0752  160.7643 H   0  0  0  0  0  0  0  0  0  0  0  0
  132.6540  139.7559  159.4965 H   0  0  0  0  0  0  0  0  0  0  0  0
  134.0489  140.1620  158.3967 H   0  0  0  0  0  0  0  0  0  0  0  0
  134.3078  137.5323  158.7481 H   0  0  0  0  0  0  0  0  0  0  0  0
  136.0506  139.5378  158.9400 H   0  0  0  0  0  0  0  0  0  0  0  0
  136.3218  138.6144  160.4875 H   0  0  0  0  0  0  0  0  0  0  0  0
  125.5039  138.2004  163.8497 H   0  0  0  0  0  0  0  0  0  0  0  0
  124.8908  136.5230  163.9491 H   0  0  0  0  0  0  0  0  0  0  0  0
  1  2  1  0
  2  7  2  0
  2  3  1  0
  3  4  2  0
  3 35  1  0
  4  5  1  0
  4 36  1  0
  5 34  1  0
  5  6  2  0
  6  7  1  0
  6  8  1  0
  7 37  1  0
  8  9  1  0
  8 38  1  0
  8 39  1  0
  9 10  1  0
  9 34  1  0
  9 40  1  6
 10 11  1  0
 10 41  1  0
 11 33  1  0
 11 12  2  0
 12 13  1  0
 12 42  1  0
 13 14  2  0
 13 43  1  0
 14 15  1  0
 14 33  1  0
 15 20  1  0
 15 16  2  0
 16 17  1  0
 17 18  1  0
 17 19  1  0
 19 20  2  0
 19 44  1  0
 20 21  1  0
 21 22  1  0
 21 45  1  0
 21 46  1  0
 22 23  1  0
 22 24  1  0
 22 25  1  0
 25 26  1  0
 25 47  1  0
 25 48  1  0
 26 27  1  1
 26 31  1  0
 26 28  1  0
 28 29  1  0
 28 49  1  0
 28 50  1  0
 29 32  1  0
 29 30  1  0
 29 51  1  1
 30 31  1  0
 30 52  1  0
 30 53  1  0
 31 32  1  0
 31 54  1  6
 32 55  1  0
 32 56  1  0
 34 57  1  0
 34 58  1  0
M  CHG  1  22   1
M  END
>  <DOCK_score>  (1) 
-48.698856

>  <SMILES>  (1) 
Clc1ccc2c(c1)CC(Nc1ccc(-c3n[nH]cc3C[NH2+]C[C@@H]3CC4CC3C4)o1)C2

$$$$
