CCc1ccc(CCSc2cc(Nc3[nH]cc(-c4ccc(CC)cc4)[nH+]3)c(F)cc2O)cc1
     RDKit          3D

 62 65  0  0  1  0  0  0  0  0999 V2000
  135.5995  141.3074  165.4133 C   0  0  0  0  0  0  0  0  0  0  0  0
  135.1836  140.2298  164.4098 C   0  0  0  0  0  0  0  0  0  0  0  0
  133.7241  140.3940  164.0723 C   0  0  0  0  0  0  0  0  0  0  0  0
  133.3456  141.1985  163.0138 C   0  0  0  0  0  0  0  0  0  0  0  0
  132.0069  141.3495  162.7046 C   0  0  0  0  0  0  0  0  0  0  0  0
  131.0465  140.6960  163.4537 C   0  0  0  0  0  0  0  0  0  0  0  0
  129.5869  140.8609  163.1170 C   0  0  0  0  0  0  0  0  0  0  0  0
  129.1685  139.7794  162.1189 C   0  0  0  0  0  0  0  0  0  0  0  0
  129.4386  138.1424  162.8524 S   0  0  0  0  0  0  0  0  0  0  0  0
  128.9092  137.0453  161.5793 C   0  0  0  0  0  0  0  0  0  0  0  0
  129.8147  136.5957  160.6290 C   0  0  0  0  0  0  0  0  0  0  0  0
  129.3941  135.7360  159.6244 C   0  0  0  0  0  0  0  0  0  0  0  0
  130.3060  135.2853  158.6604 N   0  0  0  0  0  0  0  0  0  0  0  0
  130.1367  134.0417  158.0751 C   0  0  0  0  0  0  0  0  0  0  0  0
  129.5651  132.9575  158.6674 N   0  0  0  0  0  0  0  0  0  0  0  0
  129.2057  132.9174  159.5675 H   0  0  0  0  0  0  0  0  0  0  0  0
  129.5908  131.9311  157.7553 C   0  0  0  0  0  0  0  0  0  0  0  0
  130.1768  132.4167  156.6327 C   0  0  0  0  0  0  0  0  0  0  0  0
  130.4209  131.6619  155.3792 C   0  0  0  0  0  0  0  0  0  0  0  0
  129.8518  132.0919  154.1818 C   0  0  0  0  0  0  0  0  0  0  0  0
  130.0827  131.3860  153.0185 C   0  0  0  0  0  0  0  0  0  0  0  0
  130.8767  130.2533  153.0398 C   0  0  0  0  0  0  0  0  0  0  0  0
  131.1247  129.4865  151.7664 C   0  0  0  0  0  0  0  0  0  0  0  0
  130.0412  128.4204  151.5935 C   0  0  0  0  0  0  0  0  0  0  0  0
  131.4394  129.8189  154.2263 C   0  0  0  0  0  0  0  0  0  0  0  0
  131.2204  130.5204  155.3944 C   0  0  0  0  0  0  0  0  0  0  0  0
  130.5055  133.7127  156.8609 N   0  0  0  0  0  0  0  0  0  0  0  0
  130.9415  134.3025  156.2262 H   0  0  0  0  0  0  0  0  0  0  0  0
  128.0692  135.3168  159.5776 C   0  0  0  0  0  0  0  0  0  0  0  0
  127.6618  134.4752  158.6024 F   0  0  0  0  0  0  0  0  0  0  0  0
  127.1675  135.7602  160.5287 C   0  0  0  0  0  0  0  0  0  0  0  0
  127.5827  136.6231  161.5298 C   0  0  0  0  0  0  0  0  0  0  0  0
  126.6945  137.0587  162.4643 O   0  0  0  0  0  0  0  0  0  0  0  0
  131.4245  139.8956  164.5155 C   0  0  0  0  0  0  0  0  0  0  0  0
  132.7637  139.7404  164.8215 C   0  0  0  0  0  0  0  0  0  0  0  0
  135.0034  141.2084  166.3205 H   0  0  0  0  0  0  0  0  0  0  0  0
  136.6551  141.1886  165.6573 H   0  0  0  0  0  0  0  0  0  0  0  0
  135.4360  142.2928  164.9770 H   0  0  0  0  0  0  0  0  0  0  0  0
  135.3470  139.2445  164.8462 H   0  0  0  0  0  0  0  0  0  0  0  0
  135.7796  140.3289  163.5026 H   0  0  0  0  0  0  0  0  0  0  0  0
  134.0960  141.7095  162.4286 H   0  0  0  0  0  0  0  0  0  0  0  0
  131.7111  141.9783  161.8778 H   0  0  0  0  0  0  0  0  0  0  0  0
  129.4247  141.8445  162.6761 H   0  0  0  0  0  0  0  0  0  0  0  0
  128.9915  140.7671  164.0251 H   0  0  0  0  0  0  0  0  0  0  0  0
  129.7638  139.8733  161.2107 H   0  0  0  0  0  0  0  0  0  0  0  0
  128.1128  139.8986  161.8752 H   0  0  0  0  0  0  0  0  0  0  0  0
  130.8447  136.9178  160.6688 H   0  0  0  0  0  0  0  0  0  0  0  0
  131.0557  135.8444  158.4033 H   0  0  0  0  0  0  0  0  0  0  0  0
  129.2159  130.9292  157.9035 H   0  0  0  0  0  0  0  0  0  0  0  0
  129.2312  132.9756  154.1642 H   0  0  0  0  0  0  0  0  0  0  0  0
  129.6423  131.7183  152.0901 H   0  0  0  0  0  0  0  0  0  0  0  0
  132.1022  129.0066  151.8158 H   0  0  0  0  0  0  0  0  0  0  0  0
  131.0990  130.1716  150.9187 H   0  0  0  0  0  0  0  0  0  0  0  0
  130.0670  127.7356  152.4411 H   0  0  0  0  0  0  0  0  0  0  0  0
  129.0638  128.9004  151.5440 H   0  0  0  0  0  0  0  0  0  0  0  0
  130.2207  127.8658  150.6725 H   0  0  0  0  0  0  0  0  0  0  0  0
  132.0546  128.9314  154.2378 H   0  0  0  0  0  0  0  0  0  0  0  0
  131.6642  130.1831  156.3195 H   0  0  0  0  0  0  0  0  0  0  0  0
  126.1388  135.4334  160.4905 H   0  0  0  0  0  0  0  0  0  0  0  0
  125.7993  136.7120  162.3477 H   0  0  0  0  0  0  0  0  0  0  0  0
  130.6740  139.3885  165.1037 H   0  0  0  0  0  0  0  0  0  0  0  0
  133.0592  139.1122  165.6489 H   0  0  0  0  0  0  0  0  0  0  0  0
  1  2  1  0
  1 36  1  0
  1 37  1  0
  1 38  1  0
  2  3  1  0
  2 39  1  0
  2 40  1  0
  3 35  2  0
  3  4  1  0
  4  5  2  0
  4 41  1  0
  5  6  1  0
  5 42  1  0
  6  7  1  0
  6 34  2  0
  7  8  1  0
  7 43  1  0
  7 44  1  0
  8  9  1  0
  8 45  1  0
  8 46  1  0
  9 10  1  0
 10 32  1  0
 10 11  2  0
 11 12  1  0
 11 47  1  0
 12 13  1  0
 12 29  2  0
 13 48  1  0
 14 13  1  0
 14 27  2  0
 14 15  1  0
 15 16  1  0
 15 17  1  0
 17 18  2  0
 17 49  1  0
 18 19  1  0
 18 27  1  0
 19 26  1  0
 19 20  2  0
 20 21  1  0
 20 50  1  0
 21 22  2  0
 21 51  1  0
 22 23  1  0
 22 25  1  0
 23 24  1  0
 23 52  1  0
 23 53  1  0
 24 54  1  0
 24 55  1  0
 24 56  1  0
 25 26  2  0
 25 57  1  0
 26 58  1  0
 27 28  1  0
 29 30  1  0
 29 31  1  0
 31 32  2  0
 31 59  1  0
 32 33  1  0
 33 60  1  0
 34 35  1  0
 34 61  1  0
 35 62  1  0
M  CHG  1  27   1
M  END
>  <DOCK_score>  (1) 
-61.42765

>  <SMILES>  (1) 
CCc1ccc(CCSc2cc(Nc3[nH]cc(-c4ccc(CC)cc4)[nH+]3)c(F)cc2O)cc1

$$$$
