Oc1ccc(-c2ccc(-c3c[nH]c(N[C@H]4c5ccccc5-c5ccc(O)cc54)[nH+]3)cc2)cc1
     RDKit          3D

 55 60  0  0  1  0  0  0  0  0999 V2000
  136.7556  142.6894  166.4394 O   0  0  0  0  0  0  0  0  0  0  0  0
  136.1250  141.7289  165.7140 C   0  0  0  0  0  0  0  0  0  0  0  0
  135.4701  140.6899  166.3616 C   0  0  0  0  0  0  0  0  0  0  0  0
  134.8334  139.7111  165.6283 C   0  0  0  0  0  0  0  0  0  0  0  0
  134.8390  139.7708  164.2353 C   0  0  0  0  0  0  0  0  0  0  0  0
  134.1504  138.7230  163.4440 C   0  0  0  0  0  0  0  0  0  0  0  0
  133.5988  139.0368  162.2019 C   0  0  0  0  0  0  0  0  0  0  0  0
  132.9633  138.0625  161.4644 C   0  0  0  0  0  0  0  0  0  0  0  0
  132.8616  136.7643  161.9648 C   0  0  0  0  0  0  0  0  0  0  0  0
  132.1719  135.7170  161.1740 C   0  0  0  0  0  0  0  0  0  0  0  0
  131.5056  134.6469  161.6755 C   0  0  0  0  0  0  0  0  0  0  0  0
  131.0204  133.9408  160.6019 N   0  0  0  0  0  0  0  0  0  0  0  0
  130.4983  133.1241  160.6399 H   0  0  0  0  0  0  0  0  0  0  0  0
  131.4123  134.5950  159.4746 C   0  0  0  0  0  0  0  0  0  0  0  0
  131.1309  134.2045  158.1767 N   0  0  0  0  0  0  0  0  0  0  0  0
  129.8987  133.4680  157.8842 C   0  0  1  0  0  0  0  0  0  0  0  0
  129.5606  133.6902  156.8720 H   0  0  0  0  0  0  0  0  0  0  0  0
  130.1300  131.9851  158.0409 C   0  0  0  0  0  0  0  0  0  0  0  0
  130.9820  131.1077  157.4063 C   0  0  0  0  0  0  0  0  0  0  0  0
  130.9863  129.7693  157.7569 C   0  0  0  0  0  0  0  0  0  0  0  0
  130.1366  129.3087  158.7466 C   0  0  0  0  0  0  0  0  0  0  0  0
  129.2809  130.1792  159.3886 C   0  0  0  0  0  0  0  0  0  0  0  0
  129.2708  131.5312  159.0398 C   0  0  0  0  0  0  0  0  0  0  0  0
  128.4686  132.6675  159.5565 C   0  0  0  0  0  0  0  0  0  0  0  0
  127.4846  132.7222  160.5463 C   0  0  0  0  0  0  0  0  0  0  0  0
  126.8762  133.9211  160.8487 C   0  0  0  0  0  0  0  0  0  0  0  0
  127.2381  135.0782  160.1719 C   0  0  0  0  0  0  0  0  0  0  0  0
  126.6360  136.2584  160.4733 O   0  0  0  0  0  0  0  0  0  0  0  0
  128.2163  135.0290  159.1875 C   0  0  0  0  0  0  0  0  0  0  0  0
  128.8264  133.8320  158.8819 C   0  0  0  0  0  0  0  0  0  0  0  0
  132.1000  135.6559  159.8204 N   0  0  0  0  0  0  0  0  0  0  0  0
  132.4943  136.2952  159.2067 H   0  0  0  0  0  0  0  0  0  0  0  0
  133.4086  136.4519  163.2094 C   0  0  0  0  0  0  0  0  0  0  0  0
  134.0490  137.4251  163.9440 C   0  0  0  0  0  0  0  0  0  0  0  0
  135.4975  140.8156  163.5882 C   0  0  0  0  0  0  0  0  0  0  0  0
  136.1366  141.7888  164.3271 C   0  0  0  0  0  0  0  0  0  0  0  0
  136.6936  142.5639  167.3962 H   0  0  0  0  0  0  0  0  0  0  0  0
  135.4634  140.6460  167.4407 H   0  0  0  0  0  0  0  0  0  0  0  0
  134.3276  138.9009  166.1325 H   0  0  0  0  0  0  0  0  0  0  0  0
  133.6734  140.0431  161.8167 H   0  0  0  0  0  0  0  0  0  0  0  0
  132.5396  138.3045  160.5010 H   0  0  0  0  0  0  0  0  0  0  0  0
  131.3789  134.3991  162.7190 H   0  0  0  0  0  0  0  0  0  0  0  0
  131.7495  134.4185  157.4609 H   0  0  0  0  0  0  0  0  0  0  0  0
  131.6464  131.4653  156.6336 H   0  0  0  0  0  0  0  0  0  0  0  0
  131.6543  129.0832  157.2574 H   0  0  0  0  0  0  0  0  0  0  0  0
  130.1430  128.2631  159.0174 H   0  0  0  0  0  0  0  0  0  0  0  0
  128.6195  129.8155  160.1610 H   0  0  0  0  0  0  0  0  0  0  0  0
  127.2002  131.8243  161.0748 H   0  0  0  0  0  0  0  0  0  0  0  0
  126.1154  133.9608  161.6142 H   0  0  0  0  0  0  0  0  0  0  0  0
  125.9697  136.1932  161.1709 H   0  0  0  0  0  0  0  0  0  0  0  0
  128.4982  135.9288  158.6610 H   0  0  0  0  0  0  0  0  0  0  0  0
  133.3296  135.4469  163.5970 H   0  0  0  0  0  0  0  0  0  0  0  0
  134.4725  137.1830  164.9076 H   0  0  0  0  0  0  0  0  0  0  0  0
  135.5068  140.8627  162.5092 H   0  0  0  0  0  0  0  0  0  0  0  0
  136.6468  142.5983  163.8262 H   0  0  0  0  0  0  0  0  0  0  0  0
  1  2  1  0
  1 37  1  0
  2 36  2  0
  2  3  1  0
  3  4  2  0
  3 38  1  0
  4  5  1  0
  4 39  1  0
  5  6  1  0
  5 35  2  0
  6 34  1  0
  6  7  2  0
  7  8  1  0
  7 40  1  0
  8  9  2  0
  8 41  1  0
  9 10  1  0
  9 33  1  0
 10 31  1  0
 10 11  2  0
 11 12  1  0
 11 42  1  0
 12 13  1  0
 12 14  1  0
 14 15  1  0
 14 31  2  0
 15 16  1  0
 15 43  1  0
 16 17  1  6
 16 30  1  0
 16 18  1  0
 18 23  1  0
 18 19  2  0
 19 20  1  0
 19 44  1  0
 20 21  2  0
 20 45  1  0
 21 22  1  0
 21 46  1  0
 22 23  2  0
 22 47  1  0
 23 24  1  0
 24 30  2  0
 24 25  1  0
 25 26  2  0
 25 48  1  0
 26 27  1  0
 26 49  1  0
 27 28  1  0
 27 29  2  0
 28 50  1  0
 29 30  1  0
 29 51  1  0
 31 32  1  0
 33 34  2  0
 33 52  1  0
 34 53  1  0
 35 36  1  0
 35 54  1  0
 36 55  1  0
M  CHG  1  31   1
M  END
>  <DOCK_score>  (1) 
-49.514137

>  <SMILES>  (1) 
Oc1ccc(-c2ccc(-c3c[nH]c(N[C@H]4c5ccccc5-c5ccc(O)cc54)[nH+]3)cc2)cc1

$$$$
