CCc1ccc(-c2c[nH]c(N[C@@H](C=Cc3ccccc3F)c3cccc4ccccc34)[nH+]2)cc1
     RDKit          3D

 61 65  0  0  1  0  0  0  0  0999 V2000
  130.2592  128.9557  151.3996 C   0  0  0  0  0  0  0  0  0  0  0  0
  131.5337  129.6161  151.9292 C   0  0  0  0  0  0  0  0  0  0  0  0
  131.2336  130.3162  153.2296 C   0  0  0  0  0  0  0  0  0  0  0  0
  131.3658  129.6341  154.4257 C   0  0  0  0  0  0  0  0  0  0  0  0
  131.0979  130.2718  155.6199 C   0  0  0  0  0  0  0  0  0  0  0  0
  130.6824  131.6022  155.6185 C   0  0  0  0  0  0  0  0  0  0  0  0
  130.3876  132.2914  156.8985 C   0  0  0  0  0  0  0  0  0  0  0  0
  129.9300  131.7063  158.0331 C   0  0  0  0  0  0  0  0  0  0  0  0
  129.7953  132.7027  158.9690 N   0  0  0  0  0  0  0  0  0  0  0  0
  129.4864  132.5952  159.8822 H   0  0  0  0  0  0  0  0  0  0  0  0
  130.1750  133.8686  158.3786 C   0  0  0  0  0  0  0  0  0  0  0  0
  130.1860  135.1132  158.9847 N   0  0  0  0  0  0  0  0  0  0  0  0
  129.7637  135.2519  160.3806 C   0  0  1  0  0  0  0  0  0  0  0  0
  130.1425  134.4101  160.9601 H   0  0  0  0  0  0  0  0  0  0  0  0
  130.3108  136.5375  160.9455 C   0  0  0  0  0  0  0  0  0  0  0  0
  131.4981  136.5501  161.5353 C   0  0  0  0  0  0  0  0  0  0  0  0
  132.0347  137.8107  162.0894 C   0  0  0  0  0  0  0  0  0  0  0  0
  132.3383  137.9061  163.4480 C   0  0  0  0  0  0  0  0  0  0  0  0
  132.8390  139.0855  163.9593 C   0  0  0  0  0  0  0  0  0  0  0  0
  133.0398  140.1746  163.1281 C   0  0  0  0  0  0  0  0  0  0  0  0
  132.7421  140.0885  161.7813 C   0  0  0  0  0  0  0  0  0  0  0  0
  132.2456  138.9109  161.2541 C   0  0  0  0  0  0  0  0  0  0  0  0
  131.9597  138.8260  159.9366 F   0  0  0  0  0  0  0  0  0  0  0  0
  128.2585  135.2731  160.4502 C   0  0  0  0  0  0  0  0  0  0  0  0
  127.5193  135.1703  159.3118 C   0  0  0  0  0  0  0  0  0  0  0  0
  126.1268  135.1833  159.3568 C   0  0  0  0  0  0  0  0  0  0  0  0
  125.4650  135.3087  160.5396 C   0  0  0  0  0  0  0  0  0  0  0  0
  126.1940  135.4224  161.7355 C   0  0  0  0  0  0  0  0  0  0  0  0
  125.5459  135.5530  162.9755 C   0  0  0  0  0  0  0  0  0  0  0  0
  126.2848  135.6603  164.1134 C   0  0  0  0  0  0  0  0  0  0  0  0
  127.6777  135.6434  164.0688 C   0  0  0  0  0  0  0  0  0  0  0  0
  128.3397  135.5180  162.8863 C   0  0  0  0  0  0  0  0  0  0  0  0
  127.6107  135.4046  161.6901 C   0  0  0  0  0  0  0  0  0  0  0  0
  130.5338  133.6179  157.1431 N   0  0  0  0  0  0  0  0  0  0  0  0
  130.8508  134.2760  156.5049 H   0  0  0  0  0  0  0  0  0  0  0  0
  130.5456  132.2827  154.4099 C   0  0  0  0  0  0  0  0  0  0  0  0
  130.8217  131.6367  153.2221 C   0  0  0  0  0  0  0  0  0  0  0  0
  130.4763  128.4492  150.4591 H   0  0  0  0  0  0  0  0  0  0  0  0
  129.8966  128.2300  152.1277 H   0  0  0  0  0  0  0  0  0  0  0  0
  129.4969  129.7170  151.2349 H   0  0  0  0  0  0  0  0  0  0  0  0
  132.2961  128.8547  152.0939 H   0  0  0  0  0  0  0  0  0  0  0  0
  131.8964  130.3418  151.2011 H   0  0  0  0  0  0  0  0  0  0  0  0
  131.6832  128.6018  154.4253 H   0  0  0  0  0  0  0  0  0  0  0  0
  131.2059  129.7398  156.5536 H   0  0  0  0  0  0  0  0  0  0  0  0
  129.7127  130.6578  158.1736 H   0  0  0  0  0  0  0  0  0  0  0  0
  130.4736  135.8934  158.4851 H   0  0  0  0  0  0  0  0  0  0  0  0
  129.7357  137.4486  160.8699 H   0  0  0  0  0  0  0  0  0  0  0  0
  132.0732  135.6391  161.6109 H   0  0  0  0  0  0  0  0  0  0  0  0
  132.1822  137.0578  164.0980 H   0  0  0  0  0  0  0  0  0  0  0  0
  133.0741  139.1597  165.0106 H   0  0  0  0  0  0  0  0  0  0  0  0
  133.4317  141.0950  163.5352 H   0  0  0  0  0  0  0  0  0  0  0  0
  132.9015  140.9418  161.1387 H   0  0  0  0  0  0  0  0  0  0  0  0
  128.0199  135.0737  158.3595 H   0  0  0  0  0  0  0  0  0  0  0  0
  125.5639  135.0963  158.4390 H   0  0  0  0  0  0  0  0  0  0  0  0
  124.3853  135.3202  160.5591 H   0  0  0  0  0  0  0  0  0  0  0  0
  124.4672  135.5685  163.0255 H   0  0  0  0  0  0  0  0  0  0  0  0
  125.7843  135.7605  165.0652 H   0  0  0  0  0  0  0  0  0  0  0  0
  128.2404  135.7307  164.9866 H   0  0  0  0  0  0  0  0  0  0  0  0
  129.4194  135.5056  162.8673 H   0  0  0  0  0  0  0  0  0  0  0  0
  130.2238  133.3138  154.4029 H   0  0  0  0  0  0  0  0  0  0  0  0
  130.7158  132.1629  152.2850 H   0  0  0  0  0  0  0  0  0  0  0  0
  1  2  1  0
  1 38  1  0
  1 39  1  0
  1 40  1  0
  2  3  1  0
  2 41  1  0
  2 42  1  0
  3 37  2  0
  3  4  1  0
  4  5  2  0
  4 43  1  0
  5  6  1  0
  5 44  1  0
  6  7  1  0
  6 36  2  0
  7 34  1  0
  7  8  2  0
  8  9  1  0
  8 45  1  0
  9 10  1  0
  9 11  1  0
 11 12  1  0
 11 34  2  0
 12 13  1  0
 12 46  1  0
 13 14  1  1
 13 15  1  0
 13 24  1  0
 15 16  2  0
 15 47  1  0
 16 17  1  0
 16 48  1  0
 17 22  1  0
 17 18  2  0
 18 19  1  0
 18 49  1  0
 19 20  2  0
 19 50  1  0
 20 21  1  0
 20 51  1  0
 21 22  2  0
 21 52  1  0
 22 23  1  0
 24 33  1  0
 24 25  2  0
 25 26  1  0
 25 53  1  0
 26 27  2  0
 26 54  1  0
 27 28  1  0
 27 55  1  0
 28 33  2  0
 28 29  1  0
 29 30  2  0
 29 56  1  0
 30 31  1  0
 30 57  1  0
 31 32  2  0
 31 58  1  0
 32 33  1  0
 32 59  1  0
 34 35  1  0
 36 37  1  0
 36 60  1  0
 37 61  1  0
M  CHG  1  34   1
M  END
>  <DOCK_score>  (1) 
-59.444344

>  <SMILES>  (1) 
CCc1ccc(-c2c[nH]c(N[C@@H](C=Cc3ccccc3F)c3cccc4ccccc34)[nH+]2)cc1

$$$$
