Nc1cccc([C@H]([NH2+]Cc2cccc3ccccc23)c2cnn3c2CCCC3)c1
     RDKit          3D

 56 60  0  0  1  0  0  0  0  0999 V2000
  126.1881  135.9681  162.5300 N   0  0  0  0  0  0  0  0  0  0  0  0
  127.4927  135.5231  162.3043 C   0  0  0  0  0  0  0  0  0  0  0  0
  128.0553  134.5642  163.1377 C   0  0  0  0  0  0  0  0  0  0  0  0
  129.3453  134.1266  162.9118 C   0  0  0  0  0  0  0  0  0  0  0  0
  130.0771  134.6416  161.8571 C   0  0  0  0  0  0  0  0  0  0  0  0
  129.5201  135.5955  161.0255 C   0  0  0  0  0  0  0  0  0  0  0  0
  130.3212  136.1532  159.8776 C   0  0  2  0  0  0  0  0  0  0  0  0
  129.7216  136.8868  159.3387 H   0  0  0  0  0  0  0  0  0  0  0  0
  130.6963  135.0634  158.9669 N   0  0  0  0  0  0  0  0  0  0  0  0
  131.2514  134.3843  159.4657 H   0  0  0  0  0  0  0  0  0  0  0  0
  131.2328  135.4368  158.1982 H   0  0  0  0  0  0  0  0  0  0  0  0
  129.4824  134.4183  158.4490 C   0  0  0  0  0  0  0  0  0  0  0  0
  129.8672  133.3002  157.5147 C   0  0  0  0  0  0  0  0  0  0  0  0
  130.0280  133.5443  156.1852 C   0  0  0  0  0  0  0  0  0  0  0  0
  130.3842  132.5235  155.3064 C   0  0  0  0  0  0  0  0  0  0  0  0
  130.5801  131.2520  155.7514 C   0  0  0  0  0  0  0  0  0  0  0  0
  130.4226  130.9616  157.1170 C   0  0  0  0  0  0  0  0  0  0  0  0
  130.6173  129.6614  157.6140 C   0  0  0  0  0  0  0  0  0  0  0  0
  130.4569  129.4177  158.9432 C   0  0  0  0  0  0  0  0  0  0  0  0
  130.1011  130.4389  159.8225 C   0  0  0  0  0  0  0  0  0  0  0  0
  129.9043  131.7099  159.3774 C   0  0  0  0  0  0  0  0  0  0  0  0
  130.0613  132.0003  158.0113 C   0  0  0  0  0  0  0  0  0  0  0  0
  131.5666  136.8152  160.4087 C   0  0  0  0  0  0  0  0  0  0  0  0
  132.8857  136.4625  160.0965 C   0  0  0  0  0  0  0  0  0  0  0  0
  133.6903  137.2645  160.7494 N   0  0  0  0  0  0  0  0  0  0  0  0
  132.9098  138.1507  161.4950 N   0  0  0  0  0  0  0  0  0  0  0  0
  131.6097  137.8554  161.2640 C   0  0  0  0  0  0  0  0  0  0  0  0
  130.4473  138.5829  161.8932 C   0  0  0  0  0  0  0  0  0  0  0  0
  130.9778  139.4010  163.0781 C   0  0  0  0  0  0  0  0  0  0  0  0
  132.2116  140.1912  162.6321 C   0  0  0  0  0  0  0  0  0  0  0  0
  133.3740  139.2260  162.3763 C   0  0  0  0  0  0  0  0  0  0  0  0
  128.2323  136.0418  161.2493 C   0  0  0  0  0  0  0  0  0  0  0  0
  125.6738  135.6077  163.2694 H   0  0  0  0  0  0  0  0  0  0  0  0
  125.7964  136.6374  161.9476 H   0  0  0  0  0  0  0  0  0  0  0  0
  127.4845  134.1621  163.9615 H   0  0  0  0  0  0  0  0  0  0  0  0
  129.7833  133.3816  163.5594 H   0  0  0  0  0  0  0  0  0  0  0  0
  131.0858  134.2974  161.6827 H   0  0  0  0  0  0  0  0  0  0  0  0
  128.8828  135.1519  157.9101 H   0  0  0  0  0  0  0  0  0  0  0  0
  128.9030  134.0147  159.2793 H   0  0  0  0  0  0  0  0  0  0  0  0
  129.8782  134.5444  155.8060 H   0  0  0  0  0  0  0  0  0  0  0  0
  130.5058  132.7440  154.2561 H   0  0  0  0  0  0  0  0  0  0  0  0
  130.8593  130.4716  155.0591 H   0  0  0  0  0  0  0  0  0  0  0  0
  130.8925  128.8599  156.9445 H   0  0  0  0  0  0  0  0  0  0  0  0
  130.6071  128.4176  159.3225 H   0  0  0  0  0  0  0  0  0  0  0  0
  129.9794  130.2184  160.8726 H   0  0  0  0  0  0  0  0  0  0  0  0
  129.6285  132.4910  160.0703 H   0  0  0  0  0  0  0  0  0  0  0  0
  133.1877  135.6666  159.4320 H   0  0  0  0  0  0  0  0  0  0  0  0
  129.7070  137.8642  162.2445 H   0  0  0  0  0  0  0  0  0  0  0  0
  129.9943  139.2496  161.1594 H   0  0  0  0  0  0  0  0  0  0  0  0
  131.2503  138.7289  163.8918 H   0  0  0  0  0  0  0  0  0  0  0  0
  130.2062  140.0918  163.4181 H   0  0  0  0  0  0  0  0  0  0  0  0
  132.4917  140.8981  163.4131 H   0  0  0  0  0  0  0  0  0  0  0  0
  131.9828  140.7350  161.7157 H   0  0  0  0  0  0  0  0  0  0  0  0
  133.7123  138.8027  163.3221 H   0  0  0  0  0  0  0  0  0  0  0  0
  134.1964  139.7595  161.8998 H   0  0  0  0  0  0  0  0  0  0  0  0
  127.7994  136.7902  160.6021 H   0  0  0  0  0  0  0  0  0  0  0  0
  1  2  1  0
  1 33  1  0
  1 34  1  0
  2 32  2  0
  2  3  1  0
  3  4  2  0
  3 35  1  0
  4  5  1  0
  4 36  1  0
  5  6  2  0
  5 37  1  0
  6  7  1  0
  6 32  1  0
  7  8  1  6
  7  9  1  0
  7 23  1  0
  9 10  1  0
  9 11  1  0
  9 12  1  0
 12 13  1  0
 12 38  1  0
 12 39  1  0
 13 22  1  0
 13 14  2  0
 14 15  1  0
 14 40  1  0
 15 16  2  0
 15 41  1  0
 16 17  1  0
 16 42  1  0
 17 22  2  0
 17 18  1  0
 18 19  2  0
 18 43  1  0
 19 20  1  0
 19 44  1  0
 20 21  2  0
 20 45  1  0
 21 22  1  0
 21 46  1  0
 23 27  2  0
 23 24  1  0
 24 25  2  0
 24 47  1  0
 25 26  1  0
 26 31  1  0
 26 27  1  0
 27 28  1  0
 28 29  1  0
 28 48  1  0
 28 49  1  0
 29 30  1  0
 29 50  1  0
 29 51  1  0
 30 31  1  0
 30 52  1  0
 30 53  1  0
 31 54  1  0
 31 55  1  0
 32 56  1  0
M  CHG  1   9   1
M  END
>  <DOCK_score>  (1) 
-47.41621

>  <SMILES>  (1) 
Nc1cccc([C@H]([NH2+]Cc2cccc3ccccc23)c2cnn3c2CCCC3)c1

$$$$
