C1=C(CCNc2ccc(-c3n[nH]cc3C[NH2+]Cc3ccccc3)o2)CCOC1
     RDKit          3D

 55 58  0  0  0  0  0  0  0  0999 V2000
  127.9373  139.1286  165.3861 C   0  0  0  0  0  0  0  0  0  0  0  0
  127.2901  139.3605  164.2830 C   0  0  0  0  0  0  0  0  0  0  0  0
  126.4073  138.2770  163.7192 C   0  0  0  0  0  0  0  0  0  0  0  0
  127.2223  137.3991  162.7674 C   0  0  0  0  0  0  0  0  0  0  0  0
  126.3642  136.3457  162.2194 N   0  0  0  0  0  0  0  0  0  0  0  0
  126.8865  135.4192  161.3243 C   0  0  0  0  0  0  0  0  0  0  0  0
  126.2024  134.3972  160.7523 C   0  0  0  0  0  0  0  0  0  0  0  0
  127.1083  133.7115  159.9193 C   0  0  0  0  0  0  0  0  0  0  0  0
  128.3026  134.3514  160.0253 C   0  0  0  0  0  0  0  0  0  0  0  0
  129.5492  133.9789  159.3251 C   0  0  0  0  0  0  0  0  0  0  0  0
  129.6988  132.9699  158.4898 N   0  0  0  0  0  0  0  0  0  0  0  0
  131.0281  132.9641  158.0486 N   0  0  0  0  0  0  0  0  0  0  0  0
  131.4184  132.3300  157.4270 H   0  0  0  0  0  0  0  0  0  0  0  0
  131.6728  133.9939  158.6390 C   0  0  0  0  0  0  0  0  0  0  0  0
  130.7912  134.6398  159.4318 C   0  0  0  0  0  0  0  0  0  0  0  0
  131.0821  135.8511  160.2799 C   0  0  0  0  0  0  0  0  0  0  0  0
  130.8289  137.0687  159.4980 N   0  0  0  0  0  0  0  0  0  0  0  0
  131.4262  137.0763  158.6848 H   0  0  0  0  0  0  0  0  0  0  0  0
  129.8633  137.0863  159.2061 H   0  0  0  0  0  0  0  0  0  0  0  0
  131.1124  138.2493  160.3247 C   0  0  0  0  0  0  0  0  0  0  0  0
  132.5547  138.2230  160.7605 C   0  0  0  0  0  0  0  0  0  0  0  0
  132.9079  137.6027  161.9443 C   0  0  0  0  0  0  0  0  0  0  0  0
  134.2315  137.5744  162.3417 C   0  0  0  0  0  0  0  0  0  0  0  0
  135.2009  138.1750  161.5602 C   0  0  0  0  0  0  0  0  0  0  0  0
  134.8469  138.8002  160.3793 C   0  0  0  0  0  0  0  0  0  0  0  0
  133.5240  138.8241  159.9793 C   0  0  0  0  0  0  0  0  0  0  0  0
  128.1559  135.3820  160.8845 O   0  0  0  0  0  0  0  0  0  0  0  0
  127.3837  140.6710  163.5511 C   0  0  0  0  0  0  0  0  0  0  0  0
  127.9737  141.7365  164.4792 C   0  0  0  0  0  0  0  0  0  0  0  0
  129.1402  141.1919  165.1086 O   0  0  0  0  0  0  0  0  0  0  0  0
  128.8391  140.1425  166.0308 C   0  0  0  0  0  0  0  0  0  0  0  0
  127.8250  138.1636  165.8578 H   0  0  0  0  0  0  0  0  0  0  0  0
  125.5783  138.7299  163.1755 H   0  0  0  0  0  0  0  0  0  0  0  0
  126.0174  137.6659  164.5332 H   0  0  0  0  0  0  0  0  0  0  0  0
  128.0513  136.9461  163.3111 H   0  0  0  0  0  0  0  0  0  0  0  0
  127.6123  138.0103  161.9534 H   0  0  0  0  0  0  0  0  0  0  0  0
  125.4316  136.2948  162.4810 H   0  0  0  0  0  0  0  0  0  0  0  0
  125.1611  134.1553  160.9060 H   0  0  0  0  0  0  0  0  0  0  0  0
  126.8947  132.8435  159.3131 H   0  0  0  0  0  0  0  0  0  0  0  0
  132.7116  134.2549  158.5011 H   0  0  0  0  0  0  0  0  0  0  0  0
  130.4370  135.8428  161.1585 H   0  0  0  0  0  0  0  0  0  0  0  0
  132.1253  135.8320  160.5950 H   0  0  0  0  0  0  0  0  0  0  0  0
  130.9247  139.1528  159.7443 H   0  0  0  0  0  0  0  0  0  0  0  0
  130.4673  138.2411  161.2032 H   0  0  0  0  0  0  0  0  0  0  0  0
  132.1500  137.1370  162.5569 H   0  0  0  0  0  0  0  0  0  0  0  0
  134.5080  137.0861  163.2645 H   0  0  0  0  0  0  0  0  0  0  0  0
  136.2346  138.1561  161.8725 H   0  0  0  0  0  0  0  0  0  0  0  0
  135.6041  139.2698  159.7689 H   0  0  0  0  0  0  0  0  0  0  0  0
  133.2475  139.3125  159.0566 H   0  0  0  0  0  0  0  0  0  0  0  0
  128.0258  140.5541  162.6781 H   0  0  0  0  0  0  0  0  0  0  0  0
  126.3886  140.9796  163.2306 H   0  0  0  0  0  0  0  0  0  0  0  0
  128.2472  142.6179  163.8992 H   0  0  0  0  0  0  0  0  0  0  0  0
  127.2405  142.0090  165.2383 H   0  0  0  0  0  0  0  0  0  0  0  0
  129.7649  139.6595  166.3434 H   0  0  0  0  0  0  0  0  0  0  0  0
  128.3375  140.5611  166.9033 H   0  0  0  0  0  0  0  0  0  0  0  0
  1 31  1  0
  1  2  2  0
  1 32  1  0
  2  3  1  0
  2 28  1  0
  3  4  1  0
  3 33  1  0
  3 34  1  0
  4  5  1  0
  4 35  1  0
  4 36  1  0
  5  6  1  0
  5 37  1  0
  6 27  1  0
  6  7  2  0
  7  8  1  0
  7 38  1  0
  8  9  2  0
  8 39  1  0
  9 10  1  0
  9 27  1  0
 10 15  1  0
 10 11  2  0
 11 12  1  0
 12 13  1  0
 12 14  1  0
 14 15  2  0
 14 40  1  0
 15 16  1  0
 16 17  1  0
 16 41  1  0
 16 42  1  0
 17 18  1  0
 17 19  1  0
 17 20  1  0
 20 21  1  0
 20 43  1  0
 20 44  1  0
 21 26  1  0
 21 22  2  0
 22 23  1  0
 22 45  1  0
 23 24  2  0
 23 46  1  0
 24 25  1  0
 24 47  1  0
 25 26  2  0
 25 48  1  0
 26 49  1  0
 28 29  1  0
 28 50  1  0
 28 51  1  0
 29 30  1  0
 29 52  1  0
 29 53  1  0
 30 31  1  0
 31 54  1  0
 31 55  1  0
M  CHG  1  17   1
M  END
>  <DOCK_score>  (1) 
-41.384968

>  <SMILES>  (1) 
C1=C(CCNc2ccc(-c3n[nH]cc3C[NH2+]Cc3ccccc3)o2)CCOC1

$$$$
