C1=C(c2ccc(-c3n[nH]cc3C[NH2+]Cc3cc4ccccc4[nH]3)cc2)CCC1
     RDKit          3D

 53 57  0  0  0  0  0  0  0  0999 V2000
  130.4929  130.4245  157.7786 C   0  0  0  0  0  0  0  0  0  0  0  0
  129.9244  131.5740  157.4556 C   0  0  0  0  0  0  0  0  0  0  0  0
  129.2975  132.4999  158.4208 C   0  0  0  0  0  0  0  0  0  0  0  0
  129.7792  133.8042  158.5516 C   0  0  0  0  0  0  0  0  0  0  0  0
  129.1939  134.6668  159.4512 C   0  0  0  0  0  0  0  0  0  0  0  0
  128.1200  134.2379  160.2318 C   0  0  0  0  0  0  0  0  0  0  0  0
  127.4906  135.1677  161.2010 C   0  0  0  0  0  0  0  0  0  0  0  0
  126.2323  135.5551  161.1976 N   0  0  0  0  0  0  0  0  0  0  0  0
  126.0436  136.4309  162.2744 N   0  0  0  0  0  0  0  0  0  0  0  0
  125.2118  136.8696  162.5124 H   0  0  0  0  0  0  0  0  0  0  0  0
  127.2195  136.5544  162.9270 C   0  0  0  0  0  0  0  0  0  0  0  0
  128.1336  135.7932  162.2874 C   0  0  0  0  0  0  0  0  0  0  0  0
  129.5823  135.6358  162.6714 C   0  0  0  0  0  0  0  0  0  0  0  0
  130.3852  136.6560  161.9830 N   0  0  0  0  0  0  0  0  0  0  0  0
  130.0640  137.5742  162.2511 H   0  0  0  0  0  0  0  0  0  0  0  0
  130.2878  136.5437  160.9850 H   0  0  0  0  0  0  0  0  0  0  0  0
  131.7974  136.5026  162.3572 C   0  0  0  0  0  0  0  0  0  0  0  0
  132.6207  137.5489  161.6512 C   0  0  0  0  0  0  0  0  0  0  0  0
  132.8926  138.7713  162.1348 C   0  0  0  0  0  0  0  0  0  0  0  0
  133.7151  139.4548  161.1337 C   0  0  0  0  0  0  0  0  0  0  0  0
  134.2999  140.7204  161.0580 C   0  0  0  0  0  0  0  0  0  0  0  0
  135.0297  141.0656  159.9558 C   0  0  0  0  0  0  0  0  0  0  0  0
  135.1945  140.1680  158.9097 C   0  0  0  0  0  0  0  0  0  0  0  0
  134.6264  138.9143  158.9635 C   0  0  0  0  0  0  0  0  0  0  0  0
  133.8792  138.5415  160.0765 C   0  0  0  0  0  0  0  0  0  0  0  0
  133.2021  137.3936  160.4223 N   0  0  0  0  0  0  0  0  0  0  0  0
  133.1455  136.5940  159.8762 H   0  0  0  0  0  0  0  0  0  0  0  0
  127.6421  132.9342  160.1056 C   0  0  0  0  0  0  0  0  0  0  0  0
  128.2227  132.0719  159.2028 C   0  0  0  0  0  0  0  0  0  0  0  0
  129.9970  131.8088  155.9646 C   0  0  0  0  0  0  0  0  0  0  0  0
  131.0836  130.8270  155.4641 C   0  0  0  0  0  0  0  0  0  0  0  0
  131.0332  129.7288  156.5508 C   0  0  0  0  0  0  0  0  0  0  0  0
  130.5619  130.0357  158.7838 H   0  0  0  0  0  0  0  0  0  0  0  0
  130.6101  134.1364  157.9469 H   0  0  0  0  0  0  0  0  0  0  0  0
  129.5658  135.6756  159.5523 H   0  0  0  0  0  0  0  0  0  0  0  0
  127.3981  137.1577  163.8049 H   0  0  0  0  0  0  0  0  0  0  0  0
  129.9296  134.6443  162.3815 H   0  0  0  0  0  0  0  0  0  0  0  0
  129.6882  135.7574  163.7493 H   0  0  0  0  0  0  0  0  0  0  0  0
  132.1445  135.5107  162.0676 H   0  0  0  0  0  0  0  0  0  0  0  0
  131.9029  136.6238  163.4353 H   0  0  0  0  0  0  0  0  0  0  0  0
  132.5660  139.1746  163.0820 H   0  0  0  0  0  0  0  0  0  0  0  0
  134.1762  141.4238  161.8681 H   0  0  0  0  0  0  0  0  0  0  0  0
  135.4815  142.0449  159.8976 H   0  0  0  0  0  0  0  0  0  0  0  0
  135.7742  140.4555  158.0449 H   0  0  0  0  0  0  0  0  0  0  0  0
  134.7641  138.2214  158.1467 H   0  0  0  0  0  0  0  0  0  0  0  0
  126.8134  132.6021  160.7134 H   0  0  0  0  0  0  0  0  0  0  0  0
  127.8497  131.0632  159.1026 H   0  0  0  0  0  0  0  0  0  0  0  0
  129.0372  131.5867  155.4983 H   0  0  0  0  0  0  0  0  0  0  0  0
  130.2919  132.8373  155.7565 H   0  0  0  0  0  0  0  0  0  0  0  0
  132.0635  131.3038  155.4359 H   0  0  0  0  0  0  0  0  0  0  0  0
  130.8206  130.4219  154.4870 H   0  0  0  0  0  0  0  0  0  0  0  0
  132.0330  129.3400  156.7441 H   0  0  0  0  0  0  0  0  0  0  0  0
  130.3646  128.9238  156.2459 H   0  0  0  0  0  0  0  0  0  0  0  0
  1 32  1  0
  1  2  2  0
  1 33  1  0
  2  3  1  0
  2 30  1  0
  3 29  1  0
  3  4  2  0
  4  5  1  0
  4 34  1  0
  5  6  2  0
  5 35  1  0
  6  7  1  0
  6 28  1  0
  7 12  1  0
  7  8  2  0
  8  9  1  0
  9 10  1  0
  9 11  1  0
 11 12  2  0
 11 36  1  0
 12 13  1  0
 13 14  1  0
 13 37  1  0
 13 38  1  0
 14 15  1  0
 14 16  1  0
 14 17  1  0
 17 18  1  0
 17 39  1  0
 17 40  1  0
 18 26  1  0
 18 19  2  0
 19 20  1  0
 19 41  1  0
 20 25  2  0
 20 21  1  0
 21 22  2  0
 21 42  1  0
 22 23  1  0
 22 43  1  0
 23 24  2  0
 23 44  1  0
 24 25  1  0
 24 45  1  0
 25 26  1  0
 26 27  1  0
 28 29  2  0
 28 46  1  0
 29 47  1  0
 30 31  1  0
 30 48  1  0
 30 49  1  0
 31 32  1  0
 31 50  1  0
 31 51  1  0
 32 52  1  0
 32 53  1  0
M  CHG  1  14   1
M  END
>  <DOCK_score>  (1) 
-41.992001

>  <SMILES>  (1) 
C1=C(c2ccc(-c3n[nH]cc3C[NH2+]Cc3cc4ccccc4[nH]3)cc2)CCC1

$$$$
