CC1(C)C(O)C[C@H]1[NH2+]Cc1c[nH]nc1-c1ccc(NCC2CCC3CC3C2)o1
     RDKit          3D

 61 65  0  0  1  0  0  0  0  0999 V2000
  133.4966  138.1940  162.3037 C   0  0  0  0  0  0  0  0  0  0  0  0
  133.0277  138.4889  160.8775 C   0  0  0  0  0  0  0  0  0  0  0  0
  133.9547  137.8980  159.8133 C   0  0  0  0  0  0  0  0  0  0  0  0
  132.6748  139.9663  160.6381 C   0  0  2  0  0  0  0  0  0  0  0  0
  132.2890  140.6623  161.8251 O   0  0  0  0  0  0  0  0  0  0  0  0
  131.4845  139.4651  159.8034 C   0  0  0  0  0  0  0  0  0  0  0  0
  131.5406  138.1767  160.6410 C   0  0  1  0  0  0  0  0  0  0  0  0
  130.9365  138.2170  161.5474 H   0  0  0  0  0  0  0  0  0  0  0  0
  131.3130  136.9551  159.8576 N   0  0  0  0  0  0  0  0  0  0  0  0
  131.9938  136.9002  159.1149 H   0  0  0  0  0  0  0  0  0  0  0  0
  130.3850  136.9773  159.4622 H   0  0  0  0  0  0  0  0  0  0  0  0
  131.4452  135.7815  160.7311 C   0  0  0  0  0  0  0  0  0  0  0  0
  131.2117  134.5283  159.9274 C   0  0  0  0  0  0  0  0  0  0  0  0
  132.1531  133.8192  159.2684 C   0  0  0  0  0  0  0  0  0  0  0  0
  131.5452  132.7728  158.6687 N   0  0  0  0  0  0  0  0  0  0  0  0
  131.9805  132.0961  158.1269 H   0  0  0  0  0  0  0  0  0  0  0  0
  130.1775  132.8332  158.9649 N   0  0  0  0  0  0  0  0  0  0  0  0
  129.9696  133.8906  159.7244 C   0  0  0  0  0  0  0  0  0  0  0  0
  128.6674  134.3297  160.2672 C   0  0  0  0  0  0  0  0  0  0  0  0
  127.4742  133.7085  160.0737 C   0  0  0  0  0  0  0  0  0  0  0  0
  126.5051  134.4617  160.7656 C   0  0  0  0  0  0  0  0  0  0  0  0
  127.1530  135.5026  161.3457 C   0  0  0  0  0  0  0  0  0  0  0  0
  126.5651  136.4923  162.1250 N   0  0  0  0  0  0  0  0  0  0  0  0
  127.3871  137.2903  163.0382 C   0  0  0  0  0  0  0  0  0  0  0  0
  127.4426  136.6051  164.4050 C   0  0  2  0  0  0  0  0  0  0  0  0
  126.0277  136.4984  164.9851 C   0  0  0  0  0  0  0  0  0  0  0  0
  126.0538  135.5158  166.1560 C   0  0  0  0  0  0  0  0  0  0  0  0
  127.0987  135.9332  167.1788 C   0  0  2  0  0  0  0  0  0  0  0  0
  127.1345  137.3700  167.6826 C   0  0  0  0  0  0  0  0  0  0  0  0
  128.2478  136.8396  166.7661 C   0  0  2  0  0  0  0  0  0  0  0  0
  128.2997  137.4351  165.3608 C   0  0  0  0  0  0  0  0  0  0  0  0
  128.4598  135.4129  161.0449 O   0  0  0  0  0  0  0  0  0  0  0  0
  133.3470  137.1371  162.5243 H   0  0  0  0  0  0  0  0  0  0  0  0
  134.5548  138.4382  162.3962 H   0  0  0  0  0  0  0  0  0  0  0  0
  132.9219  138.7968  163.0071 H   0  0  0  0  0  0  0  0  0  0  0  0
  133.6892  138.3009  158.8360 H   0  0  0  0  0  0  0  0  0  0  0  0
  134.9872  138.1588  160.0456 H   0  0  0  0  0  0  0  0  0  0  0  0
  133.8480  136.8133  159.8003 H   0  0  0  0  0  0  0  0  0  0  0  0
  133.4223  140.5049  160.0557 H   0  0  0  0  0  0  0  0  0  0  0  0
  132.9710  140.6791  162.5105 H   0  0  0  0  0  0  0  0  0  0  0  0
  131.7227  139.3123  158.7508 H   0  0  0  0  0  0  0  0  0  0  0  0
  130.5725  140.0434  159.9523 H   0  0  0  0  0  0  0  0  0  0  0  0
  130.7097  135.8409  161.5334 H   0  0  0  0  0  0  0  0  0  0  0  0
  132.4478  135.7576  161.1583 H   0  0  0  0  0  0  0  0  0  0  0  0
  133.2076  134.0490  159.2276 H   0  0  0  0  0  0  0  0  0  0  0  0
  127.3018  132.8102  159.4996 H   0  0  0  0  0  0  0  0  0  0  0  0
  125.4475  134.2506  160.8228 H   0  0  0  0  0  0  0  0  0  0  0  0
  125.6108  136.6545  162.0642 H   0  0  0  0  0  0  0  0  0  0  0  0
  128.3959  137.3794  162.6351 H   0  0  0  0  0  0  0  0  0  0  0  0
  126.9503  138.2831  163.1468 H   0  0  0  0  0  0  0  0  0  0  0  0
  127.8732  135.6095  164.2981 H   0  0  0  0  0  0  0  0  0  0  0  0
  125.7013  137.4774  165.3363 H   0  0  0  0  0  0  0  0  0  0  0  0
  125.3439  136.1354  164.2178 H   0  0  0  0  0  0  0  0  0  0  0  0
  126.2923  134.5194  165.7839 H   0  0  0  0  0  0  0  0  0  0  0  0
  125.0729  135.4964  166.6311 H   0  0  0  0  0  0  0  0  0  0  0  0
  127.3382  135.1646  167.9136 H   0  0  0  0  0  0  0  0  0  0  0  0
  127.3797  137.5300  168.7326 H   0  0  0  0  0  0  0  0  0  0  0  0
  126.4203  138.0725  167.2533 H   0  0  0  0  0  0  0  0  0  0  0  0
  129.2162  136.6376  167.2240 H   0  0  0  0  0  0  0  0  0  0  0  0
  129.3313  137.4409  165.0087 H   0  0  0  0  0  0  0  0  0  0  0  0
  127.9220  138.4572  165.3897 H   0  0  0  0  0  0  0  0  0  0  0  0
  1  2  1  0
  1 33  1  0
  1 34  1  0
  1 35  1  0
  2  7  1  0
  2  3  1  0
  2  4  1  0
  3 36  1  0
  3 37  1  0
  3 38  1  0
  4  5  1  0
  4  6  1  0
  4 39  1  6
  5 40  1  0
  6  7  1  0
  6 41  1  0
  6 42  1  0
  7  8  1  1
  7  9  1  0
  9 10  1  0
  9 11  1  0
  9 12  1  0
 12 13  1  0
 12 43  1  0
 12 44  1  0
 13 18  1  0
 13 14  2  0
 14 15  1  0
 14 45  1  0
 15 16  1  0
 15 17  1  0
 17 18  2  0
 18 19  1  0
 19 32  1  0
 19 20  2  0
 20 21  1  0
 20 46  1  0
 21 22  2  0
 21 47  1  0
 22 23  1  0
 22 32  1  0
 23 24  1  0
 23 48  1  0
 24 25  1  0
 24 49  1  0
 24 50  1  0
 25 31  1  0
 25 26  1  0
 25 51  1  6
 26 27  1  0
 26 52  1  0
 26 53  1  0
 27 28  1  0
 27 54  1  0
 27 55  1  0
 28 30  1  0
 28 29  1  0
 28 56  1  1
 29 30  1  0
 29 57  1  0
 29 58  1  0
 30 31  1  0
 30 59  1  1
 31 60  1  0
 31 61  1  0
M  CHG  1   9   1
M  END
>  <DOCK_score>  (1) 
-44.102562

>  <SMILES>  (1) 
CC1(C)C(O)C[C@H]1[NH2+]Cc1c[nH]nc1-c1ccc(NCC2CCC3CC3C2)o1

$$$$
