Cc1ccc(-c2ccc(-c3c[nH]c(N[C@@H]4C(=O)Nc5ccc(O)cc54)[nH+]3)cc2)cc1
     RDKit          3D

 51 55  0  0  1  0  0  0  0  0999 V2000
  133.6009  135.7962  172.0668 C   0  0  0  0  0  0  0  0  0  0  0  0
  133.3729  135.8322  170.5775 C   0  0  0  0  0  0  0  0  0  0  0  0
  134.4282  135.6020  169.7132 C   0  0  0  0  0  0  0  0  0  0  0  0
  134.2254  135.6342  168.3486 C   0  0  0  0  0  0  0  0  0  0  0  0
  132.9542  135.8989  167.8416 C   0  0  0  0  0  0  0  0  0  0  0  0
  132.7300  135.9347  166.3761 C   0  0  0  0  0  0  0  0  0  0  0  0
  131.4886  135.5753  165.8517 C   0  0  0  0  0  0  0  0  0  0  0  0
  131.2804  135.6079  164.4905 C   0  0  0  0  0  0  0  0  0  0  0  0
  132.3111  136.0005  163.6366 C   0  0  0  0  0  0  0  0  0  0  0  0
  132.0874  136.0349  162.1715 C   0  0  0  0  0  0  0  0  0  0  0  0
  132.6931  136.8702  161.2906 C   0  0  0  0  0  0  0  0  0  0  0  0
  132.1986  136.5638  160.0464 N   0  0  0  0  0  0  0  0  0  0  0  0
  132.4421  136.9912  159.2102 H   0  0  0  0  0  0  0  0  0  0  0  0
  131.3044  135.5498  160.2029 C   0  0  0  0  0  0  0  0  0  0  0  0
  130.5854  134.9450  159.1863 N   0  0  0  0  0  0  0  0  0  0  0  0
  129.6516  133.8592  159.4953 C   0  0  2  0  0  0  0  0  0  0  0  0
  130.0725  133.1990  160.2535 H   0  0  0  0  0  0  0  0  0  0  0  0
  129.3090  133.0818  158.2422 C   0  0  0  0  0  0  0  0  0  0  0  0
  130.0847  132.4660  157.5419 O   0  0  0  0  0  0  0  0  0  0  0  0
  127.9844  133.2016  158.0518 N   0  0  0  0  0  0  0  0  0  0  0  0
  127.3766  133.9796  159.0409 C   0  0  0  0  0  0  0  0  0  0  0  0
  126.0446  134.3484  159.2179 C   0  0  0  0  0  0  0  0  0  0  0  0
  125.6794  135.1368  160.2889 C   0  0  0  0  0  0  0  0  0  0  0  0
  126.6342  135.5688  161.1982 C   0  0  0  0  0  0  0  0  0  0  0  0
  126.2702  136.3457  162.2532 O   0  0  0  0  0  0  0  0  0  0  0  0
  127.9626  135.2042  161.0264 C   0  0  0  0  0  0  0  0  0  0  0  0
  128.3248  134.4172  159.9566 C   0  0  0  0  0  0  0  0  0  0  0  0
  131.2405  135.2365  161.4739 N   0  0  0  0  0  0  0  0  0  0  0  0
  130.6780  134.5441  161.8550 H   0  0  0  0  0  0  0  0  0  0  0  0
  133.5542  136.3552  164.1610 C   0  0  0  0  0  0  0  0  0  0  0  0
  133.7605  136.3274  165.5223 C   0  0  0  0  0  0  0  0  0  0  0  0
  131.8959  136.1353  168.7172 C   0  0  0  0  0  0  0  0  0  0  0  0
  132.1095  136.0958  170.0801 C   0  0  0  0  0  0  0  0  0  0  0  0
  133.8686  136.7929  172.4175 H   0  0  0  0  0  0  0  0  0  0  0  0
  132.6893  135.4679  172.5661 H   0  0  0  0  0  0  0  0  0  0  0  0
  134.4098  135.1017  172.2938 H   0  0  0  0  0  0  0  0  0  0  0  0
  135.4127  135.3970  170.1071 H   0  0  0  0  0  0  0  0  0  0  0  0
  135.0501  135.4550  167.6747 H   0  0  0  0  0  0  0  0  0  0  0  0
  130.6907  135.2714  166.5130 H   0  0  0  0  0  0  0  0  0  0  0  0
  130.3194  135.3289  164.0844 H   0  0  0  0  0  0  0  0  0  0  0  0
  133.4240  137.6305  161.5231 H   0  0  0  0  0  0  0  0  0  0  0  0
  130.6998  135.2401  158.2694 H   0  0  0  0  0  0  0  0  0  0  0  0
  127.5051  132.7953  157.3128 H   0  0  0  0  0  0  0  0  0  0  0  0
  125.2959  134.0162  158.5141 H   0  0  0  0  0  0  0  0  0  0  0  0
  124.6453  135.4189  160.4207 H   0  0  0  0  0  0  0  0  0  0  0  0
  125.3247  136.5453  162.2868 H   0  0  0  0  0  0  0  0  0  0  0  0
  128.7104  135.5370  161.7310 H   0  0  0  0  0  0  0  0  0  0  0  0
  134.3535  136.6553  163.4995 H   0  0  0  0  0  0  0  0  0  0  0  0
  134.7217  136.6056  165.9286 H   0  0  0  0  0  0  0  0  0  0  0  0
  130.9099  136.3457  168.3300 H   0  0  0  0  0  0  0  0  0  0  0  0
  131.2894  136.2756  170.7596 H   0  0  0  0  0  0  0  0  0  0  0  0
  1  2  1  0
  1 34  1  0
  1 35  1  0
  1 36  1  0
  2 33  2  0
  2  3  1  0
  3  4  2  0
  3 37  1  0
  4  5  1  0
  4 38  1  0
  5  6  1  0
  5 32  2  0
  6 31  1  0
  6  7  2  0
  7  8  1  0
  7 39  1  0
  8  9  2  0
  8 40  1  0
  9 10  1  0
  9 30  1  0
 10 28  1  0
 10 11  2  0
 11 12  1  0
 11 41  1  0
 12 13  1  0
 12 14  1  0
 14 15  1  0
 14 28  2  0
 15 16  1  0
 15 42  1  0
 16 17  1  1
 16 27  1  0
 16 18  1  0
 18 19  2  0
 18 20  1  0
 20 21  1  0
 20 43  1  0
 21 27  2  0
 21 22  1  0
 22 23  2  0
 22 44  1  0
 23 24  1  0
 23 45  1  0
 24 25  1  0
 24 26  2  0
 25 46  1  0
 26 27  1  0
 26 47  1  0
 28 29  1  0
 30 31  2  0
 30 48  1  0
 31 49  1  0
 32 33  1  0
 32 50  1  0
 33 51  1  0
M  CHG  1  28   1
M  END
>  <DOCK_score>  (1) 
-42.215183

>  <SMILES>  (1) 
Cc1ccc(-c2ccc(-c3c[nH]c(N[C@@H]4C(=O)Nc5ccc(O)cc54)[nH+]3)cc2)cc1

$$$$
