C[C@H](CC1(O)COc2cc(Br)ccc2C1)Nc1[nH]cc(-c2ccccc2)[nH+]1
     RDKit          3D

 50 53  0  0  1  0  0  0  0  0999 V2000
  128.5510  135.9192  160.2826 C   0  0  0  0  0  0  0  0  0  0  0  0
  130.0100  135.4586  160.2597 C   0  0  2  0  0  0  0  0  0  0  0  0
  130.1077  134.5332  160.8271 H   0  0  0  0  0  0  0  0  0  0  0  0
  130.8952  136.5375  160.8870 C   0  0  0  0  0  0  0  0  0  0  0  0
  132.2249  135.9173  161.3211 C   0  0  2  0  0  0  0  0  0  0  0  0
  132.6570  134.9706  160.3417 O   0  0  0  0  0  0  0  0  0  0  0  0
  132.0518  135.2189  162.6758 C   0  0  0  0  0  0  0  0  0  0  0  0
  133.2777  134.5639  163.0044 O   0  0  0  0  0  0  0  0  0  0  0  0
  134.4273  135.2806  162.9041 C   0  0  0  0  0  0  0  0  0  0  0  0
  135.5658  134.8020  163.5445 C   0  0  0  0  0  0  0  0  0  0  0  0
  136.7553  135.4974  163.4588 C   0  0  0  0  0  0  0  0  0  0  0  0
  138.3001  134.8417  164.3304 Br  0  0  0  0  0  0  0  0  0  0  0  0
  136.8163  136.6746  162.7338 C   0  0  0  0  0  0  0  0  0  0  0  0
  135.6873  137.1528  162.0986 C   0  0  0  0  0  0  0  0  0  0  0  0
  134.4910  136.4594  162.1821 C   0  0  0  0  0  0  0  0  0  0  0  0
  133.2796  137.0155  161.4775 C   0  0  0  0  0  0  0  0  0  0  0  0
  130.4278  135.2288  158.8745 N   0  0  0  0  0  0  0  0  0  0  0  0
  130.2663  133.9791  158.3011 C   0  0  0  0  0  0  0  0  0  0  0  0
  129.7350  132.8874  158.9161 N   0  0  0  0  0  0  0  0  0  0  0  0
  129.4038  132.8455  159.8269 H   0  0  0  0  0  0  0  0  0  0  0  0
  129.7535  131.8562  158.0087 C   0  0  0  0  0  0  0  0  0  0  0  0
  130.2897  132.3484  156.8645 C   0  0  0  0  0  0  0  0  0  0  0  0
  130.5027  131.5941  155.6052 C   0  0  0  0  0  0  0  0  0  0  0  0
  129.8784  132.0059  154.4290 C   0  0  0  0  0  0  0  0  0  0  0  0
  130.0855  131.3040  153.2589 C   0  0  0  0  0  0  0  0  0  0  0  0
  130.9003  130.1857  153.2550 C   0  0  0  0  0  0  0  0  0  0  0  0
  131.5180  129.7697  154.4203 C   0  0  0  0  0  0  0  0  0  0  0  0
  131.3233  130.4675  155.5949 C   0  0  0  0  0  0  0  0  0  0  0  0
  130.5998  133.6522  157.0764 N   0  0  0  0  0  0  0  0  0  0  0  0
  131.0004  134.2483  156.4244 H   0  0  0  0  0  0  0  0  0  0  0  0
  128.2402  136.0901  161.3132 H   0  0  0  0  0  0  0  0  0  0  0  0
  128.4532  136.8447  159.7152 H   0  0  0  0  0  0  0  0  0  0  0  0
  127.9204  135.1506  159.8357 H   0  0  0  0  0  0  0  0  0  0  0  0
  131.0825  137.3242  160.1561 H   0  0  0  0  0  0  0  0  0  0  0  0
  130.3912  136.9612  161.7557 H   0  0  0  0  0  0  0  0  0  0  0  0
  132.7946  135.3492  159.4626 H   0  0  0  0  0  0  0  0  0  0  0  0
  131.8133  135.9570  163.4416 H   0  0  0  0  0  0  0  0  0  0  0  0
  131.2491  134.4845  162.6104 H   0  0  0  0  0  0  0  0  0  0  0  0
  135.5189  133.8834  164.1107 H   0  0  0  0  0  0  0  0  0  0  0  0
  137.7464  137.2189  162.6647 H   0  0  0  0  0  0  0  0  0  0  0  0
  135.7373  138.0718  161.5335 H   0  0  0  0  0  0  0  0  0  0  0  0
  133.5695  137.3830  160.4931 H   0  0  0  0  0  0  0  0  0  0  0  0
  132.8648  137.8360  162.0633 H   0  0  0  0  0  0  0  0  0  0  0  0
  130.8177  135.9521  158.3590 H   0  0  0  0  0  0  0  0  0  0  0  0
  129.4033  130.8479  158.1734 H   0  0  0  0  0  0  0  0  0  0  0  0
  129.2379  132.8754  154.4323 H   0  0  0  0  0  0  0  0  0  0  0  0
  129.6066  131.6254  152.3458 H   0  0  0  0  0  0  0  0  0  0  0  0
  131.0562  129.6370  152.3379 H   0  0  0  0  0  0  0  0  0  0  0  0
  132.1537  128.8966  154.4111 H   0  0  0  0  0  0  0  0  0  0  0  0
  131.8063  130.1417  156.5043 H   0  0  0  0  0  0  0  0  0  0  0  0
  1  2  1  0
  1 31  1  0
  1 32  1  0
  1 33  1  0
  2  3  1  1
  2  4  1  0
  2 17  1  0
  4  5  1  0
  4 34  1  0
  4 35  1  0
  5 16  1  0
  5  6  1  6
  5  7  1  0
  6 36  1  0
  7  8  1  0
  7 37  1  0
  7 38  1  0
  8  9  1  0
  9 15  2  0
  9 10  1  0
 10 11  2  0
 10 39  1  0
 11 12  1  0
 11 13  1  0
 13 14  2  0
 13 40  1  0
 14 15  1  0
 14 41  1  0
 15 16  1  0
 16 42  1  0
 16 43  1  0
 17 44  1  0
 18 17  1  0
 18 29  2  0
 18 19  1  0
 19 20  1  0
 19 21  1  0
 21 22  2  0
 21 45  1  0
 22 23  1  0
 22 29  1  0
 23 28  1  0
 23 24  2  0
 24 25  1  0
 24 46  1  0
 25 26  2  0
 25 47  1  0
 26 27  1  0
 26 48  1  0
 27 28  2  0
 27 49  1  0
 28 50  1  0
 29 30  1  0
M  CHG  1  29   1
M  END
>  <DOCK_score>  (1) 
-64.427498

>  <SMILES>  (1) 
C[C@H](CC1(O)COc2cc(Br)ccc2C1)Nc1[nH]cc(-c2ccccc2)[nH+]1

$$$$
