Nc1ccc(-c2c[nH]c(N[C@@H](C=CC3=CCOCC3)C3=CCCCC3)[nH+]2)cc1
     RDKit          3D

 57 60  0  0  1  0  0  0  0  0999 V2000
  130.6799  129.1873  150.6669 N   0  0  0  0  0  0  0  0  0  0  0  0
  130.6919  129.7718  151.9356 C   0  0  0  0  0  0  0  0  0  0  0  0
  130.0298  130.9754  152.1507 C   0  0  0  0  0  0  0  0  0  0  0  0
  130.0403  131.5550  153.4018 C   0  0  0  0  0  0  0  0  0  0  0  0
  130.7151  130.9332  154.4513 C   0  0  0  0  0  0  0  0  0  0  0  0
  130.7283  131.5551  155.7981 C   0  0  0  0  0  0  0  0  0  0  0  0
  130.2437  131.0017  156.9372 C   0  0  0  0  0  0  0  0  0  0  0  0
  130.4578  131.9120  157.9450 N   0  0  0  0  0  0  0  0  0  0  0  0
  130.2186  131.8025  158.8787 H   0  0  0  0  0  0  0  0  0  0  0  0
  131.0674  132.9949  157.3907 C   0  0  0  0  0  0  0  0  0  0  0  0
  131.4550  134.1375  158.0696 N   0  0  0  0  0  0  0  0  0  0  0  0
  131.2153  134.2503  159.5105 C   0  0  1  0  0  0  0  0  0  0  0  0
  131.4174  133.2917  159.9885 H   0  0  0  0  0  0  0  0  0  0  0  0
  132.1250  135.3025  160.0903 C   0  0  0  0  0  0  0  0  0  0  0  0
  131.6087  136.3654  160.6980 C   0  0  0  0  0  0  0  0  0  0  0  0
  132.4968  137.3895  161.2696 C   0  0  0  0  0  0  0  0  0  0  0  0
  131.9601  138.4359  161.8681 C   0  0  0  0  0  0  0  0  0  0  0  0
  132.7874  139.5323  162.4776 C   0  0  0  0  0  0  0  0  0  0  0  0
  134.1430  139.1040  162.6217 O   0  0  0  0  0  0  0  0  0  0  0  0
  134.6863  138.5443  161.4200 C   0  0  0  0  0  0  0  0  0  0  0  0
  133.9852  137.2109  161.1460 C   0  0  0  0  0  0  0  0  0  0  0  0
  129.7794  134.6391  159.7518 C   0  0  0  0  0  0  0  0  0  0  0  0
  129.1859  135.3575  158.8535 C   0  0  0  0  0  0  0  0  0  0  0  0
  127.7651  135.8292  158.9577 C   0  0  0  0  0  0  0  0  0  0  0  0
  127.0156  135.0146  160.0145 C   0  0  0  0  0  0  0  0  0  0  0  0
  127.8615  134.9846  161.2938 C   0  0  0  0  0  0  0  0  0  0  0  0
  129.1247  134.1640  161.0159 C   0  0  0  0  0  0  0  0  0  0  0  0
  131.2222  132.7802  156.1069 N   0  0  0  0  0  0  0  0  0  0  0  0
  131.6272  133.3980  155.4783 H   0  0  0  0  0  0  0  0  0  0  0  0
  131.3822  129.7291  154.2319 C   0  0  0  0  0  0  0  0  0  0  0  0
  131.3647  129.1504  152.9803 C   0  0  0  0  0  0  0  0  0  0  0  0
  130.2102  129.6205  149.9373 H   0  0  0  0  0  0  0  0  0  0  0  0
  131.1416  128.3477  150.5159 H   0  0  0  0  0  0  0  0  0  0  0  0
  129.5071  131.4569  151.3374 H   0  0  0  0  0  0  0  0  0  0  0  0
  129.5259  132.4898  153.5687 H   0  0  0  0  0  0  0  0  0  0  0  0
  129.7781  130.0320  157.0341 H   0  0  0  0  0  0  0  0  0  0  0  0
  131.8852  134.8634  157.5914 H   0  0  0  0  0  0  0  0  0  0  0  0
  133.1965  135.1904  160.0160 H   0  0  0  0  0  0  0  0  0  0  0  0
  130.5371  136.4773  160.7724 H   0  0  0  0  0  0  0  0  0  0  0  0
  130.8840  138.5050  161.9259 H   0  0  0  0  0  0  0  0  0  0  0  0
  132.3841  139.7913  163.4566 H   0  0  0  0  0  0  0  0  0  0  0  0
  132.7520  140.4077  161.8290 H   0  0  0  0  0  0  0  0  0  0  0  0
  135.7561  138.3767  161.5450 H   0  0  0  0  0  0  0  0  0  0  0  0
  134.5141  139.2266  160.5876 H   0  0  0  0  0  0  0  0  0  0  0  0
  134.3228  136.4680  161.8686 H   0  0  0  0  0  0  0  0  0  0  0  0
  134.2279  136.8734  160.1384 H   0  0  0  0  0  0  0  0  0  0  0  0
  129.7484  135.6353  157.9743 H   0  0  0  0  0  0  0  0  0  0  0  0
  127.7537  136.8824  159.2383 H   0  0  0  0  0  0  0  0  0  0  0  0
  127.2727  135.7090  157.9928 H   0  0  0  0  0  0  0  0  0  0  0  0
  126.0530  135.4818  160.2224 H   0  0  0  0  0  0  0  0  0  0  0  0
  126.8623  133.9979  159.6526 H   0  0  0  0  0  0  0  0  0  0  0  0
  128.1351  136.0012  161.5759 H   0  0  0  0  0  0  0  0  0  0  0  0
  127.2925  134.5183  162.0982 H   0  0  0  0  0  0  0  0  0  0  0  0
  128.8607  133.1116  160.9126 H   0  0  0  0  0  0  0  0  0  0  0  0
  129.8191  134.2803  161.8481 H   0  0  0  0  0  0  0  0  0  0  0  0
  131.9091  129.2477  155.0425 H   0  0  0  0  0  0  0  0  0  0  0  0
  131.8779  128.2154  152.8109 H   0  0  0  0  0  0  0  0  0  0  0  0
  1  2  1  0
  1 32  1  0
  1 33  1  0
  2 31  2  0
  2  3  1  0
  3  4  2  0
  3 34  1  0
  4  5  1  0
  4 35  1  0
  5  6  1  0
  5 30  2  0
  6 28  1  0
  6  7  2  0
  7  8  1  0
  7 36  1  0
  8  9  1  0
  8 10  1  0
 10 11  1  0
 10 28  2  0
 11 12  1  0
 11 37  1  0
 12 13  1  1
 12 14  1  0
 12 22  1  0
 14 15  2  0
 14 38  1  0
 15 16  1  0
 15 39  1  0
 16 21  1  0
 16 17  2  0
 17 18  1  0
 17 40  1  0
 18 19  1  0
 18 41  1  0
 18 42  1  0
 19 20  1  0
 20 21  1  0
 20 43  1  0
 20 44  1  0
 21 45  1  0
 21 46  1  0
 22 27  1  0
 22 23  2  0
 23 24  1  0
 23 47  1  0
 24 25  1  0
 24 48  1  0
 24 49  1  0
 25 26  1  0
 25 50  1  0
 25 51  1  0
 26 27  1  0
 26 52  1  0
 26 53  1  0
 27 54  1  0
 27 55  1  0
 28 29  1  0
 30 31  1  0
 30 56  1  0
 31 57  1  0
M  CHG  1  28   1
M  END
>  <DOCK_score>  (1) 
-58.178989

>  <SMILES>  (1) 
Nc1ccc(-c2c[nH]c(N[C@@H](C=CC3=CCOCC3)C3=CCCCC3)[nH+]2)cc1

$$$$
