
     RDKit          2D

 32 36  0  0  0  0  0  0  0  0999 V2000
    2.9026   -9.2576    0.0000 N   0  0  0  0  0  0  0  0  0  0  0  0
    1.4354   -9.5695    0.0000 C   0  0  0  0  0  0  0  0  0  0  0  0
    0.3207   -8.5658    0.0000 C   0  0  0  0  0  0  0  0  0  0  0  0
    0.4775   -7.0740    0.0000 C   0  0  0  0  0  0  0  0  0  0  0  0
    1.8478   -6.4639    0.0000 C   0  0  0  0  0  0  0  0  0  0  0  0
    2.0046   -4.9721    0.0000 C   0  0  0  0  0  0  0  0  0  0  0  0
    0.8899   -3.9684    0.0000 C   0  0  0  0  0  0  0  0  0  0  0  0
    1.5000   -2.5981    0.0000 N   0  0  0  0  0  0  0  0  0  0  0  0
    0.7500   -1.2990    0.0000 C   0  0  0  0  0  0  0  0  0  0  0  0
    1.5000    0.0000    0.0000 C   0  0  0  0  0  0  0  0  0  0  0  0
    0.7500    1.2990    0.0000 C   0  0  0  0  0  0  0  0  0  0  0  0
   -0.7500    1.2990    0.0000 O   0  0  0  0  0  0  0  0  0  0  0  0
   -1.5000    0.0000    0.0000 C   0  0  0  0  0  0  0  0  0  0  0  0
   -0.7500   -1.2990    0.0000 C   0  0  0  0  0  0  0  0  0  0  0  0
    2.9918   -2.7549    0.0000 N   0  0  0  0  0  0  0  0  0  0  0  0
    3.3037   -4.2221    0.0000 N   0  0  0  0  0  0  0  0  0  0  0  0
   -0.7360   -6.1923    0.0000 N   0  0  0  0  0  0  0  0  0  0  0  0
   -2.1063   -6.8024    0.0000 C   0  0  0  0  0  0  0  0  0  0  0  0
   -2.4182   -8.2696    0.0000 N   0  0  0  0  0  0  0  0  0  0  0  0
   -3.9100   -8.4264    0.0000 C   0  0  0  0  0  0  0  0  0  0  0  0
   -4.6600   -9.7255    0.0000 C   0  0  0  0  0  0  0  0  0  0  0  0
   -6.1600   -9.7255    0.0000 C   0  0  0  0  0  0  0  0  0  0  0  0
   -6.9100  -11.0245    0.0000 C   0  0  0  0  0  0  0  0  0  0  0  0
   -6.1600  -12.3235    0.0000 C   0  0  0  0  0  0  0  0  0  0  0  0
   -6.9100  -13.6226    0.0000 N   0  0  0  0  0  0  0  0  0  0  0  0
   -4.6600  -12.3235    0.0000 C   0  0  0  0  0  0  0  0  0  0  0  0
   -3.9100  -11.0245    0.0000 C   0  0  0  0  0  0  0  0  0  0  0  0
   -4.5201   -7.0561    0.0000 C   0  0  0  0  0  0  0  0  0  0  0  0
   -3.4054   -6.0524    0.0000 N   0  0  0  0  0  0  0  0  0  0  0  0
   -0.9783   -9.3158    0.0000 C   0  0  0  0  0  0  0  0  0  0  0  0
   -0.6665  -10.7830    0.0000 C   0  0  0  0  0  0  0  0  0  0  0  0
    0.8253  -10.9398    0.0000 C   0  0  0  0  0  0  0  0  0  0  0  0
  1  2  1  0
  2  3  2  0
  3  4  1  0
  4  5  1  0
  5  6  1  0
  6  7  2  0
  7  8  1  0
  8  9  1  0
  9 10  1  0
 10 11  1  0
 11 12  1  0
 12 13  1  0
 13 14  1  0
  8 15  1  0
 15 16  2  0
  4 17  1  0
 17 18  1  0
 18 19  2  0
 19 20  1  0
 20 21  1  0
 21 22  2  0
 22 23  1  0
 23 24  2  0
 24 25  1  0
 24 26  1  0
 26 27  2  0
 20 28  2  0
 28 29  1  0
  3 30  1  0
 30 31  1  0
 31 32  1  0
 32  2  1  0
 16  6  1  0
 29 18  1  0
 14  9  1  0
 27 21  1  0
M  END
$$$$
