Oc1ccc2c(c1)C(N[C@@H]1C[C@H](O)C[C@@H]1[NH2+][C@H]1C[C@H](O)C1)c1cc(O)ccc1-2
     RDKit          3D

 55 59  0  0  1  0  0  0  0  0999 V2000
  131.3769  130.4588  157.7573 O   0  0  0  0  0  0  0  0  0  0  0  0
  130.2046  130.8166  158.3439 C   0  0  0  0  0  0  0  0  0  0  0  0
  129.2593  129.8484  158.6542 C   0  0  0  0  0  0  0  0  0  0  0  0
  128.0692  130.2069  159.2497 C   0  0  0  0  0  0  0  0  0  0  0  0
  127.8103  131.5476  159.5431 C   0  0  0  0  0  0  0  0  0  0  0  0
  128.7632  132.5135  159.2289 C   0  0  0  0  0  0  0  0  0  0  0  0
  129.9518  132.1510  158.6337 C   0  0  0  0  0  0  0  0  0  0  0  0
  128.2123  133.8518  159.6567 C   0  0  0  0  0  0  0  0  0  0  0  0
  129.0882  134.4596  160.6673 N   0  0  0  0  0  0  0  0  0  0  0  0
  128.8655  135.9091  160.7539 C   0  0  2  0  0  0  0  0  0  0  0  0
  127.8304  136.1117  161.0286 H   0  0  0  0  0  0  0  0  0  0  0  0
  129.1940  136.5768  159.4026 C   0  0  0  0  0  0  0  0  0  0  0  0
  129.8459  137.9260  159.7942 C   0  0  2  0  0  0  0  0  0  0  0  0
  129.0849  138.6620  160.0534 H   0  0  0  0  0  0  0  0  0  0  0  0
  130.6814  138.4134  158.7422 O   0  0  0  0  0  0  0  0  0  0  0  0
  130.6911  137.5495  161.0364 C   0  0  0  0  0  0  0  0  0  0  0  0
  129.8175  136.5275  161.7927 C   0  0  2  0  0  0  0  0  0  0  0  0
  129.2442  137.0303  162.5717 H   0  0  0  0  0  0  0  0  0  0  0  0
  130.6636  135.4835  162.3857 N   0  0  0  0  0  0  0  0  0  0  0  0
  130.0810  134.7952  162.8385 H   0  0  0  0  0  0  0  0  0  0  0  0
  131.2074  135.0393  161.6610 H   0  0  0  0  0  0  0  0  0  0  0  0
  131.5663  136.0878  163.3747 C   0  0  1  0  0  0  0  0  0  0  0  0
  131.0820  136.8582  163.9746 H   0  0  0  0  0  0  0  0  0  0  0  0
  132.3458  135.0570  164.2082 C   0  0  0  0  0  0  0  0  0  0  0  0
  133.5610  135.9910  164.0823 C   0  0  2  0  0  0  0  0  0  0  0  0
  134.5014  135.4643  163.9201 H   0  0  0  0  0  0  0  0  0  0  0  0
  133.6436  136.9662  165.1236 O   0  0  0  0  0  0  0  0  0  0  0  0
  132.9205  136.5211  162.7887 C   0  0  0  0  0  0  0  0  0  0  0  0
  126.8516  133.5747  160.2474 C   0  0  0  0  0  0  0  0  0  0  0  0
  125.8958  134.4026  160.7947 C   0  0  0  0  0  0  0  0  0  0  0  0
  124.7065  133.8687  161.2733 C   0  0  0  0  0  0  0  0  0  0  0  0
  123.7635  134.6849  161.8125 O   0  0  0  0  0  0  0  0  0  0  0  0
  124.4812  132.5008  161.2000 C   0  0  0  0  0  0  0  0  0  0  0  0
  125.4373  131.6661  160.6533 C   0  0  0  0  0  0  0  0  0  0  0  0
  126.6341  132.1997  160.1702 C   0  0  0  0  0  0  0  0  0  0  0  0
  131.9708  131.2009  157.5801 H   0  0  0  0  0  0  0  0  0  0  0  0
  129.4573  128.8109  158.4286 H   0  0  0  0  0  0  0  0  0  0  0  0
  127.3362  129.4508  159.4893 H   0  0  0  0  0  0  0  0  0  0  0  0
  130.6870  132.9046  158.3928 H   0  0  0  0  0  0  0  0  0  0  0  0
  128.1198  134.5124  158.7947 H   0  0  0  0  0  0  0  0  0  0  0  0
  128.9619  134.0201  161.5667 H   0  0  0  0  0  0  0  0  0  0  0  0
  128.2825  136.7457  158.8291 H   0  0  0  0  0  0  0  0  0  0  0  0
  129.8950  135.9648  158.8351 H   0  0  0  0  0  0  0  0  0  0  0  0
  131.3691  137.7919  158.4663 H   0  0  0  0  0  0  0  0  0  0  0  0
  131.6339  137.0947  160.7327 H   0  0  0  0  0  0  0  0  0  0  0  0
  130.8722  138.4284  161.6553 H   0  0  0  0  0  0  0  0  0  0  0  0
  131.9783  134.9535  165.2291 H   0  0  0  0  0  0  0  0  0  0  0  0
  132.4764  134.0984  163.7061 H   0  0  0  0  0  0  0  0  0  0  0  0
  134.4059  137.5566  165.0500 H   0  0  0  0  0  0  0  0  0  0  0  0
  133.2095  135.9633  161.8980 H   0  0  0  0  0  0  0  0  0  0  0  0
  133.0172  137.5996  162.6638 H   0  0  0  0  0  0  0  0  0  0  0  0
  126.0716  135.4666  160.8518 H   0  0  0  0  0  0  0  0  0  0  0  0
  124.0100  135.6198  161.8196 H   0  0  0  0  0  0  0  0  0  0  0  0
  123.5556  132.0869  161.5721 H   0  0  0  0  0  0  0  0  0  0  0  0
  125.2591  130.6024  160.5970 H   0  0  0  0  0  0  0  0  0  0  0  0
  1  2  1  0
  1 36  1  0
  2  7  2  0
  2  3  1  0
  3  4  2  0
  3 37  1  0
  4  5  1  0
  4 38  1  0
  5 35  1  0
  5  6  2  0
  6  7  1  0
  6  8  1  0
  7 39  1  0
  8  9  1  0
  8 29  1  0
  8 40  1  0
  9 10  1  0
  9 41  1  0
 10 11  1  1
 10 17  1  0
 10 12  1  0
 12 13  1  0
 12 42  1  0
 12 43  1  0
 13 14  1  1
 13 15  1  0
 13 16  1  0
 15 44  1  0
 16 17  1  0
 16 45  1  0
 16 46  1  0
 17 18  1  1
 17 19  1  0
 19 20  1  0
 19 21  1  0
 19 22  1  0
 22 23  1  1
 22 28  1  0
 22 24  1  0
 24 25  1  0
 24 47  1  0
 24 48  1  0
 25 26  1  6
 25 27  1  0
 25 28  1  0
 27 49  1  0
 28 50  1  0
 28 51  1  0
 29 35  2  0
 29 30  1  0
 30 31  2  0
 30 52  1  0
 31 32  1  0
 31 33  1  0
 32 53  1  0
 33 34  2  0
 33 54  1  0
 34 35  1  0
 34 55  1  0
M  CHG  1  19   1
M  END
>  <DOCK_score>  (1) 
-41.44611

>  <SMILES>  (1) 
Oc1ccc2c(c1)C(N[C@@H]1C[C@H](O)C[C@@H]1[NH2+][C@H]1C[C@H](O)C1)c1cc(O)ccc1-2

$$$$
