CC(C)n1ccc(CN(C(=O)c2c[nH]nc2[C@H]2CCC[NH2+]C2)C2C=CCCC2)n1
     RDKit          3D

 62 65  0  0  1  0  0  0  0  0999 V2000
  135.2252  140.6822  159.7755 C   0  0  0  0  0  0  0  0  0  0  0  0
  135.6297  139.2296  160.0349 C   0  0  0  0  0  0  0  0  0  0  0  0
  136.6690  139.1823  161.1567 C   0  0  0  0  0  0  0  0  0  0  0  0
  134.4493  138.4571  160.4299 N   0  0  0  0  0  0  0  0  0  0  0  0
  133.9511  137.3823  159.7835 C   0  0  0  0  0  0  0  0  0  0  0  0
  132.8639  136.9570  160.4677 C   0  0  0  0  0  0  0  0  0  0  0  0
  132.6887  137.8040  161.5670 C   0  0  0  0  0  0  0  0  0  0  0  0
  131.5962  137.6972  162.5995 C   0  0  0  0  0  0  0  0  0  0  0  0
  130.3134  137.4660  161.9310 N   0  0  0  0  0  0  0  0  0  0  0  0
  129.8972  136.2073  161.6882 C   0  0  0  0  0  0  0  0  0  0  0  0
  130.5867  135.2636  162.0243 O   0  0  0  0  0  0  0  0  0  0  0  0
  128.6063  135.9746  161.0154 C   0  0  0  0  0  0  0  0  0  0  0  0
  127.3635  136.3696  161.4676 C   0  0  0  0  0  0  0  0  0  0  0  0
  126.4589  135.9652  160.5617 N   0  0  0  0  0  0  0  0  0  0  0  0
  125.5007  136.1068  160.6153 H   0  0  0  0  0  0  0  0  0  0  0  0
  127.1308  135.3002  159.5300 N   0  0  0  0  0  0  0  0  0  0  0  0
  128.4091  135.2998  159.7897 C   0  0  0  0  0  0  0  0  0  0  0  0
  129.4867  134.6879  158.9322 C   0  0  1  0  0  0  0  0  0  0  0  0
  130.4138  135.2470  159.0586 H   0  0  0  0  0  0  0  0  0  0  0  0
  129.7071  133.2311  159.3501 C   0  0  0  0  0  0  0  0  0  0  0  0
  130.7471  132.5961  158.4225 C   0  0  0  0  0  0  0  0  0  0  0  0
  130.2719  132.7180  156.9731 C   0  0  0  0  0  0  0  0  0  0  0  0
  130.1052  134.1346  156.6266 N   0  0  0  0  0  0  0  0  0  0  0  0
  130.9754  134.6217  156.7792 H   0  0  0  0  0  0  0  0  0  0  0  0
  129.8425  134.2136  155.6557 H   0  0  0  0  0  0  0  0  0  0  0  0
  129.0587  134.7333  157.4639 C   0  0  0  0  0  0  0  0  0  0  0  0
  129.4829  138.6029  161.5261 C   0  0  2  0  0  0  0  0  0  0  0  0
  130.2420  139.4498  160.5469 C   0  0  0  0  0  0  0  0  0  0  0  0
  130.2649  140.7437  160.5721 C   0  0  0  0  0  0  0  0  0  0  0  0
  129.5436  141.5777  161.5901 C   0  0  0  0  0  0  0  0  0  0  0  0
  128.4737  140.7408  162.2948 C   0  0  0  0  0  0  0  0  0  0  0  0
  129.1145  139.4276  162.7614 C   0  0  0  0  0  0  0  0  0  0  0  0
  133.6368  138.7053  161.5437 N   0  0  0  0  0  0  0  0  0  0  0  0
  134.7992  141.1085  160.6837 H   0  0  0  0  0  0  0  0  0  0  0  0
  136.1034  141.2571  159.4816 H   0  0  0  0  0  0  0  0  0  0  0  0
  134.4848  140.7159  158.9762 H   0  0  0  0  0  0  0  0  0  0  0  0
  136.0558  138.8033  159.1267 H   0  0  0  0  0  0  0  0  0  0  0  0
  136.2430  139.6085  162.0649 H   0  0  0  0  0  0  0  0  0  0  0  0
  136.9572  138.1474  161.3417 H   0  0  0  0  0  0  0  0  0  0  0  0
  137.5473  139.7572  160.8628 H   0  0  0  0  0  0  0  0  0  0  0  0
  134.3511  136.9383  158.8841 H   0  0  0  0  0  0  0  0  0  0  0  0
  132.2411  136.1130  160.2103 H   0  0  0  0  0  0  0  0  0  0  0  0
  131.8109  136.8659  163.2710 H   0  0  0  0  0  0  0  0  0  0  0  0
  131.5458  138.6232  163.1724 H   0  0  0  0  0  0  0  0  0  0  0  0
  127.1569  136.9074  162.3812 H   0  0  0  0  0  0  0  0  0  0  0  0
  130.0669  133.1975  160.3784 H   0  0  0  0  0  0  0  0  0  0  0  0
  128.7677  132.6838  159.2733 H   0  0  0  0  0  0  0  0  0  0  0  0
  131.7005  133.1116  158.5376 H   0  0  0  0  0  0  0  0  0  0  0  0
  130.8690  131.5437  158.6790 H   0  0  0  0  0  0  0  0  0  0  0  0
  131.0099  132.2667  156.3101 H   0  0  0  0  0  0  0  0  0  0  0  0
  129.3183  132.2024  156.8593 H   0  0  0  0  0  0  0  0  0  0  0  0
  128.1311  134.1748  157.3388 H   0  0  0  0  0  0  0  0  0  0  0  0
  128.9013  135.7692  157.1636 H   0  0  0  0  0  0  0  0  0  0  0  0
  128.5726  138.2350  161.0527 H   0  0  0  0  0  0  0  0  0  0  0  0
  130.8045  138.9482  159.7732 H   0  0  0  0  0  0  0  0  0  0  0  0
  130.8384  141.2549  159.8132 H   0  0  0  0  0  0  0  0  0  0  0  0
  129.0704  142.4249  161.0935 H   0  0  0  0  0  0  0  0  0  0  0  0
  130.2575  141.9460  162.3268 H   0  0  0  0  0  0  0  0  0  0  0  0
  127.6611  140.5256  161.6010 H   0  0  0  0  0  0  0  0  0  0  0  0
  128.0861  141.2855  163.1557 H   0  0  0  0  0  0  0  0  0  0  0  0
  128.4056  138.8716  163.3750 H   0  0  0  0  0  0  0  0  0  0  0  0
  130.0128  139.6402  163.3410 H   0  0  0  0  0  0  0  0  0  0  0  0
  1  2  1  0
  1 34  1  0
  1 35  1  0
  1 36  1  0
  2  3  1  0
  2  4  1  0
  2 37  1  0
  3 38  1  0
  3 39  1  0
  3 40  1  0
  4 33  1  0
  4  5  1  0
  5  6  2  0
  5 41  1  0
  6  7  1  0
  6 42  1  0
  7  8  1  0
  7 33  2  0
  8  9  1  0
  8 43  1  0
  8 44  1  0
  9 10  1  0
  9 27  1  0
 10 11  2  0
 10 12  1  0
 12 17  1  0
 12 13  2  0
 13 14  1  0
 13 45  1  0
 14 15  1  0
 14 16  1  0
 16 17  2  0
 17 18  1  0
 18 19  1  6
 18 26  1  0
 18 20  1  0
 20 21  1  0
 20 46  1  0
 20 47  1  0
 21 22  1  0
 21 48  1  0
 21 49  1  0
 22 23  1  0
 22 50  1  0
 22 51  1  0
 23 24  1  0
 23 25  1  0
 23 26  1  0
 26 52  1  0
 26 53  1  0
 27 32  1  0
 27 28  1  0
 27 54  1  6
 28 29  2  0
 28 55  1  0
 29 30  1  0
 29 56  1  0
 30 31  1  0
 30 57  1  0
 30 58  1  0
 31 32  1  0
 31 59  1  0
 31 60  1  0
 32 61  1  0
 32 62  1  0
M  CHG  1  23   1
M  END
>  <DOCK_score>  (1) 
-46.020107

>  <SMILES>  (1) 
CC(C)n1ccc(CN(C(=O)c2c[nH]nc2[C@H]2CCC[NH2+]C2)C2C=CCCC2)n1

$$$$
