CNc1ccc(SC2=CCC2)c(Nc2[nH]cc(C)[nH+]2)c1
     RDKit          3D

 39 41  0  0  1  0  0  0  0  0999 V2000
  127.3497  137.0043  162.9451 C   0  0  0  0  0  0  0  0  0  0  0  0
  126.5397  136.2854  161.9586 N   0  0  0  0  0  0  0  0  0  0  0  0
  127.1422  135.7511  160.8140 C   0  0  0  0  0  0  0  0  0  0  0  0
  126.3736  135.0696  159.8791 C   0  0  0  0  0  0  0  0  0  0  0  0
  126.9643  134.5452  158.7451 C   0  0  0  0  0  0  0  0  0  0  0  0
  128.3291  134.6883  158.5429 C   0  0  0  0  0  0  0  0  0  0  0  0
  129.0824  134.0129  157.1004 S   0  0  0  0  0  0  0  0  0  0  0  0
  129.5301  132.3871  157.6112 C   0  0  0  0  0  0  0  0  0  0  0  0
  129.4139  131.6901  158.7288 C   0  0  0  0  0  0  0  0  0  0  0  0
  130.0666  130.4135  158.2567 C   0  0  0  0  0  0  0  0  0  0  0  0
  130.2064  131.2093  156.9568 C   0  0  0  0  0  0  0  0  0  0  0  0
  129.1038  135.3724  159.4801 C   0  0  0  0  0  0  0  0  0  0  0  0
  130.4805  135.5228  159.2762 N   0  0  0  0  0  0  0  0  0  0  0  0
  131.3365  135.6073  160.3622 C   0  0  0  0  0  0  0  0  0  0  0  0
  131.1461  135.0175  161.5735 N   0  0  0  0  0  0  0  0  0  0  0  0
  130.3925  134.4651  161.8340 H   0  0  0  0  0  0  0  0  0  0  0  0
  132.2251  135.3534  162.3589 C   0  0  0  0  0  0  0  0  0  0  0  0
  133.0289  136.1278  161.6102 C   0  0  0  0  0  0  0  0  0  0  0  0
  134.3353  136.7333  162.0550 C   0  0  0  0  0  0  0  0  0  0  0  0
  132.4715  136.2651  160.3954 N   0  0  0  0  0  0  0  0  0  0  0  0
  132.8478  136.7725  159.6594 H   0  0  0  0  0  0  0  0  0  0  0  0
  128.5076  135.9024  160.6141 C   0  0  0  0  0  0  0  0  0  0  0  0
  126.7116  137.3444  163.7607 H   0  0  0  0  0  0  0  0  0  0  0  0
  128.1184  136.3390  163.3382 H   0  0  0  0  0  0  0  0  0  0  0  0
  127.8217  137.8644  162.4700 H   0  0  0  0  0  0  0  0  0  0  0  0
  125.5856  136.1795  162.0986 H   0  0  0  0  0  0  0  0  0  0  0  0
  125.3113  134.9534  160.0365 H   0  0  0  0  0  0  0  0  0  0  0  0
  126.3633  134.0196  158.0176 H   0  0  0  0  0  0  0  0  0  0  0  0
  128.9852  131.9533  159.6845 H   0  0  0  0  0  0  0  0  0  0  0  0
  129.3921  129.5598  158.1917 H   0  0  0  0  0  0  0  0  0  0  0  0
  131.0123  130.1828  158.7473 H   0  0  0  0  0  0  0  0  0  0  0  0
  129.6313  130.7881  156.1321 H   0  0  0  0  0  0  0  0  0  0  0  0
  131.2431  131.4070  156.6844 H   0  0  0  0  0  0  0  0  0  0  0  0
  130.8351  135.5679  158.3744 H   0  0  0  0  0  0  0  0  0  0  0  0
  132.3937  135.0522  163.3823 H   0  0  0  0  0  0  0  0  0  0  0  0
  135.1496  136.0435  161.8334 H   0  0  0  0  0  0  0  0  0  0  0  0
  134.4998  137.6717  161.5256 H   0  0  0  0  0  0  0  0  0  0  0  0
  134.3015  136.9225  163.1279 H   0  0  0  0  0  0  0  0  0  0  0  0
  129.1050  136.4320  161.3415 H   0  0  0  0  0  0  0  0  0  0  0  0
  1  2  1  0
  1 23  1  0
  1 24  1  0
  1 25  1  0
  2  3  1  0
  2 26  1  0
  3 22  2  0
  3  4  1  0
  4  5  2  0
  4 27  1  0
  5  6  1  0
  5 28  1  0
  6  7  1  0
  6 12  2  0
  7  8  1  0
  8 11  1  0
  8  9  2  0
  9 10  1  0
  9 29  1  0
 10 11  1  0
 10 30  1  0
 10 31  1  0
 11 32  1  0
 11 33  1  0
 12 13  1  0
 12 22  1  0
 13 34  1  0
 14 13  1  0
 14 20  2  0
 14 15  1  0
 15 16  1  0
 15 17  1  0
 17 18  2  0
 17 35  1  0
 18 19  1  0
 18 20  1  0
 19 36  1  0
 19 37  1  0
 19 38  1  0
 20 21  1  0
 22 39  1  0
M  CHG  1  20   1
M  END
>  <DOCK_score>  (1) 
-41.590343

>  <SMILES>  (1) 
CNc1ccc(SC2=CCC2)c(Nc2[nH]cc(C)[nH+]2)c1

$$$$
