CC1(c2ccccc2)CC([NH+]=C(NC2CC=CC2)N[C@H]2CCC(=O)NC2)C1
     RDKit          3D

 58 61  0  0  1  0  0  0  0  0999 V2000
  133.1514  136.7769  163.5689 C   0  0  0  0  0  0  0  0  0  0  0  0
  133.1231  137.0605  162.0658 C   0  0  1  0  0  0  0  0  0  0  0  0
  133.8815  138.3077  161.6910 C   0  0  0  0  0  0  0  0  0  0  0  0
  135.2258  138.2316  161.3781 C   0  0  0  0  0  0  0  0  0  0  0  0
  135.9201  139.3749  161.0298 C   0  0  0  0  0  0  0  0  0  0  0  0
  135.2728  140.5960  161.0042 C   0  0  0  0  0  0  0  0  0  0  0  0
  133.9298  140.6730  161.3227 C   0  0  0  0  0  0  0  0  0  0  0  0
  133.2341  139.5288  161.6660 C   0  0  0  0  0  0  0  0  0  0  0  0
  133.4803  135.8395  161.2016 C   0  0  0  0  0  0  0  0  0  0  0  0
  131.9830  135.4889  161.2176 C   0  0  2  0  0  0  0  0  0  0  0  0
  131.4818  134.9966  159.9321 N   0  0  0  0  0  0  0  0  0  0  0  0
  132.0829  134.9193  159.1747 H   0  0  0  0  0  0  0  0  0  0  0  0
  130.2282  134.6625  159.8061 C   0  0  0  0  0  0  0  0  0  0  0  0
  129.7580  134.2005  158.5995 N   0  0  0  0  0  0  0  0  0  0  0  0
  130.6518  133.4725  157.6955 C   0  0  0  0  0  0  0  0  0  0  0  0
  129.8701  132.8804  156.4997 C   0  0  0  0  0  0  0  0  0  0  0  0
  130.5213  131.5409  156.2414 C   0  0  0  0  0  0  0  0  0  0  0  0
  131.2463  131.1661  157.2601 C   0  0  0  0  0  0  0  0  0  0  0  0
  131.1994  132.1924  158.3681 C   0  0  0  0  0  0  0  0  0  0  0  0
  129.3762  134.7721  160.8795 N   0  0  0  0  0  0  0  0  0  0  0  0
  127.9673  134.3966  160.7377 C   0  0  1  0  0  0  0  0  0  0  0  0
  127.6441  134.5702  159.7112 H   0  0  0  0  0  0  0  0  0  0  0  0
  127.7921  132.9142  161.0885 C   0  0  0  0  0  0  0  0  0  0  0  0
  126.3546  132.5054  160.7577 C   0  0  0  0  0  0  0  0  0  0  0  0
  125.3932  133.5010  161.3407 C   0  0  0  0  0  0  0  0  0  0  0  0
  124.2310  133.1751  161.4592 O   0  0  0  0  0  0  0  0  0  0  0  0
  125.7491  134.7239  161.7355 N   0  0  0  0  0  0  0  0  0  0  0  0
  127.1147  135.2334  161.6924 C   0  0  0  0  0  0  0  0  0  0  0  0
  131.7132  136.9845  161.4521 C   0  0  0  0  0  0  0  0  0  0  0  0
  134.1514  136.4543  163.8590 H   0  0  0  0  0  0  0  0  0  0  0  0
  132.8894  137.6832  164.1146 H   0  0  0  0  0  0  0  0  0  0  0  0
  132.4338  135.9909  163.8039 H   0  0  0  0  0  0  0  0  0  0  0  0
  135.7325  137.2782  161.4020 H   0  0  0  0  0  0  0  0  0  0  0  0
  136.9695  139.3148  160.7813 H   0  0  0  0  0  0  0  0  0  0  0  0
  135.8162  141.4899  160.7357 H   0  0  0  0  0  0  0  0  0  0  0  0
  133.4240  141.6270  161.3031 H   0  0  0  0  0  0  0  0  0  0  0  0
  132.1849  139.5891  161.9149 H   0  0  0  0  0  0  0  0  0  0  0  0
  134.1053  135.1090  161.7150 H   0  0  0  0  0  0  0  0  0  0  0  0
  133.8575  136.0984  160.2123 H   0  0  0  0  0  0  0  0  0  0  0  0
  131.6917  134.8559  162.0559 H   0  0  0  0  0  0  0  0  0  0  0  0
  128.8347  134.3566  158.3469 H   0  0  0  0  0  0  0  0  0  0  0  0
  131.4647  134.1128  157.3528 H   0  0  0  0  0  0  0  0  0  0  0  0
  128.8201  132.7481  156.7608 H   0  0  0  0  0  0  0  0  0  0  0  0
  129.9667  133.5251  155.6263 H   0  0  0  0  0  0  0  0  0  0  0  0
  130.4022  130.9691  155.3329 H   0  0  0  0  0  0  0  0  0  0  0  0
  131.8059  130.2436  157.3050 H   0  0  0  0  0  0  0  0  0  0  0  0
  132.1994  132.3694  158.7641 H   0  0  0  0  0  0  0  0  0  0  0  0
  130.5294  131.8649  159.1631 H   0  0  0  0  0  0  0  0  0  0  0  0
  129.7080  135.0982  161.7307 H   0  0  0  0  0  0  0  0  0  0  0  0
  128.4883  132.3138  160.5030 H   0  0  0  0  0  0  0  0  0  0  0  0
  127.9810  132.7639  162.1514 H   0  0  0  0  0  0  0  0  0  0  0  0
  126.2279  132.4706  159.6756 H   0  0  0  0  0  0  0  0  0  0  0  0
  126.1530  131.5195  161.1764 H   0  0  0  0  0  0  0  0  0  0  0  0
  125.0554  135.3134  162.0705 H   0  0  0  0  0  0  0  0  0  0  0  0
  127.5453  135.1889  162.6929 H   0  0  0  0  0  0  0  0  0  0  0  0
  127.1053  136.2692  161.3533 H   0  0  0  0  0  0  0  0  0  0  0  0
  131.6060  137.5585  160.5317 H   0  0  0  0  0  0  0  0  0  0  0  0
  130.9137  137.1771  162.1677 H   0  0  0  0  0  0  0  0  0  0  0  0
  1 30  1  0
  1 31  1  0
  1 32  1  0
  2  1  1  1
  2 29  1  0
  2  3  1  0
  2  9  1  0
  3  8  1  0
  3  4  2  0
  4  5  1  0
  4 33  1  0
  5  6  2  0
  5 34  1  0
  6  7  1  0
  6 35  1  0
  7  8  2  0
  7 36  1  0
  8 37  1  0
  9 10  1  0
  9 38  1  0
  9 39  1  0
 10 11  1  0
 10 29  1  0
 10 40  1  1
 11 12  1  0
 13 11  2  0
 13 14  1  0
 13 20  1  0
 14 15  1  0
 14 41  1  0
 15 19  1  0
 15 16  1  0
 15 42  1  0
 16 17  1  0
 16 43  1  0
 16 44  1  0
 17 18  2  0
 17 45  1  0
 18 19  1  0
 18 46  1  0
 19 47  1  0
 19 48  1  0
 20 21  1  0
 20 49  1  0
 21 22  1  6
 21 28  1  0
 21 23  1  0
 23 24  1  0
 23 50  1  0
 23 51  1  0
 24 25  1  0
 24 52  1  0
 24 53  1  0
 25 26  2  0
 25 27  1  0
 27 28  1  0
 27 54  1  0
 28 55  1  0
 28 56  1  0
 29 57  1  0
 29 58  1  0
M  CHG  1  11   1
M  END
>  <DOCK_score>  (1) 
-46.210667

>  <SMILES>  (1) 
CC1(c2ccccc2)CC([NH+]=C(NC2CC=CC2)N[C@H]2CCC(=O)NC2)C1

$$$$
