Cn1nncc1C[C@H](Nc1[nH]cc(-c2ccc(N)cc2)[nH+]1)c1ccc2sccc2c1
     RDKit          3D

 52 56  0  0  1  0  0  0  0  0999 V2000
  127.1395  133.0941  159.9547 C   0  0  0  0  0  0  0  0  0  0  0  0
  127.8253  134.3835  160.0696 N   0  0  0  0  0  0  0  0  0  0  0  0
  127.6397  135.2567  160.9969 N   0  0  0  0  0  0  0  0  0  0  0  0
  128.3956  136.2790  160.8016 N   0  0  0  0  0  0  0  0  0  0  0  0
  129.1217  136.0757  159.6967 C   0  0  0  0  0  0  0  0  0  0  0  0
  128.7653  134.8599  159.2208 C   0  0  0  0  0  0  0  0  0  0  0  0
  129.3026  134.1769  157.9895 C   0  0  0  0  0  0  0  0  0  0  0  0
  130.5162  133.3253  158.3672 C   0  0  2  0  0  0  0  0  0  0  0  0
  130.3306  132.8308  159.3208 H   0  0  0  0  0  0  0  0  0  0  0  0
  131.6977  134.1836  158.4841 N   0  0  0  0  0  0  0  0  0  0  0  0
  132.0155  134.7619  159.7013 C   0  0  0  0  0  0  0  0  0  0  0  0
  131.7451  134.2321  160.9252 N   0  0  0  0  0  0  0  0  0  0  0  0
  131.2988  133.3890  161.1005 H   0  0  0  0  0  0  0  0  0  0  0  0
  132.2211  135.1131  161.8673 C   0  0  0  0  0  0  0  0  0  0  0  0
  132.7676  136.1539  161.1917 C   0  0  0  0  0  0  0  0  0  0  0  0
  133.4062  137.3485  161.7967 C   0  0  0  0  0  0  0  0  0  0  0  0
  132.6418  138.4781  162.0849 C   0  0  0  0  0  0  0  0  0  0  0  0
  133.2366  139.5853  162.6521 C   0  0  0  0  0  0  0  0  0  0  0  0
  134.5992  139.5800  162.9257 C   0  0  0  0  0  0  0  0  0  0  0  0
  135.2006  140.7050  163.4950 N   0  0  0  0  0  0  0  0  0  0  0  0
  135.3642  138.4568  162.6344 C   0  0  0  0  0  0  0  0  0  0  0  0
  134.7727  137.3452  162.0725 C   0  0  0  0  0  0  0  0  0  0  0  0
  132.6314  135.9074  159.8647 N   0  0  0  0  0  0  0  0  0  0  0  0
  132.9388  136.4874  159.1505 H   0  0  0  0  0  0  0  0  0  0  0  0
  130.7531  132.2872  157.3009 C   0  0  0  0  0  0  0  0  0  0  0  0
  131.3213  131.0672  157.6423 C   0  0  0  0  0  0  0  0  0  0  0  0
  131.5422  130.1133  156.6775 C   0  0  0  0  0  0  0  0  0  0  0  0
  131.1954  130.3661  155.3465 C   0  0  0  0  0  0  0  0  0  0  0  0
  131.3542  129.3602  153.9122 S   0  0  0  0  0  0  0  0  0  0  0  0
  130.6546  130.5968  152.8853 C   0  0  0  0  0  0  0  0  0  0  0  0
  130.3332  131.6718  153.5773 C   0  0  0  0  0  0  0  0  0  0  0  0
  130.6228  131.5928  155.0000 C   0  0  0  0  0  0  0  0  0  0  0  0
  130.4079  132.5537  156.0117 C   0  0  0  0  0  0  0  0  0  0  0  0
  127.7044  132.3328  160.4926 H   0  0  0  0  0  0  0  0  0  0  0  0
  126.1401  133.1748  160.3824 H   0  0  0  0  0  0  0  0  0  0  0  0
  127.0634  132.8154  158.9038 H   0  0  0  0  0  0  0  0  0  0  0  0
  129.8490  136.7496  159.2684 H   0  0  0  0  0  0  0  0  0  0  0  0
  129.5994  134.9279  157.2576 H   0  0  0  0  0  0  0  0  0  0  0  0
  128.5296  133.5384  157.5617 H   0  0  0  0  0  0  0  0  0  0  0  0
  132.2573  134.3467  157.7088 H   0  0  0  0  0  0  0  0  0  0  0  0
  132.1695  134.9980  162.9398 H   0  0  0  0  0  0  0  0  0  0  0  0
  131.5839  138.4845  161.8679 H   0  0  0  0  0  0  0  0  0  0  0  0
  132.6439  140.4591  162.8796 H   0  0  0  0  0  0  0  0  0  0  0  0
  136.1515  140.7019  163.6866 H   0  0  0  0  0  0  0  0  0  0  0  0
  134.6674  141.4893  163.6986 H   0  0  0  0  0  0  0  0  0  0  0  0
  136.4230  138.4548  162.8479 H   0  0  0  0  0  0  0  0  0  0  0  0
  135.3674  136.4725  161.8466 H   0  0  0  0  0  0  0  0  0  0  0  0
  131.5907  130.8673  158.6689 H   0  0  0  0  0  0  0  0  0  0  0  0
  131.9850  129.1661  156.9481 H   0  0  0  0  0  0  0  0  0  0  0  0
  130.5060  130.4915  151.8208 H   0  0  0  0  0  0  0  0  0  0  0  0
  129.8887  132.5444  153.1224 H   0  0  0  0  0  0  0  0  0  0  0  0
  129.9623  133.5053  155.7616 H   0  0  0  0  0  0  0  0  0  0  0  0
  1  2  1  0
  1 34  1  0
  1 35  1  0
  1 36  1  0
  2  6  1  0
  2  3  1  0
  3  4  2  0
  4  5  1  0
  5  6  2  0
  5 37  1  0
  6  7  1  0
  7  8  1  0
  7 38  1  0
  7 39  1  0
  8  9  1  1
  8 10  1  0
  8 25  1  0
 10 40  1  0
 11 10  1  0
 11 23  2  0
 11 12  1  0
 12 13  1  0
 12 14  1  0
 14 15  2  0
 14 41  1  0
 15 16  1  0
 15 23  1  0
 16 22  1  0
 16 17  2  0
 17 18  1  0
 17 42  1  0
 18 19  2  0
 18 43  1  0
 19 20  1  0
 19 21  1  0
 20 44  1  0
 20 45  1  0
 21 22  2  0
 21 46  1  0
 22 47  1  0
 23 24  1  0
 25 33  1  0
 25 26  2  0
 26 27  1  0
 26 48  1  0
 27 28  2  0
 27 49  1  0
 28 32  1  0
 28 29  1  0
 29 30  1  0
 30 31  2  0
 30 50  1  0
 31 32  1  0
 31 51  1  0
 32 33  2  0
 33 52  1  0
M  CHG  1  23   1
M  END
>  <DOCK_score>  (1) 
-56.799026

>  <SMILES>  (1) 
Cn1nncc1C[C@H](Nc1[nH]cc(-c2ccc(N)cc2)[nH+]1)c1ccc2sccc2c1

$$$$
