CC[C@H](O)c1cccc([C@H](O)CNc2[nH]c(C)c(C)[nH+]2)c1
     RDKit          3D

 45 46  0  0  1  0  0  0  0  0999 V2000
  124.3406  132.0093  161.3712 C   0  0  0  0  0  0  0  0  0  0  0  0
  125.3747  132.7919  160.5594 C   0  0  0  0  0  0  0  0  0  0  0  0
  125.5013  134.2080  161.1245 C   0  0  2  0  0  0  0  0  0  0  0  0
  125.8200  134.1564  162.1657 H   0  0  0  0  0  0  0  0  0  0  0  0
  124.2359  134.8672  161.0457 O   0  0  0  0  0  0  0  0  0  0  0  0
  126.5200  134.9787  160.3250 C   0  0  0  0  0  0  0  0  0  0  0  0
  126.3300  135.1758  158.9698 C   0  0  0  0  0  0  0  0  0  0  0  0
  127.2642  135.8827  158.2365 C   0  0  0  0  0  0  0  0  0  0  0  0
  128.3915  136.3882  158.8572 C   0  0  0  0  0  0  0  0  0  0  0  0
  128.5787  136.1962  160.2129 C   0  0  0  0  0  0  0  0  0  0  0  0
  129.8040  136.7531  160.8909 C   0  0  2  0  0  0  0  0  0  0  0  0
  129.5686  136.9919  161.9279 H   0  0  0  0  0  0  0  0  0  0  0  0
  130.2260  137.9384  160.2132 O   0  0  0  0  0  0  0  0  0  0  0  0
  130.9266  135.7144  160.8486 C   0  0  0  0  0  0  0  0  0  0  0  0
  131.2428  135.3936  159.4545 N   0  0  0  0  0  0  0  0  0  0  0  0
  130.5796  134.3637  158.8149 C   0  0  0  0  0  0  0  0  0  0  0  0
  130.7721  133.9812  157.5557 N   0  0  0  0  0  0  0  0  0  0  0  0
  131.3999  134.3765  156.9308 H   0  0  0  0  0  0  0  0  0  0  0  0
  129.9383  132.9376  157.2966 C   0  0  0  0  0  0  0  0  0  0  0  0
  129.8246  132.1899  155.9930 C   0  0  0  0  0  0  0  0  0  0  0  0
  129.2309  132.6991  158.4141 C   0  0  0  0  0  0  0  0  0  0  0  0
  128.1788  131.6350  158.5932 C   0  0  0  0  0  0  0  0  0  0  0  0
  129.6387  133.5940  159.3546 N   0  0  0  0  0  0  0  0  0  0  0  0
  129.3019  133.6590  160.2618 H   0  0  0  0  0  0  0  0  0  0  0  0
  127.6441  135.4891  160.9466 C   0  0  0  0  0  0  0  0  0  0  0  0
  124.2504  131.0004  160.9686 H   0  0  0  0  0  0  0  0  0  0  0  0
  124.6594  131.9578  162.4123 H   0  0  0  0  0  0  0  0  0  0  0  0
  123.3754  132.5121  161.3112 H   0  0  0  0  0  0  0  0  0  0  0  0
  125.0560  132.8433  159.5183 H   0  0  0  0  0  0  0  0  0  0  0  0
  126.3400  132.2890  160.6194 H   0  0  0  0  0  0  0  0  0  0  0  0
  124.2418  135.7718  161.3874 H   0  0  0  0  0  0  0  0  0  0  0  0
  125.4516  134.7770  158.4842 H   0  0  0  0  0  0  0  0  0  0  0  0
  127.1158  136.0362  157.1778 H   0  0  0  0  0  0  0  0  0  0  0  0
  129.1237  136.9368  158.2832 H   0  0  0  0  0  0  0  0  0  0  0  0
  130.4523  137.8003  159.2831 H   0  0  0  0  0  0  0  0  0  0  0  0
  131.8129  136.1172  161.3388 H   0  0  0  0  0  0  0  0  0  0  0  0
  130.6047  134.8103  161.3654 H   0  0  0  0  0  0  0  0  0  0  0  0
  131.9177  135.9042  158.9805 H   0  0  0  0  0  0  0  0  0  0  0  0
  129.0757  132.6697  155.3630 H   0  0  0  0  0  0  0  0  0  0  0  0
  130.7882  132.1994  155.4836 H   0  0  0  0  0  0  0  0  0  0  0  0
  129.5278  131.1597  156.1898 H   0  0  0  0  0  0  0  0  0  0  0  0
  127.2037  132.0386  158.3205 H   0  0  0  0  0  0  0  0  0  0  0  0
  128.4111  130.7832  157.9540 H   0  0  0  0  0  0  0  0  0  0  0  0
  128.1607  131.3136  159.6346 H   0  0  0  0  0  0  0  0  0  0  0  0
  127.7922  135.3358  162.0053 H   0  0  0  0  0  0  0  0  0  0  0  0
  1  2  1  0
  1 26  1  0
  1 27  1  0
  1 28  1  0
  2  3  1  0
  2 29  1  0
  2 30  1  0
  3  4  1  1
  3  5  1  0
  3  6  1  0
  5 31  1  0
  6 25  2  0
  6  7  1  0
  7  8  2  0
  7 32  1  0
  8  9  1  0
  8 33  1  0
  9 10  2  0
  9 34  1  0
 10 11  1  0
 10 25  1  0
 11 12  1  1
 11 13  1  0
 11 14  1  0
 13 35  1  0
 14 15  1  0
 14 36  1  0
 14 37  1  0
 15 38  1  0
 16 15  1  0
 16 23  1  0
 16 17  2  0
 17 18  1  0
 17 19  1  0
 19 20  1  0
 19 21  2  0
 20 39  1  0
 20 40  1  0
 20 41  1  0
 21 22  1  0
 21 23  1  0
 22 42  1  0
 22 43  1  0
 22 44  1  0
 23 24  1  0
 25 45  1  0
M  CHG  1  17   1
M  END
>  <DOCK_score>  (1) 
-53.118454

>  <SMILES>  (1) 
CC[C@H](O)c1cccc([C@H](O)CNc2[nH]c(C)c(C)[nH+]2)c1

$$$$
