O=C1CC[C@H](NC(N[C@H]2Cc3ccc(F)cc3C2)=[NH+]C2CC2)CN1
     RDKit          3D

 48 51  0  0  1  0  0  0  0  0999 V2000
  123.7287  133.6934  161.3380 O   0  0  0  0  0  0  0  0  0  0  0  0
  124.9179  133.8800  161.1908 C   0  0  0  0  0  0  0  0  0  0  0  0
  125.6811  132.9373  160.3054 C   0  0  0  0  0  0  0  0  0  0  0  0
  127.1810  133.0583  160.5860 C   0  0  0  0  0  0  0  0  0  0  0  0
  127.5579  134.5446  160.5740 C   0  0  2  0  0  0  0  0  0  0  0  0
  127.2048  135.0040  159.6508 H   0  0  0  0  0  0  0  0  0  0  0  0
  129.0134  134.6833  160.6666 N   0  0  0  0  0  0  0  0  0  0  0  0
  129.7748  134.7189  159.5223 C   0  0  0  0  0  0  0  0  0  0  0  0
  129.3575  134.0470  158.3978 N   0  0  0  0  0  0  0  0  0  0  0  0
  130.3439  133.5150  157.4541 C   0  0  1  0  0  0  0  0  0  0  0  0
  131.2468  134.1255  157.4505 H   0  0  0  0  0  0  0  0  0  0  0  0
  130.6787  132.0422  157.7784 C   0  0  0  0  0  0  0  0  0  0  0  0
  130.8958  131.3789  156.4351 C   0  0  0  0  0  0  0  0  0  0  0  0
  131.5134  130.1809  156.1156 C   0  0  0  0  0  0  0  0  0  0  0  0
  131.5959  129.7702  154.8001 C   0  0  0  0  0  0  0  0  0  0  0  0
  131.0590  130.5580  153.7957 C   0  0  0  0  0  0  0  0  0  0  0  0
  131.1376  130.1588  152.5075 F   0  0  0  0  0  0  0  0  0  0  0  0
  130.4417  131.7543  154.1140 C   0  0  0  0  0  0  0  0  0  0  0  0
  130.3595  132.1661  155.4333 C   0  0  0  0  0  0  0  0  0  0  0  0
  129.7455  133.4121  156.0351 C   0  0  0  0  0  0  0  0  0  0  0  0
  130.8920  135.3899  159.5036 N   0  0  0  0  0  0  0  0  0  0  0  0
  131.4292  135.4151  158.6963 H   0  0  0  0  0  0  0  0  0  0  0  0
  131.3364  136.1062  160.7018 C   0  0  0  0  0  0  0  0  0  0  0  0
  130.3361  137.0501  161.3722 C   0  0  0  0  0  0  0  0  0  0  0  0
  131.5225  137.6207  160.5911 C   0  0  0  0  0  0  0  0  0  0  0  0
  126.9002  135.2263  161.7745 C   0  0  0  0  0  0  0  0  0  0  0  0
  125.4779  134.9117  161.8236 N   0  0  0  0  0  0  0  0  0  0  0  0
  125.4871  133.1838  159.2615 H   0  0  0  0  0  0  0  0  0  0  0  0
  125.3575  131.9149  160.5008 H   0  0  0  0  0  0  0  0  0  0  0  0
  127.7424  132.5311  159.8146 H   0  0  0  0  0  0  0  0  0  0  0  0
  127.4079  132.6301  161.5623 H   0  0  0  0  0  0  0  0  0  0  0  0
  129.4400  134.7502  161.5352 H   0  0  0  0  0  0  0  0  0  0  0  0
  128.4101  133.9250  158.2291 H   0  0  0  0  0  0  0  0  0  0  0  0
  129.8458  131.5728  158.3018 H   0  0  0  0  0  0  0  0  0  0  0  0
  131.5852  131.9820  158.3807 H   0  0  0  0  0  0  0  0  0  0  0  0
  131.9324  129.5661  156.8984 H   0  0  0  0  0  0  0  0  0  0  0  0
  132.0789  128.8359  154.5546 H   0  0  0  0  0  0  0  0  0  0  0  0
  130.0228  132.3690  153.3310 H   0  0  0  0  0  0  0  0  0  0  0  0
  130.0153  134.2889  155.4464 H   0  0  0  0  0  0  0  0  0  0  0  0
  128.6614  133.3119  156.0881 H   0  0  0  0  0  0  0  0  0  0  0  0
  132.0242  135.5605  161.3477 H   0  0  0  0  0  0  0  0  0  0  0  0
  129.3476  137.1382  160.9217 H   0  0  0  0  0  0  0  0  0  0  0  0
  130.3663  137.1257  162.4592 H   0  0  0  0  0  0  0  0  0  0  0  0
  132.3326  138.0715  161.1645 H   0  0  0  0  0  0  0  0  0  0  0  0
  131.3147  138.0843  159.6267 H   0  0  0  0  0  0  0  0  0  0  0  0
  127.3776  134.8805  162.6913 H   0  0  0  0  0  0  0  0  0  0  0  0
  127.0277  136.3056  161.6905 H   0  0  0  0  0  0  0  0  0  0  0  0
  124.9025  135.4890  162.3497 H   0  0  0  0  0  0  0  0  0  0  0  0
  1  2  2  0
  2 27  1  0
  2  3  1  0
  3  4  1  0
  3 28  1  0
  3 29  1  0
  4  5  1  0
  4 30  1  0
  4 31  1  0
  5  6  1  6
  5  7  1  0
  5 26  1  0
  7 32  1  0
  8  7  1  0
  8  9  1  0
  8 21  2  0
  9 10  1  0
  9 33  1  0
 10 11  1  6
 10 20  1  0
 10 12  1  0
 12 13  1  0
 12 34  1  0
 12 35  1  0
 13 19  2  0
 13 14  1  0
 14 15  2  0
 14 36  1  0
 15 16  1  0
 15 37  1  0
 16 17  1  0
 16 18  2  0
 18 19  1  0
 18 38  1  0
 19 20  1  0
 20 39  1  0
 20 40  1  0
 21 22  1  0
 21 23  1  0
 23 25  1  0
 23 24  1  0
 23 41  1  0
 24 25  1  0
 24 42  1  0
 24 43  1  0
 25 44  1  0
 25 45  1  0
 26 27  1  0
 26 46  1  0
 26 47  1  0
 27 48  1  0
M  CHG  1  21   1
M  END
>  <DOCK_score>  (1) 
-47.177269

>  <SMILES>  (1) 
O=C1CC[C@H](NC(N[C@H]2Cc3ccc(F)cc3C2)=[NH+]C2CC2)CN1

$$$$
