NC(=O)CNc1cncc([C@@H]([NH+]=C2NCCCN2)C2CC2)c1
     RDKit          3D

 45 47  0  0  1  0  0  0  0  0999 V2000
  126.2505  137.7210  163.5571 N   0  0  0  0  0  0  0  0  0  0  0  0
  126.3831  136.5506  164.2121 C   0  0  0  0  0  0  0  0  0  0  0  0
  126.8509  136.5313  165.3309 O   0  0  0  0  0  0  0  0  0  0  0  0
  125.9559  135.2651  163.5517 C   0  0  0  0  0  0  0  0  0  0  0  0
  125.4345  135.5532  162.2134 N   0  0  0  0  0  0  0  0  0  0  0  0
  126.2965  135.5585  161.1141 C   0  0  0  0  0  0  0  0  0  0  0  0
  125.7972  135.4098  159.8261 C   0  0  0  0  0  0  0  0  0  0  0  0
  126.6069  135.4201  158.7862 N   0  0  0  0  0  0  0  0  0  0  0  0
  127.9112  135.5590  158.9224 C   0  0  0  0  0  0  0  0  0  0  0  0
  128.4834  135.7064  160.1721 C   0  0  0  0  0  0  0  0  0  0  0  0
  129.9755  135.8647  160.3133 C   0  0  1  0  0  0  0  0  0  0  0  0
  130.2962  135.4480  161.2681 H   0  0  0  0  0  0  0  0  0  0  0  0
  130.6472  135.1563  159.2210 N   0  0  0  0  0  0  0  0  0  0  0  0
  131.2171  135.6432  158.6052 H   0  0  0  0  0  0  0  0  0  0  0  0
  130.4791  133.8719  159.0765 C   0  0  0  0  0  0  0  0  0  0  0  0
  129.6777  133.1391  159.9386 N   0  0  0  0  0  0  0  0  0  0  0  0
  128.7824  132.1336  159.3352 C   0  0  0  0  0  0  0  0  0  0  0  0
  129.6026  131.2618  158.3774 C   0  0  0  0  0  0  0  0  0  0  0  0
  130.2916  132.1601  157.3438 C   0  0  0  0  0  0  0  0  0  0  0  0
  131.0970  133.1651  158.0561 N   0  0  0  0  0  0  0  0  0  0  0  0
  130.3382  137.3500  160.2573 C   0  0  0  0  0  0  0  0  0  0  0  0
  131.5542  137.8111  161.0634 C   0  0  0  0  0  0  0  0  0  0  0  0
  130.1436  138.1733  161.5321 C   0  0  0  0  0  0  0  0  0  0  0  0
  127.6696  135.7074  161.2932 C   0  0  0  0  0  0  0  0  0  0  0  0
  125.8800  137.7361  162.6608 H   0  0  0  0  0  0  0  0  0  0  0  0
  126.5255  138.5484  163.9822 H   0  0  0  0  0  0  0  0  0  0  0  0
  126.8125  134.5956  163.4716 H   0  0  0  0  0  0  0  0  0  0  0  0
  125.1786  134.7901  164.1501 H   0  0  0  0  0  0  0  0  0  0  0  0
  124.4907  135.7406  162.0906 H   0  0  0  0  0  0  0  0  0  0  0  0
  124.7347  135.2892  159.6751 H   0  0  0  0  0  0  0  0  0  0  0  0
  128.5413  135.5580  158.0452 H   0  0  0  0  0  0  0  0  0  0  0  0
  129.7047  133.2841  160.8973 H   0  0  0  0  0  0  0  0  0  0  0  0
  127.9854  132.6325  158.7841 H   0  0  0  0  0  0  0  0  0  0  0  0
  128.3508  131.5103  160.1185 H   0  0  0  0  0  0  0  0  0  0  0  0
  128.9423  130.5603  157.8677 H   0  0  0  0  0  0  0  0  0  0  0  0
  130.3557  130.7109  158.9407 H   0  0  0  0  0  0  0  0  0  0  0  0
  129.5390  132.6599  156.7339 H   0  0  0  0  0  0  0  0  0  0  0  0
  130.9390  131.5562  156.7080 H   0  0  0  0  0  0  0  0  0  0  0  0
  132.0240  133.3270  157.8207 H   0  0  0  0  0  0  0  0  0  0  0  0
  130.1484  137.8447  159.3048 H   0  0  0  0  0  0  0  0  0  0  0  0
  132.0956  137.0562  161.6336 H   0  0  0  0  0  0  0  0  0  0  0  0
  132.1647  138.6092  160.6411 H   0  0  0  0  0  0  0  0  0  0  0  0
  129.8260  139.2099  161.4183 H   0  0  0  0  0  0  0  0  0  0  0  0
  129.7566  137.6569  162.4106 H   0  0  0  0  0  0  0  0  0  0  0  0
  128.0895  135.8210  162.2817 H   0  0  0  0  0  0  0  0  0  0  0  0
  1  2  1  0
  1 25  1  0
  1 26  1  0
  2  3  2  0
  2  4  1  0
  4  5  1  0
  4 27  1  0
  4 28  1  0
  5  6  1  0
  5 29  1  0
  6 24  2  0
  6  7  1  0
  7  8  2  0
  7 30  1  0
  8  9  1  0
  9 10  2  0
  9 31  1  0
 10 11  1  0
 10 24  1  0
 11 12  1  1
 11 13  1  0
 11 21  1  0
 13 14  1  0
 13 15  2  0
 15 20  1  0
 15 16  1  0
 16 17  1  0
 16 32  1  0
 17 18  1  0
 17 33  1  0
 17 34  1  0
 18 19  1  0
 18 35  1  0
 18 36  1  0
 19 20  1  0
 19 37  1  0
 19 38  1  0
 20 39  1  0
 21 23  1  0
 21 22  1  0
 21 40  1  0
 22 23  1  0
 22 41  1  0
 22 42  1  0
 23 43  1  0
 23 44  1  0
 24 45  1  0
M  CHG  1  13   1
M  END
>  <DOCK_score>  (1) 
-43.900974

>  <SMILES>  (1) 
NC(=O)CNc1cncc([C@@H]([NH+]=C2NCCCN2)C2CC2)c1

$$$$
