Nc1ccc(-c2c[nH]c(N[C@@H](Cn3nccc3N)C(Cc3ccccc3)c3ccccc3)[nH+]2)cc1
     RDKit          3D

 65 69  0  0  1  0  0  0  0  0999 V2000
  131.1662  130.1933  151.6217 N   0  0  0  0  0  0  0  0  0  0  0  0
  130.8750  130.7946  152.8485 C   0  0  0  0  0  0  0  0  0  0  0  0
  130.7653  132.1771  152.9352 C   0  0  0  0  0  0  0  0  0  0  0  0
  130.4777  132.7726  154.1450 C   0  0  0  0  0  0  0  0  0  0  0  0
  130.2966  131.9867  155.2820 C   0  0  0  0  0  0  0  0  0  0  0  0
  129.9874  132.6252  156.5850 C   0  0  0  0  0  0  0  0  0  0  0  0
  129.2576  132.0781  157.5883 C   0  0  0  0  0  0  0  0  0  0  0  0
  129.2196  133.0037  158.6041 N   0  0  0  0  0  0  0  0  0  0  0  0
  128.7705  132.9018  159.4579 H   0  0  0  0  0  0  0  0  0  0  0  0
  129.9279  134.0894  158.1904 C   0  0  0  0  0  0  0  0  0  0  0  0
  130.1327  135.2457  158.9235 N   0  0  0  0  0  0  0  0  0  0  0  0
  130.1818  135.1865  160.3865 C   0  0  1  0  0  0  0  0  0  0  0  0
  129.4223  134.4934  160.7477 H   0  0  0  0  0  0  0  0  0  0  0  0
  131.5644  134.7052  160.8312 C   0  0  0  0  0  0  0  0  0  0  0  0
  131.6374  133.2474  160.7063 N   0  0  0  0  0  0  0  0  0  0  0  0
  132.0641  132.5374  159.5768 N   0  0  0  0  0  0  0  0  0  0  0  0
  131.9912  131.2581  159.8417 C   0  0  0  0  0  0  0  0  0  0  0  0
  131.5164  131.1060  161.1474 C   0  0  0  0  0  0  0  0  0  0  0  0
  131.3105  132.3493  161.6633 C   0  0  0  0  0  0  0  0  0  0  0  0
  130.8447  132.6427  162.9419 N   0  0  0  0  0  0  0  0  0  0  0  0
  129.9170  136.5790  160.9624 C   0  0  2  0  0  0  0  0  0  0  0  0
  128.5345  137.0604  160.5176 C   0  0  0  0  0  0  0  0  0  0  0  0
  127.4786  136.4283  161.3875 C   0  0  0  0  0  0  0  0  0  0  0  0
  126.9145  135.2203  161.0223 C   0  0  0  0  0  0  0  0  0  0  0  0
  125.9495  134.6381  161.8225 C   0  0  0  0  0  0  0  0  0  0  0  0
  125.5409  135.2690  162.9827 C   0  0  0  0  0  0  0  0  0  0  0  0
  126.1012  136.4796  163.3452 C   0  0  0  0  0  0  0  0  0  0  0  0
  127.0700  137.0593  162.5475 C   0  0  0  0  0  0  0  0  0  0  0  0
  130.9673  137.5374  160.4627 C   0  0  0  0  0  0  0  0  0  0  0  0
  132.1336  137.7208  161.1815 C   0  0  0  0  0  0  0  0  0  0  0  0
  133.0992  138.5962  160.7206 C   0  0  0  0  0  0  0  0  0  0  0  0
  132.8938  139.2960  159.5463 C   0  0  0  0  0  0  0  0  0  0  0  0
  131.7250  139.1163  158.8302 C   0  0  0  0  0  0  0  0  0  0  0  0
  130.7618  138.2370  159.2883 C   0  0  0  0  0  0  0  0  0  0  0  0
  130.3851  133.8594  156.9835 N   0  0  0  0  0  0  0  0  0  0  0  0
  130.9219  134.4738  156.4590 H   0  0  0  0  0  0  0  0  0  0  0  0
  130.4123  130.6002  155.1941 C   0  0  0  0  0  0  0  0  0  0  0  0
  130.6950  130.0086  153.9811 C   0  0  0  0  0  0  0  0  0  0  0  0
  131.2916  130.7405  150.8311 H   0  0  0  0  0  0  0  0  0  0  0  0
  131.2428  129.2278  151.5608 H   0  0  0  0  0  0  0  0  0  0  0  0
  130.9060  132.7855  152.0540 H   0  0  0  0  0  0  0  0  0  0  0  0
  130.3921  133.8471  154.2116 H   0  0  0  0  0  0  0  0  0  0  0  0
  128.7982  131.1006  157.5908 H   0  0  0  0  0  0  0  0  0  0  0  0
  130.2435  136.0953  158.4684 H   0  0  0  0  0  0  0  0  0  0  0  0
  132.3281  135.1625  160.2020 H   0  0  0  0  0  0  0  0  0  0  0  0
  131.7313  134.9898  161.8700 H   0  0  0  0  0  0  0  0  0  0  0  0
  132.2533  130.4567  159.1667 H   0  0  0  0  0  0  0  0  0  0  0  0
  131.3474  130.1694  161.6579 H   0  0  0  0  0  0  0  0  0  0  0  0
  130.7282  133.5659  163.2157 H   0  0  0  0  0  0  0  0  0  0  0  0
  130.6365  131.9238  163.5590 H   0  0  0  0  0  0  0  0  0  0  0  0
  129.9535  136.5351  162.0508 H   0  0  0  0  0  0  0  0  0  0  0  0
  128.4802  138.1451  160.6104 H   0  0  0  0  0  0  0  0  0  0  0  0
  128.3676  136.7758  159.4787 H   0  0  0  0  0  0  0  0  0  0  0  0
  127.2306  134.7295  160.1135 H   0  0  0  0  0  0  0  0  0  0  0  0
  125.5113  133.6925  161.5392 H   0  0  0  0  0  0  0  0  0  0  0  0
  124.7837  134.8163  163.6058 H   0  0  0  0  0  0  0  0  0  0  0  0
  125.7819  136.9727  164.2514 H   0  0  0  0  0  0  0  0  0  0  0  0
  127.5076  138.0052  162.8305 H   0  0  0  0  0  0  0  0  0  0  0  0
  132.2922  137.1775  162.1014 H   0  0  0  0  0  0  0  0  0  0  0  0
  134.0120  138.7368  161.2804 H   0  0  0  0  0  0  0  0  0  0  0  0
  133.6461  139.9832  159.1886 H   0  0  0  0  0  0  0  0  0  0  0  0
  131.5644  139.6633  157.9129 H   0  0  0  0  0  0  0  0  0  0  0  0
  129.8485  138.0971  158.7290 H   0  0  0  0  0  0  0  0  0  0  0  0
  130.2769  129.9897  156.0747 H   0  0  0  0  0  0  0  0  0  0  0  0
  130.7810  128.9342  153.9118 H   0  0  0  0  0  0  0  0  0  0  0  0
  1  2  1  0
  1 39  1  0
  1 40  1  0
  2 38  2  0
  2  3  1  0
  3  4  2  0
  3 41  1  0
  4  5  1  0
  4 42  1  0
  5  6  1  0
  5 37  2  0
  6 35  1  0
  6  7  2  0
  7  8  1  0
  7 43  1  0
  8  9  1  0
  8 10  1  0
 10 11  1  0
 10 35  2  0
 11 12  1  0
 11 44  1  0
 12 13  1  1
 12 14  1  0
 12 21  1  0
 14 15  1  0
 14 45  1  0
 14 46  1  0
 15 19  1  0
 15 16  1  0
 16 17  2  0
 17 18  1  0
 17 47  1  0
 18 19  2  0
 18 48  1  0
 19 20  1  0
 20 49  1  0
 20 50  1  0
 21 22  1  0
 21 29  1  0
 21 51  1  1
 22 23  1  0
 22 52  1  0
 22 53  1  0
 23 28  1  0
 23 24  2  0
 24 25  1  0
 24 54  1  0
 25 26  2  0
 25 55  1  0
 26 27  1  0
 26 56  1  0
 27 28  2  0
 27 57  1  0
 28 58  1  0
 29 34  1  0
 29 30  2  0
 30 31  1  0
 30 59  1  0
 31 32  2  0
 31 60  1  0
 32 33  1  0
 32 61  1  0
 33 34  2  0
 33 62  1  0
 34 63  1  0
 35 36  1  0
 37 38  1  0
 37 64  1  0
 38 65  1  0
M  CHG  1  35   1
M  END
>  <DOCK_score>  (1) 
-64.435585

>  <SMILES>  (1) 
Nc1ccc(-c2c[nH]c(N[C@@H](Cn3nccc3N)C(Cc3ccccc3)c3ccccc3)[nH+]2)cc1

$$$$
