CN(C[C@@H]([NH3+])Cc1ccccc1)C1c2cc(O)ccc2-c2ccc(O)cc21
     RDKit          3D

 52 55  0  0  1  0  0  0  0  0999 V2000
  127.8535  134.5610  157.8537 C   0  0  0  0  0  0  0  0  0  0  0  0
  128.9922  134.7836  158.7546 N   0  0  0  0  0  0  0  0  0  0  0  0
  128.9922  136.1579  159.2735 C   0  0  0  0  0  0  0  0  0  0  0  0
  130.1900  136.3511  160.2056 C   0  0  1  0  0  0  0  0  0  0  0  0
  129.9599  135.9312  161.1846 H   0  0  0  0  0  0  0  0  0  0  0  0
  131.3630  135.6684  159.6433 N   0  0  0  0  0  0  0  0  0  0  0  0
  131.6385  136.1239  158.7861 H   0  0  0  0  0  0  0  0  0  0  0  0
  132.1242  135.7080  160.3047 H   0  0  0  0  0  0  0  0  0  0  0  0
  131.1324  134.7048  159.4534 H   0  0  0  0  0  0  0  0  0  0  0  0
  130.4892  137.8447  160.3488 C   0  0  0  0  0  0  0  0  0  0  0  0
  131.3033  138.0768  161.5955 C   0  0  0  0  0  0  0  0  0  0  0  0
  130.6697  138.3291  162.7979 C   0  0  0  0  0  0  0  0  0  0  0  0
  131.4163  138.5363  163.9425 C   0  0  0  0  0  0  0  0  0  0  0  0
  132.7968  138.4963  163.8838 C   0  0  0  0  0  0  0  0  0  0  0  0
  133.4306  138.2491  162.6806 C   0  0  0  0  0  0  0  0  0  0  0  0
  132.6839  138.0419  161.5358 C   0  0  0  0  0  0  0  0  0  0  0  0
  128.9941  133.8067  159.8518 C   0  0  0  0  0  0  0  0  0  0  0  0
  129.4916  132.4706  159.3572 C   0  0  0  0  0  0  0  0  0  0  0  0
  130.6919  132.0778  158.8058 C   0  0  0  0  0  0  0  0  0  0  0  0
  130.8840  130.7546  158.4317 C   0  0  0  0  0  0  0  0  0  0  0  0
  132.0672  130.3671  157.8875 O   0  0  0  0  0  0  0  0  0  0  0  0
  129.8664  129.8276  158.6134 C   0  0  0  0  0  0  0  0  0  0  0  0
  128.6646  130.2164  159.1645 C   0  0  0  0  0  0  0  0  0  0  0  0
  128.4665  131.5464  159.5424 C   0  0  0  0  0  0  0  0  0  0  0  0
  127.2937  132.2243  160.1480 C   0  0  0  0  0  0  0  0  0  0  0  0
  126.0397  131.7337  160.5192 C   0  0  0  0  0  0  0  0  0  0  0  0
  125.1034  132.5807  161.0716 C   0  0  0  0  0  0  0  0  0  0  0  0
  125.4019  133.9233  161.2615 C   0  0  0  0  0  0  0  0  0  0  0  0
  124.4759  134.7548  161.8070 O   0  0  0  0  0  0  0  0  0  0  0  0
  126.6470  134.4158  160.8940 C   0  0  0  0  0  0  0  0  0  0  0  0
  127.5858  133.5721  160.3411 C   0  0  0  0  0  0  0  0  0  0  0  0
  127.9630  135.1871  156.9681 H   0  0  0  0  0  0  0  0  0  0  0  0
  127.8251  133.5127  157.5562 H   0  0  0  0  0  0  0  0  0  0  0  0
  126.9275  134.8180  158.3680 H   0  0  0  0  0  0  0  0  0  0  0  0
  128.0697  136.3381  159.8251 H   0  0  0  0  0  0  0  0  0  0  0  0
  129.0616  136.8599  158.4424 H   0  0  0  0  0  0  0  0  0  0  0  0
  129.5525  138.3978  160.4183 H   0  0  0  0  0  0  0  0  0  0  0  0
  131.0501  138.1879  159.4793 H   0  0  0  0  0  0  0  0  0  0  0  0
  129.5910  138.3600  162.8437 H   0  0  0  0  0  0  0  0  0  0  0  0
  130.9212  138.7290  164.8828 H   0  0  0  0  0  0  0  0  0  0  0  0
  133.3803  138.6579  164.7784 H   0  0  0  0  0  0  0  0  0  0  0  0
  134.5092  138.2175  162.6348 H   0  0  0  0  0  0  0  0  0  0  0  0
  133.1791  137.8484  160.5957 H   0  0  0  0  0  0  0  0  0  0  0  0
  129.6210  134.1626  160.6694 H   0  0  0  0  0  0  0  0  0  0  0  0
  131.4829  132.7994  158.6643 H   0  0  0  0  0  0  0  0  0  0  0  0
  132.7129  131.0815  157.8005 H   0  0  0  0  0  0  0  0  0  0  0  0
  130.0173  128.7986  158.3223 H   0  0  0  0  0  0  0  0  0  0  0  0
  127.8757  129.4923  159.3046 H   0  0  0  0  0  0  0  0  0  0  0  0
  125.8036  130.6899  160.3730 H   0  0  0  0  0  0  0  0  0  0  0  0
  124.1345  132.1988  161.3578 H   0  0  0  0  0  0  0  0  0  0  0  0
  124.7749  135.6697  161.8996 H   0  0  0  0  0  0  0  0  0  0  0  0
  126.8797  135.4600  161.0419 H   0  0  0  0  0  0  0  0  0  0  0  0
  1  2  1  0
  1 32  1  0
  1 33  1  0
  1 34  1  0
  2  3  1  0
  2 17  1  0
  3  4  1  0
  3 35  1  0
  3 36  1  0
  4  5  1  1
  4  6  1  0
  4 10  1  0
  6  7  1  0
  6  8  1  0
  6  9  1  0
 10 11  1  0
 10 37  1  0
 10 38  1  0
 11 16  1  0
 11 12  2  0
 12 13  1  0
 12 39  1  0
 13 14  2  0
 13 40  1  0
 14 15  1  0
 14 41  1  0
 15 16  2  0
 15 42  1  0
 16 43  1  0
 17 31  1  0
 17 18  1  0
 17 44  1  0
 18 24  1  0
 18 19  2  0
 19 20  1  0
 19 45  1  0
 20 21  1  0
 20 22  2  0
 21 46  1  0
 22 23  1  0
 22 47  1  0
 23 24  2  0
 23 48  1  0
 24 25  1  0
 25 31  2  0
 25 26  1  0
 26 27  2  0
 26 49  1  0
 27 28  1  0
 27 50  1  0
 28 29  1  0
 28 30  2  0
 29 51  1  0
 30 31  1  0
 30 52  1  0
M  CHG  1   6   1
M  END
>  <DOCK_score>  (1) 
-41.042103

>  <SMILES>  (1) 
CN(C[C@@H]([NH3+])Cc1ccccc1)C1c2cc(O)ccc2-c2ccc(O)cc21

$$$$
