C[C@H]([NH+]=C1NCCCN1)c1cncc(NCC(N)=O)c1
     RDKit          3D

 41 42  0  0  1  0  0  0  0  0999 V2000
  130.4308  137.3212  160.3359 C   0  0  0  0  0  0  0  0  0  0  0  0
  130.0275  135.8454  160.3566 C   0  0  2  0  0  0  0  0  0  0  0  0
  130.3383  135.3969  161.3002 H   0  0  0  0  0  0  0  0  0  0  0  0
  130.6779  135.1458  159.2458 N   0  0  0  0  0  0  0  0  0  0  0  0
  131.2599  135.6317  158.6408 H   0  0  0  0  0  0  0  0  0  0  0  0
  130.4745  133.8703  159.0706 C   0  0  0  0  0  0  0  0  0  0  0  0
  129.6548  133.1389  159.9164 N   0  0  0  0  0  0  0  0  0  0  0  0
  128.7312  132.1733  159.2909 C   0  0  0  0  0  0  0  0  0  0  0  0
  129.5256  131.3030  158.3102 C   0  0  0  0  0  0  0  0  0  0  0  0
  130.2373  132.2070  157.2972 C   0  0  0  0  0  0  0  0  0  0  0  0
  131.0711  133.1720  158.0319 N   0  0  0  0  0  0  0  0  0  0  0  0
  128.5315  135.7314  160.2149 C   0  0  0  0  0  0  0  0  0  0  0  0
  127.9534  135.6302  158.9628 C   0  0  0  0  0  0  0  0  0  0  0  0
  126.6457  135.5295  158.8263 N   0  0  0  0  0  0  0  0  0  0  0  0
  125.8377  135.5154  159.8677 C   0  0  0  0  0  0  0  0  0  0  0  0
  126.3428  135.6186  161.1574 C   0  0  0  0  0  0  0  0  0  0  0  0
  125.4827  135.6087  162.2584 N   0  0  0  0  0  0  0  0  0  0  0  0
  125.9998  135.2790  163.5889 C   0  0  0  0  0  0  0  0  0  0  0  0
  126.4574  136.5397  164.2764 C   0  0  0  0  0  0  0  0  0  0  0  0
  126.3502  137.7270  163.6478 N   0  0  0  0  0  0  0  0  0  0  0  0
  126.9220  136.4856  165.3954 O   0  0  0  0  0  0  0  0  0  0  0  0
  127.7201  135.7264  161.3372 C   0  0  0  0  0  0  0  0  0  0  0  0
  130.1200  137.7695  159.3923 H   0  0  0  0  0  0  0  0  0  0  0  0
  129.9469  137.8417  161.1623 H   0  0  0  0  0  0  0  0  0  0  0  0
  131.5129  137.4036  160.4384 H   0  0  0  0  0  0  0  0  0  0  0  0
  129.6872  133.2598  160.8783 H   0  0  0  0  0  0  0  0  0  0  0  0
  127.9471  132.7071  158.7539 H   0  0  0  0  0  0  0  0  0  0  0  0
  128.2865  131.5435  160.0613 H   0  0  0  0  0  0  0  0  0  0  0  0
  128.8455  130.6324  157.7852 H   0  0  0  0  0  0  0  0  0  0  0  0
  130.2642  130.7181  158.8584 H   0  0  0  0  0  0  0  0  0  0  0  0
  129.4976  132.7419  156.7014 H   0  0  0  0  0  0  0  0  0  0  0  0
  130.8670  131.6013  156.6455 H   0  0  0  0  0  0  0  0  0  0  0  0
  132.0017  133.3140  157.7983 H   0  0  0  0  0  0  0  0  0  0  0  0
  128.5817  135.6333  158.0845 H   0  0  0  0  0  0  0  0  0  0  0  0
  124.7721  135.4270  159.7164 H   0  0  0  0  0  0  0  0  0  0  0  0
  124.5433  135.8201  162.1418 H   0  0  0  0  0  0  0  0  0  0  0  0
  126.8408  134.5923  163.4921 H   0  0  0  0  0  0  0  0  0  0  0  0
  125.2128  134.8088  164.1784 H   0  0  0  0  0  0  0  0  0  0  0  0
  125.9786  137.7702  162.7529 H   0  0  0  0  0  0  0  0  0  0  0  0
  126.6447  138.5384  164.0903 H   0  0  0  0  0  0  0  0  0  0  0  0
  128.1445  135.8037  162.3272 H   0  0  0  0  0  0  0  0  0  0  0  0
  1  2  1  0
  1 23  1  0
  1 24  1  0
  1 25  1  0
  2  3  1  1
  2  4  1  0
  2 12  1  0
  4  5  1  0
  4  6  2  0
  6 11  1  0
  6  7  1  0
  7  8  1  0
  7 26  1  0
  8  9  1  0
  8 27  1  0
  8 28  1  0
  9 10  1  0
  9 29  1  0
  9 30  1  0
 10 11  1  0
 10 31  1  0
 10 32  1  0
 11 33  1  0
 12 22  1  0
 12 13  2  0
 13 14  1  0
 13 34  1  0
 14 15  2  0
 15 16  1  0
 15 35  1  0
 16 17  1  0
 16 22  2  0
 17 18  1  0
 17 36  1  0
 18 19  1  0
 18 37  1  0
 18 38  1  0
 19 20  1  0
 19 21  2  0
 20 39  1  0
 20 40  1  0
 22 41  1  0
M  CHG  1   4   1
M  END
>  <DOCK_score>  (1) 
-42.220196

>  <SMILES>  (1) 
C[C@H]([NH+]=C1NCCCN1)c1cncc(NCC(N)=O)c1

$$$$
