Nc1ccc(Nc2[nH]cc(-c3ccc(C(F)(F)F)cc3)[nH+]2)cc1-c1ccc(Cl)cc1
     RDKit          3D

 47 50  0  0  1  0  0  0  0  0999 V2000
  126.2605  136.9811  162.8588 N   0  0  0  0  0  0  0  0  0  0  0  0
  127.1883  136.6217  161.8775 C   0  0  0  0  0  0  0  0  0  0  0  0
  126.7533  136.2378  160.6171 C   0  0  0  0  0  0  0  0  0  0  0  0
  127.6690  135.8823  159.6465 C   0  0  0  0  0  0  0  0  0  0  0  0
  129.0304  135.9065  159.9257 C   0  0  0  0  0  0  0  0  0  0  0  0
  129.9534  135.5446  158.9363 N   0  0  0  0  0  0  0  0  0  0  0  0
  129.9120  134.2765  158.3810 C   0  0  0  0  0  0  0  0  0  0  0  0
  129.4961  133.1462  159.0155 N   0  0  0  0  0  0  0  0  0  0  0  0
  129.1777  133.0846  159.9298 H   0  0  0  0  0  0  0  0  0  0  0  0
  129.6104  132.1092  158.1224 C   0  0  0  0  0  0  0  0  0  0  0  0
  130.0924  132.6346  156.9687 C   0  0  0  0  0  0  0  0  0  0  0  0
  130.3776  131.8856  155.7206 C   0  0  0  0  0  0  0  0  0  0  0  0
  130.2619  132.5175  154.4836 C   0  0  0  0  0  0  0  0  0  0  0  0
  130.5290  131.8160  153.3257 C   0  0  0  0  0  0  0  0  0  0  0  0
  130.9104  130.4878  153.3908 C   0  0  0  0  0  0  0  0  0  0  0  0
  131.1996  129.7268  152.1227 C   0  0  0  0  0  0  0  0  0  0  0  0
  131.0151  130.5692  151.0210 F   0  0  0  0  0  0  0  0  0  0  0  0
  132.5216  129.2699  152.1442 F   0  0  0  0  0  0  0  0  0  0  0  0
  130.3302  128.6350  152.0255 F   0  0  0  0  0  0  0  0  0  0  0  0
  131.0217  129.8541  154.6155 C   0  0  0  0  0  0  0  0  0  0  0  0
  130.7626  130.5474  155.7802 C   0  0  0  0  0  0  0  0  0  0  0  0
  130.2730  133.9653  157.1599 N   0  0  0  0  0  0  0  0  0  0  0  0
  130.6127  134.5876  156.4980 H   0  0  0  0  0  0  0  0  0  0  0  0
  129.4762  136.2823  161.1832 C   0  0  0  0  0  0  0  0  0  0  0  0
  128.5576  136.6477  162.1641 C   0  0  0  0  0  0  0  0  0  0  0  0
  129.0287  137.0566  163.5096 C   0  0  0  0  0  0  0  0  0  0  0  0
  129.3116  138.3954  163.7744 C   0  0  0  0  0  0  0  0  0  0  0  0
  129.7451  138.7715  165.0293 C   0  0  0  0  0  0  0  0  0  0  0  0
  129.9098  137.8199  166.0212 C   0  0  0  0  0  0  0  0  0  0  0  0
  130.4623  138.2984  167.5959 Cl  0  0  0  0  0  0  0  0  0  0  0  0
  129.6348  136.4880  165.7619 C   0  0  0  0  0  0  0  0  0  0  0  0
  129.1957  136.1026  164.5120 C   0  0  0  0  0  0  0  0  0  0  0  0
  125.3115  136.9624  162.6591 H   0  0  0  0  0  0  0  0  0  0  0  0
  126.5656  137.2493  163.7396 H   0  0  0  0  0  0  0  0  0  0  0  0
  125.6966  136.2173  160.3947 H   0  0  0  0  0  0  0  0  0  0  0  0
  127.3260  135.5842  158.6667 H   0  0  0  0  0  0  0  0  0  0  0  0
  130.6217  136.1822  158.6399 H   0  0  0  0  0  0  0  0  0  0  0  0
  129.3637  131.0736  158.3040 H   0  0  0  0  0  0  0  0  0  0  0  0
  129.9642  133.5544  154.4316 H   0  0  0  0  0  0  0  0  0  0  0  0
  130.4397  132.3046  152.3667 H   0  0  0  0  0  0  0  0  0  0  0  0
  131.3158  128.8158  154.6601 H   0  0  0  0  0  0  0  0  0  0  0  0
  130.8538  130.0528  156.7359 H   0  0  0  0  0  0  0  0  0  0  0  0
  130.5339  136.2964  161.4004 H   0  0  0  0  0  0  0  0  0  0  0  0
  129.1877  139.1380  162.9999 H   0  0  0  0  0  0  0  0  0  0  0  0
  129.9609  139.8091  165.2366 H   0  0  0  0  0  0  0  0  0  0  0  0
  129.7644  135.7496  166.5392 H   0  0  0  0  0  0  0  0  0  0  0  0
  128.9814  135.0633  164.3105 H   0  0  0  0  0  0  0  0  0  0  0  0
  1  2  1  0
  1 33  1  0
  1 34  1  0
  2 25  2  0
  2  3  1  0
  3  4  2  0
  3 35  1  0
  4  5  1  0
  4 36  1  0
  5  6  1  0
  5 24  2  0
  6 37  1  0
  7  6  1  0
  7 22  2  0
  7  8  1  0
  8  9  1  0
  8 10  1  0
 10 11  2  0
 10 38  1  0
 11 12  1  0
 11 22  1  0
 12 21  1  0
 12 13  2  0
 13 14  1  0
 13 39  1  0
 14 15  2  0
 14 40  1  0
 15 16  1  0
 15 20  1  0
 16 17  1  0
 16 18  1  0
 16 19  1  0
 20 21  2  0
 20 41  1  0
 21 42  1  0
 22 23  1  0
 24 25  1  0
 24 43  1  0
 25 26  1  0
 26 32  1  0
 26 27  2  0
 27 28  1  0
 27 44  1  0
 28 29  2  0
 28 45  1  0
 29 30  1  0
 29 31  1  0
 31 32  2  0
 31 46  1  0
 32 47  1  0
M  CHG  1  22   1
M  END
>  <DOCK_score>  (1) 
-50.731361

>  <SMILES>  (1) 
Nc1ccc(Nc2[nH]cc(-c3ccc(C(F)(F)F)cc3)[nH+]2)cc1-c1ccc(Cl)cc1

$$$$
