C=C(c1ccccc1)[C@](O)(c1ccccc1)C(Nc1[nH]cc(-c2ccc(N)cc2)[nH+]1)c1ccccc1
     RDKit          3D

 65 69  0  0  1  0  0  0  0  0999 V2000
  133.1532  135.7509  160.5625 C   0  0  0  0  0  0  0  0  0  0  0  0
  132.4879  136.7983  161.0295 C   0  0  0  0  0  0  0  0  0  0  0  0
  133.2199  138.0128  161.4467 C   0  0  0  0  0  0  0  0  0  0  0  0
  132.9686  139.2328  160.8181 C   0  0  0  0  0  0  0  0  0  0  0  0
  133.6513  140.3638  161.2159 C   0  0  0  0  0  0  0  0  0  0  0  0
  134.5911  140.2881  162.2285 C   0  0  0  0  0  0  0  0  0  0  0  0
  134.8489  139.0802  162.8519 C   0  0  0  0  0  0  0  0  0  0  0  0
  134.1693  137.9429  162.4670 C   0  0  0  0  0  0  0  0  0  0  0  0
  130.9853  136.7506  161.1351 C   0  0  2  0  0  0  0  0  0  0  0  0
  130.4184  137.7881  160.3326 O   0  0  0  0  0  0  0  0  0  0  0  0
  130.5763  136.9467  162.5723 C   0  0  0  0  0  0  0  0  0  0  0  0
  131.0074  136.0595  163.5407 C   0  0  0  0  0  0  0  0  0  0  0  0
  130.6318  136.2391  164.8589 C   0  0  0  0  0  0  0  0  0  0  0  0
  129.8260  137.3064  165.2087 C   0  0  0  0  0  0  0  0  0  0  0  0
  129.3910  138.1909  164.2395 C   0  0  0  0  0  0  0  0  0  0  0  0
  129.7698  138.0135  162.9219 C   0  0  0  0  0  0  0  0  0  0  0  0
  130.4823  135.3923  160.6425 C   0  0  2  0  0  0  0  0  0  0  0  0
  130.8800  135.2016  159.2454 N   0  0  0  0  0  0  0  0  0  0  0  0
  130.5347  134.0377  158.5801 C   0  0  0  0  0  0  0  0  0  0  0  0
  129.8361  132.9982  159.1120 N   0  0  0  0  0  0  0  0  0  0  0  0
  129.4934  132.9397  160.0175 H   0  0  0  0  0  0  0  0  0  0  0  0
  129.7027  132.0476  158.1276 C   0  0  0  0  0  0  0  0  0  0  0  0
  130.3313  132.5302  157.0274 C   0  0  0  0  0  0  0  0  0  0  0  0
  130.4501  131.8429  155.7181 C   0  0  0  0  0  0  0  0  0  0  0  0
  129.9200  132.4307  154.5705 C   0  0  0  0  0  0  0  0  0  0  0  0
  130.0367  131.7928  153.3536 C   0  0  0  0  0  0  0  0  0  0  0  0
  130.6719  130.5596  153.2724 C   0  0  0  0  0  0  0  0  0  0  0  0
  130.7836  129.9126  152.0393 N   0  0  0  0  0  0  0  0  0  0  0  0
  131.1964  129.9689  154.4162 C   0  0  0  0  0  0  0  0  0  0  0  0
  131.0871  130.6057  155.6343 C   0  0  0  0  0  0  0  0  0  0  0  0
  130.8318  133.7528  157.3355 N   0  0  0  0  0  0  0  0  0  0  0  0
  131.3304  134.3249  156.7313 H   0  0  0  0  0  0  0  0  0  0  0  0
  128.9798  135.3447  160.7479 C   0  0  0  0  0  0  0  0  0  0  0  0
  128.3824  134.8807  161.9049 C   0  0  0  0  0  0  0  0  0  0  0  0
  127.0042  134.8415  162.0034 C   0  0  0  0  0  0  0  0  0  0  0  0
  126.2232  135.2565  160.9409 C   0  0  0  0  0  0  0  0  0  0  0  0
  126.8207  135.7156  159.7819 C   0  0  0  0  0  0  0  0  0  0  0  0
  128.1988  135.7596  159.6854 C   0  0  0  0  0  0  0  0  0  0  0  0
  134.2299  135.7850  160.4870 H   0  0  0  0  0  0  0  0  0  0  0  0
  132.6181  134.8636  160.2577 H   0  0  0  0  0  0  0  0  0  0  0  0
  132.2383  139.2926  160.0247 H   0  0  0  0  0  0  0  0  0  0  0  0
  133.4548  141.3097  160.7330 H   0  0  0  0  0  0  0  0  0  0  0  0
  135.1258  141.1754  162.5333 H   0  0  0  0  0  0  0  0  0  0  0  0
  135.5843  139.0274  163.6411 H   0  0  0  0  0  0  0  0  0  0  0  0
  134.3717  137.0004  162.9542 H   0  0  0  0  0  0  0  0  0  0  0  0
  130.6406  137.7251  159.3936 H   0  0  0  0  0  0  0  0  0  0  0  0
  131.6373  135.2258  163.2674 H   0  0  0  0  0  0  0  0  0  0  0  0
  130.9683  135.5459  165.6155 H   0  0  0  0  0  0  0  0  0  0  0  0
  129.5327  137.4468  166.2387 H   0  0  0  0  0  0  0  0  0  0  0  0
  128.7578  139.0222  164.5121 H   0  0  0  0  0  0  0  0  0  0  0  0
  129.4326  138.7064  162.1653 H   0  0  0  0  0  0  0  0  0  0  0  0
  130.9149  134.6008  161.2546 H   0  0  0  0  0  0  0  0  0  0  0  0
  131.3853  135.8908  158.7867 H   0  0  0  0  0  0  0  0  0  0  0  0
  129.1976  131.0971  158.2152 H   0  0  0  0  0  0  0  0  0  0  0  0
  129.4219  133.3869  154.6339 H   0  0  0  0  0  0  0  0  0  0  0  0
  129.6300  132.2498  152.4636 H   0  0  0  0  0  0  0  0  0  0  0  0
  131.2266  129.0510  151.9823 H   0  0  0  0  0  0  0  0  0  0  0  0
  130.4174  130.3231  151.2411 H   0  0  0  0  0  0  0  0  0  0  0  0
  131.6898  129.0104  154.3509 H   0  0  0  0  0  0  0  0  0  0  0  0
  131.4949  130.1468  156.5228 H   0  0  0  0  0  0  0  0  0  0  0  0
  128.9925  134.5524  162.7334 H   0  0  0  0  0  0  0  0  0  0  0  0
  126.5373  134.4824  162.9088 H   0  0  0  0  0  0  0  0  0  0  0  0
  125.1464  135.2218  161.0162 H   0  0  0  0  0  0  0  0  0  0  0  0
  126.2104  136.0394  158.9517 H   0  0  0  0  0  0  0  0  0  0  0  0
  128.6656  136.1180  158.7798 H   0  0  0  0  0  0  0  0  0  0  0  0
  1  2  2  0
  1 39  1  0
  1 40  1  0
  2  3  1  0
  3  8  1  0
  3  4  2  0
  4  5  1  0
  4 41  1  0
  5  6  2  0
  5 42  1  0
  6  7  1  0
  6 43  1  0
  7  8  2  0
  7 44  1  0
  8 45  1  0
  9  2  1  0
  9 10  1  6
  9 11  1  0
  9 17  1  0
 10 46  1  0
 11 16  1  0
 11 12  2  0
 12 13  1  0
 12 47  1  0
 13 14  2  0
 13 48  1  0
 14 15  1  0
 14 49  1  0
 15 16  2  0
 15 50  1  0
 16 51  1  0
 17 18  1  0
 17 33  1  0
 17 52  1  1
 18 53  1  0
 19 18  1  0
 19 31  2  0
 19 20  1  0
 20 21  1  0
 20 22  1  0
 22 23  2  0
 22 54  1  0
 23 24  1  0
 23 31  1  0
 24 30  1  0
 24 25  2  0
 25 26  1  0
 25 55  1  0
 26 27  2  0
 26 56  1  0
 27 28  1  0
 27 29  1  0
 28 57  1  0
 28 58  1  0
 29 30  2  0
 29 59  1  0
 30 60  1  0
 31 32  1  0
 33 38  1  0
 33 34  2  0
 34 35  1  0
 34 61  1  0
 35 36  2  0
 35 62  1  0
 36 37  1  0
 36 63  1  0
 37 38  2  0
 37 64  1  0
 38 65  1  0
M  CHG  1  31   1
M  END
>  <DOCK_score>  (1) 
-63.585289

>  <SMILES>  (1) 
C=C(c1ccccc1)[C@](O)(c1ccccc1)C(Nc1[nH]cc(-c2ccc(N)cc2)[nH+]1)c1ccccc1

$$$$
