O=C1CC[C@H](NC(NC2CC(Cl)(Cl)C2)=[NH+]C2CC(F)(F)C2)CN1
     RDKit          3D

 44 46  0  0  1  0  0  0  0  0999 V2000
  123.6937  133.7101  161.8061 O   0  0  0  0  0  0  0  0  0  0  0  0
  124.8339  133.9956  161.5072 C   0  0  0  0  0  0  0  0  0  0  0  0
  125.7643  132.8851  161.1118 C   0  0  0  0  0  0  0  0  0  0  0  0
  127.2151  133.3647  161.2007 C   0  0  0  0  0  0  0  0  0  0  0  0
  127.3265  134.7102  160.4736 C   0  0  2  0  0  0  0  0  0  0  0  0
  126.9127  134.6213  159.4692 H   0  0  0  0  0  0  0  0  0  0  0  0
  128.7337  135.1096  160.3918 N   0  0  0  0  0  0  0  0  0  0  0  0
  129.4953  134.7265  159.3132 C   0  0  0  0  0  0  0  0  0  0  0  0
  128.9366  133.9686  158.3116 N   0  0  0  0  0  0  0  0  0  0  0  0
  129.7482  133.5603  157.1623 C   0  0  0  0  0  0  0  0  0  0  0  0
  129.2051  132.3195  156.4342 C   0  0  0  0  0  0  0  0  0  0  0  0
  130.6657  131.8585  156.2956 C   0  0  0  0  0  0  0  0  0  0  0  0
  131.4740  132.4594  154.8001 Cl  0  0  0  0  0  0  0  0  0  0  0  0
  130.8941  130.0885  156.5520 Cl  0  0  0  0  0  0  0  0  0  0  0  0
  130.9689  132.7057  157.5426 C   0  0  0  0  0  0  0  0  0  0  0  0
  130.7473  135.0818  159.2405 N   0  0  0  0  0  0  0  0  0  0  0  0
  131.1639  135.2158  158.3748 H   0  0  0  0  0  0  0  0  0  0  0  0
  131.5253  135.2786  160.4661 C   0  0  0  0  0  0  0  0  0  0  0  0
  131.9312  136.7417  160.7099 C   0  0  0  0  0  0  0  0  0  0  0  0
  133.2915  136.2032  161.1836 C   0  0  0  0  0  0  0  0  0  0  0  0
  133.3338  135.9129  162.5515 F   0  0  0  0  0  0  0  0  0  0  0  0
  134.3798  136.9723  160.7575 F   0  0  0  0  0  0  0  0  0  0  0  0
  133.0233  134.9730  160.3007 C   0  0  0  0  0  0  0  0  0  0  0  0
  126.5405  135.7590  161.2614 C   0  0  0  0  0  0  0  0  0  0  0  0
  125.1945  135.2788  161.5479 N   0  0  0  0  0  0  0  0  0  0  0  0
  125.6216  132.0372  161.7818 H   0  0  0  0  0  0  0  0  0  0  0  0
  125.5478  132.5784  160.0885 H   0  0  0  0  0  0  0  0  0  0  0  0
  127.8724  132.6358  160.7265 H   0  0  0  0  0  0  0  0  0  0  0  0
  127.4970  133.4881  162.2463 H   0  0  0  0  0  0  0  0  0  0  0  0
  129.1290  135.6409  161.1005 H   0  0  0  0  0  0  0  0  0  0  0  0
  128.0049  133.7042  158.3657 H   0  0  0  0  0  0  0  0  0  0  0  0
  129.9865  134.3897  156.4964 H   0  0  0  0  0  0  0  0  0  0  0  0
  128.6008  131.6708  157.0683 H   0  0  0  0  0  0  0  0  0  0  0  0
  128.7268  132.5468  155.4815 H   0  0  0  0  0  0  0  0  0  0  0  0
  131.9144  133.2449  157.4848 H   0  0  0  0  0  0  0  0  0  0  0  0
  130.8468  132.1626  158.4798 H   0  0  0  0  0  0  0  0  0  0  0  0
  131.0752  134.7984  161.3351 H   0  0  0  0  0  0  0  0  0  0  0  0
  131.9903  137.3362  159.7981 H   0  0  0  0  0  0  0  0  0  0  0  0
  131.3562  137.2290  161.4974 H   0  0  0  0  0  0  0  0  0  0  0  0
  133.3302  134.0322  160.7579 H   0  0  0  0  0  0  0  0  0  0  0  0
  133.3812  135.0839  159.2770 H   0  0  0  0  0  0  0  0  0  0  0  0
  127.0562  135.9664  162.1990 H   0  0  0  0  0  0  0  0  0  0  0  0
  126.4788  136.6769  160.6770 H   0  0  0  0  0  0  0  0  0  0  0  0
  124.5187  135.9337  161.7832 H   0  0  0  0  0  0  0  0  0  0  0  0
  1  2  2  0
  2 25  1  0
  2  3  1  0
  3  4  1  0
  3 26  1  0
  3 27  1  0
  4  5  1  0
  4 28  1  0
  4 29  1  0
  5  6  1  6
  5  7  1  0
  5 24  1  0
  7 30  1  0
  8  7  1  0
  8  9  1  0
  8 16  2  0
  9 10  1  0
  9 31  1  0
 10 15  1  0
 10 11  1  0
 10 32  1  0
 11 12  1  0
 11 33  1  0
 11 34  1  0
 12 13  1  0
 12 14  1  0
 12 15  1  0
 15 35  1  0
 15 36  1  0
 16 17  1  0
 16 18  1  0
 18 23  1  0
 18 19  1  0
 18 37  1  0
 19 20  1  0
 19 38  1  0
 19 39  1  0
 20 21  1  0
 20 22  1  0
 20 23  1  0
 23 40  1  0
 23 41  1  0
 24 25  1  0
 24 42  1  0
 24 43  1  0
 25 44  1  0
M  CHG  1  16   1
M  END
>  <DOCK_score>  (1) 
-45.793106

>  <SMILES>  (1) 
O=C1CC[C@H](NC(NC2CC(Cl)(Cl)C2)=[NH+]C2CC(F)(F)C2)CN1

$$$$
