Nc1ccc(-c2c[nH]c(N[C@@H](c3ccccc3)c3ccccc3F)[nH+]2)cc1
     RDKit          3D

 47 50  0  0  1  0  0  0  0  0999 V2000
  131.7318  129.6278  151.7301 N   0  0  0  0  0  0  0  0  0  0  0  0
  131.3343  130.3015  152.8876 C   0  0  0  0  0  0  0  0  0  0  0  0
  130.5199  131.4237  152.7922 C   0  0  0  0  0  0  0  0  0  0  0  0
  130.1264  132.0902  153.9334 C   0  0  0  0  0  0  0  0  0  0  0  0
  130.5462  131.6377  155.1833 C   0  0  0  0  0  0  0  0  0  0  0  0
  130.1242  132.3531  156.4125 C   0  0  0  0  0  0  0  0  0  0  0  0
  129.4048  131.8273  157.4345 C   0  0  0  0  0  0  0  0  0  0  0  0
  129.2391  132.8285  158.3620 N   0  0  0  0  0  0  0  0  0  0  0  0
  128.7654  132.7578  159.2056 H   0  0  0  0  0  0  0  0  0  0  0  0
  129.8630  133.9368  157.8783 C   0  0  0  0  0  0  0  0  0  0  0  0
  129.9296  135.1659  158.5119 N   0  0  0  0  0  0  0  0  0  0  0  0
  128.8457  135.5913  159.4009 C   0  0  1  0  0  0  0  0  0  0  0  0
  128.7459  134.8782  160.2192 H   0  0  0  0  0  0  0  0  0  0  0  0
  129.1597  136.9556  159.9588 C   0  0  0  0  0  0  0  0  0  0  0  0
  128.6894  137.3165  161.2076 C   0  0  0  0  0  0  0  0  0  0  0  0
  128.9808  138.5665  161.7210 C   0  0  0  0  0  0  0  0  0  0  0  0
  129.7351  139.4586  160.9821 C   0  0  0  0  0  0  0  0  0  0  0  0
  130.2013  139.0993  159.7313 C   0  0  0  0  0  0  0  0  0  0  0  0
  129.9133  137.8480  159.2195 C   0  0  0  0  0  0  0  0  0  0  0  0
  127.5545  135.6506  158.6260 C   0  0  0  0  0  0  0  0  0  0  0  0
  126.3528  135.4111  159.2655 C   0  0  0  0  0  0  0  0  0  0  0  0
  125.1683  135.4658  158.5553 C   0  0  0  0  0  0  0  0  0  0  0  0
  125.1840  135.7596  157.2043 C   0  0  0  0  0  0  0  0  0  0  0  0
  126.3841  135.9989  156.5625 C   0  0  0  0  0  0  0  0  0  0  0  0
  127.5709  135.9504  157.2745 C   0  0  0  0  0  0  0  0  0  0  0  0
  128.7445  136.1901  156.6496 F   0  0  0  0  0  0  0  0  0  0  0  0
  130.3857  133.6504  156.7108 N   0  0  0  0  0  0  0  0  0  0  0  0
  130.8823  134.2672  156.1505 H   0  0  0  0  0  0  0  0  0  0  0  0
  131.3679  130.5155  155.2761 C   0  0  0  0  0  0  0  0  0  0  0  0
  131.7538  129.8484  154.1326 C   0  0  0  0  0  0  0  0  0  0  0  0
  131.4393  129.9434  150.8606 H   0  0  0  0  0  0  0  0  0  0  0  0
  132.3003  128.8447  151.7957 H   0  0  0  0  0  0  0  0  0  0  0  0
  130.1952  131.7740  151.8235 H   0  0  0  0  0  0  0  0  0  0  0  0
  129.4931  132.9619  153.8589 H   0  0  0  0  0  0  0  0  0  0  0  0
  129.0328  130.8158  157.5060 H   0  0  0  0  0  0  0  0  0  0  0  0
  130.6920  135.7472  158.3640 H   0  0  0  0  0  0  0  0  0  0  0  0
  128.0969  136.6210  161.7833 H   0  0  0  0  0  0  0  0  0  0  0  0
  128.6161  138.8473  162.6980 H   0  0  0  0  0  0  0  0  0  0  0  0
  129.9599  140.4365  161.3818 H   0  0  0  0  0  0  0  0  0  0  0  0
  130.7903  139.7965  159.1538 H   0  0  0  0  0  0  0  0  0  0  0  0
  130.2772  137.5675  158.2422 H   0  0  0  0  0  0  0  0  0  0  0  0
  126.3393  135.1809  160.3207 H   0  0  0  0  0  0  0  0  0  0  0  0
  124.2297  135.2788  159.0558 H   0  0  0  0  0  0  0  0  0  0  0  0
  124.2578  135.8018  156.6502 H   0  0  0  0  0  0  0  0  0  0  0  0
  126.3963  136.2280  155.5073 H   0  0  0  0  0  0  0  0  0  0  0  0
  131.6979  130.1658  156.2432 H   0  0  0  0  0  0  0  0  0  0  0  0
  132.3862  128.9758  154.2044 H   0  0  0  0  0  0  0  0  0  0  0  0
  1  2  1  0
  1 31  1  0
  1 32  1  0
  2 30  2  0
  2  3  1  0
  3  4  2  0
  3 33  1  0
  4  5  1  0
  4 34  1  0
  5  6  1  0
  5 29  2  0
  6 27  1  0
  6  7  2  0
  7  8  1  0
  7 35  1  0
  8  9  1  0
  8 10  1  0
 10 11  1  0
 10 27  2  0
 11 12  1  0
 11 36  1  0
 12 13  1  1
 12 14  1  0
 12 20  1  0
 14 19  1  0
 14 15  2  0
 15 16  1  0
 15 37  1  0
 16 17  2  0
 16 38  1  0
 17 18  1  0
 17 39  1  0
 18 19  2  0
 18 40  1  0
 19 41  1  0
 20 25  1  0
 20 21  2  0
 21 22  1  0
 21 42  1  0
 22 23  2  0
 22 43  1  0
 23 24  1  0
 23 44  1  0
 24 25  2  0
 24 45  1  0
 25 26  1  0
 27 28  1  0
 29 30  1  0
 29 46  1  0
 30 47  1  0
M  CHG  1  27   1
M  END
>  <DOCK_score>  (1) 
-61.109608

>  <SMILES>  (1) 
Nc1ccc(-c2c[nH]c(N[C@@H](c3ccccc3)c3ccccc3F)[nH+]2)cc1

$$$$
