CCc1cccc([C@H](Cc2cccc3ccccc23)Nc2[nH]cc(-c3ccc(N)cc3)[nH+]2)c1
     RDKit          3D

 62 66  0  0  1  0  0  0  0  0999 V2000
  125.4059  131.4613  160.7766 C   0  0  0  0  0  0  0  0  0  0  0  0
  125.5092  132.6969  161.6727 C   0  0  0  0  0  0  0  0  0  0  0  0
  126.1920  133.8087  160.9185 C   0  0  0  0  0  0  0  0  0  0  0  0
  125.4432  134.6986  160.1710 C   0  0  0  0  0  0  0  0  0  0  0  0
  126.0695  135.7186  159.4796 C   0  0  0  0  0  0  0  0  0  0  0  0
  127.4442  135.8521  159.5400 C   0  0  0  0  0  0  0  0  0  0  0  0
  128.1933  134.9593  160.2830 C   0  0  0  0  0  0  0  0  0  0  0  0
  129.6923  135.1017  160.3444 C   0  0  2  0  0  0  0  0  0  0  0  0
  130.1066  134.3134  160.9730 H   0  0  0  0  0  0  0  0  0  0  0  0
  130.0512  136.4665  160.9352 C   0  0  0  0  0  0  0  0  0  0  0  0
  131.4669  136.4343  161.4507 C   0  0  0  0  0  0  0  0  0  0  0  0
  132.5005  136.7777  160.6340 C   0  0  0  0  0  0  0  0  0  0  0  0
  133.8157  136.7543  161.0930 C   0  0  0  0  0  0  0  0  0  0  0  0
  134.1056  136.3874  162.3714 C   0  0  0  0  0  0  0  0  0  0  0  0
  133.0652  136.0262  163.2437 C   0  0  0  0  0  0  0  0  0  0  0  0
  133.3252  135.6422  164.5706 C   0  0  0  0  0  0  0  0  0  0  0  0
  132.2904  135.3150  165.3918 C   0  0  0  0  0  0  0  0  0  0  0  0
  130.9746  135.3381  164.9326 C   0  0  0  0  0  0  0  0  0  0  0  0
  130.6853  135.6996  163.6528 C   0  0  0  0  0  0  0  0  0  0  0  0
  131.7266  136.0552  162.7784 C   0  0  0  0  0  0  0  0  0  0  0  0
  130.2490  134.9924  158.9937 N   0  0  0  0  0  0  0  0  0  0  0  0
  130.0527  133.8379  158.2554 C   0  0  0  0  0  0  0  0  0  0  0  0
  129.3594  132.7420  158.6674 N   0  0  0  0  0  0  0  0  0  0  0  0
  128.9180  132.6296  159.5237 H   0  0  0  0  0  0  0  0  0  0  0  0
  129.4008  131.8229  157.6457 C   0  0  0  0  0  0  0  0  0  0  0  0
  130.1173  132.3841  156.6407 C   0  0  0  0  0  0  0  0  0  0  0  0
  130.4249  131.7570  155.3320 C   0  0  0  0  0  0  0  0  0  0  0  0
  129.9911  132.3574  154.1510 C   0  0  0  0  0  0  0  0  0  0  0  0
  130.2826  131.7754  152.9355 C   0  0  0  0  0  0  0  0  0  0  0  0
  130.9987  130.5851  152.8876 C   0  0  0  0  0  0  0  0  0  0  0  0
  131.2877  129.9949  151.6548 N   0  0  0  0  0  0  0  0  0  0  0  0
  131.4277  129.9820  154.0640 C   0  0  0  0  0  0  0  0  0  0  0  0
  131.1432  130.5634  155.2815 C   0  0  0  0  0  0  0  0  0  0  0  0
  130.4992  133.6225  157.0419 N   0  0  0  0  0  0  0  0  0  0  0  0
  131.0213  134.2481  156.5156 H   0  0  0  0  0  0  0  0  0  0  0  0
  127.5668  133.9390  160.9744 C   0  0  0  0  0  0  0  0  0  0  0  0
  124.9121  130.6570  161.3222 H   0  0  0  0  0  0  0  0  0  0  0  0
  124.8266  131.7053  159.8862 H   0  0  0  0  0  0  0  0  0  0  0  0
  126.4055  131.1407  160.4830 H   0  0  0  0  0  0  0  0  0  0  0  0
  126.0885  132.4528  162.5631 H   0  0  0  0  0  0  0  0  0  0  0  0
  124.5097  133.0175  161.9662 H   0  0  0  0  0  0  0  0  0  0  0  0
  124.3689  134.5970  160.1275 H   0  0  0  0  0  0  0  0  0  0  0  0
  125.4844  136.4139  158.8960 H   0  0  0  0  0  0  0  0  0  0  0  0
  127.9331  136.6517  159.0034 H   0  0  0  0  0  0  0  0  0  0  0  0
  129.9629  137.2311  160.1633 H   0  0  0  0  0  0  0  0  0  0  0  0
  129.3712  136.6978  161.7551 H   0  0  0  0  0  0  0  0  0  0  0  0
  132.2977  137.0731  159.6151 H   0  0  0  0  0  0  0  0  0  0  0  0
  134.6174  137.0311  160.4243 H   0  0  0  0  0  0  0  0  0  0  0  0
  135.1301  136.3735  162.7132 H   0  0  0  0  0  0  0  0  0  0  0  0
  134.3397  135.6191  164.9401 H   0  0  0  0  0  0  0  0  0  0  0  0
  132.4926  135.0247  166.4122 H   0  0  0  0  0  0  0  0  0  0  0  0
  130.1725  135.0653  165.6025 H   0  0  0  0  0  0  0  0  0  0  0  0
  129.6610  135.7127  163.3109 H   0  0  0  0  0  0  0  0  0  0  0  0
  130.7585  135.7275  158.6183 H   0  0  0  0  0  0  0  0  0  0  0  0
  128.9491  130.8419  157.6439 H   0  0  0  0  0  0  0  0  0  0  0  0
  129.4304  133.2798  154.1880 H   0  0  0  0  0  0  0  0  0  0  0  0
  129.9505  132.2424  152.0200 H   0  0  0  0  0  0  0  0  0  0  0  0
  131.7878  129.1638  151.6210 H   0  0  0  0  0  0  0  0  0  0  0  0
  130.9887  130.4145  150.8338 H   0  0  0  0  0  0  0  0  0  0  0  0
  131.9839  129.0572  154.0244 H   0  0  0  0  0  0  0  0  0  0  0  0
  131.4772  130.0946  156.1954 H   0  0  0  0  0  0  0  0  0  0  0  0
  128.1518  133.2440  161.5587 H   0  0  0  0  0  0  0  0  0  0  0  0
  1  2  1  0
  1 37  1  0
  1 38  1  0
  1 39  1  0
  2  3  1  0
  2 40  1  0
  2 41  1  0
  3 36  2  0
  3  4  1  0
  4  5  2  0
  4 42  1  0
  5  6  1  0
  5 43  1  0
  6  7  2  0
  6 44  1  0
  7  8  1  0
  7 36  1  0
  8  9  1  1
  8 10  1  0
  8 21  1  0
 10 11  1  0
 10 45  1  0
 10 46  1  0
 11 20  1  0
 11 12  2  0
 12 13  1  0
 12 47  1  0
 13 14  2  0
 13 48  1  0
 14 15  1  0
 14 49  1  0
 15 20  2  0
 15 16  1  0
 16 17  2  0
 16 50  1  0
 17 18  1  0
 17 51  1  0
 18 19  2  0
 18 52  1  0
 19 20  1  0
 19 53  1  0
 21 54  1  0
 22 21  1  0
 22 34  2  0
 22 23  1  0
 23 24  1  0
 23 25  1  0
 25 26  2  0
 25 55  1  0
 26 27  1  0
 26 34  1  0
 27 33  1  0
 27 28  2  0
 28 29  1  0
 28 56  1  0
 29 30  2  0
 29 57  1  0
 30 31  1  0
 30 32  1  0
 31 58  1  0
 31 59  1  0
 32 33  2  0
 32 60  1  0
 33 61  1  0
 34 35  1  0
 36 62  1  0
M  CHG  1  34   1
M  END
>  <DOCK_score>  (1) 
-63.794079

>  <SMILES>  (1) 
CCc1cccc([C@H](Cc2cccc3ccccc23)Nc2[nH]cc(-c3ccc(N)cc3)[nH+]2)c1

$$$$
