OC(c1ccc(NC2CC=CC2)nc1)c1cccc([C@@H](c2cccnc2)[NH+]2CC(O)C3(CCCC3)C2)c1
     RDKit          3D

 74 79  0  0  1  0  0  0  0  0999 V2000
  124.9200  135.5451  163.1022 O   0  0  0  0  0  0  0  0  0  0  0  0
  126.3307  135.3568  163.2307 C   0  0  2  0  0  0  0  0  0  0  0  0
  126.9652  136.6328  163.7210 C   0  0  0  0  0  0  0  0  0  0  0  0
  126.8532  137.8018  162.9798 C   0  0  0  0  0  0  0  0  0  0  0  0
  127.4501  138.9510  163.4653 C   0  0  0  0  0  0  0  0  0  0  0  0
  128.1390  138.8972  164.6730 C   0  0  0  0  0  0  0  0  0  0  0  0
  128.7438  140.0446  165.1728 N   0  0  0  0  0  0  0  0  0  0  0  0
  129.4699  139.9953  166.4442 C   0  0  0  0  0  0  0  0  0  0  0  0
  129.5782  141.4022  167.0765 C   0  0  0  0  0  0  0  0  0  0  0  0
  130.9548  141.4374  167.7002 C   0  0  0  0  0  0  0  0  0  0  0  0
  131.7075  140.4786  167.2332 C   0  0  0  0  0  0  0  0  0  0  0  0
  130.9590  139.6443  166.2197 C   0  0  0  0  0  0  0  0  0  0  0  0
  128.2229  137.7630  165.3507 N   0  0  0  0  0  0  0  0  0  0  0  0
  127.6587  136.6527  164.9142 C   0  0  0  0  0  0  0  0  0  0  0  0
  126.9124  134.9894  161.8900 C   0  0  0  0  0  0  0  0  0  0  0  0
  126.0891  134.8851  160.7837 C   0  0  0  0  0  0  0  0  0  0  0  0
  126.6227  134.5476  159.5546 C   0  0  0  0  0  0  0  0  0  0  0  0
  127.9797  134.3146  159.4304 C   0  0  0  0  0  0  0  0  0  0  0  0
  128.8029  134.4189  160.5358 C   0  0  0  0  0  0  0  0  0  0  0  0
  130.2820  134.1644  160.4005 C   0  0  1  0  0  0  0  0  0  0  0  0
  130.6703  133.7700  161.3395 H   0  0  0  0  0  0  0  0  0  0  0  0
  130.5210  133.1646  159.2987 C   0  0  0  0  0  0  0  0  0  0  0  0
  130.7135  133.5909  157.9932 C   0  0  0  0  0  0  0  0  0  0  0  0
  130.9299  132.6356  157.0122 C   0  0  0  0  0  0  0  0  0  0  0  0
  130.9465  131.2993  157.3654 C   0  0  0  0  0  0  0  0  0  0  0  0
  130.7596  130.9302  158.6173 N   0  0  0  0  0  0  0  0  0  0  0  0
  130.5568  131.8115  159.5773 C   0  0  0  0  0  0  0  0  0  0  0  0
  130.9679  135.4227  160.0772 N   0  0  2  0  0  0  0  0  0  0  0  0
  130.6192  135.8012  159.2092 H   0  0  0  0  0  0  0  0  0  0  0  0
  132.4369  135.2108  159.9983 C   0  0  0  0  0  0  0  0  0  0  0  0
  133.0464  136.6122  160.2322 C   0  0  2  0  0  0  0  0  0  0  0  0
  134.2416  136.5116  161.0089 O   0  0  0  0  0  0  0  0  0  0  0  0
  131.9688  137.3826  161.0069 C   0  0  0  0  0  0  0  0  0  0  0  0
  132.5007  137.8400  162.3717 C   0  0  0  0  0  0  0  0  0  0  0  0
  132.9075  139.3184  162.1393 C   0  0  0  0  0  0  0  0  0  0  0  0
  131.8065  139.8319  161.1774 C   0  0  0  0  0  0  0  0  0  0  0  0
  131.5314  138.6339  160.2415 C   0  0  0  0  0  0  0  0  0  0  0  0
  130.7958  136.4064  161.1795 C   0  0  0  0  0  0  0  0  0  0  0  0
  128.2684  134.7513  161.7667 C   0  0  0  0  0  0  0  0  0  0  0  0
  124.6713  136.2441  162.4821 H   0  0  0  0  0  0  0  0  0  0  0  0
  126.5270  134.5561  163.9436 H   0  0  0  0  0  0  0  0  0  0  0  0
  126.3116  137.8135  162.0453 H   0  0  0  0  0  0  0  0  0  0  0  0
  127.3830  139.8774  162.9142 H   0  0  0  0  0  0  0  0  0  0  0  0
  128.6850  140.8778  164.6799 H   0  0  0  0  0  0  0  0  0  0  0  0
  129.0017  139.2919  167.1327 H   0  0  0  0  0  0  0  0  0  0  0  0
  129.4895  142.1712  166.3092 H   0  0  0  0  0  0  0  0  0  0  0  0
  128.8114  141.5357  167.8396 H   0  0  0  0  0  0  0  0  0  0  0  0
  131.2736  142.1609  168.4360 H   0  0  0  0  0  0  0  0  0  0  0  0
  132.7305  140.3043  167.5322 H   0  0  0  0  0  0  0  0  0  0  0  0
  131.1306  138.5831  166.4005 H   0  0  0  0  0  0  0  0  0  0  0  0
  131.2635  139.9103  165.2073 H   0  0  0  0  0  0  0  0  0  0  0  0
  127.7441  135.7468  165.4961 H   0  0  0  0  0  0  0  0  0  0  0  0
  125.0288  135.0669  160.8804 H   0  0  0  0  0  0  0  0  0  0  0  0
  125.9793  134.4657  158.6909 H   0  0  0  0  0  0  0  0  0  0  0  0
  128.3965  134.0505  158.4697 H   0  0  0  0  0  0  0  0  0  0  0  0
  130.6955  134.6423  157.7467 H   0  0  0  0  0  0  0  0  0  0  0  0
  131.0839  132.9317  155.9851 H   0  0  0  0  0  0  0  0  0  0  0  0
  131.1141  130.5488  156.6070 H   0  0  0  0  0  0  0  0  0  0  0  0
  130.4126  131.4716  160.5922 H   0  0  0  0  0  0  0  0  0  0  0  0
  132.7635  134.5199  160.7753 H   0  0  0  0  0  0  0  0  0  0  0  0
  132.7144  134.8353  159.0134 H   0  0  0  0  0  0  0  0  0  0  0  0
  133.2515  137.1007  159.2798 H   0  0  0  0  0  0  0  0  0  0  0  0
  134.9579  136.0339  160.5686 H   0  0  0  0  0  0  0  0  0  0  0  0
  131.7189  137.7732  163.1284 H   0  0  0  0  0  0  0  0  0  0  0  0
  133.3674  137.2464  162.6628 H   0  0  0  0  0  0  0  0  0  0  0  0
  133.8892  139.3791  161.6697 H   0  0  0  0  0  0  0  0  0  0  0  0
  132.8937  139.8770  163.0751 H   0  0  0  0  0  0  0  0  0  0  0  0
  132.1676  140.6872  160.6060 H   0  0  0  0  0  0  0  0  0  0  0  0
  130.9063  140.0975  161.7318 H   0  0  0  0  0  0  0  0  0  0  0  0
  132.1119  138.7340  159.3245 H   0  0  0  0  0  0  0  0  0  0  0  0
  130.4684  138.5770  160.0071 H   0  0  0  0  0  0  0  0  0  0  0  0
  130.8544  135.9082  162.1471 H   0  0  0  0  0  0  0  0  0  0  0  0
  129.8459  136.9313  161.0792 H   0  0  0  0  0  0  0  0  0  0  0  0
  128.9109  134.8285  162.6314 H   0  0  0  0  0  0  0  0  0  0  0  0
  1  2  1  0
  1 40  1  0
  2  3  1  0
  2 15  1  0
  2 41  1  1
  3 14  1  0
  3  4  2  0
  4  5  1  0
  4 42  1  0
  5  6  2  0
  5 43  1  0
  6  7  1  0
  6 13  1  0
  7  8  1  0
  7 44  1  0
  8 12  1  0
  8  9  1  0
  8 45  1  0
  9 10  1  0
  9 46  1  0
  9 47  1  0
 10 11  2  0
 10 48  1  0
 11 12  1  0
 11 49  1  0
 12 50  1  0
 12 51  1  0
 13 14  2  0
 14 52  1  0
 15 39  1  0
 15 16  2  0
 16 17  1  0
 16 53  1  0
 17 18  2  0
 17 54  1  0
 18 19  1  0
 18 55  1  0
 19 20  1  0
 19 39  2  0
 20 21  1  1
 20 22  1  0
 20 28  1  0
 22 27  1  0
 22 23  2  0
 23 24  1  0
 23 56  1  0
 24 25  2  0
 24 57  1  0
 25 26  1  0
 25 58  1  0
 26 27  2  0
 27 59  1  0
 28 29  1  6
 28 38  1  0
 28 30  1  0
 30 31  1  0
 30 60  1  0
 30 61  1  0
 31 32  1  0
 31 33  1  0
 31 62  1  6
 32 63  1  0
 33 37  1  0
 33 34  1  0
 33 38  1  0
 34 35  1  0
 34 64  1  0
 34 65  1  0
 35 36  1  0
 35 66  1  0
 35 67  1  0
 36 37  1  0
 36 68  1  0
 36 69  1  0
 37 70  1  0
 37 71  1  0
 38 72  1  0
 38 73  1  0
 39 74  1  0
M  CHG  1  28   1
M  END
>  <DOCK_score>  (1) 
-47.426846

>  <SMILES>  (1) 
OC(c1ccc(NC2CC=CC2)nc1)c1cccc([C@@H](c2cccnc2)[NH+]2CC(O)C3(CCCC3)C2)c1

$$$$
