Cc1cccc(N2CC[NH+]([C@@H](c3ccccc3)c3ccccc3Cl)CC2)c1C
     RDKit          3D

 56 59  0  0  1  0  0  0  0  0999 V2000
  135.8997  141.1103  162.8093 C   0  0  0  0  0  0  0  0  0  0  0  0
  135.3211  140.4160  161.6035 C   0  0  0  0  0  0  0  0  0  0  0  0
  135.6942  140.8134  160.3324 C   0  0  0  0  0  0  0  0  0  0  0  0
  135.1656  140.1794  159.2234 C   0  0  0  0  0  0  0  0  0  0  0  0
  134.2629  139.1460  159.3815 C   0  0  0  0  0  0  0  0  0  0  0  0
  133.8859  138.7443  160.6564 C   0  0  0  0  0  0  0  0  0  0  0  0
  132.9730  137.7000  160.8200 N   0  0  0  0  0  0  0  0  0  0  0  0
  131.6617  138.0539  160.2583 C   0  0  0  0  0  0  0  0  0  0  0  0
  130.6767  136.9102  160.5103 C   0  0  0  0  0  0  0  0  0  0  0  0
  131.1817  135.6817  159.8833 N   0  0  0  0  0  0  0  0  0  0  0  0
  131.2922  135.8314  158.8916 H   0  0  0  0  0  0  0  0  0  0  0  0
  130.2271  134.5884  160.1100 C   0  0  1  0  0  0  0  0  0  0  0  0
  130.1074  134.4270  161.1814 H   0  0  0  0  0  0  0  0  0  0  0  0
  128.8954  134.9508  159.5048 C   0  0  0  0  0  0  0  0  0  0  0  0
  127.7281  134.4581  160.0574 C   0  0  0  0  0  0  0  0  0  0  0  0
  126.5062  134.7940  159.5049 C   0  0  0  0  0  0  0  0  0  0  0  0
  126.4524  135.6148  158.3939 C   0  0  0  0  0  0  0  0  0  0  0  0
  127.6200  136.1034  157.8382 C   0  0  0  0  0  0  0  0  0  0  0  0
  128.8415  135.7712  158.3935 C   0  0  0  0  0  0  0  0  0  0  0  0
  130.7450  133.3279  159.4668 C   0  0  0  0  0  0  0  0  0  0  0  0
  130.9765  133.2918  158.1044 C   0  0  0  0  0  0  0  0  0  0  0  0
  131.4565  132.1372  157.5151 C   0  0  0  0  0  0  0  0  0  0  0  0
  131.6944  131.0145  158.2859 C   0  0  0  0  0  0  0  0  0  0  0  0
  131.4584  131.0476  159.6470 C   0  0  0  0  0  0  0  0  0  0  0  0
  130.9834  132.2050  160.2386 C   0  0  0  0  0  0  0  0  0  0  0  0
  130.6860  132.2474  161.9484 Cl  0  0  0  0  0  0  0  0  0  0  0  0
  132.4800  135.3278  160.4722 C   0  0  0  0  0  0  0  0  0  0  0  0
  133.4801  136.4581  160.2196 C   0  0  0  0  0  0  0  0  0  0  0  0
  134.4148  139.3873  161.7687 C   0  0  0  0  0  0  0  0  0  0  0  0
  134.0041  138.9590  163.1540 C   0  0  0  0  0  0  0  0  0  0  0  0
  135.2640  141.9523  163.0836 H   0  0  0  0  0  0  0  0  0  0  0  0
  135.9526  140.4087  163.6420 H   0  0  0  0  0  0  0  0  0  0  0  0
  136.9008  141.4720  162.5750 H   0  0  0  0  0  0  0  0  0  0  0  0
  136.4000  141.6212  160.2060 H   0  0  0  0  0  0  0  0  0  0  0  0
  135.4591  140.4922  158.2322 H   0  0  0  0  0  0  0  0  0  0  0  0
  133.8502  138.6512  158.5147 H   0  0  0  0  0  0  0  0  0  0  0  0
  131.7587  138.2206  159.1855 H   0  0  0  0  0  0  0  0  0  0  0  0
  131.2945  138.9621  160.7362 H   0  0  0  0  0  0  0  0  0  0  0  0
  129.7073  137.1647  160.0819 H   0  0  0  0  0  0  0  0  0  0  0  0
  130.5696  136.7528  161.5836 H   0  0  0  0  0  0  0  0  0  0  0  0
  127.7704  133.8136  160.9230 H   0  0  0  0  0  0  0  0  0  0  0  0
  125.5940  134.4124  159.9391 H   0  0  0  0  0  0  0  0  0  0  0  0
  125.4980  135.8744  157.9601 H   0  0  0  0  0  0  0  0  0  0  0  0
  127.5779  136.7447  156.9702 H   0  0  0  0  0  0  0  0  0  0  0  0
  129.7538  136.1527  157.9592 H   0  0  0  0  0  0  0  0  0  0  0  0
  130.7863  134.1670  157.5010 H   0  0  0  0  0  0  0  0  0  0  0  0
  131.6416  132.1110  156.4514 H   0  0  0  0  0  0  0  0  0  0  0  0
  132.0652  130.1111  157.8242 H   0  0  0  0  0  0  0  0  0  0  0  0
  131.6444  130.1705  160.2491 H   0  0  0  0  0  0  0  0  0  0  0  0
  132.3635  135.1786  161.5457 H   0  0  0  0  0  0  0  0  0  0  0  0
  132.8477  134.4088  160.0156 H   0  0  0  0  0  0  0  0  0  0  0  0
  133.6070  136.5985  159.1461 H   0  0  0  0  0  0  0  0  0  0  0  0
  134.4397  136.2023  160.6688 H   0  0  0  0  0  0  0  0  0  0  0  0
  134.6803  138.1815  163.5093 H   0  0  0  0  0  0  0  0  0  0  0  0
  134.0491  139.8151  163.8272 H   0  0  0  0  0  0  0  0  0  0  0  0
  132.9859  138.5709  163.1274 H   0  0  0  0  0  0  0  0  0  0  0  0
  1  2  1  0
  1 31  1  0
  1 32  1  0
  1 33  1  0
  2 29  2  0
  2  3  1  0
  3  4  2  0
  3 34  1  0
  4  5  1  0
  4 35  1  0
  5  6  2  0
  5 36  1  0
  6  7  1  0
  6 29  1  0
  7 28  1  0
  7  8  1  0
  8  9  1  0
  8 37  1  0
  8 38  1  0
  9 10  1  0
  9 39  1  0
  9 40  1  0
 10 11  1  0
 10 12  1  0
 10 27  1  0
 12 13  1  1
 12 14  1  0
 12 20  1  0
 14 19  1  0
 14 15  2  0
 15 16  1  0
 15 41  1  0
 16 17  2  0
 16 42  1  0
 17 18  1  0
 17 43  1  0
 18 19  2  0
 18 44  1  0
 19 45  1  0
 20 25  1  0
 20 21  2  0
 21 22  1  0
 21 46  1  0
 22 23  2  0
 22 47  1  0
 23 24  1  0
 23 48  1  0
 24 25  2  0
 24 49  1  0
 25 26  1  0
 27 28  1  0
 27 50  1  0
 27 51  1  0
 28 52  1  0
 28 53  1  0
 29 30  1  0
 30 54  1  0
 30 55  1  0
 30 56  1  0
M  CHG  1  10   1
M  END
>  <DOCK_score>  (1) 
-56.700829

>  <SMILES>  (1) 
Cc1cccc(N2CC[NH+]([C@@H](c3ccccc3)c3ccccc3Cl)CC2)c1C

$$$$
