CC1=CC[NH+]([C@@H](Cc2ccccc2C(=O)Nc2nc3cnccc3[nH]2)c2ccc(C)cc2)C1
     RDKit          3D

 61 65  0  0  1  0  0  0  0  0999 V2000
  134.2845  137.3208  161.0804 C   0  0  0  0  0  0  0  0  0  0  0  0
  132.8423  136.9995  160.7839 C   0  0  0  0  0  0  0  0  0  0  0  0
  131.8480  137.8489  160.8559 C   0  0  0  0  0  0  0  0  0  0  0  0
  130.5598  137.1480  160.4912 C   0  0  0  0  0  0  0  0  0  0  0  0
  130.9748  135.9074  159.7903 N   0  0  2  0  0  0  0  0  0  0  0  0
  131.0301  136.0565  158.7939 H   0  0  0  0  0  0  0  0  0  0  0  0
  130.0557  134.8050  160.1036 C   0  0  1  0  0  0  0  0  0  0  0  0
  130.0607  134.6222  161.1781 H   0  0  0  0  0  0  0  0  0  0  0  0
  128.6409  135.1778  159.6563 C   0  0  0  0  0  0  0  0  0  0  0  0
  127.6981  134.0470  159.9778 C   0  0  0  0  0  0  0  0  0  0  0  0
  127.4731  133.0497  159.0512 C   0  0  0  0  0  0  0  0  0  0  0  0
  126.6127  132.0076  159.3471 C   0  0  0  0  0  0  0  0  0  0  0  0
  125.9626  131.9643  160.5680 C   0  0  0  0  0  0  0  0  0  0  0  0
  126.1740  132.9579  161.5011 C   0  0  0  0  0  0  0  0  0  0  0  0
  127.0459  134.0092  161.2113 C   0  0  0  0  0  0  0  0  0  0  0  0
  127.2777  135.0771  162.2065 C   0  0  0  0  0  0  0  0  0  0  0  0
  127.7330  134.8010  163.2991 O   0  0  0  0  0  0  0  0  0  0  0  0
  126.9842  136.3568  161.9023 N   0  0  0  0  0  0  0  0  0  0  0  0
  127.2015  137.3564  162.8336 C   0  0  0  0  0  0  0  0  0  0  0  0
  126.9531  138.6278  162.6438 N   0  0  0  0  0  0  0  0  0  0  0  0
  127.2787  139.3262  163.7608 C   0  0  0  0  0  0  0  0  0  0  0  0
  127.2248  140.6732  164.1185 C   0  0  0  0  0  0  0  0  0  0  0  0
  127.6294  141.0602  165.3105 N   0  0  0  0  0  0  0  0  0  0  0  0
  128.0974  140.2110  166.2094 C   0  0  0  0  0  0  0  0  0  0  0  0
  128.1863  138.8615  165.9401 C   0  0  0  0  0  0  0  0  0  0  0  0
  127.7727  138.3976  164.6976 C   0  0  0  0  0  0  0  0  0  0  0  0
  127.7125  137.1643  164.0864 N   0  0  0  0  0  0  0  0  0  0  0  0
  127.9832  136.3169  164.4732 H   0  0  0  0  0  0  0  0  0  0  0  0
  130.4996  133.5599  159.3801 C   0  0  0  0  0  0  0  0  0  0  0  0
  130.5728  133.5515  157.9997 C   0  0  0  0  0  0  0  0  0  0  0  0
  130.9851  132.4109  157.3363 C   0  0  0  0  0  0  0  0  0  0  0  0
  131.3132  131.2751  158.0528 C   0  0  0  0  0  0  0  0  0  0  0  0
  131.7567  130.0298  157.3292 C   0  0  0  0  0  0  0  0  0  0  0  0
  131.2349  131.2818  159.4329 C   0  0  0  0  0  0  0  0  0  0  0  0
  130.8281  132.4242  160.0965 C   0  0  0  0  0  0  0  0  0  0  0  0
  132.3192  135.6473  160.3576 C   0  0  0  0  0  0  0  0  0  0  0  0
  134.3721  138.3695  161.3644 H   0  0  0  0  0  0  0  0  0  0  0  0
  134.6360  136.6922  161.8985 H   0  0  0  0  0  0  0  0  0  0  0  0
  134.8885  137.1331  160.1927 H   0  0  0  0  0  0  0  0  0  0  0  0
  131.9347  138.8882  161.1368 H   0  0  0  0  0  0  0  0  0  0  0  0
  129.9940  136.9058  161.3907 H   0  0  0  0  0  0  0  0  0  0  0  0
  129.9643  137.7742  159.8268 H   0  0  0  0  0  0  0  0  0  0  0  0
  128.3198  136.0785  160.1796 H   0  0  0  0  0  0  0  0  0  0  0  0
  128.6360  135.3607  158.5817 H   0  0  0  0  0  0  0  0  0  0  0  0
  127.9734  133.0803  158.0946 H   0  0  0  0  0  0  0  0  0  0  0  0
  126.4436  131.2271  158.6202 H   0  0  0  0  0  0  0  0  0  0  0  0
  125.2885  131.1505  160.7910 H   0  0  0  0  0  0  0  0  0  0  0  0
  125.6665  132.9225  162.4538 H   0  0  0  0  0  0  0  0  0  0  0  0
  126.6209  136.5770  161.0303 H   0  0  0  0  0  0  0  0  0  0  0  0
  126.8493  141.4018  163.4152 H   0  0  0  0  0  0  0  0  0  0  0  0
  128.4165  140.5813  167.1724 H   0  0  0  0  0  0  0  0  0  0  0  0
  128.5703  138.1772  166.6821 H   0  0  0  0  0  0  0  0  0  0  0  0
  130.3119  134.4373  157.4398 H   0  0  0  0  0  0  0  0  0  0  0  0
  131.0465  132.4058  156.2581 H   0  0  0  0  0  0  0  0  0  0  0  0
  130.8873  129.4132  157.1010 H   0  0  0  0  0  0  0  0  0  0  0  0
  132.2586  130.3074  156.4025 H   0  0  0  0  0  0  0  0  0  0  0  0
  132.4447  129.4681  157.9611 H   0  0  0  0  0  0  0  0  0  0  0  0
  131.4913  130.3945  159.9926 H   0  0  0  0  0  0  0  0  0  0  0  0
  130.7667  132.4293  161.1748 H   0  0  0  0  0  0  0  0  0  0  0  0
  132.9711  135.2121  159.6001 H   0  0  0  0  0  0  0  0  0  0  0  0
  132.2453  134.9826  161.2183 H   0  0  0  0  0  0  0  0  0  0  0  0
  1  2  1  0
  1 37  1  0
  1 38  1  0
  1 39  1  0
  2 36  1  0
  2  3  2  0
  3  4  1  0
  3 40  1  0
  4  5  1  0
  4 41  1  0
  4 42  1  0
  5  6  1  6
  5  7  1  0
  5 36  1  0
  7  8  1  1
  7  9  1  0
  7 29  1  0
  9 10  1  0
  9 43  1  0
  9 44  1  0
 10 15  1  0
 10 11  2  0
 11 12  1  0
 11 45  1  0
 12 13  2  0
 12 46  1  0
 13 14  1  0
 13 47  1  0
 14 15  2  0
 14 48  1  0
 15 16  1  0
 16 17  2  0
 16 18  1  0
 18 19  1  0
 18 49  1  0
 19 27  1  0
 19 20  2  0
 20 21  1  0
 21 26  2  0
 21 22  1  0
 22 23  2  0
 22 50  1  0
 23 24  1  0
 24 25  2  0
 24 51  1  0
 25 26  1  0
 25 52  1  0
 26 27  1  0
 27 28  1  0
 29 35  1  0
 29 30  2  0
 30 31  1  0
 30 53  1  0
 31 32  2  0
 31 54  1  0
 32 33  1  0
 32 34  1  0
 33 55  1  0
 33 56  1  0
 33 57  1  0
 34 35  2  0
 34 58  1  0
 35 59  1  0
 36 60  1  0
 36 61  1  0
M  CHG  1   5   1
M  END
>  <DOCK_score>  (1) 
-50.631813

>  <SMILES>  (1) 
CC1=CC[NH+]([C@@H](Cc2ccccc2C(=O)Nc2nc3cnccc3[nH]2)c2ccc(C)cc2)C1

$$$$
