CSc1cc(N)ccc1Nc1[nH]cc(-c2ccncc2)[nH+]1
     RDKit          3D

 37 39  0  0  1  0  0  0  0  0999 V2000
  126.1129  135.4096  157.6950 C   0  0  0  0  0  0  0  0  0  0  0  0
  127.6517  136.3321  157.9625 S   0  0  0  0  0  0  0  0  0  0  0  0
  128.0279  135.9944  159.6505 C   0  0  0  0  0  0  0  0  0  0  0  0
  127.1334  136.3548  160.6474 C   0  0  0  0  0  0  0  0  0  0  0  0
  127.4348  136.0930  161.9760 C   0  0  0  0  0  0  0  0  0  0  0  0
  126.5358  136.4604  162.9836 N   0  0  0  0  0  0  0  0  0  0  0  0
  128.6294  135.4655  162.3080 C   0  0  0  0  0  0  0  0  0  0  0  0
  129.5202  135.1006  161.3160 C   0  0  0  0  0  0  0  0  0  0  0  0
  129.2242  135.3601  159.9866 C   0  0  0  0  0  0  0  0  0  0  0  0
  130.1297  134.9901  158.9803 N   0  0  0  0  0  0  0  0  0  0  0  0
  130.0370  133.7409  158.3908 C   0  0  0  0  0  0  0  0  0  0  0  0
  129.5738  132.6113  158.9942 N   0  0  0  0  0  0  0  0  0  0  0  0
  129.2560  132.5373  159.9077 H   0  0  0  0  0  0  0  0  0  0  0  0
  129.6451  131.5963  158.0742 C   0  0  0  0  0  0  0  0  0  0  0  0
  130.1495  132.1323  156.9340 C   0  0  0  0  0  0  0  0  0  0  0  0
  130.4031  131.4067  155.6668 C   0  0  0  0  0  0  0  0  0  0  0  0
  129.7599  131.7819  154.4828 C   0  0  0  0  0  0  0  0  0  0  0  0
  130.0281  131.0822  153.3252 C   0  0  0  0  0  0  0  0  0  0  0  0
  130.8701  130.0667  153.3272 N   0  0  0  0  0  0  0  0  0  0  0  0
  131.4943  129.6770  154.4233 C   0  0  0  0  0  0  0  0  0  0  0  0
  131.2878  130.3243  155.6233 C   0  0  0  0  0  0  0  0  0  0  0  0
  130.3801  133.4503  157.1596 N   0  0  0  0  0  0  0  0  0  0  0  0
  130.7413  134.0770  156.5134 H   0  0  0  0  0  0  0  0  0  0  0  0
  125.3459  135.7768  158.3767 H   0  0  0  0  0  0  0  0  0  0  0  0
  125.7809  135.5476  156.6660 H   0  0  0  0  0  0  0  0  0  0  0  0
  126.2876  134.3500  157.8814 H   0  0  0  0  0  0  0  0  0  0  0  0
  126.2048  136.8427  160.3900 H   0  0  0  0  0  0  0  0  0  0  0  0
  126.7466  136.2776  163.9125 H   0  0  0  0  0  0  0  0  0  0  0  0
  125.7017  136.8983  162.7525 H   0  0  0  0  0  0  0  0  0  0  0  0
  128.8627  135.2631  163.3428 H   0  0  0  0  0  0  0  0  0  0  0  0
  130.4481  134.6133  161.5767 H   0  0  0  0  0  0  0  0  0  0  0  0
  130.8206  135.6096  158.6979 H   0  0  0  0  0  0  0  0  0  0  0  0
  129.3555  130.5673  158.2279 H   0  0  0  0  0  0  0  0  0  0  0  0
  129.0660  132.6095  154.4748 H   0  0  0  0  0  0  0  0  0  0  0  0
  129.5388  131.3665  152.4054 H   0  0  0  0  0  0  0  0  0  0  0  0
  132.1757  128.8400  154.3797 H   0  0  0  0  0  0  0  0  0  0  0  0
  131.8018  130.0004  156.5162 H   0  0  0  0  0  0  0  0  0  0  0  0
  1  2  1  0
  1 24  1  0
  1 25  1  0
  1 26  1  0
  2  3  1  0
  3  9  2  0
  3  4  1  0
  4  5  2  0
  4 27  1  0
  5  6  1  0
  5  7  1  0
  6 28  1  0
  6 29  1  0
  7  8  2  0
  7 30  1  0
  8  9  1  0
  8 31  1  0
  9 10  1  0
 10 32  1  0
 11 10  1  0
 11 22  2  0
 11 12  1  0
 12 13  1  0
 12 14  1  0
 14 15  2  0
 14 33  1  0
 15 16  1  0
 15 22  1  0
 16 21  1  0
 16 17  2  0
 17 18  1  0
 17 34  1  0
 18 19  2  0
 18 35  1  0
 19 20  1  0
 20 21  2  0
 20 36  1  0
 21 37  1  0
 22 23  1  0
M  CHG  1  22   1
M  END
>  <DOCK_score>  (1) 
-46.826702

>  <SMILES>  (1) 
CSc1cc(N)ccc1Nc1[nH]cc(-c2ccncc2)[nH+]1

$$$$
