Nc1ccc(-c2c[nH]c(N[C@@H](c3ccccc3)c3ccncc3)[nH+]2)cc1
     RDKit          3D

 46 49  0  0  1  0  0  0  0  0999 V2000
  131.4805  129.4352  151.7483 N   0  0  0  0  0  0  0  0  0  0  0  0
  131.1437  130.1579  152.8953 C   0  0  0  0  0  0  0  0  0  0  0  0
  130.4444  131.3537  152.7815 C   0  0  0  0  0  0  0  0  0  0  0  0
  130.1108  132.0687  153.9124 C   0  0  0  0  0  0  0  0  0  0  0  0
  130.4755  131.5915  155.1704 C   0  0  0  0  0  0  0  0  0  0  0  0
  130.1178  132.3590  156.3885 C   0  0  0  0  0  0  0  0  0  0  0  0
  129.3494  131.9155  157.4139 C   0  0  0  0  0  0  0  0  0  0  0  0
  129.2693  132.9420  158.3250 N   0  0  0  0  0  0  0  0  0  0  0  0
  128.7847  132.9282  159.1651 H   0  0  0  0  0  0  0  0  0  0  0  0
  129.9958  133.9809  157.8305 C   0  0  0  0  0  0  0  0  0  0  0  0
  130.1704  135.2083  158.4465 N   0  0  0  0  0  0  0  0  0  0  0  0
  129.5439  135.4722  159.7443 C   0  0  1  0  0  0  0  0  0  0  0  0
  129.9118  134.7546  160.4778 H   0  0  0  0  0  0  0  0  0  0  0  0
  129.8868  136.8694  160.1928 C   0  0  0  0  0  0  0  0  0  0  0  0
  129.9724  137.1610  161.5413 C   0  0  0  0  0  0  0  0  0  0  0  0
  130.2912  138.4415  161.9527 C   0  0  0  0  0  0  0  0  0  0  0  0
  130.5156  139.4328  161.0156 C   0  0  0  0  0  0  0  0  0  0  0  0
  130.4247  139.1425  159.6671 C   0  0  0  0  0  0  0  0  0  0  0  0
  130.1102  137.8607  159.2558 C   0  0  0  0  0  0  0  0  0  0  0  0
  128.0484  135.3382  159.6169 C   0  0  0  0  0  0  0  0  0  0  0  0
  127.4098  135.6238  158.4198 C   0  0  0  0  0  0  0  0  0  0  0  0
  126.0371  135.4845  158.3389 C   0  0  0  0  0  0  0  0  0  0  0  0
  125.3357  135.0957  159.3858 N   0  0  0  0  0  0  0  0  0  0  0  0
  125.9088  134.8209  160.5411 C   0  0  0  0  0  0  0  0  0  0  0  0
  127.2776  134.9319  160.6954 C   0  0  0  0  0  0  0  0  0  0  0  0
  130.5037  133.6275  156.6748 N   0  0  0  0  0  0  0  0  0  0  0  0
  131.0628  134.1858  156.1120 H   0  0  0  0  0  0  0  0  0  0  0  0
  131.1819  130.3950  155.2817 C   0  0  0  0  0  0  0  0  0  0  0  0
  131.5081  129.6801  154.1485 C   0  0  0  0  0  0  0  0  0  0  0  0
  131.2265  129.7679  150.8733 H   0  0  0  0  0  0  0  0  0  0  0  0
  131.9688  128.6006  151.8268 H   0  0  0  0  0  0  0  0  0  0  0  0
  130.1623  131.7230  151.8067 H   0  0  0  0  0  0  0  0  0  0  0  0
  129.5670  132.9976  153.8235 H   0  0  0  0  0  0  0  0  0  0  0  0
  128.8856  130.9437  157.4970 H   0  0  0  0  0  0  0  0  0  0  0  0
  130.7073  135.8936  158.0189 H   0  0  0  0  0  0  0  0  0  0  0  0
  129.7934  136.3875  162.2735 H   0  0  0  0  0  0  0  0  0  0  0  0
  130.3624  138.6684  163.0063 H   0  0  0  0  0  0  0  0  0  0  0  0
  130.7619  140.4341  161.3370 H   0  0  0  0  0  0  0  0  0  0  0  0
  130.6001  139.9169  158.9350 H   0  0  0  0  0  0  0  0  0  0  0  0
  130.0393  137.6340  158.2022 H   0  0  0  0  0  0  0  0  0  0  0  0
  127.9782  135.9470  157.5602 H   0  0  0  0  0  0  0  0  0  0  0  0
  125.5326  135.7004  157.4087 H   0  0  0  0  0  0  0  0  0  0  0  0
  125.3014  134.5052  161.3765 H   0  0  0  0  0  0  0  0  0  0  0  0
  127.7411  134.7055  161.6443 H   0  0  0  0  0  0  0  0  0  0  0  0
  131.4697  130.0257  156.2550 H   0  0  0  0  0  0  0  0  0  0  0  0
  132.0511  128.7505  154.2346 H   0  0  0  0  0  0  0  0  0  0  0  0
  1  2  1  0
  1 30  1  0
  1 31  1  0
  2 29  2  0
  2  3  1  0
  3  4  2  0
  3 32  1  0
  4  5  1  0
  4 33  1  0
  5  6  1  0
  5 28  2  0
  6 26  1  0
  6  7  2  0
  7  8  1  0
  7 34  1  0
  8  9  1  0
  8 10  1  0
 10 11  1  0
 10 26  2  0
 11 12  1  0
 11 35  1  0
 12 13  1  1
 12 14  1  0
 12 20  1  0
 14 19  1  0
 14 15  2  0
 15 16  1  0
 15 36  1  0
 16 17  2  0
 16 37  1  0
 17 18  1  0
 17 38  1  0
 18 19  2  0
 18 39  1  0
 19 40  1  0
 20 25  1  0
 20 21  2  0
 21 22  1  0
 21 41  1  0
 22 23  2  0
 22 42  1  0
 23 24  1  0
 24 25  2  0
 24 43  1  0
 25 44  1  0
 26 27  1  0
 28 29  1  0
 28 45  1  0
 29 46  1  0
M  CHG  1  26   1
M  END
>  <DOCK_score>  (1) 
-59.379215

>  <SMILES>  (1) 
Nc1ccc(-c2c[nH]c(N[C@@H](c3ccccc3)c3ccncc3)[nH+]2)cc1

$$$$
