CCc1ccc(-c2c[nH]c(N[C@@H](c3ccc(-c4ccccc4Cl)cc3)C3CC3)[nH+]2)cc1
     RDKit          3D

 58 62  0  0  1  0  0  0  0  0999 V2000
  130.3589  128.9884  151.4155 C   0  0  0  0  0  0  0  0  0  0  0  0
  131.6273  129.6234  151.9892 C   0  0  0  0  0  0  0  0  0  0  0  0
  131.2959  130.3312  153.2777 C   0  0  0  0  0  0  0  0  0  0  0  0
  131.3719  129.6482  154.4782 C   0  0  0  0  0  0  0  0  0  0  0  0
  131.0743  130.2926  155.6618 C   0  0  0  0  0  0  0  0  0  0  0  0
  130.6868  131.6313  155.6450 C   0  0  0  0  0  0  0  0  0  0  0  0
  130.3612  132.3281  156.9133 C   0  0  0  0  0  0  0  0  0  0  0  0
  129.8407  131.7563  158.0273 C   0  0  0  0  0  0  0  0  0  0  0  0
  129.7005  132.7552  158.9598 N   0  0  0  0  0  0  0  0  0  0  0  0
  129.3549  132.6558  159.8606 H   0  0  0  0  0  0  0  0  0  0  0  0
  130.1320  133.9109  158.3849 C   0  0  0  0  0  0  0  0  0  0  0  0
  130.1509  135.1552  158.9915 N   0  0  0  0  0  0  0  0  0  0  0  0
  129.1565  135.4863  160.0152 C   0  0  1  0  0  0  0  0  0  0  0  0
  128.9924  134.6200  160.6559 H   0  0  0  0  0  0  0  0  0  0  0  0
  129.6565  136.6389  160.8471 C   0  0  0  0  0  0  0  0  0  0  0  0
  129.9360  137.8528  160.2455 C   0  0  0  0  0  0  0  0  0  0  0  0
  130.3897  138.9132  161.0035 C   0  0  0  0  0  0  0  0  0  0  0  0
  130.5766  138.7561  162.3754 C   0  0  0  0  0  0  0  0  0  0  0  0
  131.0695  139.8908  163.1944 C   0  0  0  0  0  0  0  0  0  0  0  0
  132.4376  140.0697  163.3903 C   0  0  0  0  0  0  0  0  0  0  0  0
  132.8908  141.1298  164.1486 C   0  0  0  0  0  0  0  0  0  0  0  0
  131.9899  142.0080  164.7240 C   0  0  0  0  0  0  0  0  0  0  0  0
  130.6309  141.8333  164.5380 C   0  0  0  0  0  0  0  0  0  0  0  0
  130.1655  140.7789  163.7760 C   0  0  0  0  0  0  0  0  0  0  0  0
  128.4592  140.5599  163.5435 Cl  0  0  0  0  0  0  0  0  0  0  0  0
  130.2986  137.5296  162.9752 C   0  0  0  0  0  0  0  0  0  0  0  0
  129.8399  136.4775  162.2085 C   0  0  0  0  0  0  0  0  0  0  0  0
  127.8404  135.8779  159.3399 C   0  0  0  0  0  0  0  0  0  0  0  0
  126.5423  135.5566  160.0831 C   0  0  0  0  0  0  0  0  0  0  0  0
  126.9360  134.7469  158.8461 C   0  0  0  0  0  0  0  0  0  0  0  0
  130.5261  133.6517  157.1621 N   0  0  0  0  0  0  0  0  0  0  0  0
  130.8793  134.3022  156.5351 H   0  0  0  0  0  0  0  0  0  0  0  0
  130.6069  132.3130  154.4319 C   0  0  0  0  0  0  0  0  0  0  0  0
  130.9115  131.6598  153.2550 C   0  0  0  0  0  0  0  0  0  0  0  0
  129.6187  129.7650  151.2235 H   0  0  0  0  0  0  0  0  0  0  0  0
  130.5986  128.4765  150.4835 H   0  0  0  0  0  0  0  0  0  0  0  0
  129.9561  128.2714  152.1307 H   0  0  0  0  0  0  0  0  0  0  0  0
  132.3676  128.8468  152.1812 H   0  0  0  0  0  0  0  0  0  0  0  0
  132.0301  130.3406  151.2740 H   0  0  0  0  0  0  0  0  0  0  0  0
  131.6686  128.6099  154.4898 H   0  0  0  0  0  0  0  0  0  0  0  0
  131.1382  129.7596  156.5990 H   0  0  0  0  0  0  0  0  0  0  0  0
  129.5871  130.7146  158.1572 H   0  0  0  0  0  0  0  0  0  0  0  0
  130.8226  135.8078  158.7388 H   0  0  0  0  0  0  0  0  0  0  0  0
  129.7950  137.9720  159.1814 H   0  0  0  0  0  0  0  0  0  0  0  0
  130.6033  139.8618  160.5334 H   0  0  0  0  0  0  0  0  0  0  0  0
  133.1420  139.3823  162.9459 H   0  0  0  0  0  0  0  0  0  0  0  0
  133.9512  141.2718  164.2968 H   0  0  0  0  0  0  0  0  0  0  0  0
  132.3494  142.8335  165.3204 H   0  0  0  0  0  0  0  0  0  0  0  0
  129.9320  142.5220  164.9895 H   0  0  0  0  0  0  0  0  0  0  0  0
  130.4414  137.4025  164.0381 H   0  0  0  0  0  0  0  0  0  0  0  0
  129.6241  135.5264  162.6726 H   0  0  0  0  0  0  0  0  0  0  0  0
  127.8694  136.7935  158.7492 H   0  0  0  0  0  0  0  0  0  0  0  0
  126.6256  135.0665  161.0532 H   0  0  0  0  0  0  0  0  0  0  0  0
  125.7167  136.2612  159.9817 H   0  0  0  0  0  0  0  0  0  0  0  0
  126.3696  134.9187  157.9308 H   0  0  0  0  0  0  0  0  0  0  0  0
  127.2785  133.7239  159.0023 H   0  0  0  0  0  0  0  0  0  0  0  0
  130.3069  133.3503  154.4130 H   0  0  0  0  0  0  0  0  0  0  0  0
  130.8500  132.1871  152.3145 H   0  0  0  0  0  0  0  0  0  0  0  0
  1  2  1  0
  1 35  1  0
  1 36  1  0
  1 37  1  0
  2  3  1  0
  2 38  1  0
  2 39  1  0
  3 34  2  0
  3  4  1  0
  4  5  2  0
  4 40  1  0
  5  6  1  0
  5 41  1  0
  6  7  1  0
  6 33  2  0
  7 31  1  0
  7  8  2  0
  8  9  1  0
  8 42  1  0
  9 10  1  0
  9 11  1  0
 11 12  1  0
 11 31  2  0
 12 13  1  0
 12 43  1  0
 13 14  1  1
 13 15  1  0
 13 28  1  0
 15 27  1  0
 15 16  2  0
 16 17  1  0
 16 44  1  0
 17 18  2  0
 17 45  1  0
 18 19  1  0
 18 26  1  0
 19 24  1  0
 19 20  2  0
 20 21  1  0
 20 46  1  0
 21 22  2  0
 21 47  1  0
 22 23  1  0
 22 48  1  0
 23 24  2  0
 23 49  1  0
 24 25  1  0
 26 27  2  0
 26 50  1  0
 27 51  1  0
 28 30  1  0
 28 29  1  0
 28 52  1  0
 29 30  1  0
 29 53  1  0
 29 54  1  0
 30 55  1  0
 30 56  1  0
 31 32  1  0
 33 34  1  0
 33 57  1  0
 34 58  1  0
M  CHG  1  31   1
M  END
>  <DOCK_score>  (1) 
-61.341816

>  <SMILES>  (1) 
CCc1ccc(-c2c[nH]c(N[C@@H](c3ccc(-c4ccccc4Cl)cc3)C3CC3)[nH+]2)cc1

$$$$
