[NH3+][C@H](Cc1cn(C=Cc2ccc(F)cc2)nn1)C(=O)Nc1cccc(O)c1
     RDKit          3D

 46 48  0  0  1  0  0  0  0  0999 V2000
  130.4623  134.2321  157.3333 N   0  0  0  0  0  0  0  0  0  0  0  0
  130.7083  133.3100  157.6609 H   0  0  0  0  0  0  0  0  0  0  0  0
  129.8299  134.1535  156.5511 H   0  0  0  0  0  0  0  0  0  0  0  0
  131.2967  134.7197  157.0433 H   0  0  0  0  0  0  0  0  0  0  0  0
  129.8102  134.9790  158.4170 C   0  0  2  0  0  0  0  0  0  0  0  0
  129.5445  135.9751  158.0631 H   0  0  0  0  0  0  0  0  0  0  0  0
  130.7693  135.0983  159.6030 C   0  0  0  0  0  0  0  0  0  0  0  0
  130.3334  136.2366  160.4892 C   0  0  0  0  0  0  0  0  0  0  0  0
  130.5218  136.3071  161.8243 C   0  0  0  0  0  0  0  0  0  0  0  0
  129.9825  137.4899  162.2355 N   0  0  0  0  0  0  0  0  0  0  0  0
  129.9475  137.9845  163.5365 C   0  0  0  0  0  0  0  0  0  0  0  0
  129.3810  139.1668  163.7858 C   0  0  0  0  0  0  0  0  0  0  0  0
  129.3439  139.6911  165.1650 C   0  0  0  0  0  0  0  0  0  0  0  0
  129.9638  140.9046  165.4704 C   0  0  0  0  0  0  0  0  0  0  0  0
  129.9224  141.3915  166.7601 C   0  0  0  0  0  0  0  0  0  0  0  0
  129.2755  140.6746  167.7538 C   0  0  0  0  0  0  0  0  0  0  0  0
  129.2423  141.1540  169.0165 F   0  0  0  0  0  0  0  0  0  0  0  0
  128.6627  139.4674  167.4576 C   0  0  0  0  0  0  0  0  0  0  0  0
  128.6938  138.9728  166.1706 C   0  0  0  0  0  0  0  0  0  0  0  0
  129.4700  138.1092  161.0855 N   0  0  0  0  0  0  0  0  0  0  0  0
  129.6989  137.3362  160.0814 N   0  0  0  0  0  0  0  0  0  0  0  0
  128.5639  134.2508  158.8500 C   0  0  0  0  0  0  0  0  0  0  0  0
  128.2499  133.2117  158.3089 O   0  0  0  0  0  0  0  0  0  0  0  0
  127.7985  134.7540  159.8385 N   0  0  0  0  0  0  0  0  0  0  0  0
  126.6413  134.0778  160.2405 C   0  0  0  0  0  0  0  0  0  0  0  0
  126.5702  132.6947  160.1305 C   0  0  0  0  0  0  0  0  0  0  0  0
  125.4300  132.0268  160.5327 C   0  0  0  0  0  0  0  0  0  0  0  0
  124.3531  132.7329  161.0346 C   0  0  0  0  0  0  0  0  0  0  0  0
  124.4162  134.1150  161.1413 C   0  0  0  0  0  0  0  0  0  0  0  0
  123.3565  134.8081  161.6346 O   0  0  0  0  0  0  0  0  0  0  0  0
  125.5611  134.7884  160.7441 C   0  0  0  0  0  0  0  0  0  0  0  0
  131.7781  135.2888  159.2368 H   0  0  0  0  0  0  0  0  0  0  0  0
  130.7592  134.1694  160.1734 H   0  0  0  0  0  0  0  0  0  0  0  0
  131.0061  135.5691  162.4464 H   0  0  0  0  0  0  0  0  0  0  0  0
  130.3789  137.4113  164.3438 H   0  0  0  0  0  0  0  0  0  0  0  0
  128.9496  139.7400  162.9784 H   0  0  0  0  0  0  0  0  0  0  0  0
  130.4716  141.4624  164.6975 H   0  0  0  0  0  0  0  0  0  0  0  0
  130.3987  142.3316  166.9967 H   0  0  0  0  0  0  0  0  0  0  0  0
  128.1602  138.9126  168.2362 H   0  0  0  0  0  0  0  0  0  0  0  0
  128.2166  138.0315  165.9410 H   0  0  0  0  0  0  0  0  0  0  0  0
  128.0496  135.5850  160.2713 H   0  0  0  0  0  0  0  0  0  0  0  0
  127.4086  132.1411  159.7346 H   0  0  0  0  0  0  0  0  0  0  0  0
  125.3781  130.9512  160.4504 H   0  0  0  0  0  0  0  0  0  0  0  0
  123.4613  132.2083  161.3443 H   0  0  0  0  0  0  0  0  0  0  0  0
  123.4944  135.7646  161.6705 H   0  0  0  0  0  0  0  0  0  0  0  0
  125.6123  135.8640  160.8268 H   0  0  0  0  0  0  0  0  0  0  0  0
  1  2  1  0
  1  3  1  0
  1  4  1  0
  1  5  1  0
  5  6  1  6
  5  7  1  0
  5 22  1  0
  7  8  1  0
  7 32  1  0
  7 33  1  0
  8 21  1  0
  8  9  2  0
  9 10  1  0
  9 34  1  0
 10 11  1  0
 10 20  1  0
 11 12  2  0
 11 35  1  0
 12 13  1  0
 12 36  1  0
 13 19  1  0
 13 14  2  0
 14 15  1  0
 14 37  1  0
 15 16  2  0
 15 38  1  0
 16 17  1  0
 16 18  1  0
 18 19  2  0
 18 39  1  0
 19 40  1  0
 20 21  2  0
 22 23  2  0
 22 24  1  0
 24 25  1  0
 24 41  1  0
 25 31  1  0
 25 26  2  0
 26 27  1  0
 26 42  1  0
 27 28  2  0
 27 43  1  0
 28 29  1  0
 28 44  1  0
 29 30  1  0
 29 31  2  0
 30 45  1  0
 31 46  1  0
M  CHG  1   1   1
M  END
>  <DOCK_score>  (1) 
-43.927608

>  <SMILES>  (1) 
[NH3+][C@H](Cc1cn(C=Cc2ccc(F)cc2)nn1)C(=O)Nc1cccc(O)c1

$$$$
