Cc1nn(-c2ccc(F)cc2)cc1C[NH+]1CCC(c2nn(-c3ccccc3)cc2F)CC1
     RDKit          3D

 58 62  0  0  1  0  0  0  0  0999 V2000
  130.7154  139.4355  158.3157 C   0  0  0  0  0  0  0  0  0  0  0  0
  131.7791  138.9501  159.2664 C   0  0  0  0  0  0  0  0  0  0  0  0
  132.9638  139.4825  159.4287 N   0  0  0  0  0  0  0  0  0  0  0  0
  133.6485  138.7398  160.3995 N   0  0  0  0  0  0  0  0  0  0  0  0
  134.9498  138.9855  160.8609 C   0  0  0  0  0  0  0  0  0  0  0  0
  135.2993  138.6557  162.1634 C   0  0  0  0  0  0  0  0  0  0  0  0
  136.5828  138.8935  162.6142 C   0  0  0  0  0  0  0  0  0  0  0  0
  137.5181  139.4704  161.7713 C   0  0  0  0  0  0  0  0  0  0  0  0
  138.7716  139.7071  162.2158 F   0  0  0  0  0  0  0  0  0  0  0  0
  137.1696  139.8052  160.4735 C   0  0  0  0  0  0  0  0  0  0  0  0
  135.8885  139.5640  160.0174 C   0  0  0  0  0  0  0  0  0  0  0  0
  132.8301  137.7477  160.8170 C   0  0  0  0  0  0  0  0  0  0  0  0
  131.6705  137.8526  160.1273 C   0  0  0  0  0  0  0  0  0  0  0  0
  130.4715  136.9504  160.2665 C   0  0  0  0  0  0  0  0  0  0  0  0
  130.5887  135.8311  159.3224 N   0  0  2  0  0  0  0  0  0  0  0  0
  130.9559  136.1700  158.4459 H   0  0  0  0  0  0  0  0  0  0  0  0
  129.2637  135.2397  159.1000 C   0  0  0  0  0  0  0  0  0  0  0  0
  129.3675  134.1262  158.0556 C   0  0  0  0  0  0  0  0  0  0  0  0
  130.3310  133.0483  158.5607 C   0  0  1  0  0  0  0  0  0  0  0  0
  130.4985  131.9870  157.5040 C   0  0  0  0  0  0  0  0  0  0  0  0
  130.4149  132.1734  156.2112 N   0  0  0  0  0  0  0  0  0  0  0  0
  130.6304  130.9441  155.5749 N   0  0  0  0  0  0  0  0  0  0  0  0
  130.6242  130.7178  154.1916 C   0  0  0  0  0  0  0  0  0  0  0  0
  130.8593  129.4430  153.6943 C   0  0  0  0  0  0  0  0  0  0  0  0
  130.8463  129.2220  152.3309 C   0  0  0  0  0  0  0  0  0  0  0  0
  130.6117  130.2711  151.4612 C   0  0  0  0  0  0  0  0  0  0  0  0
  130.3828  131.5429  151.9533 C   0  0  0  0  0  0  0  0  0  0  0  0
  130.3884  131.7690  153.3158 C   0  0  0  0  0  0  0  0  0  0  0  0
  130.8472  130.0097  156.5387 C   0  0  0  0  0  0  0  0  0  0  0  0
  130.7760  130.6346  157.7380 C   0  0  0  0  0  0  0  0  0  0  0  0
  130.9399  130.0548  158.9471 F   0  0  0  0  0  0  0  0  0  0  0  0
  131.6883  133.6909  158.8606 C   0  0  0  0  0  0  0  0  0  0  0  0
  131.4986  134.8206  159.8753 C   0  0  0  0  0  0  0  0  0  0  0  0
  130.0827  140.1655  158.8205 H   0  0  0  0  0  0  0  0  0  0  0  0
  131.1869  139.9005  157.4498 H   0  0  0  0  0  0  0  0  0  0  0  0
  130.1076  138.5919  157.9892 H   0  0  0  0  0  0  0  0  0  0  0  0
  134.5690  138.2100  162.8223 H   0  0  0  0  0  0  0  0  0  0  0  0
  136.8561  138.6338  163.6263 H   0  0  0  0  0  0  0  0  0  0  0  0
  137.9000  140.2557  159.8178 H   0  0  0  0  0  0  0  0  0  0  0  0
  135.6173  139.8250  159.0052 H   0  0  0  0  0  0  0  0  0  0  0  0
  133.0614  137.0034  161.5648 H   0  0  0  0  0  0  0  0  0  0  0  0
  129.5647  137.5152  160.0497 H   0  0  0  0  0  0  0  0  0  0  0  0
  130.4241  136.5635  161.2844 H   0  0  0  0  0  0  0  0  0  0  0  0
  128.5783  136.0087  158.7437 H   0  0  0  0  0  0  0  0  0  0  0  0
  128.8895  134.8255  160.0362 H   0  0  0  0  0  0  0  0  0  0  0  0
  128.3832  133.6871  157.8927 H   0  0  0  0  0  0  0  0  0  0  0  0
  129.7420  134.5392  157.1190 H   0  0  0  0  0  0  0  0  0  0  0  0
  129.9306  132.5983  159.4691 H   0  0  0  0  0  0  0  0  0  0  0  0
  131.0474  128.6242  154.3729 H   0  0  0  0  0  0  0  0  0  0  0  0
  131.0245  128.2296  151.9436 H   0  0  0  0  0  0  0  0  0  0  0  0
  130.6069  130.0966  150.3953 H   0  0  0  0  0  0  0  0  0  0  0  0
  130.1990  132.3601  151.2716 H   0  0  0  0  0  0  0  0  0  0  0  0
  130.2092  132.7625  153.6996 H   0  0  0  0  0  0  0  0  0  0  0  0
  131.0451  128.9603  156.3768 H   0  0  0  0  0  0  0  0  0  0  0  0
  132.3629  132.9406  159.2732 H   0  0  0  0  0  0  0  0  0  0  0  0
  132.1111  134.0950  157.9408 H   0  0  0  0  0  0  0  0  0  0  0  0
  131.0761  134.4154  160.7947 H   0  0  0  0  0  0  0  0  0  0  0  0
  132.4631  135.2804  160.0908 H   0  0  0  0  0  0  0  0  0  0  0  0
  1  2  1  0
  1 34  1  0
  1 35  1  0
  1 36  1  0
  2 13  1  0
  2  3  2  0
  3  4  1  0
  4  5  1  0
  4 12  1  0
  5 11  1  0
  5  6  2  0
  6  7  1  0
  6 37  1  0
  7  8  2  0
  7 38  1  0
  8  9  1  0
  8 10  1  0
 10 11  2  0
 10 39  1  0
 11 40  1  0
 12 13  2  0
 12 41  1  0
 13 14  1  0
 14 15  1  0
 14 42  1  0
 14 43  1  0
 15 16  1  6
 15 33  1  0
 15 17  1  0
 17 18  1  0
 17 44  1  0
 17 45  1  0
 18 19  1  0
 18 46  1  0
 18 47  1  0
 19 20  1  0
 19 32  1  0
 19 48  1  1
 20 30  1  0
 20 21  2  0
 21 22  1  0
 22 23  1  0
 22 29  1  0
 23 28  1  0
 23 24  2  0
 24 25  1  0
 24 49  1  0
 25 26  2  0
 25 50  1  0
 26 27  1  0
 26 51  1  0
 27 28  2  0
 27 52  1  0
 28 53  1  0
 29 30  2  0
 29 54  1  0
 30 31  1  0
 32 33  1  0
 32 55  1  0
 32 56  1  0
 33 57  1  0
 33 58  1  0
M  CHG  1  15   1
M  END
>  <DOCK_score>  (1) 
-56.247074

>  <SMILES>  (1) 
Cc1nn(-c2ccc(F)cc2)cc1C[NH+]1CCC(c2nn(-c3ccccc3)cc2F)CC1

$$$$
