Cc1ccccc1[C@H](Nc1[nH]cc(-c2ccc(N)cc2)[nH+]1)C1CCCC1
     RDKit          3D

 53 56  0  0  1  0  0  0  0  0999 V2000
  131.9791  133.2830  161.4332 C   0  0  0  0  0  0  0  0  0  0  0  0
  131.9895  134.7848  161.3088 C   0  0  0  0  0  0  0  0  0  0  0  0
  132.7678  135.5439  162.1630 C   0  0  0  0  0  0  0  0  0  0  0  0
  132.7728  136.9216  162.0526 C   0  0  0  0  0  0  0  0  0  0  0  0
  132.0077  137.5401  161.0812 C   0  0  0  0  0  0  0  0  0  0  0  0
  131.2299  136.7812  160.2272 C   0  0  0  0  0  0  0  0  0  0  0  0
  131.2205  135.4035  160.3413 C   0  0  0  0  0  0  0  0  0  0  0  0
  130.3720  134.5761  159.4103 C   0  0  2  0  0  0  0  0  0  0  0  0
  130.0580  133.6644  159.9185 H   0  0  0  0  0  0  0  0  0  0  0  0
  131.1510  134.2277  158.2195 N   0  0  0  0  0  0  0  0  0  0  0  0
  130.8941  133.0460  157.5456 C   0  0  0  0  0  0  0  0  0  0  0  0
  130.4200  131.9006  158.1067 N   0  0  0  0  0  0  0  0  0  0  0  0
  130.2033  131.7661  159.0426 H   0  0  0  0  0  0  0  0  0  0  0  0
  130.3053  130.9691  157.1021 C   0  0  0  0  0  0  0  0  0  0  0  0
  130.7124  131.5724  155.9581 C   0  0  0  0  0  0  0  0  0  0  0  0
  130.7615  130.9496  154.6125 C   0  0  0  0  0  0  0  0  0  0  0  0
  130.0103  131.4854  153.5676 C   0  0  0  0  0  0  0  0  0  0  0  0
  130.0614  130.9081  152.3164 C   0  0  0  0  0  0  0  0  0  0  0  0
  130.8522  129.7864  152.0994 C   0  0  0  0  0  0  0  0  0  0  0  0
  130.8980  129.2000  150.8322 N   0  0  0  0  0  0  0  0  0  0  0  0
  131.5981  129.2470  153.1412 C   0  0  0  0  0  0  0  0  0  0  0  0
  131.5544  129.8245  154.3925 C   0  0  0  0  0  0  0  0  0  0  0  0
  131.0622  132.8476  156.2607 N   0  0  0  0  0  0  0  0  0  0  0  0
  131.3872  133.5069  155.6278 H   0  0  0  0  0  0  0  0  0  0  0  0
  129.1380  135.3798  158.9953 C   0  0  0  0  0  0  0  0  0  0  0  0
  128.2707  135.6928  160.2322 C   0  0  0  0  0  0  0  0  0  0  0  0
  126.8154  135.5802  159.7141 C   0  0  0  0  0  0  0  0  0  0  0  0
  126.8928  134.3821  158.7355 C   0  0  0  0  0  0  0  0  0  0  0  0
  128.2618  134.5464  158.0437 C   0  0  0  0  0  0  0  0  0  0  0  0
  131.2279  132.9842  162.1643 H   0  0  0  0  0  0  0  0  0  0  0  0
  131.7413  132.8400  160.4662 H   0  0  0  0  0  0  0  0  0  0  0  0
  132.9606  132.9388  161.7592 H   0  0  0  0  0  0  0  0  0  0  0  0
  133.3685  135.0606  162.9192 H   0  0  0  0  0  0  0  0  0  0  0  0
  133.3774  137.5148  162.7228 H   0  0  0  0  0  0  0  0  0  0  0  0
  132.0148  138.6164  160.9925 H   0  0  0  0  0  0  0  0  0  0  0  0
  130.6293  137.2646  159.4708 H   0  0  0  0  0  0  0  0  0  0  0  0
  131.8468  134.8251  157.9032 H   0  0  0  0  0  0  0  0  0  0  0  0
  129.9576  129.9517  157.2045 H   0  0  0  0  0  0  0  0  0  0  0  0
  129.3918  132.3544  153.7368 H   0  0  0  0  0  0  0  0  0  0  0  0
  129.4830  131.3254  151.5053 H   0  0  0  0  0  0  0  0  0  0  0  0
  131.4503  128.4163  150.6803 H   0  0  0  0  0  0  0  0  0  0  0  0
  130.3780  129.5749  150.1051 H   0  0  0  0  0  0  0  0  0  0  0  0
  132.2121  128.3750  152.9705 H   0  0  0  0  0  0  0  0  0  0  0  0
  132.1344  129.4056  155.2016 H   0  0  0  0  0  0  0  0  0  0  0  0
  129.4425  136.3059  158.5078 H   0  0  0  0  0  0  0  0  0  0  0  0
  128.4527  134.9622  161.0204 H   0  0  0  0  0  0  0  0  0  0  0  0
  128.4704  136.7019  160.5926 H   0  0  0  0  0  0  0  0  0  0  0  0
  126.5208  136.4890  159.1894 H   0  0  0  0  0  0  0  0  0  0  0  0
  126.1292  135.3661  160.5333 H   0  0  0  0  0  0  0  0  0  0  0  0
  126.0867  134.4347  158.0036 H   0  0  0  0  0  0  0  0  0  0  0  0
  126.8512  133.4388  159.2801 H   0  0  0  0  0  0  0  0  0  0  0  0
  128.1404  135.0684  157.0946 H   0  0  0  0  0  0  0  0  0  0  0  0
  128.7162  133.5697  157.8769 H   0  0  0  0  0  0  0  0  0  0  0  0
  1  2  1  0
  1 30  1  0
  1 31  1  0
  1 32  1  0
  2  7  2  0
  2  3  1  0
  3  4  2  0
  3 33  1  0
  4  5  1  0
  4 34  1  0
  5  6  2  0
  5 35  1  0
  6  7  1  0
  6 36  1  0
  7  8  1  0
  8  9  1  1
  8 10  1  0
  8 25  1  0
 10 37  1  0
 11 10  1  0
 11 23  2  0
 11 12  1  0
 12 13  1  0
 12 14  1  0
 14 15  2  0
 14 38  1  0
 15 16  1  0
 15 23  1  0
 16 22  1  0
 16 17  2  0
 17 18  1  0
 17 39  1  0
 18 19  2  0
 18 40  1  0
 19 20  1  0
 19 21  1  0
 20 41  1  0
 20 42  1  0
 21 22  2  0
 21 43  1  0
 22 44  1  0
 23 24  1  0
 25 29  1  0
 25 26  1  0
 25 45  1  0
 26 27  1  0
 26 46  1  0
 26 47  1  0
 27 28  1  0
 27 48  1  0
 27 49  1  0
 28 29  1  0
 28 50  1  0
 28 51  1  0
 29 52  1  0
 29 53  1  0
M  CHG  1  23   1
M  END
>  <DOCK_score>  (1) 
-56.915058

>  <SMILES>  (1) 
Cc1ccccc1[C@H](Nc1[nH]cc(-c2ccc(N)cc2)[nH+]1)C1CCCC1

$$$$
