CCc1ccc(-c2c[nH]c(N[C@@H](c3nccn3-c3ccc(-c4ccccc4)cc3)C(F)F)[nH+]2)cc1
     RDKit          3D

 61 65  0  0  1  0  0  0  0  0999 V2000
  130.1177  128.9906  151.3889 C   0  0  0  0  0  0  0  0  0  0  0  0
  131.4143  129.5621  151.9662 C   0  0  0  0  0  0  0  0  0  0  0  0
  131.1096  130.3171  153.2344 C   0  0  0  0  0  0  0  0  0  0  0  0
  131.1298  129.6579  154.4504 C   0  0  0  0  0  0  0  0  0  0  0  0
  130.8572  130.3454  155.6155 C   0  0  0  0  0  0  0  0  0  0  0  0
  130.5499  131.7039  155.5642 C   0  0  0  0  0  0  0  0  0  0  0  0
  130.2506  132.4472  156.8125 C   0  0  0  0  0  0  0  0  0  0  0  0
  129.6943  131.9296  157.9357 C   0  0  0  0  0  0  0  0  0  0  0  0
  129.5953  132.9574  158.8416 N   0  0  0  0  0  0  0  0  0  0  0  0
  129.2356  132.8982  159.7405 H   0  0  0  0  0  0  0  0  0  0  0  0
  130.0945  134.0741  158.2451 C   0  0  0  0  0  0  0  0  0  0  0  0
  130.1762  135.3292  158.8234 N   0  0  0  0  0  0  0  0  0  0  0  0
  129.7004  135.5369  160.1934 C   0  0  1  0  0  0  0  0  0  0  0  0
  129.8451  136.5802  160.4739 H   0  0  0  0  0  0  0  0  0  0  0  0
  128.2352  135.1935  160.2738 C   0  0  0  0  0  0  0  0  0  0  0  0
  127.6190  134.3068  159.5406 N   0  0  0  0  0  0  0  0  0  0  0  0
  126.3238  134.2663  159.8870 C   0  0  0  0  0  0  0  0  0  0  0  0
  126.1224  135.1670  160.8674 C   0  0  0  0  0  0  0  0  0  0  0  0
  127.3333  135.7593  161.1174 N   0  0  0  0  0  0  0  0  0  0  0  0
  127.5919  136.7595  162.0645 C   0  0  0  0  0  0  0  0  0  0  0  0
  127.3451  136.5204  163.4106 C   0  0  0  0  0  0  0  0  0  0  0  0
  127.6040  137.5007  164.3449 C   0  0  0  0  0  0  0  0  0  0  0  0
  128.1029  138.7365  163.9367 C   0  0  0  0  0  0  0  0  0  0  0  0
  128.3761  139.7955  164.9391 C   0  0  0  0  0  0  0  0  0  0  0  0
  128.2681  141.1389  164.5846 C   0  0  0  0  0  0  0  0  0  0  0  0
  128.5178  142.1198  165.5229 C   0  0  0  0  0  0  0  0  0  0  0  0
  128.8859  141.7717  166.8100 C   0  0  0  0  0  0  0  0  0  0  0  0
  129.0002  140.4398  167.1660 C   0  0  0  0  0  0  0  0  0  0  0  0
  128.7472  139.4505  166.2374 C   0  0  0  0  0  0  0  0  0  0  0  0
  128.3442  138.9761  162.5849 C   0  0  0  0  0  0  0  0  0  0  0  0
  128.0891  137.9903  161.6552 C   0  0  0  0  0  0  0  0  0  0  0  0
  130.4881  134.6379  161.1485 C   0  0  0  0  0  0  0  0  0  0  0  0
  129.9698  133.3392  161.1007 F   0  0  0  0  0  0  0  0  0  0  0  0
  131.8338  134.6172  160.7664 F   0  0  0  0  0  0  0  0  0  0  0  0
  130.4904  133.7639  157.0347 N   0  0  0  0  0  0  0  0  0  0  0  0
  130.8891  134.3783  156.3986 H   0  0  0  0  0  0  0  0  0  0  0  0
  130.5256  132.3616  154.3355 C   0  0  0  0  0  0  0  0  0  0  0  0
  130.8053  131.6652  153.1774 C   0  0  0  0  0  0  0  0  0  0  0  0
  130.3382  128.4444  150.4718 H   0  0  0  0  0  0  0  0  0  0  0  0
  129.6640  128.3148  152.1140 H   0  0  0  0  0  0  0  0  0  0  0  0
  129.4274  129.8050  151.1700 H   0  0  0  0  0  0  0  0  0  0  0  0
  132.1046  128.7475  152.1853 H   0  0  0  0  0  0  0  0  0  0  0  0
  131.8680  130.2378  151.2412 H   0  0  0  0  0  0  0  0  0  0  0  0
  131.3633  128.6041  154.4884 H   0  0  0  0  0  0  0  0  0  0  0  0
  130.8778  129.8310  156.5649 H   0  0  0  0  0  0  0  0  0  0  0  0
  129.3874  130.9054  158.0885 H   0  0  0  0  0  0  0  0  0  0  0  0
  130.5486  136.0712  158.3216 H   0  0  0  0  0  0  0  0  0  0  0  0
  125.5718  133.6249  159.4519 H   0  0  0  0  0  0  0  0  0  0  0  0
  125.1864  135.3818  161.3617 H   0  0  0  0  0  0  0  0  0  0  0  0
  126.9540  135.5643  163.7258 H   0  0  0  0  0  0  0  0  0  0  0  0
  127.4161  137.3128  165.3918 H   0  0  0  0  0  0  0  0  0  0  0  0
  127.9855  141.4118  163.5786 H   0  0  0  0  0  0  0  0  0  0  0  0
  128.4298  143.1612  165.2505 H   0  0  0  0  0  0  0  0  0  0  0  0
  129.0852  142.5424  167.5397 H   0  0  0  0  0  0  0  0  0  0  0  0
  129.2883  140.1736  168.1723 H   0  0  0  0  0  0  0  0  0  0  0  0
  128.8372  138.4110  166.5162 H   0  0  0  0  0  0  0  0  0  0  0  0
  128.7305  139.9328  162.2660 H   0  0  0  0  0  0  0  0  0  0  0  0
  128.2763  138.1753  160.6077 H   0  0  0  0  0  0  0  0  0  0  0  0
  130.4045  135.0252  162.1640 H   0  0  0  0  0  0  0  0  0  0  0  0
  130.2879  133.4143  154.2900 H   0  0  0  0  0  0  0  0  0  0  0  0
  130.7865  132.1738  152.2248 H   0  0  0  0  0  0  0  0  0  0  0  0
  1  2  1  0
  1 39  1  0
  1 40  1  0
  1 41  1  0
  2  3  1  0
  2 42  1  0
  2 43  1  0
  3 38  2  0
  3  4  1  0
  4  5  2  0
  4 44  1  0
  5  6  1  0
  5 45  1  0
  6  7  1  0
  6 37  2  0
  7 35  1  0
  7  8  2  0
  8  9  1  0
  8 46  1  0
  9 10  1  0
  9 11  1  0
 11 12  1  0
 11 35  2  0
 12 13  1  0
 12 47  1  0
 13 14  1  1
 13 15  1  0
 13 32  1  0
 15 19  1  0
 15 16  2  0
 16 17  1  0
 17 18  2  0
 17 48  1  0
 18 19  1  0
 18 49  1  0
 19 20  1  0
 20 31  1  0
 20 21  2  0
 21 22  1  0
 21 50  1  0
 22 23  2  0
 22 51  1  0
 23 24  1  0
 23 30  1  0
 24 29  1  0
 24 25  2  0
 25 26  1  0
 25 52  1  0
 26 27  2  0
 26 53  1  0
 27 28  1  0
 27 54  1  0
 28 29  2  0
 28 55  1  0
 29 56  1  0
 30 31  2  0
 30 57  1  0
 31 58  1  0
 32 33  1  0
 32 34  1  0
 32 59  1  0
 35 36  1  0
 37 38  1  0
 37 60  1  0
 38 61  1  0
M  CHG  1  35   1
M  END
>  <DOCK_score>  (1) 
-58.117847

>  <SMILES>  (1) 
CCc1ccc(-c2c[nH]c(N[C@@H](c3nccn3-c3ccc(-c4ccccc4)cc3)C(F)F)[nH+]2)cc1

$$$$
