CCc1ccc(-c2c[nH]c(N[C@H](c3cccc(C)c3[N+](=O)[O-])C3CCCC3O)[nH+]2)cc1
     RDKit          3D

 60 63  0  0  1  0  0  0  0  0999 V2000
  129.8891  129.1173  151.5702 C   0  0  0  0  0  0  0  0  0  0  0  0
  131.1196  129.9496  151.9387 C   0  0  0  0  0  0  0  0  0  0  0  0
  130.8903  130.6244  153.2664 C   0  0  0  0  0  0  0  0  0  0  0  0
  131.2569  129.9849  154.4370 C   0  0  0  0  0  0  0  0  0  0  0  0
  131.0491  130.5981  155.6557 C   0  0  0  0  0  0  0  0  0  0  0  0
  130.4684  131.8642  155.7057 C   0  0  0  0  0  0  0  0  0  0  0  0
  130.2425  132.5285  157.0126 C   0  0  0  0  0  0  0  0  0  0  0  0
  129.4757  132.0557  158.0262 C   0  0  0  0  0  0  0  0  0  0  0  0
  129.5479  132.9761  159.0434 N   0  0  0  0  0  0  0  0  0  0  0  0
  129.1064  132.9160  159.9050 H   0  0  0  0  0  0  0  0  0  0  0  0
  130.3509  133.9892  158.6183 C   0  0  0  0  0  0  0  0  0  0  0  0
  130.6796  135.1184  159.3486 N   0  0  0  0  0  0  0  0  0  0  0  0
  130.1482  135.2956  160.7022 C   0  0  2  0  0  0  0  0  0  0  0  0
  130.4770  134.4694  161.3326 H   0  0  0  0  0  0  0  0  0  0  0  0
  128.6422  135.3201  160.6515 C   0  0  0  0  0  0  0  0  0  0  0  0
  127.9962  135.7984  159.5266 C   0  0  0  0  0  0  0  0  0  0  0  0
  126.6151  135.8205  159.4798 C   0  0  0  0  0  0  0  0  0  0  0  0
  125.8795  135.3644  160.5581 C   0  0  0  0  0  0  0  0  0  0  0  0
  126.5254  134.8814  161.6806 C   0  0  0  0  0  0  0  0  0  0  0  0
  125.7236  134.3785  162.8533 C   0  0  0  0  0  0  0  0  0  0  0  0
  127.9069  134.8642  161.7293 C   0  0  0  0  0  0  0  0  0  0  0  0
  128.5986  134.3518  162.9335 N   0  0  0  0  0  0  0  0  0  0  0  0
  129.8157  134.3321  162.9745 O   0  0  0  0  0  0  0  0  0  0  0  0
  127.9506  133.9547  163.8853 O   0  0  0  0  0  0  0  0  0  0  0  0
  130.6605  136.6153  161.2826 C   0  0  2  0  0  0  0  0  0  0  0  0
  130.2626  137.7873  160.3618 C   0  0  0  0  0  0  0  0  0  0  0  0
  131.4783  138.7453  160.4194 C   0  0  0  0  0  0  0  0  0  0  0  0
  132.6809  137.7698  160.4525 C   0  0  0  0  0  0  0  0  0  0  0  0
  132.1981  136.6041  161.3402 C   0  0  2  0  0  0  0  0  0  0  0  0
  132.6979  135.3639  160.8360 O   0  0  0  0  0  0  0  0  0  0  0  0
  130.7666  133.7167  157.4054 N   0  0  0  0  0  0  0  0  0  0  0  0
  131.3549  134.2753  156.8736 H   0  0  0  0  0  0  0  0  0  0  0  0
  130.0954  132.5013  154.5236 C   0  0  0  0  0  0  0  0  0  0  0  0
  130.3128  131.8807  153.3101 C   0  0  0  0  0  0  0  0  0  0  0  0
  129.0176  129.7682  151.5010 H   0  0  0  0  0  0  0  0  0  0  0  0
  130.0552  128.6292  150.6098 H   0  0  0  0  0  0  0  0  0  0  0  0
  129.7185  128.3618  152.3371 H   0  0  0  0  0  0  0  0  0  0  0  0
  131.2899  130.7048  151.1719 H   0  0  0  0  0  0  0  0  0  0  0  0
  131.9908  129.2983  152.0079 H   0  0  0  0  0  0  0  0  0  0  0  0
  131.7069  129.0040  154.3970 H   0  0  0  0  0  0  0  0  0  0  0  0
  131.3363  130.0981  156.5689 H   0  0  0  0  0  0  0  0  0  0  0  0
  128.9179  131.1309  158.0336 H   0  0  0  0  0  0  0  0  0  0  0  0
  131.2618  135.7923  158.9640 H   0  0  0  0  0  0  0  0  0  0  0  0
  128.5707  136.1544  158.6843 H   0  0  0  0  0  0  0  0  0  0  0  0
  126.1104  136.1937  158.6011 H   0  0  0  0  0  0  0  0  0  0  0  0
  124.8002  135.3813  160.5215 H   0  0  0  0  0  0  0  0  0  0  0  0
  125.5278  135.2024  163.5396 H   0  0  0  0  0  0  0  0  0  0  0  0
  124.7780  133.9689  162.4981 H   0  0  0  0  0  0  0  0  0  0  0  0
  126.2851  133.6005  163.3704 H   0  0  0  0  0  0  0  0  0  0  0  0
  130.2505  136.7679  162.2809 H   0  0  0  0  0  0  0  0  0  0  0  0
  130.1026  137.4347  159.3429 H   0  0  0  0  0  0  0  0  0  0  0  0
  129.3683  138.2828  160.7399 H   0  0  0  0  0  0  0  0  0  0  0  0
  131.4488  139.3529  161.3239 H   0  0  0  0  0  0  0  0  0  0  0  0
  131.5180  139.3774  159.5322 H   0  0  0  0  0  0  0  0  0  0  0  0
  133.5514  138.2523  160.8968 H   0  0  0  0  0  0  0  0  0  0  0  0
  132.9138  137.4138  159.4489 H   0  0  0  0  0  0  0  0  0  0  0  0
  132.5344  136.7522  162.3664 H   0  0  0  0  0  0  0  0  0  0  0  0
  132.4538  134.5953  161.3695 H   0  0  0  0  0  0  0  0  0  0  0  0
  129.6406  133.4802  154.5567 H   0  0  0  0  0  0  0  0  0  0  0  0
  130.0280  132.3752  152.3932 H   0  0  0  0  0  0  0  0  0  0  0  0
  1  2  1  0
  1 35  1  0
  1 36  1  0
  1 37  1  0
  2  3  1  0
  2 38  1  0
  2 39  1  0
  3 34  2  0
  3  4  1  0
  4  5  2  0
  4 40  1  0
  5  6  1  0
  5 41  1  0
  6  7  1  0
  6 33  2  0
  7 31  1  0
  7  8  2  0
  8  9  1  0
  8 42  1  0
  9 10  1  0
  9 11  1  0
 11 12  1  0
 11 31  2  0
 12 13  1  0
 12 43  1  0
 13 14  1  1
 13 15  1  0
 13 25  1  0
 15 21  1  0
 15 16  2  0
 16 17  1  0
 16 44  1  0
 17 18  2  0
 17 45  1  0
 18 19  1  0
 18 46  1  0
 19 20  1  0
 19 21  2  0
 20 47  1  0
 20 48  1  0
 20 49  1  0
 21 22  1  0
 22 23  2  0
 22 24  1  0
 25 29  1  0
 25 26  1  0
 25 50  1  1
 26 27  1  0
 26 51  1  0
 26 52  1  0
 27 28  1  0
 27 53  1  0
 27 54  1  0
 28 29  1  0
 28 55  1  0
 28 56  1  0
 29 30  1  0
 29 57  1  1
 30 58  1  0
 31 32  1  0
 33 34  1  0
 33 59  1  0
 34 60  1  0
M  CHG  3  22   1  24  -1  31   1
M  END
>  <DOCK_score>  (1) 
-60.120224

>  <SMILES>  (1) 
CCc1ccc(-c2c[nH]c(N[C@H](c3cccc(C)c3[N+](=O)[O-])C3CCCC3O)[nH+]2)cc1

$$$$
