Cc1cc(CNC(N[C@H]2C[C@@H](O)C2)=[NH+]Cc2cccs2)ccc1CO
     RDKit          3D

 51 53  0  0  1  0  0  0  0  0999 V2000
  131.9996  140.8369  161.7522 C   0  0  0  0  0  0  0  0  0  0  0  0
  132.2036  139.4282  161.2571 C   0  0  0  0  0  0  0  0  0  0  0  0
  131.1385  138.5476  161.2197 C   0  0  0  0  0  0  0  0  0  0  0  0
  131.3268  137.2539  160.7709 C   0  0  0  0  0  0  0  0  0  0  0  0
  130.1670  136.2922  160.7360 C   0  0  0  0  0  0  0  0  0  0  0  0
  130.1695  135.5703  159.4612 N   0  0  0  0  0  0  0  0  0  0  0  0
  129.1981  134.6331  159.2002 C   0  0  0  0  0  0  0  0  0  0  0  0
  128.2244  134.3732  160.1353 N   0  0  0  0  0  0  0  0  0  0  0  0
  127.1894  133.3745  159.8570 C   0  0  1  0  0  0  0  0  0  0  0  0
  127.5366  132.5766  159.2006 H   0  0  0  0  0  0  0  0  0  0  0  0
  126.4675  132.8679  161.1169 C   0  0  0  0  0  0  0  0  0  0  0  0
  125.4768  134.0275  160.9199 C   0  0  1  0  0  0  0  0  0  0  0  0
  124.4404  133.7571  161.1222 H   0  0  0  0  0  0  0  0  0  0  0  0
  125.8725  135.2357  161.5722 O   0  0  0  0  0  0  0  0  0  0  0  0
  125.8446  133.9843  159.4274 C   0  0  0  0  0  0  0  0  0  0  0  0
  129.2003  133.9907  158.0660 N   0  0  0  0  0  0  0  0  0  0  0  0
  128.3646  133.6843  157.6805 H   0  0  0  0  0  0  0  0  0  0  0  0
  130.4650  133.7313  157.3734 C   0  0  0  0  0  0  0  0  0  0  0  0
  130.6581  132.2446  157.2201 C   0  0  0  0  0  0  0  0  0  0  0  0
  131.2801  131.4555  158.0975 C   0  0  0  0  0  0  0  0  0  0  0  0
  131.3333  130.1182  157.7436 C   0  0  0  0  0  0  0  0  0  0  0  0
  130.7625  129.8230  156.5748 C   0  0  0  0  0  0  0  0  0  0  0  0
  130.1046  131.2859  155.8534 S   0  0  0  0  0  0  0  0  0  0  0  0
  132.5779  136.8438  160.3490 C   0  0  0  0  0  0  0  0  0  0  0  0
  133.6427  137.7240  160.3869 C   0  0  0  0  0  0  0  0  0  0  0  0
  133.4556  139.0165  160.8408 C   0  0  0  0  0  0  0  0  0  0  0  0
  134.6167  139.9763  160.8820 C   0  0  0  0  0  0  0  0  0  0  0  0
  135.7936  139.3208  160.4052 O   0  0  0  0  0  0  0  0  0  0  0  0
  132.1688  140.8717  162.8285 H   0  0  0  0  0  0  0  0  0  0  0  0
  132.7025  141.5031  161.2522 H   0  0  0  0  0  0  0  0  0  0  0  0
  130.9801  141.1545  161.5342 H   0  0  0  0  0  0  0  0  0  0  0  0
  130.1601  138.8692  161.5453 H   0  0  0  0  0  0  0  0  0  0  0  0
  130.2601  135.5808  161.5566 H   0  0  0  0  0  0  0  0  0  0  0  0
  129.2332  136.8451  160.8386 H   0  0  0  0  0  0  0  0  0  0  0  0
  130.8565  135.7536  158.8014 H   0  0  0  0  0  0  0  0  0  0  0  0
  128.2227  134.8513  160.9794 H   0  0  0  0  0  0  0  0  0  0  0  0
  126.0166  131.8830  160.9955 H   0  0  0  0  0  0  0  0  0  0  0  0
  127.0637  132.9526  162.0254 H   0  0  0  0  0  0  0  0  0  0  0  0
  125.4757  136.0335  161.1967 H   0  0  0  0  0  0  0  0  0  0  0  0
  125.9378  134.9702  158.9719 H   0  0  0  0  0  0  0  0  0  0  0  0
  125.2234  133.3045  158.8440 H   0  0  0  0  0  0  0  0  0  0  0  0
  130.4423  134.1982  156.3887 H   0  0  0  0  0  0  0  0  0  0  0  0
  131.2888  134.1468  157.9538 H   0  0  0  0  0  0  0  0  0  0  0  0
  131.7074  131.8309  159.0154 H   0  0  0  0  0  0  0  0  0  0  0  0
  131.8047  129.3713  158.3651 H   0  0  0  0  0  0  0  0  0  0  0  0
  130.7117  128.8364  156.1382 H   0  0  0  0  0  0  0  0  0  0  0  0
  132.7240  135.8343  159.9942 H   0  0  0  0  0  0  0  0  0  0  0  0
  134.6210  137.4023  160.0615 H   0  0  0  0  0  0  0  0  0  0  0  0
  134.3990  140.8372  160.2501 H   0  0  0  0  0  0  0  0  0  0  0  0
  134.7765  140.3093  161.9075 H   0  0  0  0  0  0  0  0  0  0  0  0
  135.7229  138.9974  159.4968 H   0  0  0  0  0  0  0  0  0  0  0  0
  1  2  1  0
  1 29  1  0
  1 30  1  0
  1 31  1  0
  2 26  2  0
  2  3  1  0
  3  4  2  0
  3 32  1  0
  4  5  1  0
  4 24  1  0
  5  6  1  0
  5 33  1  0
  5 34  1  0
  6 35  1  0
  7  6  1  0
  7  8  1  0
  7 16  2  0
  8  9  1  0
  8 36  1  0
  9 10  1  6
  9 15  1  0
  9 11  1  0
 11 12  1  0
 11 37  1  0
 11 38  1  0
 12 13  1  6
 12 14  1  0
 12 15  1  0
 14 39  1  0
 15 40  1  0
 15 41  1  0
 16 17  1  0
 16 18  1  0
 18 19  1  0
 18 42  1  0
 18 43  1  0
 19 23  1  0
 19 20  2  0
 20 21  1  0
 20 44  1  0
 21 22  2  0
 21 45  1  0
 22 23  1  0
 22 46  1  0
 24 25  2  0
 24 47  1  0
 25 26  1  0
 25 48  1  0
 26 27  1  0
 27 28  1  0
 27 49  1  0
 27 50  1  0
 28 51  1  0
M  CHG  1  16   1
M  END
>  <DOCK_score>  (1) 
-49.152397

>  <SMILES>  (1) 
Cc1cc(CNC(N[C@H]2C[C@@H](O)C2)=[NH+]Cc2cccs2)ccc1CO

$$$$
