[NH3+][C@H](Cc1cc2cc(Cl)ccc2[nH]1)C(=O)Nc1cccc(O)c1
     RDKit          3D

 40 42  0  0  1  0  0  0  0  0999 V2000
  131.2972  133.1592  158.0250 N   0  0  0  0  0  0  0  0  0  0  0  0
  132.1609  133.6064  157.7562 H   0  0  0  0  0  0  0  0  0  0  0  0
  131.4969  132.3829  158.6377 H   0  0  0  0  0  0  0  0  0  0  0  0
  130.8216  132.8234  157.2008 H   0  0  0  0  0  0  0  0  0  0  0  0
  130.4414  134.1271  158.7239 C   0  0  2  0  0  0  0  0  0  0  0  0
  130.2256  134.9658  158.0620 H   0  0  0  0  0  0  0  0  0  0  0  0
  131.1624  134.6363  159.9736 C   0  0  0  0  0  0  0  0  0  0  0  0
  130.5473  135.9402  160.4122 C   0  0  0  0  0  0  0  0  0  0  0  0
  129.5213  136.0585  161.2697 C   0  0  0  0  0  0  0  0  0  0  0  0
  129.2458  137.4901  161.4134 C   0  0  0  0  0  0  0  0  0  0  0  0
  128.3179  138.2306  162.1485 C   0  0  0  0  0  0  0  0  0  0  0  0
  128.3220  139.5954  162.0676 C   0  0  0  0  0  0  0  0  0  0  0  0
  127.1730  140.5163  162.9872 Cl  0  0  0  0  0  0  0  0  0  0  0  0
  129.2348  140.2506  161.2507 C   0  0  0  0  0  0  0  0  0  0  0  0
  130.1581  139.5387  160.5170 C   0  0  0  0  0  0  0  0  0  0  0  0
  130.1754  138.1495  160.5889 C   0  0  0  0  0  0  0  0  0  0  0  0
  130.9516  137.1791  159.9948 N   0  0  0  0  0  0  0  0  0  0  0  0
  131.6764  137.3485  159.3730 H   0  0  0  0  0  0  0  0  0  0  0  0
  129.1516  133.4593  159.1253 C   0  0  0  0  0  0  0  0  0  0  0  0
  129.1345  132.2716  159.3715 O   0  0  0  0  0  0  0  0  0  0  0  0
  128.0168  134.1814  159.2108 N   0  0  0  0  0  0  0  0  0  0  0  0
  126.8191  133.5612  159.5834 C   0  0  0  0  0  0  0  0  0  0  0  0
  126.6006  132.2254  159.2702 C   0  0  0  0  0  0  0  0  0  0  0  0
  125.4209  131.6117  159.6436 C   0  0  0  0  0  0  0  0  0  0  0  0
  124.4500  132.3274  160.3185 C   0  0  0  0  0  0  0  0  0  0  0  0
  124.6605  133.6634  160.6290 C   0  0  0  0  0  0  0  0  0  0  0  0
  123.7050  134.3658  161.2927 O   0  0  0  0  0  0  0  0  0  0  0  0
  125.8458  134.2812  160.2615 C   0  0  0  0  0  0  0  0  0  0  0  0
  132.2175  134.7903  159.7470 H   0  0  0  0  0  0  0  0  0  0  0  0
  131.0659  133.9020  160.7733 H   0  0  0  0  0  0  0  0  0  0  0  0
  128.9979  135.2513  161.7605 H   0  0  0  0  0  0  0  0  0  0  0  0
  127.6029  137.7273  162.7825 H   0  0  0  0  0  0  0  0  0  0  0  0
  129.2233  141.3290  161.1936 H   0  0  0  0  0  0  0  0  0  0  0  0
  130.8661  140.0574  159.8877 H   0  0  0  0  0  0  0  0  0  0  0  0
  128.0304  135.1312  159.0140 H   0  0  0  0  0  0  0  0  0  0  0  0
  127.3556  131.6653  158.7386 H   0  0  0  0  0  0  0  0  0  0  0  0
  125.2548  130.5720  159.4034 H   0  0  0  0  0  0  0  0  0  0  0  0
  123.5266  131.8461  160.6049 H   0  0  0  0  0  0  0  0  0  0  0  0
  123.9421  135.2876  161.4638 H   0  0  0  0  0  0  0  0  0  0  0  0
  126.0114  135.3208  160.5026 H   0  0  0  0  0  0  0  0  0  0  0  0
  1  2  1  0
  1  3  1  0
  1  4  1  0
  1  5  1  0
  5  6  1  6
  5  7  1  0
  5 19  1  0
  7  8  1  0
  7 29  1  0
  7 30  1  0
  8 17  1  0
  8  9  2  0
  9 10  1  0
  9 31  1  0
 10 16  2  0
 10 11  1  0
 11 12  2  0
 11 32  1  0
 12 13  1  0
 12 14  1  0
 14 15  2  0
 14 33  1  0
 15 16  1  0
 15 34  1  0
 16 17  1  0
 17 18  1  0
 19 20  2  0
 19 21  1  0
 21 22  1  0
 21 35  1  0
 22 28  1  0
 22 23  2  0
 23 24  1  0
 23 36  1  0
 24 25  2  0
 24 37  1  0
 25 26  1  0
 25 38  1  0
 26 27  1  0
 26 28  2  0
 27 39  1  0
 28 40  1  0
M  CHG  1   1   1
M  END
>  <DOCK_score>  (1) 
-44.179493

>  <SMILES>  (1) 
[NH3+][C@H](Cc1cc2cc(Cl)ccc2[nH]1)C(=O)Nc1cccc(O)c1

$$$$
