
     RDKit          2D

 25 27  0  0  0  0  0  0  0  0999 V2000
   -1.1893   -8.3323    0.0000 C   0  0  0  0  0  0  0  0  0  0  0  0
    0.3107   -8.3323    0.0000 C   0  0  0  0  0  0  0  0  0  0  0  0
    1.0607   -7.0333    0.0000 N   0  0  0  0  0  0  0  0  0  0  0  0
    2.5607   -7.0333    0.0000 C   0  0  0  0  0  0  0  0  0  0  0  0
    3.3107   -5.7342    0.0000 N   0  0  0  0  0  0  0  0  0  0  0  0
    2.5607   -4.4352    0.0000 C   0  0  0  0  0  0  0  0  0  0  0  0
    2.9489   -2.9863    0.0000 C   0  0  0  0  0  0  0  0  0  0  0  0
    1.5000   -2.5981    0.0000 C   0  0  0  0  0  0  0  0  0  0  0  0
    0.7500   -1.2990    0.0000 C   0  0  0  0  0  0  0  0  0  0  0  0
    1.5000    0.0000    0.0000 C   0  0  0  0  0  0  0  0  0  0  0  0
    0.7500    1.2990    0.0000 C   0  0  0  0  0  0  0  0  0  0  0  0
   -0.7500    1.2990    0.0000 C   0  0  0  0  0  0  0  0  0  0  0  0
   -1.5000    0.0000    0.0000 C   0  0  0  0  0  0  0  0  0  0  0  0
   -0.7500   -1.2990    0.0000 C   0  0  0  0  0  0  0  0  0  0  0  0
   -1.5000   -2.5981    0.0000 O   0  0  0  0  0  0  0  0  0  0  0  0
   -3.0000   -2.5981    0.0000 C   0  0  0  0  0  0  0  0  0  0  0  0
    1.1118   -4.0470    0.0000 C   0  0  0  0  0  0  0  0  0  0  0  0
    3.3107   -8.3323    0.0000 N   0  0  0  0  0  0  0  0  0  0  0  0
    2.5607   -9.6313    0.0000 C   0  0  0  0  0  0  0  0  0  0  0  0
    1.1118  -10.0196    0.0000 C   0  0  0  0  0  0  0  0  0  0  0  0
    1.5000  -11.4685    0.0000 C   0  0  0  0  0  0  0  0  0  0  0  0
    0.7500  -12.7675    0.0000 O   0  0  0  0  0  0  0  0  0  0  0  0
    2.9489  -11.0802    0.0000 C   0  0  0  0  0  0  0  0  0  0  0  0
    4.3978  -10.6920    0.0000 C   0  0  0  0  0  0  0  0  0  0  0  0
    3.3371  -12.5291    0.0000 C   0  0  0  0  0  0  0  0  0  0  0  0
  1  2  1  0
  2  3  1  0
  3  4  2  3
  4  5  1  0
  5  6  1  0
  6  7  1  0
  7  8  1  0
  8  9  1  0
  9 10  2  0
 10 11  1  0
 11 12  2  0
 12 13  1  0
 13 14  2  0
 14 15  1  0
 15 16  1  0
  8 17  1  0
  4 18  1  0
 18 19  1  0
 19 20  1  0
 20 21  1  0
 21 22  1  0
 21 23  1  0
 23 24  1  0
 23 25  1  0
 17  6  1  0
 23 19  1  0
 14  9  1  0
M  END
$$$$
