c1ccc(-c2ccccc2[C@H](c2ccccc2)[NH+]2CCN(c3cccc4cc[nH]c34)CC2)cc1
     RDKit          3D

 64 69  0  0  1  0  0  0  0  0999 V2000
  129.6352  132.6346  164.2008 C   0  0  0  0  0  0  0  0  0  0  0  0
  128.7119  132.2226  163.2569 C   0  0  0  0  0  0  0  0  0  0  0  0
  129.0713  132.1384  161.9270 C   0  0  0  0  0  0  0  0  0  0  0  0
  130.3669  132.4695  161.5359 C   0  0  0  0  0  0  0  0  0  0  0  0
  130.7592  132.3809  160.1075 C   0  0  0  0  0  0  0  0  0  0  0  0
  131.2815  131.1936  159.5981 C   0  0  0  0  0  0  0  0  0  0  0  0
  131.6499  131.1186  158.2702 C   0  0  0  0  0  0  0  0  0  0  0  0
  131.4964  132.2175  157.4441 C   0  0  0  0  0  0  0  0  0  0  0  0
  130.9738  133.3966  157.9430 C   0  0  0  0  0  0  0  0  0  0  0  0
  130.6019  133.4829  159.2697 C   0  0  0  0  0  0  0  0  0  0  0  0
  130.0326  134.7684  159.8120 C   0  0  2  0  0  0  0  0  0  0  0  0
  129.8046  134.6466  160.8710 H   0  0  0  0  0  0  0  0  0  0  0  0
  128.7713  135.1146  159.0633 C   0  0  0  0  0  0  0  0  0  0  0  0
  127.5504  134.6479  159.5130 C   0  0  0  0  0  0  0  0  0  0  0  0
  126.3930  134.9690  158.8287 C   0  0  0  0  0  0  0  0  0  0  0  0
  126.4576  135.7489  157.6892 C   0  0  0  0  0  0  0  0  0  0  0  0
  127.6791  136.2116  157.2368 C   0  0  0  0  0  0  0  0  0  0  0  0
  128.8359  135.8942  157.9235 C   0  0  0  0  0  0  0  0  0  0  0  0
  131.0142  135.8483  159.6434 N   0  0  0  0  0  0  0  0  0  0  0  0
  131.2250  135.9609  158.6632 H   0  0  0  0  0  0  0  0  0  0  0  0
  130.4587  137.1014  160.1716 C   0  0  0  0  0  0  0  0  0  0  0  0
  131.4736  138.2303  159.9794 C   0  0  0  0  0  0  0  0  0  0  0  0
  132.7185  137.8912  160.6833 N   0  0  0  0  0  0  0  0  0  0  0  0
  133.6531  138.9256  160.5752 C   0  0  0  0  0  0  0  0  0  0  0  0
  134.1023  139.3302  159.3301 C   0  0  0  0  0  0  0  0  0  0  0  0
  135.0334  140.3522  159.2135 C   0  0  0  0  0  0  0  0  0  0  0  0
  135.5143  140.9848  160.3248 C   0  0  0  0  0  0  0  0  0  0  0  0
  135.0713  140.5984  161.5931 C   0  0  0  0  0  0  0  0  0  0  0  0
  135.3690  141.0478  162.9551 C   0  0  0  0  0  0  0  0  0  0  0  0
  134.6316  140.2952  163.7873 C   0  0  0  0  0  0  0  0  0  0  0  0
  133.8865  139.4009  163.0696 N   0  0  0  0  0  0  0  0  0  0  0  0
  133.2761  138.7506  163.4511 H   0  0  0  0  0  0  0  0  0  0  0  0
  134.1330  139.5609  161.7227 C   0  0  0  0  0  0  0  0  0  0  0  0
  133.2733  136.6257  160.1822 C   0  0  0  0  0  0  0  0  0  0  0  0
  132.2435  135.5099  160.3727 C   0  0  0  0  0  0  0  0  0  0  0  0
  131.2946  132.8789  162.4917 C   0  0  0  0  0  0  0  0  0  0  0  0
  130.9227  132.9651  163.8180 C   0  0  0  0  0  0  0  0  0  0  0  0
  129.3498  132.6988  165.2403 H   0  0  0  0  0  0  0  0  0  0  0  0
  127.7078  131.9661  163.5612 H   0  0  0  0  0  0  0  0  0  0  0  0
  128.3497  131.8165  161.1909 H   0  0  0  0  0  0  0  0  0  0  0  0
  131.4015  130.3351  160.2422 H   0  0  0  0  0  0  0  0  0  0  0  0
  132.0586  130.2001  157.8754 H   0  0  0  0  0  0  0  0  0  0  0  0
  131.7853  132.1541  156.4052 H   0  0  0  0  0  0  0  0  0  0  0  0
  130.8560  134.2515  157.2936 H   0  0  0  0  0  0  0  0  0  0  0  0
  127.5003  134.0351  160.4010 H   0  0  0  0  0  0  0  0  0  0  0  0
  125.4387  134.6077  159.1824 H   0  0  0  0  0  0  0  0  0  0  0  0
  125.5537  135.9969  157.1527 H   0  0  0  0  0  0  0  0  0  0  0  0
  127.7295  136.8209  156.3465 H   0  0  0  0  0  0  0  0  0  0  0  0
  129.7904  136.2554  157.5698 H   0  0  0  0  0  0  0  0  0  0  0  0
  130.2426  136.9839  161.2335 H   0  0  0  0  0  0  0  0  0  0  0  0
  129.5396  137.3445  159.6385 H   0  0  0  0  0  0  0  0  0  0  0  0
  131.0677  139.1572  160.3847 H   0  0  0  0  0  0  0  0  0  0  0  0
  131.6797  138.3577  158.9168 H   0  0  0  0  0  0  0  0  0  0  0  0
  133.7284  138.8428  158.4417 H   0  0  0  0  0  0  0  0  0  0  0  0
  135.3779  140.6533  158.2351 H   0  0  0  0  0  0  0  0  0  0  0  0
  136.2359  141.7821  160.2238 H   0  0  0  0  0  0  0  0  0  0  0  0
  136.0519  141.8357  163.2367 H   0  0  0  0  0  0  0  0  0  0  0  0
  134.6273  140.3832  164.8637 H   0  0  0  0  0  0  0  0  0  0  0  0
  133.5090  136.7262  159.1227 H   0  0  0  0  0  0  0  0  0  0  0  0
  134.1802  136.3819  160.7354 H   0  0  0  0  0  0  0  0  0  0  0  0
  132.0182  135.4006  161.4335 H   0  0  0  0  0  0  0  0  0  0  0  0
  132.6475  134.5732  159.9886 H   0  0  0  0  0  0  0  0  0  0  0  0
  132.3015  133.1323  162.1945 H   0  0  0  0  0  0  0  0  0  0  0  0
  131.6397  133.2866  164.5590 H   0  0  0  0  0  0  0  0  0  0  0  0
  1 37  2  0
  1  2  1  0
  1 38  1  0
  2  3  2  0
  2 39  1  0
  3  4  1  0
  3 40  1  0
  4  5  1  0
  4 36  2  0
  5 10  1  0
  5  6  2  0
  6  7  1  0
  6 41  1  0
  7  8  2  0
  7 42  1  0
  8  9  1  0
  8 43  1  0
  9 10  2  0
  9 44  1  0
 10 11  1  0
 11 12  1  1
 11 13  1  0
 11 19  1  0
 13 18  1  0
 13 14  2  0
 14 15  1  0
 14 45  1  0
 15 16  2  0
 15 46  1  0
 16 17  1  0
 16 47  1  0
 17 18  2  0
 17 48  1  0
 18 49  1  0
 19 20  1  0
 19 35  1  0
 19 21  1  0
 21 22  1  0
 21 50  1  0
 21 51  1  0
 22 23  1  0
 22 52  1  0
 22 53  1  0
 23 24  1  0
 23 34  1  0
 24 33  1  0
 24 25  2  0
 25 26  1  0
 25 54  1  0
 26 27  2  0
 26 55  1  0
 27 28  1  0
 27 56  1  0
 28 33  2  0
 28 29  1  0
 29 30  2  0
 29 57  1  0
 30 31  1  0
 30 58  1  0
 31 32  1  0
 31 33  1  0
 34 35  1  0
 34 59  1  0
 34 60  1  0
 35 61  1  0
 35 62  1  0
 36 37  1  0
 36 63  1  0
 37 64  1  0
M  CHG  1  19   1
M  END
>  <DOCK_score>  (1) 
-60.437229

>  <SMILES>  (1) 
c1ccc(-c2ccccc2[C@H](c2ccccc2)[NH+]2CCN(c3cccc4cc[nH]c34)CC2)cc1

$$$$
