C1=CCC(c2c[nH]c(NCc3cn(-c4ccccc4)nc3-c3ccncc3)[nH+]2)=CC1
     RDKit          3D

 53 57  0  0  1  0  0  0  0  0999 V2000
  131.1546  130.5421  153.7895 C   0  0  0  0  0  0  0  0  0  0  0  0
  131.4283  129.9128  154.8907 C   0  0  0  0  0  0  0  0  0  0  0  0
  130.9754  130.3884  156.2380 C   0  0  0  0  0  0  0  0  0  0  0  0
  130.6208  131.8450  156.2061 C   0  0  0  0  0  0  0  0  0  0  0  0
  130.5813  132.5935  157.4791 C   0  0  0  0  0  0  0  0  0  0  0  0
  130.2660  132.0829  158.6979 C   0  0  0  0  0  0  0  0  0  0  0  0
  130.3546  133.1165  159.5973 N   0  0  0  0  0  0  0  0  0  0  0  0
  130.1885  133.0632  160.5515 H   0  0  0  0  0  0  0  0  0  0  0  0
  130.7134  134.2310  158.9030 C   0  0  0  0  0  0  0  0  0  0  0  0
  130.9042  135.4908  159.4439 N   0  0  0  0  0  0  0  0  0  0  0  0
  130.7191  135.7065  160.8810 C   0  0  0  0  0  0  0  0  0  0  0  0
  131.6264  136.8175  161.3431 C   0  0  0  0  0  0  0  0  0  0  0  0
  132.4880  137.5134  160.5701 C   0  0  0  0  0  0  0  0  0  0  0  0
  133.1140  138.4247  161.3598 N   0  0  0  0  0  0  0  0  0  0  0  0
  134.0826  139.3478  160.9439 C   0  0  0  0  0  0  0  0  0  0  0  0
  134.1974  140.5732  161.5870 C   0  0  0  0  0  0  0  0  0  0  0  0
  135.1568  141.4787  161.1785 C   0  0  0  0  0  0  0  0  0  0  0  0
  135.9953  141.1705  160.1226 C   0  0  0  0  0  0  0  0  0  0  0  0
  135.8795  139.9537  159.4764 C   0  0  0  0  0  0  0  0  0  0  0  0
  134.9258  139.0416  159.8840 C   0  0  0  0  0  0  0  0  0  0  0  0
  132.6259  138.2756  162.6644 N   0  0  0  0  0  0  0  0  0  0  0  0
  131.7307  137.3099  162.6592 C   0  0  0  0  0  0  0  0  0  0  0  0
  130.9652  136.8252  163.8338 C   0  0  0  0  0  0  0  0  0  0  0  0
  131.6205  136.2927  164.9479 C   0  0  0  0  0  0  0  0  0  0  0  0
  130.8702  135.8582  166.0211 C   0  0  0  0  0  0  0  0  0  0  0  0
  129.5535  135.9313  166.0008 N   0  0  0  0  0  0  0  0  0  0  0  0
  128.8959  136.4212  164.9666 C   0  0  0  0  0  0  0  0  0  0  0  0
  129.5686  136.8833  163.8543 C   0  0  0  0  0  0  0  0  0  0  0  0
  130.8481  133.9155  157.6382 N   0  0  0  0  0  0  0  0  0  0  0  0
  131.0984  134.5283  156.9292 H   0  0  0  0  0  0  0  0  0  0  0  0
  130.3382  132.4818  155.0901 C   0  0  0  0  0  0  0  0  0  0  0  0
  130.3570  131.8105  153.7496 C   0  0  0  0  0  0  0  0  0  0  0  0
  131.5184  130.1330  152.8585 H   0  0  0  0  0  0  0  0  0  0  0  0
  132.0092  129.0042  154.8339 H   0  0  0  0  0  0  0  0  0  0  0  0
  130.1034  129.8113  156.5459 H   0  0  0  0  0  0  0  0  0  0  0  0
  131.7777  130.2342  156.9595 H   0  0  0  0  0  0  0  0  0  0  0  0
  129.9991  131.0597  158.9176 H   0  0  0  0  0  0  0  0  0  0  0  0
  131.1607  136.2306  158.8714 H   0  0  0  0  0  0  0  0  0  0  0  0
  129.6821  135.9792  161.0769 H   0  0  0  0  0  0  0  0  0  0  0  0
  130.9620  134.7909  161.4203 H   0  0  0  0  0  0  0  0  0  0  0  0
  132.6488  137.3725  159.5115 H   0  0  0  0  0  0  0  0  0  0  0  0
  133.5400  140.8161  162.4088 H   0  0  0  0  0  0  0  0  0  0  0  0
  135.2498  142.4299  161.6813 H   0  0  0  0  0  0  0  0  0  0  0  0
  136.7421  141.8819  159.8021 H   0  0  0  0  0  0  0  0  0  0  0  0
  136.5359  139.7159  158.6524 H   0  0  0  0  0  0  0  0  0  0  0  0
  134.8362  138.0910  159.3792 H   0  0  0  0  0  0  0  0  0  0  0  0
  132.6982  136.2262  164.9697 H   0  0  0  0  0  0  0  0  0  0  0  0
  131.3678  135.4493  166.8880 H   0  0  0  0  0  0  0  0  0  0  0  0
  127.8170  136.4618  164.9917 H   0  0  0  0  0  0  0  0  0  0  0  0
  129.0244  137.2842  163.0120 H   0  0  0  0  0  0  0  0  0  0  0  0
  130.0872  133.5310  155.1411 H   0  0  0  0  0  0  0  0  0  0  0  0
  129.3343  131.5802  153.4510 H   0  0  0  0  0  0  0  0  0  0  0  0
  130.7990  132.4864  153.0177 H   0  0  0  0  0  0  0  0  0  0  0  0
  1 32  1  0
  1  2  2  0
  1 33  1  0
  2  3  1  0
  2 34  1  0
  3  4  1  0
  3 35  1  0
  3 36  1  0
  4  5  1  0
  4 31  2  0
  5 29  1  0
  5  6  2  0
  6  7  1  0
  6 37  1  0
  7  8  1  0
  7  9  1  0
  9 10  1  0
  9 29  2  0
 10 11  1  0
 10 38  1  0
 11 12  1  0
 11 39  1  0
 11 40  1  0
 12 22  1  0
 12 13  2  0
 13 14  1  0
 13 41  1  0
 14 15  1  0
 14 21  1  0
 15 20  1  0
 15 16  2  0
 16 17  1  0
 16 42  1  0
 17 18  2  0
 17 43  1  0
 18 19  1  0
 18 44  1  0
 19 20  2  0
 19 45  1  0
 20 46  1  0
 21 22  2  0
 22 23  1  0
 23 28  1  0
 23 24  2  0
 24 25  1  0
 24 47  1  0
 25 26  2  0
 25 48  1  0
 26 27  1  0
 27 28  2  0
 27 49  1  0
 28 50  1  0
 29 30  1  0
 31 32  1  0
 31 51  1  0
 32 52  1  0
 32 53  1  0
M  CHG  1  29   1
M  END
>  <DOCK_score>  (1) 
-56.975517

>  <SMILES>  (1) 
C1=CCC(c2c[nH]c(NCc3cn(-c4ccccc4)nc3-c3ccncc3)[nH+]2)=CC1

$$$$
