FC1(F)C[C@H]1CNc1cc(Nc2[nH]c3ccccc3[nH+]2)c(Cl)c(NC2CC=CC2)c1
     RDKit          3D

 53 57  0  0  1  0  0  0  0  0999 V2000
  125.5243  131.3014  160.4309 F   0  0  0  0  0  0  0  0  0  0  0  0
  124.4803  132.0318  161.0087 C   0  0  0  0  0  0  0  0  0  0  0  0
  123.1898  131.5988  160.6858 F   0  0  0  0  0  0  0  0  0  0  0  0
  124.7055  132.5960  162.4129 C   0  0  0  0  0  0  0  0  0  0  0  0
  124.6930  133.5342  161.2045 C   0  0  1  0  0  0  0  0  0  0  0  0
  123.8275  134.1853  161.0818 H   0  0  0  0  0  0  0  0  0  0  0  0
  126.0312  134.1230  160.7534 C   0  0  0  0  0  0  0  0  0  0  0  0
  126.2514  135.4063  161.4248 N   0  0  0  0  0  0  0  0  0  0  0  0
  127.4145  136.1374  161.1706 C   0  0  0  0  0  0  0  0  0  0  0  0
  128.3592  135.6501  160.2772 C   0  0  0  0  0  0  0  0  0  0  0  0
  129.5149  136.3761  160.0245 C   0  0  0  0  0  0  0  0  0  0  0  0
  130.4671  135.8846  159.1251 N   0  0  0  0  0  0  0  0  0  0  0  0
  130.6241  134.5269  158.9627 C   0  0  0  0  0  0  0  0  0  0  0  0
  131.0125  133.9335  157.8360 N   0  0  0  0  0  0  0  0  0  0  0  0
  131.2289  134.3828  157.0041 H   0  0  0  0  0  0  0  0  0  0  0  0
  131.0584  132.5816  158.0518 C   0  0  0  0  0  0  0  0  0  0  0  0
  131.3895  131.4898  157.2543 C   0  0  0  0  0  0  0  0  0  0  0  0
  131.3280  130.2162  157.7769 C   0  0  0  0  0  0  0  0  0  0  0  0
  130.9382  130.0138  159.0928 C   0  0  0  0  0  0  0  0  0  0  0  0
  130.6066  131.0834  159.8958 C   0  0  0  0  0  0  0  0  0  0  0  0
  130.6633  132.3767  159.3839 C   0  0  0  0  0  0  0  0  0  0  0  0
  130.4041  133.6156  159.9079 N   0  0  0  0  0  0  0  0  0  0  0  0
  130.1099  133.7978  160.8140 H   0  0  0  0  0  0  0  0  0  0  0  0
  129.7262  137.5903  160.6648 C   0  0  0  0  0  0  0  0  0  0  0  0
  131.1719  138.4983  160.3493 Cl  0  0  0  0  0  0  0  0  0  0  0  0
  128.7810  138.0777  161.5579 C   0  0  0  0  0  0  0  0  0  0  0  0
  128.9933  139.2992  162.2024 N   0  0  0  0  0  0  0  0  0  0  0  0
  128.4379  139.5288  163.5385 C   0  0  0  0  0  0  0  0  0  0  0  0
  127.1098  140.3169  163.4598 C   0  0  0  0  0  0  0  0  0  0  0  0
  127.1408  141.2420  164.6542 C   0  0  0  0  0  0  0  0  0  0  0  0
  128.3486  141.3437  165.1388 C   0  0  0  0  0  0  0  0  0  0  0  0
  129.3244  140.5032  164.3483 C   0  0  0  0  0  0  0  0  0  0  0  0
  127.6229  137.3534  161.8068 C   0  0  0  0  0  0  0  0  0  0  0  0
  123.8481  132.6297  163.0852 H   0  0  0  0  0  0  0  0  0  0  0  0
  125.6670  132.3981  162.8866 H   0  0  0  0  0  0  0  0  0  0  0  0
  126.8363  133.4352  161.0117 H   0  0  0  0  0  0  0  0  0  0  0  0
  126.0157  134.2755  159.6742 H   0  0  0  0  0  0  0  0  0  0  0  0
  125.5894  135.7485  162.0459 H   0  0  0  0  0  0  0  0  0  0  0  0
  128.1950  134.7060  159.7793 H   0  0  0  0  0  0  0  0  0  0  0  0
  131.0166  136.5007  158.6157 H   0  0  0  0  0  0  0  0  0  0  0  0
  131.6941  131.6406  156.2291 H   0  0  0  0  0  0  0  0  0  0  0  0
  131.5854  129.3697  157.1577 H   0  0  0  0  0  0  0  0  0  0  0  0
  130.8940  129.0107  159.4906 H   0  0  0  0  0  0  0  0  0  0  0  0
  130.3034  130.9189  160.9192 H   0  0  0  0  0  0  0  0  0  0  0  0
  129.5083  139.9953  161.7652 H   0  0  0  0  0  0  0  0  0  0  0  0
  128.3038  138.5873  164.0712 H   0  0  0  0  0  0  0  0  0  0  0  0
  127.0639  140.8922  162.5350 H   0  0  0  0  0  0  0  0  0  0  0  0
  126.2604  139.6373  163.5278 H   0  0  0  0  0  0  0  0  0  0  0  0
  126.2772  141.7524  165.0541 H   0  0  0  0  0  0  0  0  0  0  0  0
  128.6154  141.9492  165.9923 H   0  0  0  0  0  0  0  0  0  0  0  0
  129.9806  139.9504  165.0205 H   0  0  0  0  0  0  0  0  0  0  0  0
  129.9109  141.1302  163.6769 H   0  0  0  0  0  0  0  0  0  0  0  0
  126.8858  137.7343  162.4983 H   0  0  0  0  0  0  0  0  0  0  0  0
  1  2  1  0
  2  5  1  0
  2  3  1  0
  2  4  1  0
  4  5  1  0
  4 34  1  0
  4 35  1  0
  5  6  1  1
  5  7  1  0
  7  8  1  0
  7 36  1  0
  7 37  1  0
  8  9  1  0
  8 38  1  0
  9 33  1  0
  9 10  2  0
 10 11  1  0
 10 39  1  0
 11 12  1  0
 11 24  2  0
 12 13  1  0
 12 40  1  0
 13 22  1  0
 13 14  2  0
 14 15  1  0
 14 16  1  0
 16 21  2  0
 16 17  1  0
 17 18  2  0
 17 41  1  0
 18 19  1  0
 18 42  1  0
 19 20  2  0
 19 43  1  0
 20 21  1  0
 20 44  1  0
 21 22  1  0
 22 23  1  0
 24 25  1  0
 24 26  1  0
 26 27  1  0
 26 33  2  0
 27 28  1  0
 27 45  1  0
 28 32  1  0
 28 29  1  0
 28 46  1  0
 29 30  1  0
 29 47  1  0
 29 48  1  0
 30 31  2  0
 30 49  1  0
 31 32  1  0
 31 50  1  0
 32 51  1  0
 32 52  1  0
 33 53  1  0
M  CHG  1  14   1
M  END
>  <DOCK_score>  (1) 
-51.800591

>  <SMILES>  (1) 
FC1(F)C[C@H]1CNc1cc(Nc2[nH]c3ccccc3[nH+]2)c(Cl)c(NC2CC=CC2)c1

$$$$
