C(=Cc1ccc(SCc2cccc3ccccc23)c2ccccc12)N[NH2+]Cc1cccc2ccccc12
     RDKit          3D

 66 71  0  0  0  0  0  0  0  0999 V2000
  130.3484  136.4805  160.7383 C   0  0  0  0  0  0  0  0  0  0  0  0
  129.7762  137.3284  161.6013 C   0  0  0  0  0  0  0  0  0  0  0  0
  130.5887  137.9785  162.6432 C   0  0  0  0  0  0  0  0  0  0  0  0
  131.2688  137.2171  163.5857 C   0  0  0  0  0  0  0  0  0  0  0  0
  132.0402  137.8259  164.5643 C   0  0  0  0  0  0  0  0  0  0  0  0
  132.1514  139.1979  164.6466 C   0  0  0  0  0  0  0  0  0  0  0  0
  133.1384  139.9223  165.9138 S   0  0  0  0  0  0  0  0  0  0  0  0
  134.7875  139.2414  165.5859 C   0  0  0  0  0  0  0  0  0  0  0  0
  135.4350  140.0117  164.4640 C   0  0  0  0  0  0  0  0  0  0  0  0
  135.2646  139.6138  163.1734 C   0  0  0  0  0  0  0  0  0  0  0  0
  135.8541  140.3142  162.1230 C   0  0  0  0  0  0  0  0  0  0  0  0
  136.6189  141.4157  162.3570 C   0  0  0  0  0  0  0  0  0  0  0  0
  136.8180  141.8563  163.6763 C   0  0  0  0  0  0  0  0  0  0  0  0
  137.6001  142.9897  163.9572 C   0  0  0  0  0  0  0  0  0  0  0  0
  137.7700  143.3876  165.2475 C   0  0  0  0  0  0  0  0  0  0  0  0
  137.1799  142.6873  166.2981 C   0  0  0  0  0  0  0  0  0  0  0  0
  136.4160  141.5854  166.0643 C   0  0  0  0  0  0  0  0  0  0  0  0
  136.2173  141.1445  164.7447 C   0  0  0  0  0  0  0  0  0  0  0  0
  131.4841  140.0253  163.7180 C   0  0  0  0  0  0  0  0  0  0  0  0
  131.5888  141.4237  163.7805 C   0  0  0  0  0  0  0  0  0  0  0  0
  130.9305  142.1902  162.8670 C   0  0  0  0  0  0  0  0  0  0  0  0
  130.1529  141.6071  161.8693 C   0  0  0  0  0  0  0  0  0  0  0  0
  130.0297  140.2527  161.7798 C   0  0  0  0  0  0  0  0  0  0  0  0
  130.6935  139.4347  162.7029 C   0  0  0  0  0  0  0  0  0  0  0  0
  129.5841  135.8692  159.7582 N   0  0  0  0  0  0  0  0  0  0  0  0
  130.1681  135.0038  158.8774 N   0  0  0  0  0  0  0  0  0  0  0  0
  130.6351  135.5267  158.1516 H   0  0  0  0  0  0  0  0  0  0  0  0
  130.8405  134.4306  159.3647 H   0  0  0  0  0  0  0  0  0  0  0  0
  129.1374  134.1463  158.2771 C   0  0  0  0  0  0  0  0  0  0  0  0
  129.7816  133.1914  157.3054 C   0  0  0  0  0  0  0  0  0  0  0  0
  129.9226  133.5386  155.9967 C   0  0  0  0  0  0  0  0  0  0  0  0
  130.5198  132.6710  155.0846 C   0  0  0  0  0  0  0  0  0  0  0  0
  130.9711  131.4471  155.4736 C   0  0  0  0  0  0  0  0  0  0  0  0
  130.8383  131.0516  156.8154 C   0  0  0  0  0  0  0  0  0  0  0  0
  131.2926  129.7961  157.2544 C   0  0  0  0  0  0  0  0  0  0  0  0
  131.1476  129.4472  158.5618 C   0  0  0  0  0  0  0  0  0  0  0  0
  130.5538  130.3166  159.4751 C   0  0  0  0  0  0  0  0  0  0  0  0
  130.1025  131.5402  159.0863 C   0  0  0  0  0  0  0  0  0  0  0  0
  130.2349  131.9360  157.7442 C   0  0  0  0  0  0  0  0  0  0  0  0
  131.4061  136.2730  160.8061 H   0  0  0  0  0  0  0  0  0  0  0  0
  128.7186  137.5361  161.5337 H   0  0  0  0  0  0  0  0  0  0  0  0
  131.2003  136.1398  163.5528 H   0  0  0  0  0  0  0  0  0  0  0  0
  132.5624  137.2109  165.2822 H   0  0  0  0  0  0  0  0  0  0  0  0
  134.6978  138.1928  165.3022 H   0  0  0  0  0  0  0  0  0  0  0  0
  135.3997  139.3239  166.4839 H   0  0  0  0  0  0  0  0  0  0  0  0
  134.6628  138.7428  162.9603 H   0  0  0  0  0  0  0  0  0  0  0  0
  135.7028  139.9776  161.1080 H   0  0  0  0  0  0  0  0  0  0  0  0
  137.0668  141.9507  161.5325 H   0  0  0  0  0  0  0  0  0  0  0  0
  138.0641  143.5419  163.1534 H   0  0  0  0  0  0  0  0  0  0  0  0
  138.3716  144.2589  165.4605 H   0  0  0  0  0  0  0  0  0  0  0  0
  137.3313  143.0237  167.3131 H   0  0  0  0  0  0  0  0  0  0  0  0
  135.9648  141.0530  166.8885 H   0  0  0  0  0  0  0  0  0  0  0  0
  132.1882  141.8894  164.5487 H   0  0  0  0  0  0  0  0  0  0  0  0
  131.0126  143.2659  162.9171 H   0  0  0  0  0  0  0  0  0  0  0  0
  129.6404  142.2369  161.1572 H   0  0  0  0  0  0  0  0  0  0  0  0
  129.4240  139.8127  161.0015 H   0  0  0  0  0  0  0  0  0  0  0  0
  128.6341  136.0555  159.6975 H   0  0  0  0  0  0  0  0  0  0  0  0
  128.6329  133.5814  159.0611 H   0  0  0  0  0  0  0  0  0  0  0  0
  128.4110  134.7654  157.7507 H   0  0  0  0  0  0  0  0  0  0  0  0
  129.5693  134.5024  155.6611 H   0  0  0  0  0  0  0  0  0  0  0  0
  130.6227  132.9725  154.0526 H   0  0  0  0  0  0  0  0  0  0  0  0
  131.4291  130.7837  154.7549 H   0  0  0  0  0  0  0  0  0  0  0  0
  131.7540  129.1118  156.5579 H   0  0  0  0  0  0  0  0  0  0  0  0
  131.4976  128.4818  158.8966 H   0  0  0  0  0  0  0  0  0  0  0  0
  130.4505  130.0149  160.5069 H   0  0  0  0  0  0  0  0  0  0  0  0
  129.6451  132.2037  159.8053 H   0  0  0  0  0  0  0  0  0  0  0  0
  1  2  2  0
  1 25  1  0
  1 40  1  0
  2  3  1  0
  2 41  1  0
  3 24  1  0
  3  4  2  0
  4  5  1  0
  4 42  1  0
  5  6  2  0
  5 43  1  0
  6  7  1  0
  6 19  1  0
  7  8  1  0
  8  9  1  0
  8 44  1  0
  8 45  1  0
  9 18  1  0
  9 10  2  0
 10 11  1  0
 10 46  1  0
 11 12  2  0
 11 47  1  0
 12 13  1  0
 12 48  1  0
 13 18  2  0
 13 14  1  0
 14 15  2  0
 14 49  1  0
 15 16  1  0
 15 50  1  0
 16 17  2  0
 16 51  1  0
 17 18  1  0
 17 52  1  0
 19 24  2  0
 19 20  1  0
 20 21  2  0
 20 53  1  0
 21 22  1  0
 21 54  1  0
 22 23  2  0
 22 55  1  0
 23 24  1  0
 23 56  1  0
 25 26  1  0
 25 57  1  0
 26 27  1  0
 26 28  1  0
 26 29  1  0
 29 30  1  0
 29 58  1  0
 29 59  1  0
 30 39  1  0
 30 31  2  0
 31 32  1  0
 31 60  1  0
 32 33  2  0
 32 61  1  0
 33 34  1  0
 33 62  1  0
 34 39  2  0
 34 35  1  0
 35 36  2  0
 35 63  1  0
 36 37  1  0
 36 64  1  0
 37 38  2  0
 37 65  1  0
 38 39  1  0
 38 66  1  0
M  CHG  1  26   1
M  END
>  <DOCK_score>  (1) 
-56.498016

>  <SMILES>  (1) 
C(=Cc1ccc(SCc2cccc3ccccc23)c2ccccc12)N[NH2+]Cc1cccc2ccccc12

$$$$
