Cc1ccc([N+](=O)[O-])cc1C[NH+]=C(NCc1cccs1)N[C@H]1C[C@@H](O)C1
     RDKit          3D

 49 51  0  0  1  0  0  0  0  0999 V2000
  129.9413  139.4268  160.5405 C   0  0  0  0  0  0  0  0  0  0  0  0
  131.3669  139.0157  160.8041 C   0  0  0  0  0  0  0  0  0  0  0  0
  132.3925  139.9269  160.6319 C   0  0  0  0  0  0  0  0  0  0  0  0
  133.7005  139.5481  160.8681 C   0  0  0  0  0  0  0  0  0  0  0  0
  133.9830  138.2596  161.2818 C   0  0  0  0  0  0  0  0  0  0  0  0
  135.3840  137.8538  161.5344 N   0  0  0  0  0  0  0  0  0  0  0  0
  136.2877  138.6549  161.3778 O   0  0  0  0  0  0  0  0  0  0  0  0
  135.6329  136.7185  161.8990 O   0  0  0  0  0  0  0  0  0  0  0  0
  132.9575  137.3502  161.4590 C   0  0  0  0  0  0  0  0  0  0  0  0
  131.6490  137.7289  161.2228 C   0  0  0  0  0  0  0  0  0  0  0  0
  130.5308  136.7373  161.4156 C   0  0  0  0  0  0  0  0  0  0  0  0
  130.2964  136.0158  160.1622 N   0  0  0  0  0  0  0  0  0  0  0  0
  130.8324  136.2172  159.3792 H   0  0  0  0  0  0  0  0  0  0  0  0
  129.3676  135.1035  160.0994 C   0  0  0  0  0  0  0  0  0  0  0  0
  129.5067  134.0390  159.2405 N   0  0  0  0  0  0  0  0  0  0  0  0
  130.6989  133.9301  158.3961 C   0  0  0  0  0  0  0  0  0  0  0  0
  130.6061  132.6833  157.5544 C   0  0  0  0  0  0  0  0  0  0  0  0
  130.0504  132.6125  156.3440 C   0  0  0  0  0  0  0  0  0  0  0  0
  130.0846  131.3583  155.7591 C   0  0  0  0  0  0  0  0  0  0  0  0
  130.6600  130.4088  156.4985 C   0  0  0  0  0  0  0  0  0  0  0  0
  131.2073  131.0979  158.0213 S   0  0  0  0  0  0  0  0  0  0  0  0
  128.2489  135.2057  160.8920 N   0  0  0  0  0  0  0  0  0  0  0  0
  127.2050  134.1802  160.8213 C   0  0  1  0  0  0  0  0  0  0  0  0
  127.5948  133.1968  160.5586 H   0  0  0  0  0  0  0  0  0  0  0  0
  126.2712  134.1665  162.0431 C   0  0  0  0  0  0  0  0  0  0  0  0
  125.1167  133.9128  161.0593 C   0  0  1  0  0  0  0  0  0  0  0  0
  124.9347  132.8563  160.8629 H   0  0  0  0  0  0  0  0  0  0  0  0
  123.9237  134.6314  161.3794 O   0  0  0  0  0  0  0  0  0  0  0  0
  125.9816  134.6003  159.9896 C   0  0  0  0  0  0  0  0  0  0  0  0
  129.5025  139.8237  161.4560 H   0  0  0  0  0  0  0  0  0  0  0  0
  129.9216  140.1937  159.7662 H   0  0  0  0  0  0  0  0  0  0  0  0
  129.3687  138.5607  160.2090 H   0  0  0  0  0  0  0  0  0  0  0  0
  132.1718  140.9334  160.3084 H   0  0  0  0  0  0  0  0  0  0  0  0
  134.5018  140.2587  160.7292 H   0  0  0  0  0  0  0  0  0  0  0  0
  133.1782  136.3434  161.7819 H   0  0  0  0  0  0  0  0  0  0  0  0
  129.6228  137.2657  161.7060 H   0  0  0  0  0  0  0  0  0  0  0  0
  130.8046  136.0285  162.1971 H   0  0  0  0  0  0  0  0  0  0  0  0
  128.8156  133.3600  159.1937 H   0  0  0  0  0  0  0  0  0  0  0  0
  130.7649  134.8028  157.7465 H   0  0  0  0  0  0  0  0  0  0  0  0
  131.5869  133.8780  159.0261 H   0  0  0  0  0  0  0  0  0  0  0  0
  129.6096  133.4692  155.8559 H   0  0  0  0  0  0  0  0  0  0  0  0
  129.6730  131.1624  154.7799 H   0  0  0  0  0  0  0  0  0  0  0  0
  130.7728  129.3752  156.2065 H   0  0  0  0  0  0  0  0  0  0  0  0
  128.1508  135.9567  161.4980 H   0  0  0  0  0  0  0  0  0  0  0  0
  126.4552  133.3354  162.7239 H   0  0  0  0  0  0  0  0  0  0  0  0
  126.2076  135.1267  162.5548 H   0  0  0  0  0  0  0  0  0  0  0  0
  124.0338  135.5921  161.3890 H   0  0  0  0  0  0  0  0  0  0  0  0
  125.8377  135.6796  159.9391 H   0  0  0  0  0  0  0  0  0  0  0  0
  125.9318  134.1194  159.0127 H   0  0  0  0  0  0  0  0  0  0  0  0
  1  2  1  0
  1 30  1  0
  1 31  1  0
  1 32  1  0
  2 10  2  0
  2  3  1  0
  3  4  2  0
  3 33  1  0
  4  5  1  0
  4 34  1  0
  5  6  1  0
  5  9  2  0
  6  7  2  0
  6  8  1  0
  9 10  1  0
  9 35  1  0
 10 11  1  0
 11 12  1  0
 11 36  1  0
 11 37  1  0
 12 13  1  0
 14 12  2  0
 14 15  1  0
 14 22  1  0
 15 16  1  0
 15 38  1  0
 16 17  1  0
 16 39  1  0
 16 40  1  0
 17 21  1  0
 17 18  2  0
 18 19  1  0
 18 41  1  0
 19 20  2  0
 19 42  1  0
 20 21  1  0
 20 43  1  0
 22 23  1  0
 22 44  1  0
 23 24  1  6
 23 29  1  0
 23 25  1  0
 25 26  1  0
 25 45  1  0
 25 46  1  0
 26 27  1  6
 26 28  1  0
 26 29  1  0
 28 47  1  0
 29 48  1  0
 29 49  1  0
M  CHG  3   6   1   8  -1  12   1
M  END
>  <DOCK_score>  (1) 
-44.186806

>  <SMILES>  (1) 
Cc1ccc([N+](=O)[O-])cc1C[NH+]=C(NCc1cccs1)N[C@H]1C[C@@H](O)C1

$$$$
