FC1(F)CC[C@H]1Nc1ccc(-c2n[nH]cc2C[NH2+]CC2CC2(Br)Br)o1
     RDKit          3D

 44 47  0  0  1  0  0  0  0  0999 V2000
  125.1863  137.5628  164.2631 F   0  0  0  0  0  0  0  0  0  0  0  0
  126.2538  138.1990  163.6206 C   0  0  0  0  0  0  0  0  0  0  0  0
  125.8929  139.4255  163.0527 F   0  0  0  0  0  0  0  0  0  0  0  0
  127.5329  138.2667  164.4715 C   0  0  0  0  0  0  0  0  0  0  0  0
  127.9124  136.9040  163.8682 C   0  0  0  0  0  0  0  0  0  0  0  0
  127.0325  137.2779  162.6637 C   0  0  1  0  0  0  0  0  0  0  0  0
  127.5687  137.8147  161.8811 H   0  0  0  0  0  0  0  0  0  0  0  0
  126.2384  136.1602  162.1474 N   0  0  0  0  0  0  0  0  0  0  0  0
  126.8124  135.2461  161.2714 C   0  0  0  0  0  0  0  0  0  0  0  0
  126.1882  134.1733  160.7246 C   0  0  0  0  0  0  0  0  0  0  0  0
  127.1301  133.5250  159.9015 C   0  0  0  0  0  0  0  0  0  0  0  0
  128.2868  134.2323  159.9944 C   0  0  0  0  0  0  0  0  0  0  0  0
  129.5527  133.9162  159.3009 C   0  0  0  0  0  0  0  0  0  0  0  0
  129.7568  132.9044  158.4807 N   0  0  0  0  0  0  0  0  0  0  0  0
  131.0852  132.9630  158.0402 N   0  0  0  0  0  0  0  0  0  0  0  0
  131.5096  132.3416  157.4282 H   0  0  0  0  0  0  0  0  0  0  0  0
  131.6732  134.0343  158.6156 C   0  0  0  0  0  0  0  0  0  0  0  0
  130.7558  134.6471  159.3940 C   0  0  0  0  0  0  0  0  0  0  0  0
  130.9784  135.8891  160.2182 C   0  0  0  0  0  0  0  0  0  0  0  0
  132.3632  136.3486  160.0472 N   0  0  0  0  0  0  0  0  0  0  0  0
  132.9977  135.6251  160.3510 H   0  0  0  0  0  0  0  0  0  0  0  0
  132.5309  136.5562  159.0741 H   0  0  0  0  0  0  0  0  0  0  0  0
  132.5802  137.5591  160.8506 C   0  0  0  0  0  0  0  0  0  0  0  0
  134.0223  138.0377  160.6725 C   0  0  1  0  0  0  0  0  0  0  0  0
  134.2982  139.0503  159.5592 C   0  0  0  0  0  0  0  0  0  0  0  0
  134.3315  139.4947  161.0228 C   0  0  0  0  0  0  0  0  0  0  0  0
  132.8452  140.6084  161.6676 Br  0  0  0  0  0  0  0  0  0  0  0  0
  136.0888  139.8849  161.8132 Br  0  0  0  0  0  0  0  0  0  0  0  0
  128.0807  135.2735  160.8281 O   0  0  0  0  0  0  0  0  0  0  0  0
  127.3458  138.2322  165.5447 H   0  0  0  0  0  0  0  0  0  0  0  0
  128.2064  139.0742  164.1842 H   0  0  0  0  0  0  0  0  0  0  0  0
  128.9708  136.8140  163.6243 H   0  0  0  0  0  0  0  0  0  0  0  0
  127.5353  136.0543  164.4373 H   0  0  0  0  0  0  0  0  0  0  0  0
  125.3123  136.0579  162.4168 H   0  0  0  0  0  0  0  0  0  0  0  0
  125.1634  133.8739  160.8878 H   0  0  0  0  0  0  0  0  0  0  0  0
  126.9656  132.6344  159.3130 H   0  0  0  0  0  0  0  0  0  0  0  0
  132.6969  134.3483  158.4742 H   0  0  0  0  0  0  0  0  0  0  0  0
  130.2931  136.6704  159.8901 H   0  0  0  0  0  0  0  0  0  0  0  0
  130.7973  135.6648  161.2694 H   0  0  0  0  0  0  0  0  0  0  0  0
  131.8948  138.3406  160.5225 H   0  0  0  0  0  0  0  0  0  0  0  0
  132.3989  137.3348  161.9018 H   0  0  0  0  0  0  0  0  0  0  0  0
  134.7930  137.2954  160.8799 H   0  0  0  0  0  0  0  0  0  0  0  0
  135.2505  138.9744  159.0344 H   0  0  0  0  0  0  0  0  0  0  0  0
  133.4522  139.3755  158.9537 H   0  0  0  0  0  0  0  0  0  0  0  0
  1  2  1  0
  2  6  1  0
  2  3  1  0
  2  4  1  0
  4  5  1  0
  4 30  1  0
  4 31  1  0
  5  6  1  0
  5 32  1  0
  5 33  1  0
  6  7  1  6
  6  8  1  0
  8  9  1  0
  8 34  1  0
  9 29  1  0
  9 10  2  0
 10 11  1  0
 10 35  1  0
 11 12  2  0
 11 36  1  0
 12 13  1  0
 12 29  1  0
 13 18  1  0
 13 14  2  0
 14 15  1  0
 15 16  1  0
 15 17  1  0
 17 18  2  0
 17 37  1  0
 18 19  1  0
 19 20  1  0
 19 38  1  0
 19 39  1  0
 20 21  1  0
 20 22  1  0
 20 23  1  0
 23 24  1  0
 23 40  1  0
 23 41  1  0
 24 26  1  0
 24 25  1  0
 24 42  1  1
 25 26  1  0
 25 43  1  0
 25 44  1  0
 26 27  1  0
 26 28  1  0
M  CHG  1  20   1
M  END
>  <DOCK_score>  (1) 
-44.065655

>  <SMILES>  (1) 
FC1(F)CC[C@H]1Nc1ccc(-c2n[nH]cc2C[NH2+]CC2CC2(Br)Br)o1

$$$$
