CCc1ccc(-c2c[nH]c(O[C@H](CNc3[nH]cc(-c4ccccc4)[nH+]3)Cc3ccccc3)n2)cc1
     RDKit          3D

 65 69  0  0  1  0  0  0  0  0999 V2000
  135.6069  136.1998  169.7071 C   0  0  0  0  0  0  0  0  0  0  0  0
  135.1348  135.0247  168.8486 C   0  0  0  0  0  0  0  0  0  0  0  0
  134.8631  135.5045  167.4460 C   0  0  0  0  0  0  0  0  0  0  0  0
  135.8755  135.4871  166.5037 C   0  0  0  0  0  0  0  0  0  0  0  0
  135.6308  135.9200  165.2162 C   0  0  0  0  0  0  0  0  0  0  0  0
  134.3639  136.3858  164.8694 C   0  0  0  0  0  0  0  0  0  0  0  0
  134.0966  136.8586  163.4890 C   0  0  0  0  0  0  0  0  0  0  0  0
  134.9967  137.4348  162.6537 C   0  0  0  0  0  0  0  0  0  0  0  0
  134.3332  137.7125  161.4849 N   0  0  0  0  0  0  0  0  0  0  0  0
  134.7124  138.1260  160.6935 H   0  0  0  0  0  0  0  0  0  0  0  0
  133.0455  137.3062  161.6424 C   0  0  0  0  0  0  0  0  0  0  0  0
  132.0659  137.4120  160.7123 O   0  0  0  0  0  0  0  0  0  0  0  0
  130.7725  136.9234  161.0740 C   0  0  2  0  0  0  0  0  0  0  0  0
  130.6317  137.0301  162.1495 H   0  0  0  0  0  0  0  0  0  0  0  0
  130.6589  135.4472  160.6886 C   0  0  0  0  0  0  0  0  0  0  0  0
  130.8484  135.3039  159.2429 N   0  0  0  0  0  0  0  0  0  0  0  0
  130.7887  134.0507  158.6578 C   0  0  0  0  0  0  0  0  0  0  0  0
  130.5674  132.8792  159.3141 N   0  0  0  0  0  0  0  0  0  0  0  0
  130.4244  132.7730  160.2676 H   0  0  0  0  0  0  0  0  0  0  0  0
  130.5811  131.8752  158.3766 C   0  0  0  0  0  0  0  0  0  0  0  0
  130.8185  132.4605  157.1767 C   0  0  0  0  0  0  0  0  0  0  0  0
  130.9242  131.7639  155.8713 C   0  0  0  0  0  0  0  0  0  0  0  0
  130.5477  132.4156  154.6983 C   0  0  0  0  0  0  0  0  0  0  0  0
  130.6540  131.7647  153.4859 C   0  0  0  0  0  0  0  0  0  0  0  0
  131.1216  130.4637  153.4351 C   0  0  0  0  0  0  0  0  0  0  0  0
  131.4915  129.8103  154.5968 C   0  0  0  0  0  0  0  0  0  0  0  0
  131.3951  130.4534  155.8139 C   0  0  0  0  0  0  0  0  0  0  0  0
  130.9413  133.7962  157.3813 N   0  0  0  0  0  0  0  0  0  0  0  0
  131.1145  134.4570  156.6927 H   0  0  0  0  0  0  0  0  0  0  0  0
  129.6994  137.7272  160.3369 C   0  0  0  0  0  0  0  0  0  0  0  0
  129.4757  139.0369  161.0478 C   0  0  0  0  0  0  0  0  0  0  0  0
  128.5228  139.1281  162.0451 C   0  0  0  0  0  0  0  0  0  0  0  0
  128.3209  140.3284  162.7005 C   0  0  0  0  0  0  0  0  0  0  0  0
  129.0648  141.4400  162.3515 C   0  0  0  0  0  0  0  0  0  0  0  0
  130.0142  141.3502  161.3506 C   0  0  0  0  0  0  0  0  0  0  0  0
  130.2196  140.1487  160.6988 C   0  0  0  0  0  0  0  0  0  0  0  0
  132.9072  136.7967  162.8399 N   0  0  0  0  0  0  0  0  0  0  0  0
  133.3491  136.4063  165.8246 C   0  0  0  0  0  0  0  0  0  0  0  0
  133.6036  135.9658  167.1075 C   0  0  0  0  0  0  0  0  0  0  0  0
  136.5203  136.6162  169.2823 H   0  0  0  0  0  0  0  0  0  0  0  0
  135.8033  135.8527  170.7215 H   0  0  0  0  0  0  0  0  0  0  0  0
  134.8335  136.9675  169.7291 H   0  0  0  0  0  0  0  0  0  0  0  0
  135.9081  134.2569  168.8265 H   0  0  0  0  0  0  0  0  0  0  0  0
  134.2214  134.6083  169.2734 H   0  0  0  0  0  0  0  0  0  0  0  0
  136.8581  135.1301  166.7747 H   0  0  0  0  0  0  0  0  0  0  0  0
  136.4209  135.9019  164.4800 H   0  0  0  0  0  0  0  0  0  0  0  0
  136.0365  137.6345  162.8666 H   0  0  0  0  0  0  0  0  0  0  0  0
  131.4236  134.8748  161.2137 H   0  0  0  0  0  0  0  0  0  0  0  0
  129.6725  135.0745  160.9645 H   0  0  0  0  0  0  0  0  0  0  0  0
  131.0157  136.0872  158.6958 H   0  0  0  0  0  0  0  0  0  0  0  0
  130.4355  130.8210  158.5607 H   0  0  0  0  0  0  0  0  0  0  0  0
  130.1779  133.4295  154.7375 H   0  0  0  0  0  0  0  0  0  0  0  0
  130.3675  132.2705  152.5757 H   0  0  0  0  0  0  0  0  0  0  0  0
  131.1986  129.9565  152.4848 H   0  0  0  0  0  0  0  0  0  0  0  0
  131.8565  128.7949  154.5511 H   0  0  0  0  0  0  0  0  0  0  0  0
  131.6844  129.9423  156.7204 H   0  0  0  0  0  0  0  0  0  0  0  0
  130.0271  137.9195  159.3153 H   0  0  0  0  0  0  0  0  0  0  0  0
  128.7688  137.1599  160.3191 H   0  0  0  0  0  0  0  0  0  0  0  0
  127.9386  138.2608  162.3147 H   0  0  0  0  0  0  0  0  0  0  0  0
  127.5791  140.3988  163.4821 H   0  0  0  0  0  0  0  0  0  0  0  0
  128.9041  142.3789  162.8605 H   0  0  0  0  0  0  0  0  0  0  0  0
  130.5950  142.2188  161.0777 H   0  0  0  0  0  0  0  0  0  0  0  0
  130.9609  140.0785  159.9167 H   0  0  0  0  0  0  0  0  0  0  0  0
  132.3655  136.7659  165.5612 H   0  0  0  0  0  0  0  0  0  0  0  0
  132.8182  135.9816  167.8485 H   0  0  0  0  0  0  0  0  0  0  0  0
  1  2  1  0
  1 40  1  0
  1 41  1  0
  1 42  1  0
  2  3  1  0
  2 43  1  0
  2 44  1  0
  3 39  2  0
  3  4  1  0
  4  5  2  0
  4 45  1  0
  5  6  1  0
  5 46  1  0
  6  7  1  0
  6 38  2  0
  7 37  1  0
  7  8  2  0
  8  9  1  0
  8 47  1  0
  9 10  1  0
  9 11  1  0
 11 12  1  0
 11 37  2  0
 12 13  1  0
 13 14  1  1
 13 15  1  0
 13 30  1  0
 15 16  1  0
 15 48  1  0
 15 49  1  0
 16 50  1  0
 17 16  1  0
 17 28  2  0
 17 18  1  0
 18 19  1  0
 18 20  1  0
 20 21  2  0
 20 51  1  0
 21 22  1  0
 21 28  1  0
 22 27  1  0
 22 23  2  0
 23 24  1  0
 23 52  1  0
 24 25  2  0
 24 53  1  0
 25 26  1  0
 25 54  1  0
 26 27  2  0
 26 55  1  0
 27 56  1  0
 28 29  1  0
 30 31  1  0
 30 57  1  0
 30 58  1  0
 31 36  1  0
 31 32  2  0
 32 33  1  0
 32 59  1  0
 33 34  2  0
 33 60  1  0
 34 35  1  0
 34 61  1  0
 35 36  2  0
 35 62  1  0
 36 63  1  0
 38 39  1  0
 38 64  1  0
 39 65  1  0
M  CHG  1  28   1
M  END
>  <DOCK_score>  (1) 
-58.858826

>  <SMILES>  (1) 
CCc1ccc(-c2c[nH]c(O[C@H](CNc3[nH]cc(-c4ccccc4)[nH+]3)Cc3ccccc3)n2)cc1

$$$$
