CC(C)n1cc([C@H]2[NH2+]CCc3c2[nH]c2ccc(O)cc32)c(Br)n1
     RDKit          3D

 43 46  0  0  1  0  0  0  0  0999 V2000
  130.3023  132.7882  153.3144 C   0  0  0  0  0  0  0  0  0  0  0  0
  129.9410  131.4135  153.8804 C   0  0  0  0  0  0  0  0  0  0  0  0
  130.8250  130.3464  153.2318 C   0  0  0  0  0  0  0  0  0  0  0  0
  130.1554  131.4105  155.3297 N   0  0  0  0  0  0  0  0  0  0  0  0
  130.0433  132.4755  156.1508 C   0  0  0  0  0  0  0  0  0  0  0  0
  130.3207  132.0586  157.4078 C   0  0  0  0  0  0  0  0  0  0  0  0
  130.3168  132.9155  158.6474 C   0  0  1  0  0  0  0  0  0  0  0  0
  131.0385  132.5276  159.3662 H   0  0  0  0  0  0  0  0  0  0  0  0
  130.6681  134.2994  158.2928 N   0  0  0  0  0  0  0  0  0  0  0  0
  130.0701  134.6142  157.5435 H   0  0  0  0  0  0  0  0  0  0  0  0
  131.6296  134.3302  157.9883 H   0  0  0  0  0  0  0  0  0  0  0  0
  130.4974  135.1817  159.4548 C   0  0  0  0  0  0  0  0  0  0  0  0
  129.0000  135.3859  159.7278 C   0  0  0  0  0  0  0  0  0  0  0  0
  128.3477  134.0270  159.7438 C   0  0  0  0  0  0  0  0  0  0  0  0
  128.9365  132.9125  159.2621 C   0  0  0  0  0  0  0  0  0  0  0  0
  128.0987  131.8485  159.4225 N   0  0  0  0  0  0  0  0  0  0  0  0
  128.2973  130.9378  159.1542 H   0  0  0  0  0  0  0  0  0  0  0  0
  126.9255  132.2605  160.0231 C   0  0  0  0  0  0  0  0  0  0  0  0
  125.7667  131.5936  160.4053 C   0  0  0  0  0  0  0  0  0  0  0  0
  124.7337  132.2875  160.9940 C   0  0  0  0  0  0  0  0  0  0  0  0
  124.8398  133.6572  161.2219 C   0  0  0  0  0  0  0  0  0  0  0  0
  123.8124  134.3275  161.8088 O   0  0  0  0  0  0  0  0  0  0  0  0
  125.9811  134.3382  160.8506 C   0  0  0  0  0  0  0  0  0  0  0  0
  127.0354  133.6468  160.2480 C   0  0  0  0  0  0  0  0  0  0  0  0
  130.6177  130.6922  157.3523 C   0  0  0  0  0  0  0  0  0  0  0  0
  131.0838  129.5979  158.8223 Br  0  0  0  0  0  0  0  0  0  0  0  0
  130.5137  130.3019  156.1073 N   0  0  0  0  0  0  0  0  0  0  0  0
  131.3490  133.0052  153.5271 H   0  0  0  0  0  0  0  0  0  0  0  0
  130.1427  132.7905  152.2360 H   0  0  0  0  0  0  0  0  0  0  0  0
  129.6724  133.5484  153.7764 H   0  0  0  0  0  0  0  0  0  0  0  0
  128.8941  131.1966  153.6676 H   0  0  0  0  0  0  0  0  0  0  0  0
  131.8717  130.5634  153.4446 H   0  0  0  0  0  0  0  0  0  0  0  0
  130.5676  129.3671  153.6352 H   0  0  0  0  0  0  0  0  0  0  0  0
  130.6654  130.3487  152.1536 H   0  0  0  0  0  0  0  0  0  0  0  0
  129.7798  133.4810  155.8571 H   0  0  0  0  0  0  0  0  0  0  0  0
  130.9641  136.1453  159.2509 H   0  0  0  0  0  0  0  0  0  0  0  0
  130.9671  134.7280  160.3275 H   0  0  0  0  0  0  0  0  0  0  0  0
  128.5607  135.9974  158.9396 H   0  0  0  0  0  0  0  0  0  0  0  0
  128.8626  135.8732  160.6931 H   0  0  0  0  0  0  0  0  0  0  0  0
  125.6753  130.5309  160.2359 H   0  0  0  0  0  0  0  0  0  0  0  0
  123.8346  131.7643  161.2848 H   0  0  0  0  0  0  0  0  0  0  0  0
  123.9760  135.2732  161.9264 H   0  0  0  0  0  0  0  0  0  0  0  0
  126.0594  135.4010  161.0254 H   0  0  0  0  0  0  0  0  0  0  0  0
  1  2  1  0
  1 28  1  0
  1 29  1  0
  1 30  1  0
  2  3  1  0
  2  4  1  0
  2 31  1  0
  3 32  1  0
  3 33  1  0
  3 34  1  0
  4 27  1  0
  4  5  1  0
  5  6  2  0
  5 35  1  0
  6  7  1  0
  6 25  1  0
  7  8  1  1
  7 15  1  0
  7  9  1  0
  9 10  1  0
  9 11  1  0
  9 12  1  0
 12 13  1  0
 12 36  1  0
 12 37  1  0
 13 14  1  0
 13 38  1  0
 13 39  1  0
 14 24  1  0
 14 15  2  0
 15 16  1  0
 16 17  1  0
 16 18  1  0
 18 24  2  0
 18 19  1  0
 19 20  2  0
 19 40  1  0
 20 21  1  0
 20 41  1  0
 21 22  1  0
 21 23  2  0
 22 42  1  0
 23 24  1  0
 23 43  1  0
 25 26  1  0
 25 27  2  0
M  CHG  1   9   1
M  END
>  <DOCK_score>  (1) 
-48.810402

>  <SMILES>  (1) 
CC(C)n1cc([C@H]2[NH2+]CCc3c2[nH]c2ccc(O)cc32)c(Br)n1

$$$$
