O[C@@H]1C=C[C@@H]([NH+]=C(NC2CC=CC2)NC2CC2)[C@@H]1Cl
     RDKit          3D

 40 42  0  0  1  0  0  0  0  0999 V2000
  125.5001  135.4274  161.6012 O   0  0  0  0  0  0  0  0  0  0  0  0
  126.7160  135.3735  160.8522 C   0  0  2  0  0  0  0  0  0  0  0  0
  127.3678  136.2025  161.1277 H   0  0  0  0  0  0  0  0  0  0  0  0
  126.4229  135.4011  159.3702 C   0  0  0  0  0  0  0  0  0  0  0  0
  127.1362  134.5127  158.7333 C   0  0  0  0  0  0  0  0  0  0  0  0
  128.0241  133.7446  159.6845 C   0  0  1  0  0  0  0  0  0  0  0  0
  127.9880  132.6780  159.4627 H   0  0  0  0  0  0  0  0  0  0  0  0
  129.4023  134.2350  159.6049 N   0  0  0  0  0  0  0  0  0  0  0  0
  129.6945  134.9566  160.1835 H   0  0  0  0  0  0  0  0  0  0  0  0
  130.2359  133.7015  158.7568 C   0  0  0  0  0  0  0  0  0  0  0  0
  129.7712  133.1749  157.5748 N   0  0  0  0  0  0  0  0  0  0  0  0
  130.7082  132.5753  156.6215 C   0  0  0  0  0  0  0  0  0  0  0  0
  130.1115  132.5546  155.1950 C   0  0  0  0  0  0  0  0  0  0  0  0
  130.5818  131.2462  154.6016 C   0  0  0  0  0  0  0  0  0  0  0  0
  131.0079  130.4345  155.5310 C   0  0  0  0  0  0  0  0  0  0  0  0
  130.8922  131.0653  156.8991 C   0  0  0  0  0  0  0  0  0  0  0  0
  131.5799  133.6654  159.0439 N   0  0  0  0  0  0  0  0  0  0  0  0
  132.0750  134.2267  160.3033 C   0  0  0  0  0  0  0  0  0  0  0  0
  133.4356  133.7405  160.8066 C   0  0  0  0  0  0  0  0  0  0  0  0
  132.1531  133.2910  161.5113 C   0  0  0  0  0  0  0  0  0  0  0  0
  127.4331  134.0236  161.0859 C   0  0  2  0  0  0  0  0  0  0  0  0
  128.2226  134.1237  161.8307 H   0  0  0  0  0  0  0  0  0  0  0  0
  126.2587  132.7404  161.5603 Cl  0  0  0  0  0  0  0  0  0  0  0  0
  125.0078  136.2526  161.4928 H   0  0  0  0  0  0  0  0  0  0  0  0
  125.7159  136.0683  158.8996 H   0  0  0  0  0  0  0  0  0  0  0  0
  127.0974  134.3486  157.6666 H   0  0  0  0  0  0  0  0  0  0  0  0
  128.8230  133.2003  157.3722 H   0  0  0  0  0  0  0  0  0  0  0  0
  131.6658  133.0957  156.6376 H   0  0  0  0  0  0  0  0  0  0  0  0
  129.0228  132.5821  155.2384 H   0  0  0  0  0  0  0  0  0  0  0  0
  130.4905  133.3944  154.6128 H   0  0  0  0  0  0  0  0  0  0  0  0
  130.5676  131.0138  153.5471 H   0  0  0  0  0  0  0  0  0  0  0  0
  131.3927  129.4426  155.3461 H   0  0  0  0  0  0  0  0  0  0  0  0
  131.8016  130.8932  157.4747 H   0  0  0  0  0  0  0  0  0  0  0  0
  130.0259  130.6682  157.4284 H   0  0  0  0  0  0  0  0  0  0  0  0
  132.1998  133.2649  158.4145 H   0  0  0  0  0  0  0  0  0  0  0  0
  131.8124  135.2680  160.4894 H   0  0  0  0  0  0  0  0  0  0  0  0
  133.9623  133.0032  160.2009 H   0  0  0  0  0  0  0  0  0  0  0  0
  134.0679  134.4620  161.3244 H   0  0  0  0  0  0  0  0  0  0  0  0
  131.9421  133.7169  162.4922 H   0  0  0  0  0  0  0  0  0  0  0  0
  131.8362  132.2578  161.3690 H   0  0  0  0  0  0  0  0  0  0  0  0
  1  2  1  0
  1 24  1  0
  2  3  1  1
  2 21  1  0
  2  4  1  0
  4  5  2  0
  4 25  1  0
  5  6  1  0
  5 26  1  0
  6  7  1  6
  6  8  1  0
  6 21  1  0
  8  9  1  0
 10  8  2  0
 10 11  1  0
 10 17  1  0
 11 12  1  0
 11 27  1  0
 12 16  1  0
 12 13  1  0
 12 28  1  0
 13 14  1  0
 13 29  1  0
 13 30  1  0
 14 15  2  0
 14 31  1  0
 15 16  1  0
 15 32  1  0
 16 33  1  0
 16 34  1  0
 17 18  1  0
 17 35  1  0
 18 20  1  0
 18 19  1  0
 18 36  1  0
 19 20  1  0
 19 37  1  0
 19 38  1  0
 20 39  1  0
 20 40  1  0
 21 22  1  1
 21 23  1  0
M  CHG  1   8   1
M  END
>  <DOCK_score>  (1) 
-43.124508

>  <SMILES>  (1) 
O[C@@H]1C=C[C@@H]([NH+]=C(NC2CC=CC2)NC2CC2)[C@@H]1Cl

$$$$
