O=C(C[NH2+]Cc1cc2ccccc2[nH]1)c1cccc(O)c1
     RDKit          3D

 38 40  0  0  0  0  0  0  0  0999 V2000
  128.7649  135.2802  158.2936 O   0  0  0  0  0  0  0  0  0  0  0  0
  128.6331  134.7834  159.3917 C   0  0  0  0  0  0  0  0  0  0  0  0
  129.7714  134.8239  160.3785 C   0  0  0  0  0  0  0  0  0  0  0  0
  130.5807  136.0270  160.1434 N   0  0  0  0  0  0  0  0  0  0  0  0
  130.0052  136.8476  160.2599 H   0  0  0  0  0  0  0  0  0  0  0  0
  130.9500  136.0058  159.2047 H   0  0  0  0  0  0  0  0  0  0  0  0
  131.6903  136.0665  161.1053 C   0  0  0  0  0  0  0  0  0  0  0  0
  132.5206  137.3008  160.8641 C   0  0  0  0  0  0  0  0  0  0  0  0
  132.9756  138.1230  161.8228 C   0  0  0  0  0  0  0  0  0  0  0  0
  133.7304  139.1850  161.1533 C   0  0  0  0  0  0  0  0  0  0  0  0
  134.4286  140.3089  161.5997 C   0  0  0  0  0  0  0  0  0  0  0  0
  135.0450  141.1275  160.6961 C   0  0  0  0  0  0  0  0  0  0  0  0
  134.9823  140.8515  159.3370 C   0  0  0  0  0  0  0  0  0  0  0  0
  134.2987  139.7485  158.8748 C   0  0  0  0  0  0  0  0  0  0  0  0
  133.6644  138.9006  159.7772 C   0  0  0  0  0  0  0  0  0  0  0  0
  132.9272  137.7463  159.6359 N   0  0  0  0  0  0  0  0  0  0  0  0
  132.7241  137.3148  158.7913 H   0  0  0  0  0  0  0  0  0  0  0  0
  127.3616  134.1407  159.7610 C   0  0  0  0  0  0  0  0  0  0  0  0
  127.1613  132.7804  159.5038 C   0  0  0  0  0  0  0  0  0  0  0  0
  125.9703  132.1816  159.8560 C   0  0  0  0  0  0  0  0  0  0  0  0
  124.9672  132.9238  160.4532 C   0  0  0  0  0  0  0  0  0  0  0  0
  125.1538  134.2759  160.7085 C   0  0  0  0  0  0  0  0  0  0  0  0
  124.1641  134.9988  161.2960 O   0  0  0  0  0  0  0  0  0  0  0  0
  126.3467  134.8882  160.3649 C   0  0  0  0  0  0  0  0  0  0  0  0
  130.3931  133.9375  160.2527 H   0  0  0  0  0  0  0  0  0  0  0  0
  129.3724  134.8469  161.3927 H   0  0  0  0  0  0  0  0  0  0  0  0
  131.2914  136.0894  162.1194 H   0  0  0  0  0  0  0  0  0  0  0  0
  132.3121  135.1801  160.9794 H   0  0  0  0  0  0  0  0  0  0  0  0
  132.8153  138.0209  162.8859 H   0  0  0  0  0  0  0  0  0  0  0  0
  134.4815  140.5299  162.6555 H   0  0  0  0  0  0  0  0  0  0  0  0
  135.5847  141.9967  161.0419 H   0  0  0  0  0  0  0  0  0  0  0  0
  135.4743  141.5083  158.6348 H   0  0  0  0  0  0  0  0  0  0  0  0
  134.2552  139.5427  157.8155 H   0  0  0  0  0  0  0  0  0  0  0  0
  127.9405  132.1988  159.0336 H   0  0  0  0  0  0  0  0  0  0  0  0
  125.8180  131.1304  159.6604 H   0  0  0  0  0  0  0  0  0  0  0  0
  124.0351  132.4495  160.7223 H   0  0  0  0  0  0  0  0  0  0  0  0
  124.3857  135.9300  161.4334 H   0  0  0  0  0  0  0  0  0  0  0  0
  126.4929  135.9397  160.5631 H   0  0  0  0  0  0  0  0  0  0  0  0
  1  2  2  0
  2  3  1  0
  2 18  1  0
  3  4  1  0
  3 25  1  0
  3 26  1  0
  4  5  1  0
  4  6  1  0
  4  7  1  0
  7  8  1  0
  7 27  1  0
  7 28  1  0
  8 16  1  0
  8  9  2  0
  9 10  1  0
  9 29  1  0
 10 15  2  0
 10 11  1  0
 11 12  2  0
 11 30  1  0
 12 13  1  0
 12 31  1  0
 13 14  2  0
 13 32  1  0
 14 15  1  0
 14 33  1  0
 15 16  1  0
 16 17  1  0
 18 24  1  0
 18 19  2  0
 19 20  1  0
 19 34  1  0
 20 21  2  0
 20 35  1  0
 21 22  1  0
 21 36  1  0
 22 23  1  0
 22 24  2  0
 23 37  1  0
 24 38  1  0
M  CHG  1   4   1
M  END
>  <DOCK_score>  (1) 
-41.44693

>  <SMILES>  (1) 
O=C(C[NH2+]Cc1cc2ccccc2[nH]1)c1cccc(O)c1

$$$$
