Cc1ccccc1[C@H]1C[C@H](Nc2ccc(-c3n[nH]cc3C[NH2+]CCn3cncn3)o2)C1
     RDKit          3D

 59 63  0  0  1  0  0  0  0  0999 V2000
  127.6658  134.8279  166.8950 C   0  0  0  0  0  0  0  0  0  0  0  0
  127.4474  136.2681  167.2807 C   0  0  0  0  0  0  0  0  0  0  0  0
  127.7639  136.6978  168.5562 C   0  0  0  0  0  0  0  0  0  0  0  0
  127.5639  138.0188  168.9099 C   0  0  0  0  0  0  0  0  0  0  0  0
  127.0469  138.9105  167.9884 C   0  0  0  0  0  0  0  0  0  0  0  0
  126.7347  138.4819  166.7121 C   0  0  0  0  0  0  0  0  0  0  0  0
  126.9303  137.1595  166.3598 C   0  0  0  0  0  0  0  0  0  0  0  0
  126.5852  136.6912  164.9694 C   0  0  1  0  0  0  0  0  0  0  0  0
  125.8334  135.9021  164.9632 H   0  0  0  0  0  0  0  0  0  0  0  0
  126.2857  137.8380  163.9898 C   0  0  0  0  0  0  0  0  0  0  0  0
  127.0622  137.0338  162.9338 C   0  0  2  0  0  0  0  0  0  0  0  0
  127.6971  137.6479  162.2951 H   0  0  0  0  0  0  0  0  0  0  0  0
  126.2259  136.0998  162.1756 N   0  0  0  0  0  0  0  0  0  0  0  0
  126.7930  135.3051  161.1861 C   0  0  0  0  0  0  0  0  0  0  0  0
  126.1313  134.4052  160.4166 C   0  0  0  0  0  0  0  0  0  0  0  0
  127.0802  133.8307  159.5479 C   0  0  0  0  0  0  0  0  0  0  0  0
  128.2774  134.4051  159.8374 C   0  0  0  0  0  0  0  0  0  0  0  0
  129.5637  134.1064  159.1745 C   0  0  0  0  0  0  0  0  0  0  0  0
  129.7511  133.2401  158.1981 N   0  0  0  0  0  0  0  0  0  0  0  0
  131.1102  133.2540  157.8599 N   0  0  0  0  0  0  0  0  0  0  0  0
  131.5315  132.7115  157.1750 H   0  0  0  0  0  0  0  0  0  0  0  0
  131.7328  134.1534  158.6522 C   0  0  0  0  0  0  0  0  0  0  0  0
  130.8088  134.6996  159.4712 C   0  0  0  0  0  0  0  0  0  0  0  0
  131.0633  135.7513  160.5202 C   0  0  0  0  0  0  0  0  0  0  0  0
  132.4880  136.1093  160.5189 N   0  0  0  0  0  0  0  0  0  0  0  0
  132.7433  136.4703  159.6120 H   0  0  0  0  0  0  0  0  0  0  0  0
  133.0408  135.2902  160.7227 H   0  0  0  0  0  0  0  0  0  0  0  0
  132.7362  137.1344  161.5415 C   0  0  0  0  0  0  0  0  0  0  0  0
  134.2200  137.5073  161.5402 C   0  0  0  0  0  0  0  0  0  0  0  0
  134.5906  138.0314  160.2233 N   0  0  0  0  0  0  0  0  0  0  0  0
  135.3280  139.1267  159.9705 C   0  0  0  0  0  0  0  0  0  0  0  0
  135.4330  139.2548  158.6727 N   0  0  0  0  0  0  0  0  0  0  0  0
  134.7790  138.2647  158.0665 C   0  0  0  0  0  0  0  0  0  0  0  0
  134.2415  137.4927  158.9742 N   0  0  0  0  0  0  0  0  0  0  0  0
  128.0889  135.2996  160.8305 O   0  0  0  0  0  0  0  0  0  0  0  0
  127.8157  136.3767  164.1022 C   0  0  0  0  0  0  0  0  0  0  0  0
  128.6703  134.7089  166.4885 H   0  0  0  0  0  0  0  0  0  0  0  0
  127.5527  134.1948  167.7750 H   0  0  0  0  0  0  0  0  0  0  0  0
  126.9327  134.5381  166.1423 H   0  0  0  0  0  0  0  0  0  0  0  0
  128.1676  136.0012  169.2759 H   0  0  0  0  0  0  0  0  0  0  0  0
  127.8111  138.3544  169.9063 H   0  0  0  0  0  0  0  0  0  0  0  0
  126.8905  139.9427  168.2649 H   0  0  0  0  0  0  0  0  0  0  0  0
  126.3348  139.1796  165.9910 H   0  0  0  0  0  0  0  0  0  0  0  0
  126.7639  138.7794  164.2602 H   0  0  0  0  0  0  0  0  0  0  0  0
  125.2260  137.9509  163.7605 H   0  0  0  0  0  0  0  0  0  0  0  0
  125.2766  136.0360  162.3641 H   0  0  0  0  0  0  0  0  0  0  0  0
  125.0769  134.1754  160.4592 H   0  0  0  0  0  0  0  0  0  0  0  0
  126.8926  133.0770  158.7976 H   0  0  0  0  0  0  0  0  0  0  0  0
  132.7856  134.3936  158.6338 H   0  0  0  0  0  0  0  0  0  0  0  0
  130.7875  135.3615  161.4999 H   0  0  0  0  0  0  0  0  0  0  0  0
  130.4662  136.6362  160.2999 H   0  0  0  0  0  0  0  0  0  0  0  0
  132.4604  136.7445  162.5213 H   0  0  0  0  0  0  0  0  0  0  0  0
  132.1390  138.0192  161.3213 H   0  0  0  0  0  0  0  0  0  0  0  0
  134.8173  136.6224  161.7603 H   0  0  0  0  0  0  0  0  0  0  0  0
  134.4042  138.2678  162.2989 H   0  0  0  0  0  0  0  0  0  0  0  0
  135.7583  139.7861  160.7097 H   0  0  0  0  0  0  0  0  0  0  0  0
  134.7015  138.1254  156.9983 H   0  0  0  0  0  0  0  0  0  0  0  0
  127.9912  135.3099  163.9639 H   0  0  0  0  0  0  0  0  0  0  0  0
  128.7122  136.9187  164.4036 H   0  0  0  0  0  0  0  0  0  0  0  0
  1  2  1  0
  1 37  1  0
  1 38  1  0
  1 39  1  0
  2  7  2  0
  2  3  1  0
  3  4  2  0
  3 40  1  0
  4  5  1  0
  4 41  1  0
  5  6  2  0
  5 42  1  0
  6  7  1  0
  6 43  1  0
  7  8  1  0
  8  9  1  1
  8 36  1  0
  8 10  1  0
 10 11  1  0
 10 44  1  0
 10 45  1  0
 11 12  1  6
 11 13  1  0
 11 36  1  0
 13 14  1  0
 13 46  1  0
 14 35  1  0
 14 15  2  0
 15 16  1  0
 15 47  1  0
 16 17  2  0
 16 48  1  0
 17 18  1  0
 17 35  1  0
 18 23  1  0
 18 19  2  0
 19 20  1  0
 20 21  1  0
 20 22  1  0
 22 23  2  0
 22 49  1  0
 23 24  1  0
 24 25  1  0
 24 50  1  0
 24 51  1  0
 25 26  1  0
 25 27  1  0
 25 28  1  0
 28 29  1  0
 28 52  1  0
 28 53  1  0
 29 30  1  0
 29 54  1  0
 29 55  1  0
 30 34  1  0
 30 31  1  0
 31 32  2  0
 31 56  1  0
 32 33  1  0
 33 34  2  0
 33 57  1  0
 36 58  1  0
 36 59  1  0
M  CHG  1  25   1
M  END
>  <DOCK_score>  (1) 
-45.191849

>  <SMILES>  (1) 
Cc1ccccc1[C@H]1C[C@H](Nc2ccc(-c3n[nH]cc3C[NH2+]CCn3cncn3)o2)C1

$$$$
