Nc1ccc(-c2c[nH]c(N[C@@H](C3=CN(C(=O)c4ccccc4)CCC3)c3ccccc3)[nH+]2)cc1
     RDKit          3D

 62 66  0  0  1  0  0  0  0  0999 V2000
  131.2237  129.2295  151.2471 N   0  0  0  0  0  0  0  0  0  0  0  0
  131.0290  129.8853  152.4651 C   0  0  0  0  0  0  0  0  0  0  0  0
  130.1684  130.9743  152.5370 C   0  0  0  0  0  0  0  0  0  0  0  0
  129.9747  131.6232  153.7381 C   0  0  0  0  0  0  0  0  0  0  0  0
  130.6426  131.1860  154.8809 C   0  0  0  0  0  0  0  0  0  0  0  0
  130.4357  131.8826  156.1744 C   0  0  0  0  0  0  0  0  0  0  0  0
  129.9454  131.3275  157.3100 C   0  0  0  0  0  0  0  0  0  0  0  0
  129.9213  132.3203  158.2608 N   0  0  0  0  0  0  0  0  0  0  0  0
  129.6204  132.2299  159.1785 H   0  0  0  0  0  0  0  0  0  0  0  0
  130.3982  133.4529  157.6767 C   0  0  0  0  0  0  0  0  0  0  0  0
  130.5369  134.6830  158.2968 N   0  0  0  0  0  0  0  0  0  0  0  0
  130.1545  134.8422  159.7019 C   0  0  1  0  0  0  0  0  0  0  0  0
  130.4628  133.9610  160.2645 H   0  0  0  0  0  0  0  0  0  0  0  0
  130.8301  136.0632  160.2711 C   0  0  0  0  0  0  0  0  0  0  0  0
  132.0108  135.9243  160.8259 C   0  0  0  0  0  0  0  0  0  0  0  0
  132.6887  137.0036  161.3841 N   0  0  0  0  0  0  0  0  0  0  0  0
  133.7584  136.8040  162.1795 C   0  0  0  0  0  0  0  0  0  0  0  0
  134.1354  135.6732  162.4185 O   0  0  0  0  0  0  0  0  0  0  0  0
  134.4729  137.9597  162.7611 C   0  0  0  0  0  0  0  0  0  0  0  0
  135.5359  138.5459  162.0718 C   0  0  0  0  0  0  0  0  0  0  0  0
  136.2017  139.6214  162.6227 C   0  0  0  0  0  0  0  0  0  0  0  0
  135.8108  140.1260  163.8503 C   0  0  0  0  0  0  0  0  0  0  0  0
  134.7582  139.5493  164.5388 C   0  0  0  0  0  0  0  0  0  0  0  0
  134.0874  138.4701  164.0018 C   0  0  0  0  0  0  0  0  0  0  0  0
  132.2220  138.3658  161.0866 C   0  0  0  0  0  0  0  0  0  0  0  0
  130.6907  138.3683  161.1996 C   0  0  0  0  0  0  0  0  0  0  0  0
  130.1245  137.3854  160.1724 C   0  0  0  0  0  0  0  0  0  0  0  0
  128.6594  135.0034  159.8004 C   0  0  0  0  0  0  0  0  0  0  0  0
  127.9891  134.5592  160.9249 C   0  0  0  0  0  0  0  0  0  0  0  0
  126.6181  134.7108  161.0170 C   0  0  0  0  0  0  0  0  0  0  0  0
  125.9164  135.2984  159.9811 C   0  0  0  0  0  0  0  0  0  0  0  0
  126.5863  135.7383  158.8547 C   0  0  0  0  0  0  0  0  0  0  0  0
  127.9577  135.5904  158.7642 C   0  0  0  0  0  0  0  0  0  0  0  0
  130.6992  133.1889  156.4285 N   0  0  0  0  0  0  0  0  0  0  0  0
  131.0555  133.8254  155.7892 H   0  0  0  0  0  0  0  0  0  0  0  0
  131.5094  130.0969  154.8054 C   0  0  0  0  0  0  0  0  0  0  0  0
  131.6953  129.4472  153.6035 C   0  0  0  0  0  0  0  0  0  0  0  0
  130.7585  129.5340  150.4524 H   0  0  0  0  0  0  0  0  0  0  0  0
  131.8237  128.4689  151.1963 H   0  0  0  0  0  0  0  0  0  0  0  0
  129.6515  131.3129  151.6511 H   0  0  0  0  0  0  0  0  0  0  0  0
  129.3059  132.4694  153.7934 H   0  0  0  0  0  0  0  0  0  0  0  0
  129.6332  130.3021  157.4423 H   0  0  0  0  0  0  0  0  0  0  0  0
  130.8874  135.4394  157.8007 H   0  0  0  0  0  0  0  0  0  0  0  0
  132.4674  134.9461  160.8540 H   0  0  0  0  0  0  0  0  0  0  0  0
  135.8395  138.1555  161.1118 H   0  0  0  0  0  0  0  0  0  0  0  0
  137.0269  140.0732  162.0924 H   0  0  0  0  0  0  0  0  0  0  0  0
  136.3325  140.9708  164.2750 H   0  0  0  0  0  0  0  0  0  0  0  0
  134.4610  139.9453  165.4987 H   0  0  0  0  0  0  0  0  0  0  0  0
  133.2660  138.0209  164.5404 H   0  0  0  0  0  0  0  0  0  0  0  0
  132.6468  139.0672  161.8046 H   0  0  0  0  0  0  0  0  0  0  0  0
  132.5193  138.6460  160.0761 H   0  0  0  0  0  0  0  0  0  0  0  0
  130.3973  138.0588  162.2028 H   0  0  0  0  0  0  0  0  0  0  0  0
  130.3107  139.3702  160.9999 H   0  0  0  0  0  0  0  0  0  0  0  0
  129.0604  137.2414  160.3592 H   0  0  0  0  0  0  0  0  0  0  0  0
  130.2602  137.7927  159.1704 H   0  0  0  0  0  0  0  0  0  0  0  0
  128.5367  134.0967  161.7326 H   0  0  0  0  0  0  0  0  0  0  0  0
  126.0947  134.3669  161.8969 H   0  0  0  0  0  0  0  0  0  0  0  0
  124.8449  135.4139  160.0516 H   0  0  0  0  0  0  0  0  0  0  0  0
  126.0380  136.1973  158.0452 H   0  0  0  0  0  0  0  0  0  0  0  0
  128.4809  135.9337  157.8840 H   0  0  0  0  0  0  0  0  0  0  0  0
  132.0312  129.7594  155.6886 H   0  0  0  0  0  0  0  0  0  0  0  0
  132.3629  128.6001  153.5455 H   0  0  0  0  0  0  0  0  0  0  0  0
  1  2  1  0
  1 38  1  0
  1 39  1  0
  2 37  2  0
  2  3  1  0
  3  4  2  0
  3 40  1  0
  4  5  1  0
  4 41  1  0
  5  6  1  0
  5 36  2  0
  6 34  1  0
  6  7  2  0
  7  8  1  0
  7 42  1  0
  8  9  1  0
  8 10  1  0
 10 11  1  0
 10 34  2  0
 11 12  1  0
 11 43  1  0
 12 13  1  1
 12 14  1  0
 12 28  1  0
 14 27  1  0
 14 15  2  0
 15 16  1  0
 15 44  1  0
 16 17  1  0
 16 25  1  0
 17 18  2  0
 17 19  1  0
 19 24  1  0
 19 20  2  0
 20 21  1  0
 20 45  1  0
 21 22  2  0
 21 46  1  0
 22 23  1  0
 22 47  1  0
 23 24  2  0
 23 48  1  0
 24 49  1  0
 25 26  1  0
 25 50  1  0
 25 51  1  0
 26 27  1  0
 26 52  1  0
 26 53  1  0
 27 54  1  0
 27 55  1  0
 28 33  1  0
 28 29  2  0
 29 30  1  0
 29 56  1  0
 30 31  2  0
 30 57  1  0
 31 32  1  0
 31 58  1  0
 32 33  2  0
 32 59  1  0
 33 60  1  0
 34 35  1  0
 36 37  1  0
 36 61  1  0
 37 62  1  0
M  CHG  1  34   1
M  END
>  <DOCK_score>  (1) 
-58.901215

>  <SMILES>  (1) 
Nc1ccc(-c2c[nH]c(N[C@@H](C3=CN(C(=O)c4ccccc4)CCC3)c3ccccc3)[nH+]2)cc1

$$$$
