Nc1ccc(-c2c[nH]c(N[C@@H](c3ccc(Nc4cccnc4)cc3)c3cccnc3)[nH+]2)cc1
     RDKit          3D

 57 61  0  0  1  0  0  0  0  0999 V2000
  131.3808  129.0639  151.5260 N   0  0  0  0  0  0  0  0  0  0  0  0
  131.1019  129.7954  152.6830 C   0  0  0  0  0  0  0  0  0  0  0  0
  130.1855  130.8402  152.6387 C   0  0  0  0  0  0  0  0  0  0  0  0
  129.9088  131.5644  153.7790 C   0  0  0  0  0  0  0  0  0  0  0  0
  130.5482  131.2481  154.9767 C   0  0  0  0  0  0  0  0  0  0  0  0
  130.2525  132.0261  156.2048 C   0  0  0  0  0  0  0  0  0  0  0  0
  129.7417  131.5311  157.3591 C   0  0  0  0  0  0  0  0  0  0  0  0
  129.6279  132.5886  158.2303 N   0  0  0  0  0  0  0  0  0  0  0  0
  129.2923  132.5504  159.1397 H   0  0  0  0  0  0  0  0  0  0  0  0
  130.0731  133.6986  157.5813 C   0  0  0  0  0  0  0  0  0  0  0  0
  130.1244  134.9765  158.1115 N   0  0  0  0  0  0  0  0  0  0  0  0
  129.6746  135.2184  159.4845 C   0  0  1  0  0  0  0  0  0  0  0  0
  130.0014  134.3984  160.1238 H   0  0  0  0  0  0  0  0  0  0  0  0
  130.2641  136.5116  159.9857 C   0  0  0  0  0  0  0  0  0  0  0  0
  129.9870  137.6965  159.3286 C   0  0  0  0  0  0  0  0  0  0  0  0
  130.5209  138.8841  159.7885 C   0  0  0  0  0  0  0  0  0  0  0  0
  131.3469  138.8860  160.9055 C   0  0  0  0  0  0  0  0  0  0  0  0
  131.8942  140.0847  161.3697 N   0  0  0  0  0  0  0  0  0  0  0  0
  133.1323  140.0831  162.0177 C   0  0  0  0  0  0  0  0  0  0  0  0
  133.2068  139.9202  163.3995 C   0  0  0  0  0  0  0  0  0  0  0  0
  134.4568  139.9251  163.9958 C   0  0  0  0  0  0  0  0  0  0  0  0
  135.5808  140.0898  163.2074 C   0  0  0  0  0  0  0  0  0  0  0  0
  135.4764  140.2422  161.9019 N   0  0  0  0  0  0  0  0  0  0  0  0
  134.3072  140.2379  161.2932 C   0  0  0  0  0  0  0  0  0  0  0  0
  131.6277  137.6932  161.5599 C   0  0  0  0  0  0  0  0  0  0  0  0
  131.0855  136.5100  161.0983 C   0  0  0  0  0  0  0  0  0  0  0  0
  128.1704  135.3081  159.5120 C   0  0  0  0  0  0  0  0  0  0  0  0
  127.4750  135.7800  158.4089 C   0  0  0  0  0  0  0  0  0  0  0  0
  126.0918  135.8408  158.4774 C   0  0  0  0  0  0  0  0  0  0  0  0
  125.4568  135.4412  159.6383 C   0  0  0  0  0  0  0  0  0  0  0  0
  126.1509  135.0024  160.6699 N   0  0  0  0  0  0  0  0  0  0  0  0
  127.4672  134.9267  160.6385 C   0  0  0  0  0  0  0  0  0  0  0  0
  130.4401  133.3595  156.3695 N   0  0  0  0  0  0  0  0  0  0  0  0
  130.7917  133.9651  155.6982 H   0  0  0  0  0  0  0  0  0  0  0  0
  131.4702  130.2034  155.0172 C   0  0  0  0  0  0  0  0  0  0  0  0
  131.7400  129.4784  153.8757 C   0  0  0  0  0  0  0  0  0  0  0  0
  130.9354  129.2846  150.6930 H   0  0  0  0  0  0  0  0  0  0  0  0
  132.0199  128.3349  151.5559 H   0  0  0  0  0  0  0  0  0  0  0  0
  129.6904  131.0849  151.7105 H   0  0  0  0  0  0  0  0  0  0  0  0
  129.1968  132.3758  153.7445 H   0  0  0  0  0  0  0  0  0  0  0  0
  129.4757  130.5032  157.5566 H   0  0  0  0  0  0  0  0  0  0  0  0
  130.4619  135.7109  157.5751 H   0  0  0  0  0  0  0  0  0  0  0  0
  129.3487  137.6937  158.4574 H   0  0  0  0  0  0  0  0  0  0  0  0
  130.3008  139.8098  159.2773 H   0  0  0  0  0  0  0  0  0  0  0  0
  131.4146  140.9183  161.2422 H   0  0  0  0  0  0  0  0  0  0  0  0
  132.3121  139.7930  163.9908 H   0  0  0  0  0  0  0  0  0  0  0  0
  134.5526  139.8011  165.0644 H   0  0  0  0  0  0  0  0  0  0  0  0
  136.5578  140.0944  163.6675 H   0  0  0  0  0  0  0  0  0  0  0  0
  134.2620  140.3608  160.2212 H   0  0  0  0  0  0  0  0  0  0  0  0
  132.2690  137.6911  162.4289 H   0  0  0  0  0  0  0  0  0  0  0  0
  131.3032  135.5823  161.6064 H   0  0  0  0  0  0  0  0  0  0  0  0
  127.9984  136.0891  157.5162 H   0  0  0  0  0  0  0  0  0  0  0  0
  125.5178  136.1996  157.6358 H   0  0  0  0  0  0  0  0  0  0  0  0
  124.3796  135.4887  159.7011 H   0  0  0  0  0  0  0  0  0  0  0  0
  128.0016  134.5620  161.5034 H   0  0  0  0  0  0  0  0  0  0  0  0
  131.9699  129.9592  155.9432 H   0  0  0  0  0  0  0  0  0  0  0  0
  132.4512  128.6663  153.9077 H   0  0  0  0  0  0  0  0  0  0  0  0
  1  2  1  0
  1 37  1  0
  1 38  1  0
  2 36  2  0
  2  3  1  0
  3  4  2  0
  3 39  1  0
  4  5  1  0
  4 40  1  0
  5  6  1  0
  5 35  2  0
  6 33  1  0
  6  7  2  0
  7  8  1  0
  7 41  1  0
  8  9  1  0
  8 10  1  0
 10 11  1  0
 10 33  2  0
 11 12  1  0
 11 42  1  0
 12 13  1  1
 12 14  1  0
 12 27  1  0
 14 26  1  0
 14 15  2  0
 15 16  1  0
 15 43  1  0
 16 17  2  0
 16 44  1  0
 17 18  1  0
 17 25  1  0
 18 19  1  0
 18 45  1  0
 19 24  1  0
 19 20  2  0
 20 21  1  0
 20 46  1  0
 21 22  2  0
 21 47  1  0
 22 23  1  0
 22 48  1  0
 23 24  2  0
 24 49  1  0
 25 26  2  0
 25 50  1  0
 26 51  1  0
 27 32  1  0
 27 28  2  0
 28 29  1  0
 28 52  1  0
 29 30  2  0
 29 53  1  0
 30 31  1  0
 30 54  1  0
 31 32  2  0
 32 55  1  0
 33 34  1  0
 35 36  1  0
 35 56  1  0
 36 57  1  0
M  CHG  1  33   1
M  END
>  <DOCK_score>  (1) 
-59.593384

>  <SMILES>  (1) 
Nc1ccc(-c2c[nH]c(N[C@@H](c3ccc(Nc4cccnc4)cc3)c3cccnc3)[nH+]2)cc1

$$$$
