CC(C)(Cl)C(=O)c1ccc2c(c1)C[C@@H](NC(NC1CC=CC1)=[NH+][C@H]1CCC(=O)NC1)C2
     RDKit          3D

 63 66  0  0  1  0  0  0  0  0999 V2000
  135.3229  139.5820  165.6048 C   0  0  0  0  0  0  0  0  0  0  0  0
  135.1838  140.3988  164.3186 C   0  0  0  0  0  0  0  0  0  0  0  0
  135.9935  141.6909  164.4453 C   0  0  0  0  0  0  0  0  0  0  0  0
  133.4475  140.8018  164.0472 Cl  0  0  0  0  0  0  0  0  0  0  0  0
  135.7008  139.5941  163.1540 C   0  0  0  0  0  0  0  0  0  0  0  0
  136.6254  140.0129  162.4907 O   0  0  0  0  0  0  0  0  0  0  0  0
  135.0835  138.3002  162.8219 C   0  0  0  0  0  0  0  0  0  0  0  0
  135.5687  137.1208  163.3963 C   0  0  0  0  0  0  0  0  0  0  0  0
  134.9845  135.9148  163.0779 C   0  0  0  0  0  0  0  0  0  0  0  0
  133.9177  135.8623  162.1929 C   0  0  0  0  0  0  0  0  0  0  0  0
  133.4321  137.0253  161.6204 C   0  0  0  0  0  0  0  0  0  0  0  0
  134.0094  138.2418  161.9305 C   0  0  0  0  0  0  0  0  0  0  0  0
  132.2761  136.6980  160.6994 C   0  0  0  0  0  0  0  0  0  0  0  0
  131.8264  135.2782  161.1043 C   0  0  1  0  0  0  0  0  0  0  0  0
  131.0392  135.3179  161.8572 H   0  0  0  0  0  0  0  0  0  0  0  0
  131.3851  134.5177  159.9325 N   0  0  0  0  0  0  0  0  0  0  0  0
  130.0672  134.5585  159.5430 C   0  0  0  0  0  0  0  0  0  0  0  0
  129.6530  133.8448  158.4434 N   0  0  0  0  0  0  0  0  0  0  0  0
  130.6160  133.0409  157.6867 C   0  0  0  0  0  0  0  0  0  0  0  0
  130.1145  132.7840  156.2466 C   0  0  0  0  0  0  0  0  0  0  0  0
  130.5496  131.3716  155.9318 C   0  0  0  0  0  0  0  0  0  0  0  0
  130.8668  130.7257  157.0241 C   0  0  0  0  0  0  0  0  0  0  0  0
  130.6963  131.6008  158.2440 C   0  0  0  0  0  0  0  0  0  0  0  0
  129.2104  135.2737  160.2163 N   0  0  0  0  0  0  0  0  0  0  0  0
  129.5036  136.0759  160.6761 H   0  0  0  0  0  0  0  0  0  0  0  0
  127.8047  134.8661  160.2785 C   0  0  1  0  0  0  0  0  0  0  0  0
  127.3876  134.8368  159.2720 H   0  0  0  0  0  0  0  0  0  0  0  0
  127.6994  133.4788  160.9234 C   0  0  0  0  0  0  0  0  0  0  0  0
  126.2494  133.0014  160.8096 C   0  0  0  0  0  0  0  0  0  0  0  0
  125.3174  134.0833  161.2747 C   0  0  0  0  0  0  0  0  0  0  0  0
  124.1786  133.7772  161.5580 O   0  0  0  0  0  0  0  0  0  0  0  0
  125.6749  135.3626  161.3924 N   0  0  0  0  0  0  0  0  0  0  0  0
  127.0187  135.8631  161.1309 C   0  0  0  0  0  0  0  0  0  0  0  0
  133.1194  134.6762  161.6939 C   0  0  0  0  0  0  0  0  0  0  0  0
  136.3725  139.3383  165.7689 H   0  0  0  0  0  0  0  0  0  0  0  0
  134.9489  140.1639  166.4472 H   0  0  0  0  0  0  0  0  0  0  0  0
  134.7461  138.6615  165.5146 H   0  0  0  0  0  0  0  0  0  0  0  0
  135.8946  142.2729  163.5289 H   0  0  0  0  0  0  0  0  0  0  0  0
  135.6196  142.2730  165.2876 H   0  0  0  0  0  0  0  0  0  0  0  0
  137.0432  141.4474  164.6093 H   0  0  0  0  0  0  0  0  0  0  0  0
  136.3984  137.1555  164.0867 H   0  0  0  0  0  0  0  0  0  0  0  0
  135.3588  135.0040  163.5216 H   0  0  0  0  0  0  0  0  0  0  0  0
  133.6298  139.1486  161.4831 H   0  0  0  0  0  0  0  0  0  0  0  0
  132.6056  136.7083  159.6603 H   0  0  0  0  0  0  0  0  0  0  0  0
  131.4626  137.4085  160.8460 H   0  0  0  0  0  0  0  0  0  0  0  0
  132.0227  133.9854  159.4316 H   0  0  0  0  0  0  0  0  0  0  0  0
  128.7233  133.8735  158.1686 H   0  0  0  0  0  0  0  0  0  0  0  0
  131.5983  133.5134  157.6803 H   0  0  0  0  0  0  0  0  0  0  0  0
  129.0285  132.8654  156.2027 H   0  0  0  0  0  0  0  0  0  0  0  0
  130.5757  133.4870  155.5528 H   0  0  0  0  0  0  0  0  0  0  0  0
  130.5925  130.9530  154.9372 H   0  0  0  0  0  0  0  0  0  0  0  0
  131.2067  129.7009  157.0499 H   0  0  0  0  0  0  0  0  0  0  0  0
  131.5545  131.4978  158.9080 H   0  0  0  0  0  0  0  0  0  0  0  0
  129.7768  131.3457  158.7710 H   0  0  0  0  0  0  0  0  0  0  0  0
  128.3570  132.7818  160.4038 H   0  0  0  0  0  0  0  0  0  0  0  0
  127.9847  133.5397  161.9737 H   0  0  0  0  0  0  0  0  0  0  0  0
  126.1109  132.1140  161.4271 H   0  0  0  0  0  0  0  0  0  0  0  0
  126.0305  132.7571  159.7702 H   0  0  0  0  0  0  0  0  0  0  0  0
  124.9982  136.0001  161.6690 H   0  0  0  0  0  0  0  0  0  0  0  0
  127.5369  136.0151  162.0776 H   0  0  0  0  0  0  0  0  0  0  0  0
  126.9492  136.8135  160.6015 H   0  0  0  0  0  0  0  0  0  0  0  0
  132.8819  134.0057  162.5198 H   0  0  0  0  0  0  0  0  0  0  0  0
  133.6750  134.1441  160.9217 H   0  0  0  0  0  0  0  0  0  0  0  0
  1  2  1  0
  1 35  1  0
  1 36  1  0
  1 37  1  0
  2  3  1  0
  2  4  1  0
  2  5  1  0
  3 38  1  0
  3 39  1  0
  3 40  1  0
  5  6  2  0
  5  7  1  0
  7 12  2  0
  7  8  1  0
  8  9  2  0
  8 41  1  0
  9 10  1  0
  9 42  1  0
 10 34  1  0
 10 11  2  0
 11 12  1  0
 11 13  1  0
 12 43  1  0
 13 14  1  0
 13 44  1  0
 13 45  1  0
 14 15  1  1
 14 16  1  0
 14 34  1  0
 16 46  1  0
 17 16  1  0
 17 18  1  0
 17 24  2  0
 18 19  1  0
 18 47  1  0
 19 23  1  0
 19 20  1  0
 19 48  1  0
 20 21  1  0
 20 49  1  0
 20 50  1  0
 21 22  2  0
 21 51  1  0
 22 23  1  0
 22 52  1  0
 23 53  1  0
 23 54  1  0
 24 25  1  0
 24 26  1  0
 26 27  1  6
 26 33  1  0
 26 28  1  0
 28 29  1  0
 28 55  1  0
 28 56  1  0
 29 30  1  0
 29 57  1  0
 29 58  1  0
 30 31  2  0
 30 32  1  0
 32 33  1  0
 32 59  1  0
 33 60  1  0
 33 61  1  0
 34 62  1  0
 34 63  1  0
M  CHG  1  24   1
M  END
>  <DOCK_score>  (1) 
-45.177692

>  <SMILES>  (1) 
CC(C)(Cl)C(=O)c1ccc2c(c1)C[C@@H](NC(NC1CC=CC1)=[NH+][C@H]1CCC(=O)NC1)C2

$$$$
