CCc1nnc(Sc2ccc(-n3cc(CN[C@H]4CCCC=C4[NH2+]C4C=CCCC4)c(C)n3)cc2)[nH]1
     RDKit          3D

 71 75  0  0  1  0  0  0  0  0999 V2000
  135.8605  141.1934  168.3811 C   0  0  0  0  0  0  0  0  0  0  0  0
  135.1794  142.1783  167.4286 C   0  0  0  0  0  0  0  0  0  0  0  0
  136.0634  142.4113  166.2306 C   0  0  0  0  0  0  0  0  0  0  0  0
  136.9812  143.3292  166.1147 N   0  0  0  0  0  0  0  0  0  0  0  0
  137.5421  143.2492  164.9612 N   0  0  0  0  0  0  0  0  0  0  0  0
  137.0114  142.2641  164.2748 C   0  0  0  0  0  0  0  0  0  0  0  0
  137.4518  141.7679  162.6430 S   0  0  0  0  0  0  0  0  0  0  0  0
  136.3350  140.4236  162.4196 C   0  0  0  0  0  0  0  0  0  0  0  0
  135.0744  140.6494  161.8801 C   0  0  0  0  0  0  0  0  0  0  0  0
  134.2019  139.5953  161.7007 C   0  0  0  0  0  0  0  0  0  0  0  0
  134.5796  138.3107  162.0686 C   0  0  0  0  0  0  0  0  0  0  0  0
  133.6905  137.2403  161.8910 N   0  0  0  0  0  0  0  0  0  0  0  0
  132.4408  137.3203  161.3813 C   0  0  0  0  0  0  0  0  0  0  0  0
  131.9181  136.0719  161.3746 C   0  0  0  0  0  0  0  0  0  0  0  0
  130.5450  135.6883  160.8860 C   0  0  0  0  0  0  0  0  0  0  0  0
  130.6089  135.3569  159.4562 N   0  0  0  0  0  0  0  0  0  0  0  0
  129.2855  134.9773  158.9442 C   0  0  1  0  0  0  0  0  0  0  0  0
  128.9230  134.1062  159.4900 H   0  0  0  0  0  0  0  0  0  0  0  0
  128.3120  136.1412  159.1424 C   0  0  0  0  0  0  0  0  0  0  0  0
  127.0206  135.8295  158.3755 C   0  0  0  0  0  0  0  0  0  0  0  0
  127.3305  135.8503  156.8771 C   0  0  0  0  0  0  0  0  0  0  0  0
  128.5422  135.0135  156.5882 C   0  0  0  0  0  0  0  0  0  0  0  0
  129.3949  134.6375  157.4866 C   0  0  0  0  0  0  0  0  0  0  0  0
  130.4858  133.8672  157.0732 N   0  0  0  0  0  0  0  0  0  0  0  0
  130.7271  134.1082  156.1236 H   0  0  0  0  0  0  0  0  0  0  0  0
  131.2737  134.0487  157.6768 H   0  0  0  0  0  0  0  0  0  0  0  0
  130.1338  132.4426  157.1425 C   0  0  1  0  0  0  0  0  0  0  0  0
  131.0593  131.6581  156.2594 C   0  0  0  0  0  0  0  0  0  0  0  0
  131.5937  130.5269  156.5919 C   0  0  0  0  0  0  0  0  0  0  0  0
  131.3707  129.8472  157.9111 C   0  0  0  0  0  0  0  0  0  0  0  0
  130.1372  130.4313  158.6031 C   0  0  0  0  0  0  0  0  0  0  0  0
  130.2552  131.9599  158.5895 C   0  0  0  0  0  0  0  0  0  0  0  0
  132.8754  135.2012  161.9059 C   0  0  0  0  0  0  0  0  0  0  0  0
  132.7120  133.7143  162.0894 C   0  0  0  0  0  0  0  0  0  0  0  0
  133.9379  135.9003  162.2158 N   0  0  0  0  0  0  0  0  0  0  0  0
  135.8373  138.0853  162.6128 C   0  0  0  0  0  0  0  0  0  0  0  0
  136.7124  139.1379  162.7878 C   0  0  0  0  0  0  0  0  0  0  0  0
  136.0532  141.6965  165.0652 N   0  0  0  0  0  0  0  0  0  0  0  0
  135.4813  140.9450  164.8439 H   0  0  0  0  0  0  0  0  0  0  0  0
  136.8148  141.6056  168.7085 H   0  0  0  0  0  0  0  0  0  0  0  0
  135.2211  141.0250  169.2477 H   0  0  0  0  0  0  0  0  0  0  0  0
  136.0304  140.2481  167.8657 H   0  0  0  0  0  0  0  0  0  0  0  0
  135.0093  143.1237  167.9439 H   0  0  0  0  0  0  0  0  0  0  0  0
  134.2249  141.7661  167.1013 H   0  0  0  0  0  0  0  0  0  0  0  0
  134.7787  141.6492  161.5982 H   0  0  0  0  0  0  0  0  0  0  0  0
  133.2235  139.7702  161.2782 H   0  0  0  0  0  0  0  0  0  0  0  0
  131.9488  138.2188  161.0391 H   0  0  0  0  0  0  0  0  0  0  0  0
  130.1895  134.8222  161.4441 H   0  0  0  0  0  0  0  0  0  0  0  0
  129.8599  136.5229  161.0352 H   0  0  0  0  0  0  0  0  0  0  0  0
  130.9964  136.1221  158.9247 H   0  0  0  0  0  0  0  0  0  0  0  0
  128.0895  136.2563  160.2032 H   0  0  0  0  0  0  0  0  0  0  0  0
  128.7549  137.0592  158.7560 H   0  0  0  0  0  0  0  0  0  0  0  0
  126.6544  134.8432  158.6603 H   0  0  0  0  0  0  0  0  0  0  0  0
  126.2662  136.5814  158.6073 H   0  0  0  0  0  0  0  0  0  0  0  0
  126.4776  135.4534  156.3262 H   0  0  0  0  0  0  0  0  0  0  0  0
  127.5163  136.8766  156.5608 H   0  0  0  0  0  0  0  0  0  0  0  0
  128.7132  134.7054  155.5673 H   0  0  0  0  0  0  0  0  0  0  0  0
  129.1075  132.3070  156.8013 H   0  0  0  0  0  0  0  0  0  0  0  0
  131.2939  132.0621  155.2857 H   0  0  0  0  0  0  0  0  0  0  0  0
  132.2399  130.0420  155.8752 H   0  0  0  0  0  0  0  0  0  0  0  0
  131.2214  128.7800  157.7471 H   0  0  0  0  0  0  0  0  0  0  0  0
  132.2436  129.9965  158.5466 H   0  0  0  0  0  0  0  0  0  0  0  0
  129.2380  130.1270  158.0675 H   0  0  0  0  0  0  0  0  0  0  0  0
  130.0919  130.0759  159.6327 H   0  0  0  0  0  0  0  0  0  0  0  0
  131.2219  132.2582  158.9954 H   0  0  0  0  0  0  0  0  0  0  0  0
  129.4537  132.3925  159.1885 H   0  0  0  0  0  0  0  0  0  0  0  0
  132.2936  133.5138  163.0757 H   0  0  0  0  0  0  0  0  0  0  0  0
  132.0405  133.3254  161.3240 H   0  0  0  0  0  0  0  0  0  0  0  0
  133.6838  133.2285  162.0013 H   0  0  0  0  0  0  0  0  0  0  0  0
  136.1304  137.0861  162.8993 H   0  0  0  0  0  0  0  0  0  0  0  0
  137.6904  138.9625  163.2112 H   0  0  0  0  0  0  0  0  0  0  0  0
  1  2  1  0
  1 40  1  0
  1 41  1  0
  1 42  1  0
  2  3  1  0
  2 43  1  0
  2 44  1  0
  3 38  1  0
  3  4  2  0
  4  5  1  0
  5  6  2  0
  6  7  1  0
  6 38  1  0
  7  8  1  0
  8 37  1  0
  8  9  2  0
  9 10  1  0
  9 45  1  0
 10 11  2  0
 10 46  1  0
 11 12  1  0
 11 36  1  0
 12 35  1  0
 12 13  1  0
 13 14  2  0
 13 47  1  0
 14 15  1  0
 14 33  1  0
 15 16  1  0
 15 48  1  0
 15 49  1  0
 16 17  1  0
 16 50  1  0
 17 18  1  1
 17 23  1  0
 17 19  1  0
 19 20  1  0
 19 51  1  0
 19 52  1  0
 20 21  1  0
 20 53  1  0
 20 54  1  0
 21 22  1  0
 21 55  1  0
 21 56  1  0
 22 23  2  0
 22 57  1  0
 23 24  1  0
 24 25  1  0
 24 26  1  0
 24 27  1  0
 27 32  1  0
 27 28  1  0
 27 58  1  6
 28 29  2  0
 28 59  1  0
 29 30  1  0
 29 60  1  0
 30 31  1  0
 30 61  1  0
 30 62  1  0
 31 32  1  0
 31 63  1  0
 31 64  1  0
 32 65  1  0
 32 66  1  0
 33 34  1  0
 33 35  2  0
 34 67  1  0
 34 68  1  0
 34 69  1  0
 36 37  2  0
 36 70  1  0
 37 71  1  0
 38 39  1  0
M  CHG  1  24   1
M  END
>  <DOCK_score>  (1) 
-60.499619

>  <SMILES>  (1) 
CCc1nnc(Sc2ccc(-n3cc(CN[C@H]4CCCC=C4[NH2+]C4C=CCCC4)c(C)n3)cc2)[nH]1

$$$$
