Cc1cccc(N2CC[NH+](C(c3ccccc3)c3ccccc3)CC2)c1-c1ccccc1CC1=CCCC1
     RDKit          3D

 77 82  0  0  1  0  0  0  0  0999 V2000
  136.0943  141.1629  162.8035 C   0  0  0  0  0  0  0  0  0  0  0  0
  135.4239  140.5495  161.6012 C   0  0  0  0  0  0  0  0  0  0  0  0
  135.6755  141.0502  160.3396 C   0  0  0  0  0  0  0  0  0  0  0  0
  135.0666  140.4879  159.2316 C   0  0  0  0  0  0  0  0  0  0  0  0
  134.1933  139.4273  159.3786 C   0  0  0  0  0  0  0  0  0  0  0  0
  133.9267  138.9169  160.6408 C   0  0  0  0  0  0  0  0  0  0  0  0
  133.0460  137.8460  160.7914 N   0  0  0  0  0  0  0  0  0  0  0  0
  133.5626  136.6415  160.1262 C   0  0  0  0  0  0  0  0  0  0  0  0
  132.5986  135.4774  160.3649 C   0  0  0  0  0  0  0  0  0  0  0  0
  131.2737  135.8215  159.8324 N   0  0  0  0  0  0  0  0  0  0  0  0
  131.3477  136.0123  158.8445 H   0  0  0  0  0  0  0  0  0  0  0  0
  130.3532  134.6966  160.0457 C   0  0  0  0  0  0  0  0  0  0  0  0
  128.9938  135.0495  159.4994 C   0  0  0  0  0  0  0  0  0  0  0  0
  127.8575  134.5065  160.0694 C   0  0  0  0  0  0  0  0  0  0  0  0
  126.6102  134.8338  159.5714 C   0  0  0  0  0  0  0  0  0  0  0  0
  126.4994  135.6960  158.4973 C   0  0  0  0  0  0  0  0  0  0  0  0
  127.6364  136.2351  157.9232 C   0  0  0  0  0  0  0  0  0  0  0  0
  128.8833  135.9117  158.4245 C   0  0  0  0  0  0  0  0  0  0  0  0
  130.8788  133.4759  159.3353 C   0  0  0  0  0  0  0  0  0  0  0  0
  130.5076  133.2238  158.0277 C   0  0  0  0  0  0  0  0  0  0  0  0
  130.9936  132.1066  157.3746 C   0  0  0  0  0  0  0  0  0  0  0  0
  131.8423  131.2359  158.0323 C   0  0  0  0  0  0  0  0  0  0  0  0
  132.2093  131.4854  159.3416 C   0  0  0  0  0  0  0  0  0  0  0  0
  131.7274  132.6053  159.9929 C   0  0  0  0  0  0  0  0  0  0  0  0
  130.7603  137.0117  160.5235 C   0  0  0  0  0  0  0  0  0  0  0  0
  131.7091  138.1886  160.2861 C   0  0  0  0  0  0  0  0  0  0  0  0
  134.5460  139.4810  161.7627 C   0  0  0  0  0  0  0  0  0  0  0  0
  134.2675  138.9432  163.1165 C   0  0  0  0  0  0  0  0  0  0  0  0
  133.2216  139.4658  163.8755 C   0  0  0  0  0  0  0  0  0  0  0  0
  132.9633  138.9574  165.1319 C   0  0  0  0  0  0  0  0  0  0  0  0
  133.7476  137.9391  165.6437 C   0  0  0  0  0  0  0  0  0  0  0  0
  134.7908  137.4210  164.8977 C   0  0  0  0  0  0  0  0  0  0  0  0
  135.0544  137.9175  163.6371 C   0  0  0  0  0  0  0  0  0  0  0  0
  136.1906  137.3513  162.8251 C   0  0  0  0  0  0  0  0  0  0  0  0
  136.8761  136.2633  163.6108 C   0  0  0  0  0  0  0  0  0  0  0  0
  136.5443  135.0016  163.5695 C   0  0  0  0  0  0  0  0  0  0  0  0
  137.4297  134.1762  164.4737 C   0  0  0  0  0  0  0  0  0  0  0  0
  138.1053  135.2058  165.4088 C   0  0  0  0  0  0  0  0  0  0  0  0
  138.0423  136.4887  164.5448 C   0  0  0  0  0  0  0  0  0  0  0  0
  136.9897  140.5926  163.0506 H   0  0  0  0  0  0  0  0  0  0  0  0
  135.4079  141.1465  163.6501 H   0  0  0  0  0  0  0  0  0  0  0  0
  136.3702  142.1933  162.5794 H   0  0  0  0  0  0  0  0  0  0  0  0
  136.3537  141.8818  160.2165 H   0  0  0  0  0  0  0  0  0  0  0  0
  135.2714  140.8829  158.2475 H   0  0  0  0  0  0  0  0  0  0  0  0
  133.7183  138.9951  158.5103 H   0  0  0  0  0  0  0  0  0  0  0  0
  133.6509  136.8269  159.0557 H   0  0  0  0  0  0  0  0  0  0  0  0
  134.5420  136.3923  160.5346 H   0  0  0  0  0  0  0  0  0  0  0  0
  132.5210  135.2834  161.4348 H   0  0  0  0  0  0  0  0  0  0  0  0
  132.9727  134.5865  159.8604 H   0  0  0  0  0  0  0  0  0  0  0  0
  130.2735  134.4898  161.1129 H   0  0  0  0  0  0  0  0  0  0  0  0
  127.9440  133.8292  160.9063 H   0  0  0  0  0  0  0  0  0  0  0  0
  125.7224  134.4124  160.0191 H   0  0  0  0  0  0  0  0  0  0  0  0
  125.5257  135.9485  158.1046 H   0  0  0  0  0  0  0  0  0  0  0  0
  127.5501  136.9085  157.0833 H   0  0  0  0  0  0  0  0  0  0  0  0
  129.7713  136.3326  157.9765 H   0  0  0  0  0  0  0  0  0  0  0  0
  129.8411  133.9016  157.5154 H   0  0  0  0  0  0  0  0  0  0  0  0
  130.7066  131.9116  156.3517 H   0  0  0  0  0  0  0  0  0  0  0  0
  132.2185  130.3608  157.5234 H   0  0  0  0  0  0  0  0  0  0  0  0
  132.8721  130.8051  159.8554 H   0  0  0  0  0  0  0  0  0  0  0  0
  132.0139  132.8000  161.0160 H   0  0  0  0  0  0  0  0  0  0  0  0
  130.6921  136.8099  161.5925 H   0  0  0  0  0  0  0  0  0  0  0  0
  129.7716  137.2583  160.1366 H   0  0  0  0  0  0  0  0  0  0  0  0
  131.3362  139.0680  160.8111 H   0  0  0  0  0  0  0  0  0  0  0  0
  131.7669  138.3998  159.2184 H   0  0  0  0  0  0  0  0  0  0  0  0
  132.6117  140.2641  163.4789 H   0  0  0  0  0  0  0  0  0  0  0  0
  132.1503  139.3585  165.7190 H   0  0  0  0  0  0  0  0  0  0  0  0
  133.5445  137.5470  166.6292 H   0  0  0  0  0  0  0  0  0  0  0  0
  135.3998  136.6261  165.3021 H   0  0  0  0  0  0  0  0  0  0  0  0
  135.8015  136.9374  161.8948 H   0  0  0  0  0  0  0  0  0  0  0  0
  136.9058  138.1424  162.5998 H   0  0  0  0  0  0  0  0  0  0  0  0
  135.7417  134.6004  162.9683 H   0  0  0  0  0  0  0  0  0  0  0  0
  136.8310  133.4730  165.0527 H   0  0  0  0  0  0  0  0  0  0  0  0
  138.1803  133.6450  163.8883 H   0  0  0  0  0  0  0  0  0  0  0  0
  137.5407  135.3241  166.3335 H   0  0  0  0  0  0  0  0  0  0  0  0
  139.1385  134.9271  165.6162 H   0  0  0  0  0  0  0  0  0  0  0  0
  138.9646  136.6133  163.9776 H   0  0  0  0  0  0  0  0  0  0  0  0
  137.8619  137.3603  165.1740 H   0  0  0  0  0  0  0  0  0  0  0  0
  1  2  1  0
  1 40  1  0
  1 41  1  0
  1 42  1  0
  2 27  2  0
  2  3  1  0
  3  4  2  0
  3 43  1  0
  4  5  1  0
  4 44  1  0
  5  6  2  0
  5 45  1  0
  6  7  1  0
  6 27  1  0
  7 26  1  0
  7  8  1  0
  8  9  1  0
  8 46  1  0
  8 47  1  0
  9 10  1  0
  9 48  1  0
  9 49  1  0
 10 11  1  0
 10 12  1  0
 10 25  1  0
 12 13  1  0
 12 19  1  0
 12 50  1  0
 13 18  1  0
 13 14  2  0
 14 15  1  0
 14 51  1  0
 15 16  2  0
 15 52  1  0
 16 17  1  0
 16 53  1  0
 17 18  2  0
 17 54  1  0
 18 55  1  0
 19 24  1  0
 19 20  2  0
 20 21  1  0
 20 56  1  0
 21 22  2  0
 21 57  1  0
 22 23  1  0
 22 58  1  0
 23 24  2  0
 23 59  1  0
 24 60  1  0
 25 26  1  0
 25 61  1  0
 25 62  1  0
 26 63  1  0
 26 64  1  0
 27 28  1  0
 28 33  1  0
 28 29  2  0
 29 30  1  0
 29 65  1  0
 30 31  2  0
 30 66  1  0
 31 32  1  0
 31 67  1  0
 32 33  2  0
 32 68  1  0
 33 34  1  0
 34 35  1  0
 34 69  1  0
 34 70  1  0
 35 39  1  0
 35 36  2  0
 36 37  1  0
 36 71  1  0
 37 38  1  0
 37 72  1  0
 37 73  1  0
 38 39  1  0
 38 74  1  0
 38 75  1  0
 39 76  1  0
 39 77  1  0
M  CHG  1  10   1
M  END
>  <DOCK_score>  (1) 
-63.974766

>  <SMILES>  (1) 
Cc1cccc(N2CC[NH+](C(c3ccccc3)c3ccccc3)CC2)c1-c1ccccc1CC1=CCCC1

$$$$
