O=C(c1c[nH]nc1[C@H]1CCC[NH2+]C1)N(c1cccnc1Cl)C1C=C(c2ccccc2)C1
     RDKit          3D

 56 60  0  0  1  0  0  0  0  0999 V2000
  130.0774  134.2209  163.0522 O   0  0  0  0  0  0  0  0  0  0  0  0
  129.9320  135.2525  162.4249 C   0  0  0  0  0  0  0  0  0  0  0  0
  128.6949  135.4795  161.6561 C   0  0  0  0  0  0  0  0  0  0  0  0
  127.5436  136.0865  162.1165 C   0  0  0  0  0  0  0  0  0  0  0  0
  126.6606  136.0929  161.1051 N   0  0  0  0  0  0  0  0  0  0  0  0
  125.7622  136.4568  161.1394 H   0  0  0  0  0  0  0  0  0  0  0  0
  127.2548  135.4855  159.9933 N   0  0  0  0  0  0  0  0  0  0  0  0
  128.4675  135.1222  160.3082 C   0  0  0  0  0  0  0  0  0  0  0  0
  129.4521  134.4381  159.3951 C   0  0  1  0  0  0  0  0  0  0  0  0
  130.4668  134.7153  159.6810 H   0  0  0  0  0  0  0  0  0  0  0  0
  129.2856  132.9200  159.5089 C   0  0  0  0  0  0  0  0  0  0  0  0
  130.2353  132.2366  158.5208 C   0  0  0  0  0  0  0  0  0  0  0  0
  129.9462  132.7475  157.1077 C   0  0  0  0  0  0  0  0  0  0  0  0
  130.1485  134.2004  157.0578 N   0  0  0  0  0  0  0  0  0  0  0  0
  131.0889  134.4184  157.3514 H   0  0  0  0  0  0  0  0  0  0  0  0
  130.0080  134.5263  156.1133 H   0  0  0  0  0  0  0  0  0  0  0  0
  129.1928  134.8681  157.9498 C   0  0  0  0  0  0  0  0  0  0  0  0
  130.9020  136.1882  162.4325 N   0  0  0  0  0  0  0  0  0  0  0  0
  132.0764  135.9725  163.1625 C   0  0  0  0  0  0  0  0  0  0  0  0
  132.1644  136.3719  164.4932 C   0  0  0  0  0  0  0  0  0  0  0  0
  133.3478  136.1365  165.1745 C   0  0  0  0  0  0  0  0  0  0  0  0
  134.3943  135.5179  164.5168 C   0  0  0  0  0  0  0  0  0  0  0  0
  134.2803  135.1511  163.2550 N   0  0  0  0  0  0  0  0  0  0  0  0
  133.1704  135.3513  162.5711 C   0  0  0  0  0  0  0  0  0  0  0  0
  133.0772  134.8404  160.9147 Cl  0  0  0  0  0  0  0  0  0  0  0  0
  130.7269  137.4309  161.6768 C   0  0  2  0  0  0  0  0  0  0  0  0
  131.7260  137.6369  160.5667 C   0  0  0  0  0  0  0  0  0  0  0  0
  132.3609  138.6830  161.0790 C   0  0  0  0  0  0  0  0  0  0  0  0
  133.4893  139.5364  160.6513 C   0  0  0  0  0  0  0  0  0  0  0  0
  133.9174  140.5894  161.4606 C   0  0  0  0  0  0  0  0  0  0  0  0
  134.9680  141.3856  161.0532 C   0  0  0  0  0  0  0  0  0  0  0  0
  135.6045  141.1342  159.8510 C   0  0  0  0  0  0  0  0  0  0  0  0
  135.1848  140.0919  159.0439 C   0  0  0  0  0  0  0  0  0  0  0  0
  134.1317  139.2921  159.4370 C   0  0  0  0  0  0  0  0  0  0  0  0
  131.4459  138.6416  162.2766 C   0  0  0  0  0  0  0  0  0  0  0  0
  127.3828  136.4833  163.1080 H   0  0  0  0  0  0  0  0  0  0  0  0
  129.5248  132.6021  160.5237 H   0  0  0  0  0  0  0  0  0  0  0  0
  128.2564  132.6476  159.2748 H   0  0  0  0  0  0  0  0  0  0  0  0
  131.2664  132.4681  158.7878 H   0  0  0  0  0  0  0  0  0  0  0  0
  130.0834  131.1579  158.5568 H   0  0  0  0  0  0  0  0  0  0  0  0
  130.6205  132.2628  156.4016 H   0  0  0  0  0  0  0  0  0  0  0  0
  128.9148  132.5157  156.8419 H   0  0  0  0  0  0  0  0  0  0  0  0
  128.1777  134.5913  157.6653 H   0  0  0  0  0  0  0  0  0  0  0  0
  129.3110  135.9485  157.8658 H   0  0  0  0  0  0  0  0  0  0  0  0
  131.3306  136.8530  164.9826 H   0  0  0  0  0  0  0  0  0  0  0  0
  133.4511  136.4327  166.2079 H   0  0  0  0  0  0  0  0  0  0  0  0
  135.3189  135.3327  165.0435 H   0  0  0  0  0  0  0  0  0  0  0  0
  129.6929  137.6196  161.3874 H   0  0  0  0  0  0  0  0  0  0  0  0
  131.8779  137.0998  159.6422 H   0  0  0  0  0  0  0  0  0  0  0  0
  133.4244  140.7837  162.4017 H   0  0  0  0  0  0  0  0  0  0  0  0
  135.2971  142.2040  161.6764 H   0  0  0  0  0  0  0  0  0  0  0  0
  136.4295  141.7575  159.5387 H   0  0  0  0  0  0  0  0  0  0  0  0
  135.6829  139.9039  158.1041 H   0  0  0  0  0  0  0  0  0  0  0  0
  133.8050  138.4787  158.8061 H   0  0  0  0  0  0  0  0  0  0  0  0
  131.9668  138.4138  163.2065 H   0  0  0  0  0  0  0  0  0  0  0  0
  130.8086  139.5221  162.3600 H   0  0  0  0  0  0  0  0  0  0  0  0
  1  2  2  0
  2  3  1  0
  2 18  1  0
  3  8  1  0
  3  4  2  0
  4  5  1  0
  4 36  1  0
  5  6  1  0
  5  7  1  0
  7  8  2  0
  8  9  1  0
  9 10  1  1
  9 17  1  0
  9 11  1  0
 11 12  1  0
 11 37  1  0
 11 38  1  0
 12 13  1  0
 12 39  1  0
 12 40  1  0
 13 14  1  0
 13 41  1  0
 13 42  1  0
 14 15  1  0
 14 16  1  0
 14 17  1  0
 17 43  1  0
 17 44  1  0
 18 19  1  0
 18 26  1  0
 19 24  1  0
 19 20  2  0
 20 21  1  0
 20 45  1  0
 21 22  2  0
 21 46  1  0
 22 23  1  0
 22 47  1  0
 23 24  2  0
 24 25  1  0
 26 35  1  0
 26 27  1  0
 26 48  1  6
 27 28  2  0
 27 49  1  0
 28 29  1  0
 28 35  1  0
 29 34  1  0
 29 30  2  0
 30 31  1  0
 30 50  1  0
 31 32  2  0
 31 51  1  0
 32 33  1  0
 32 52  1  0
 33 34  2  0
 33 53  1  0
 34 54  1  0
 35 55  1  0
 35 56  1  0
M  CHG  1  14   1
M  END
>  <DOCK_score>  (1) 
-45.573772

>  <SMILES>  (1) 
O=C(c1c[nH]nc1[C@H]1CCC[NH2+]C1)N(c1cccnc1Cl)C1C=C(c2ccccc2)C1

$$$$
