[NH3+][C@H](CCC#CCCCc1cccc2ccccc12)C(=O)Nc1cccc(O)c1
     RDKit          3D

 56 58  0  0  1  0  0  0  0  0999 V2000
  130.6518  133.7949  157.1594 N   0  0  0  0  0  0  0  0  0  0  0  0
  129.9664  134.3801  156.7055 H   0  0  0  0  0  0  0  0  0  0  0  0
  131.5778  134.1346  156.9465 H   0  0  0  0  0  0  0  0  0  0  0  0
  130.5569  132.8467  156.8277 H   0  0  0  0  0  0  0  0  0  0  0  0
  130.4397  133.8290  158.6125 C   0  0  2  0  0  0  0  0  0  0  0  0
  130.5421  134.8534  158.9708 H   0  0  0  0  0  0  0  0  0  0  0  0
  131.4790  132.9418  159.3007 C   0  0  0  0  0  0  0  0  0  0  0  0
  131.5980  133.3430  160.7723 C   0  0  0  0  0  0  0  0  0  0  0  0
  132.0167  134.7513  160.8644 C   0  0  0  0  0  0  0  0  0  0  0  0
  132.3505  135.8745  160.9380 C   0  0  0  0  0  0  0  0  0  0  0  0
  132.7692  137.2826  161.0303 C   0  0  0  0  0  0  0  0  0  0  0  0
  131.7298  138.1697  160.3420 C   0  0  0  0  0  0  0  0  0  0  0  0
  132.1651  139.6334  160.4379 C   0  0  0  0  0  0  0  0  0  0  0  0
  132.2821  140.0286  161.8876 C   0  0  0  0  0  0  0  0  0  0  0  0
  133.4634  139.8729  162.5459 C   0  0  0  0  0  0  0  0  0  0  0  0
  133.5894  140.2280  163.8873 C   0  0  0  0  0  0  0  0  0  0  0  0
  132.5378  140.7512  164.5754 C   0  0  0  0  0  0  0  0  0  0  0  0
  131.3025  140.9263  163.9295 C   0  0  0  0  0  0  0  0  0  0  0  0
  130.1928  141.4583  164.6086 C   0  0  0  0  0  0  0  0  0  0  0  0
  129.0120  141.6145  163.9501 C   0  0  0  0  0  0  0  0  0  0  0  0
  128.8845  141.2538  162.6099 C   0  0  0  0  0  0  0  0  0  0  0  0
  129.9371  140.7360  161.9203 C   0  0  0  0  0  0  0  0  0  0  0  0
  131.1728  140.5600  162.5664 C   0  0  0  0  0  0  0  0  0  0  0  0
  129.0566  133.3217  158.9304 C   0  0  0  0  0  0  0  0  0  0  0  0
  128.5326  132.4981  158.2105 O   0  0  0  0  0  0  0  0  0  0  0  0
  128.4023  133.7831  160.0145 N   0  0  0  0  0  0  0  0  0  0  0  0
  127.1183  133.3119  160.3096 C   0  0  0  0  0  0  0  0  0  0  0  0
  126.7485  132.0239  159.9423 C   0  0  0  0  0  0  0  0  0  0  0  0
  125.4831  131.5566  160.2391 C   0  0  0  0  0  0  0  0  0  0  0  0
  124.5776  132.3724  160.8909 C   0  0  0  0  0  0  0  0  0  0  0  0
  124.9395  133.6616  161.2551 C   0  0  0  0  0  0  0  0  0  0  0  0
  124.0481  134.4626  161.8959 O   0  0  0  0  0  0  0  0  0  0  0  0
  126.2107  134.1320  160.9645 C   0  0  0  0  0  0  0  0  0  0  0  0
  132.4447  133.0665  158.8108 H   0  0  0  0  0  0  0  0  0  0  0  0
  131.1689  131.8991  159.2323 H   0  0  0  0  0  0  0  0  0  0  0  0
  132.3384  132.7110  161.2625 H   0  0  0  0  0  0  0  0  0  0  0  0
  130.6323  133.2184  161.2621 H   0  0  0  0  0  0  0  0  0  0  0  0
  133.7350  137.4073  160.5405 H   0  0  0  0  0  0  0  0  0  0  0  0
  132.8540  137.5685  162.0786 H   0  0  0  0  0  0  0  0  0  0  0  0
  130.7642  138.0449  160.8318 H   0  0  0  0  0  0  0  0  0  0  0  0
  131.6453  137.8838  159.2937 H   0  0  0  0  0  0  0  0  0  0  0  0
  131.4248  140.2656  159.9476 H   0  0  0  0  0  0  0  0  0  0  0  0
  133.1309  139.7581  159.9483 H   0  0  0  0  0  0  0  0  0  0  0  0
  134.3145  139.4637  162.0218 H   0  0  0  0  0  0  0  0  0  0  0  0
  134.5366  140.0900  164.3874 H   0  0  0  0  0  0  0  0  0  0  0  0
  132.6515  141.0262  165.6137 H   0  0  0  0  0  0  0  0  0  0  0  0
  130.2766  141.7415  165.6475 H   0  0  0  0  0  0  0  0  0  0  0  0
  128.1610  142.0235  164.4743 H   0  0  0  0  0  0  0  0  0  0  0  0
  127.9358  141.3875  162.1111 H   0  0  0  0  0  0  0  0  0  0  0  0
  129.8237  140.4617  160.8819 H   0  0  0  0  0  0  0  0  0  0  0  0
  128.8214  134.4417  160.5902 H   0  0  0  0  0  0  0  0  0  0  0  0
  127.4527  131.3862  159.4286 H   0  0  0  0  0  0  0  0  0  0  0  0
  125.1991  130.5536  159.9570 H   0  0  0  0  0  0  0  0  0  0  0  0
  123.5873  132.0059  161.1174 H   0  0  0  0  0  0  0  0  0  0  0  0
  124.3910  135.3414  162.1086 H   0  0  0  0  0  0  0  0  0  0  0  0
  126.4942  135.1350  161.2475 H   0  0  0  0  0  0  0  0  0  0  0  0
  1  2  1  0
  1  3  1  0
  1  4  1  0
  1  5  1  0
  5  6  1  1
  5  7  1  0
  5 24  1  0
  7  8  1  0
  7 34  1  0
  7 35  1  0
  8  9  1  0
  8 36  1  0
  8 37  1  0
  9 10  3  0
 10 11  1  0
 11 12  1  0
 11 38  1  0
 11 39  1  0
 12 13  1  0
 12 40  1  0
 12 41  1  0
 13 14  1  0
 13 42  1  0
 13 43  1  0
 14 23  1  0
 14 15  2  0
 15 16  1  0
 15 44  1  0
 16 17  2  0
 16 45  1  0
 17 18  1  0
 17 46  1  0
 18 23  2  0
 18 19  1  0
 19 20  2  0
 19 47  1  0
 20 21  1  0
 20 48  1  0
 21 22  2  0
 21 49  1  0
 22 23  1  0
 22 50  1  0
 24 25  2  0
 24 26  1  0
 26 27  1  0
 26 51  1  0
 27 33  1  0
 27 28  2  0
 28 29  1  0
 28 52  1  0
 29 30  2  0
 29 53  1  0
 30 31  1  0
 30 54  1  0
 31 32  1  0
 31 33  2  0
 32 55  1  0
 33 56  1  0
M  CHG  1   1   1
M  END
>  <DOCK_score>  (1) 
-46.242409

>  <SMILES>  (1) 
[NH3+][C@H](CCC#CCCCc1cccc2ccccc12)C(=O)Nc1cccc(O)c1

$$$$
