Cc1ccc(Nc2ncc(Nc3[nH]cc(-c4ccc(Br)cc4)[nH+]3)cn2)cc1
     RDKit          3D

 45 48  0  0  1  0  0  0  0  0999 V2000
  128.5708  138.4194  167.7809 C   0  0  0  0  0  0  0  0  0  0  0  0
  128.0668  138.0295  166.4154 C   0  0  0  0  0  0  0  0  0  0  0  0
  128.5040  138.7152  165.2970 C   0  0  0  0  0  0  0  0  0  0  0  0
  128.0398  138.3642  164.0445 C   0  0  0  0  0  0  0  0  0  0  0  0
  127.1327  137.3209  163.9091 C   0  0  0  0  0  0  0  0  0  0  0  0
  126.6609  136.9624  162.6425 N   0  0  0  0  0  0  0  0  0  0  0  0
  127.5511  136.5450  161.6631 C   0  0  0  0  0  0  0  0  0  0  0  0
  127.0859  136.2098  160.4697 N   0  0  0  0  0  0  0  0  0  0  0  0
  127.9051  135.8119  159.5104 C   0  0  0  0  0  0  0  0  0  0  0  0
  129.2701  135.7385  159.7727 C   0  0  0  0  0  0  0  0  0  0  0  0
  130.1689  135.3170  158.7839 N   0  0  0  0  0  0  0  0  0  0  0  0
  130.0442  134.0551  158.2272 C   0  0  0  0  0  0  0  0  0  0  0  0
  129.5522  132.9546  158.8595 N   0  0  0  0  0  0  0  0  0  0  0  0
  129.2283  132.9134  159.7728 H   0  0  0  0  0  0  0  0  0  0  0  0
  129.5965  131.9138  157.9643 C   0  0  0  0  0  0  0  0  0  0  0  0
  130.1210  132.4056  156.8143 C   0  0  0  0  0  0  0  0  0  0  0  0
  130.3621  131.6395  155.5672 C   0  0  0  0  0  0  0  0  0  0  0  0
  129.7291  132.0137  154.3831 C   0  0  0  0  0  0  0  0  0  0  0  0
  129.9605  131.3007  153.2247 C   0  0  0  0  0  0  0  0  0  0  0  0
  130.8107  130.2092  153.2392 C   0  0  0  0  0  0  0  0  0  0  0  0
  131.1173  129.2313  151.6500 Br  0  0  0  0  0  0  0  0  0  0  0  0
  131.4383  129.8299  154.4138 C   0  0  0  0  0  0  0  0  0  0  0  0
  131.2178  130.5394  155.5767 C   0  0  0  0  0  0  0  0  0  0  0  0
  130.3857  133.7220  157.0062 N   0  0  0  0  0  0  0  0  0  0  0  0
  130.7669  134.3212  156.3454 H   0  0  0  0  0  0  0  0  0  0  0  0
  129.7210  136.0943  161.0408 C   0  0  0  0  0  0  0  0  0  0  0  0
  128.8434  136.4877  161.9487 N   0  0  0  0  0  0  0  0  0  0  0  0
  126.6957  136.6341  165.0346 C   0  0  0  0  0  0  0  0  0  0  0  0
  127.1638  136.9904  166.2840 C   0  0  0  0  0  0  0  0  0  0  0  0
  129.4705  137.8494  168.0126 H   0  0  0  0  0  0  0  0  0  0  0  0
  128.8023  139.4845  167.7924 H   0  0  0  0  0  0  0  0  0  0  0  0
  127.8039  138.2063  168.5257 H   0  0  0  0  0  0  0  0  0  0  0  0
  129.2090  139.5264  165.4030 H   0  0  0  0  0  0  0  0  0  0  0  0
  128.3819  138.8999  163.1714 H   0  0  0  0  0  0  0  0  0  0  0  0
  125.7117  137.0057  162.4487 H   0  0  0  0  0  0  0  0  0  0  0  0
  127.5195  135.5437  158.5379 H   0  0  0  0  0  0  0  0  0  0  0  0
  130.8786  135.9092  158.4892 H   0  0  0  0  0  0  0  0  0  0  0  0
  129.2776  130.8976  158.1430 H   0  0  0  0  0  0  0  0  0  0  0  0
  129.0619  132.8629  154.3716 H   0  0  0  0  0  0  0  0  0  0  0  0
  129.4733  131.5921  152.3058 H   0  0  0  0  0  0  0  0  0  0  0  0
  132.1012  128.9773  154.4200 H   0  0  0  0  0  0  0  0  0  0  0  0
  131.7079  130.2432  156.4922 H   0  0  0  0  0  0  0  0  0  0  0  0
  130.7733  136.0493  161.2800 H   0  0  0  0  0  0  0  0  0  0  0  0
  125.9908  135.8223  164.9326 H   0  0  0  0  0  0  0  0  0  0  0  0
  126.8246  136.4565  167.1594 H   0  0  0  0  0  0  0  0  0  0  0  0
  1  2  1  0
  1 30  1  0
  1 31  1  0
  1 32  1  0
  2 29  2  0
  2  3  1  0
  3  4  2  0
  3 33  1  0
  4  5  1  0
  4 34  1  0
  5  6  1  0
  5 28  2  0
  6  7  1  0
  6 35  1  0
  7 27  1  0
  7  8  2  0
  8  9  1  0
  9 10  2  0
  9 36  1  0
 10 11  1  0
 10 26  1  0
 11 37  1  0
 12 11  1  0
 12 24  2  0
 12 13  1  0
 13 14  1  0
 13 15  1  0
 15 16  2  0
 15 38  1  0
 16 17  1  0
 16 24  1  0
 17 23  1  0
 17 18  2  0
 18 19  1  0
 18 39  1  0
 19 20  2  0
 19 40  1  0
 20 21  1  0
 20 22  1  0
 22 23  2  0
 22 41  1  0
 23 42  1  0
 24 25  1  0
 26 27  2  0
 26 43  1  0
 28 29  1  0
 28 44  1  0
 29 45  1  0
M  CHG  1  24   1
M  END
>  <DOCK_score>  (1) 
-52.095203

>  <SMILES>  (1) 
Cc1ccc(Nc2ncc(Nc3[nH]cc(-c4ccc(Br)cc4)[nH+]3)cn2)cc1

$$$$
