Clc1ccccc1C[C@H](Nc1[nH]cc(-c2ccccc2)[nH+]1)c1ccccc1
     RDKit          3D

 48 51  0  0  1  0  0  0  0  0999 V2000
  132.1303  138.1704  160.1808 Cl  0  0  0  0  0  0  0  0  0  0  0  0
  131.6998  137.1834  161.5426 C   0  0  0  0  0  0  0  0  0  0  0  0
  132.6045  136.9913  162.5717 C   0  0  0  0  0  0  0  0  0  0  0  0
  132.2615  136.2051  163.6553 C   0  0  0  0  0  0  0  0  0  0  0  0
  131.0145  135.6105  163.7111 C   0  0  0  0  0  0  0  0  0  0  0  0
  130.1084  135.8062  162.6858 C   0  0  0  0  0  0  0  0  0  0  0  0
  130.4523  136.5882  161.5990 C   0  0  0  0  0  0  0  0  0  0  0  0
  129.4661  136.7973  160.4788 C   0  0  0  0  0  0  0  0  0  0  0  0
  129.1071  135.4463  159.8566 C   0  0  2  0  0  0  0  0  0  0  0  0
  129.0036  134.6997  160.6440 H   0  0  0  0  0  0  0  0  0  0  0  0
  130.1674  135.0374  158.9321 N   0  0  0  0  0  0  0  0  0  0  0  0
  130.0632  133.8396  158.2457 C   0  0  0  0  0  0  0  0  0  0  0  0
  129.4267  132.7227  158.6924 N   0  0  0  0  0  0  0  0  0  0  0  0
  128.9681  132.6236  159.5414 H   0  0  0  0  0  0  0  0  0  0  0  0
  129.5506  131.7628  157.7177 C   0  0  0  0  0  0  0  0  0  0  0  0
  130.2660  132.3173  156.7078 C   0  0  0  0  0  0  0  0  0  0  0  0
  130.6512  131.6485  155.4412 C   0  0  0  0  0  0  0  0  0  0  0  0
  130.2229  132.1646  154.2193 C   0  0  0  0  0  0  0  0  0  0  0  0
  130.5895  131.5418  153.0436 C   0  0  0  0  0  0  0  0  0  0  0  0
  131.3704  130.4000  153.0771 C   0  0  0  0  0  0  0  0  0  0  0  0
  131.7934  129.8803  154.2870 C   0  0  0  0  0  0  0  0  0  0  0  0
  131.4379  130.4984  155.4685 C   0  0  0  0  0  0  0  0  0  0  0  0
  130.5662  133.5925  157.0609 N   0  0  0  0  0  0  0  0  0  0  0  0
  131.0723  134.2209  156.5224 H   0  0  0  0  0  0  0  0  0  0  0  0
  127.8059  135.5688  159.1063 C   0  0  0  0  0  0  0  0  0  0  0  0
  126.6093  135.3221  159.7529 C   0  0  0  0  0  0  0  0  0  0  0  0
  125.4156  135.4387  159.0657 C   0  0  0  0  0  0  0  0  0  0  0  0
  125.4189  135.7932  157.7295 C   0  0  0  0  0  0  0  0  0  0  0  0
  126.6159  136.0347  157.0816 C   0  0  0  0  0  0  0  0  0  0  0  0
  127.8094  135.9223  157.7700 C   0  0  0  0  0  0  0  0  0  0  0  0
  133.5785  137.4561  162.5285 H   0  0  0  0  0  0  0  0  0  0  0  0
  132.9677  136.0549  164.4584 H   0  0  0  0  0  0  0  0  0  0  0  0
  130.7467  134.9965  164.5582 H   0  0  0  0  0  0  0  0  0  0  0  0
  129.1329  135.3452  162.7320 H   0  0  0  0  0  0  0  0  0  0  0  0
  129.9102  137.4405  159.7192 H   0  0  0  0  0  0  0  0  0  0  0  0
  128.5646  137.2676  160.8714 H   0  0  0  0  0  0  0  0  0  0  0  0
  130.9443  135.6039  158.8040 H   0  0  0  0  0  0  0  0  0  0  0  0
  129.1568  130.7576  157.7507 H   0  0  0  0  0  0  0  0  0  0  0  0
  129.6094  133.0530  154.1925 H   0  0  0  0  0  0  0  0  0  0  0  0
  130.2626  131.9437  152.0960 H   0  0  0  0  0  0  0  0  0  0  0  0
  131.6509  129.9129  152.1550 H   0  0  0  0  0  0  0  0  0  0  0  0
  132.4034  128.9893  154.3069 H   0  0  0  0  0  0  0  0  0  0  0  0
  131.7692  130.0918  156.4127 H   0  0  0  0  0  0  0  0  0  0  0  0
  126.6069  135.0416  160.7957 H   0  0  0  0  0  0  0  0  0  0  0  0
  124.4803  135.2504  159.5720 H   0  0  0  0  0  0  0  0  0  0  0  0
  124.4863  135.8817  157.1920 H   0  0  0  0  0  0  0  0  0  0  0  0
  126.6184  136.3117  156.0377 H   0  0  0  0  0  0  0  0  0  0  0  0
  128.7445  136.1111  157.2637 H   0  0  0  0  0  0  0  0  0  0  0  0
  1  2  1  0
  2  7  2  0
  2  3  1  0
  3  4  2  0
  3 31  1  0
  4  5  1  0
  4 32  1  0
  5  6  2  0
  5 33  1  0
  6  7  1  0
  6 34  1  0
  7  8  1  0
  8  9  1  0
  8 35  1  0
  8 36  1  0
  9 10  1  1
  9 11  1  0
  9 25  1  0
 11 37  1  0
 12 11  1  0
 12 23  2  0
 12 13  1  0
 13 14  1  0
 13 15  1  0
 15 16  2  0
 15 38  1  0
 16 17  1  0
 16 23  1  0
 17 22  1  0
 17 18  2  0
 18 19  1  0
 18 39  1  0
 19 20  2  0
 19 40  1  0
 20 21  1  0
 20 41  1  0
 21 22  2  0
 21 42  1  0
 22 43  1  0
 23 24  1  0
 25 30  1  0
 25 26  2  0
 26 27  1  0
 26 44  1  0
 27 28  2  0
 27 45  1  0
 28 29  1  0
 28 46  1  0
 29 30  2  0
 29 47  1  0
 30 48  1  0
M  CHG  1  23   1
M  END
>  <DOCK_score>  (1) 
-59.031017

>  <SMILES>  (1) 
Clc1ccccc1C[C@H](Nc1[nH]cc(-c2ccccc2)[nH+]1)c1ccccc1

$$$$
