O=C(c1c[nH]nc1[C@@H]1CCC[NH2+]C1)N1CCC(c2c[nH]c3ccccc23)C1
     RDKit          3D

 53 57  0  0  1  0  0  0  0  0999 V2000
  130.5708  135.3570  162.1259 O   0  0  0  0  0  0  0  0  0  0  0  0
  129.9807  136.3597  161.7718 C   0  0  0  0  0  0  0  0  0  0  0  0
  128.5590  136.2821  161.3896 C   0  0  0  0  0  0  0  0  0  0  0  0
  127.4749  136.4370  162.2301 C   0  0  0  0  0  0  0  0  0  0  0  0
  126.3663  136.2916  161.4869 N   0  0  0  0  0  0  0  0  0  0  0  0
  125.4542  136.3495  161.8121 H   0  0  0  0  0  0  0  0  0  0  0  0
  126.7483  136.0478  160.1629 N   0  0  0  0  0  0  0  0  0  0  0  0
  128.0508  136.0345  160.0947 C   0  0  0  0  0  0  0  0  0  0  0  0
  128.8703  135.8019  158.8515 C   0  0  2  0  0  0  0  0  0  0  0  0
  129.4958  136.6737  158.6595 H   0  0  0  0  0  0  0  0  0  0  0  0
  127.9367  135.5700  157.6598 C   0  0  0  0  0  0  0  0  0  0  0  0
  128.7775  135.2585  156.4184 C   0  0  0  0  0  0  0  0  0  0  0  0
  129.6673  134.0464  156.7026 C   0  0  0  0  0  0  0  0  0  0  0  0
  130.5540  134.3405  157.8348 N   0  0  0  0  0  0  0  0  0  0  0  0
  131.0971  135.1658  157.6298 H   0  0  0  0  0  0  0  0  0  0  0  0
  131.1747  133.5593  157.9849 H   0  0  0  0  0  0  0  0  0  0  0  0
  129.7565  134.5697  159.0455 C   0  0  0  0  0  0  0  0  0  0  0  0
  130.6265  137.5419  161.7289 N   0  0  0  0  0  0  0  0  0  0  0  0
  130.0389  138.8247  161.3159 C   0  0  0  0  0  0  0  0  0  0  0  0
  131.1391  139.8982  161.4544 C   0  0  0  0  0  0  0  0  0  0  0  0
  132.1250  139.2596  162.4680 C   0  0  2  0  0  0  0  0  0  0  0  0
  133.5215  139.7905  162.2709 C   0  0  0  0  0  0  0  0  0  0  0  0
  134.2603  140.4503  163.1770 C   0  0  0  0  0  0  0  0  0  0  0  0
  135.4772  140.7730  162.6409 N   0  0  0  0  0  0  0  0  0  0  0  0
  136.1825  141.2493  163.1062 H   0  0  0  0  0  0  0  0  0  0  0  0
  135.5495  140.3252  161.3409 C   0  0  0  0  0  0  0  0  0  0  0  0
  136.5332  140.3890  160.3591 C   0  0  0  0  0  0  0  0  0  0  0  0
  136.3010  139.8321  159.1208 C   0  0  0  0  0  0  0  0  0  0  0  0
  135.0937  139.2067  158.8407 C   0  0  0  0  0  0  0  0  0  0  0  0
  134.1141  139.1323  159.7901 C   0  0  0  0  0  0  0  0  0  0  0  0
  134.3280  139.6903  161.0520 C   0  0  0  0  0  0  0  0  0  0  0  0
  132.0408  137.7616  162.0822 C   0  0  0  0  0  0  0  0  0  0  0  0
  127.5117  136.6387  163.2905 H   0  0  0  0  0  0  0  0  0  0  0  0
  127.2759  134.7297  157.8727 H   0  0  0  0  0  0  0  0  0  0  0  0
  127.3427  136.4664  157.4822 H   0  0  0  0  0  0  0  0  0  0  0  0
  128.1186  135.0375  155.5787 H   0  0  0  0  0  0  0  0  0  0  0  0
  129.4012  136.1189  156.1759 H   0  0  0  0  0  0  0  0  0  0  0  0
  130.2671  133.8218  155.8206 H   0  0  0  0  0  0  0  0  0  0  0  0
  129.0422  133.1870  156.9449 H   0  0  0  0  0  0  0  0  0  0  0  0
  130.4221  134.7315  159.8933 H   0  0  0  0  0  0  0  0  0  0  0  0
  129.1299  133.6986  159.2371 H   0  0  0  0  0  0  0  0  0  0  0  0
  129.7061  138.7636  160.2797 H   0  0  0  0  0  0  0  0  0  0  0  0
  129.1980  139.0729  161.9634 H   0  0  0  0  0  0  0  0  0  0  0  0
  130.7274  140.8269  161.8494 H   0  0  0  0  0  0  0  0  0  0  0  0
  131.6296  140.0721  160.4966 H   0  0  0  0  0  0  0  0  0  0  0  0
  131.7899  139.4185  163.4930 H   0  0  0  0  0  0  0  0  0  0  0  0
  133.9421  140.6893  164.1810 H   0  0  0  0  0  0  0  0  0  0  0  0
  137.4756  140.8737  160.5672 H   0  0  0  0  0  0  0  0  0  0  0  0
  137.0661  139.8824  158.3602 H   0  0  0  0  0  0  0  0  0  0  0  0
  134.9276  138.7755  157.8646 H   0  0  0  0  0  0  0  0  0  0  0  0
  133.1774  138.6439  159.5652 H   0  0  0  0  0  0  0  0  0  0  0  0
  132.3220  137.1356  162.9290 H   0  0  0  0  0  0  0  0  0  0  0  0
  132.6824  137.5538  161.2260 H   0  0  0  0  0  0  0  0  0  0  0  0
  1  2  2  0
  2  3  1  0
  2 18  1  0
  3  8  1  0
  3  4  2  0
  4  5  1  0
  4 33  1  0
  5  6  1  0
  5  7  1  0
  7  8  2  0
  8  9  1  0
  9 10  1  6
  9 17  1  0
  9 11  1  0
 11 12  1  0
 11 34  1  0
 11 35  1  0
 12 13  1  0
 12 36  1  0
 12 37  1  0
 13 14  1  0
 13 38  1  0
 13 39  1  0
 14 15  1  0
 14 16  1  0
 14 17  1  0
 17 40  1  0
 17 41  1  0
 18 32  1  0
 18 19  1  0
 19 20  1  0
 19 42  1  0
 19 43  1  0
 20 21  1  0
 20 44  1  0
 20 45  1  0
 21 22  1  0
 21 32  1  0
 21 46  1  1
 22 31  1  0
 22 23  2  0
 23 24  1  0
 23 47  1  0
 24 25  1  0
 24 26  1  0
 26 31  2  0
 26 27  1  0
 27 28  2  0
 27 48  1  0
 28 29  1  0
 28 49  1  0
 29 30  2  0
 29 50  1  0
 30 31  1  0
 30 51  1  0
 32 52  1  0
 32 53  1  0
M  CHG  1  14   1
M  END
>  <DOCK_score>  (1) 
-44.77779

>  <SMILES>  (1) 
O=C(c1c[nH]nc1[C@@H]1CCC[NH2+]C1)N1CCC(c2c[nH]c3ccccc23)C1

$$$$
