c1ccc([C@@H](c2ccncc2)[NH+]2CCN(c3cncc4ccccc34)CC2)cc1
     RDKit          3D

 54 58  0  0  1  0  0  0  0  0999 V2000
  126.5709  135.8150  158.2449 C   0  0  0  0  0  0  0  0  0  0  0  0
  126.5849  135.1429  159.4527 C   0  0  0  0  0  0  0  0  0  0  0  0
  127.7873  134.8709  160.0784 C   0  0  0  0  0  0  0  0  0  0  0  0
  128.9754  135.2708  159.4961 C   0  0  0  0  0  0  0  0  0  0  0  0
  130.2862  134.9744  160.1782 C   0  0  1  0  0  0  0  0  0  0  0  0
  130.1363  134.9479  161.2574 H   0  0  0  0  0  0  0  0  0  0  0  0
  130.8053  133.6393  159.7101 C   0  0  0  0  0  0  0  0  0  0  0  0
  131.0786  133.4143  158.3695 C   0  0  0  0  0  0  0  0  0  0  0  0
  131.5583  132.1786  157.9782 C   0  0  0  0  0  0  0  0  0  0  0  0
  131.7465  131.2176  158.8613 N   0  0  0  0  0  0  0  0  0  0  0  0
  131.4923  131.3941  160.1431 C   0  0  0  0  0  0  0  0  0  0  0  0
  131.0157  132.6048  160.6091 C   0  0  0  0  0  0  0  0  0  0  0  0
  131.2598  136.0225  159.8446 N   0  0  0  0  0  0  0  0  0  0  0  0
  131.3984  136.0467  158.8455 H   0  0  0  0  0  0  0  0  0  0  0  0
  132.5374  135.7329  160.5090 C   0  0  0  0  0  0  0  0  0  0  0  0
  133.5576  136.8145  160.1467 C   0  0  0  0  0  0  0  0  0  0  0  0
  133.0497  138.1259  160.5741 N   0  0  0  0  0  0  0  0  0  0  0  0
  133.9775  139.1315  160.3086 C   0  0  0  0  0  0  0  0  0  0  0  0
  134.4009  139.3792  159.0188 C   0  0  0  0  0  0  0  0  0  0  0  0
  135.2782  140.3343  158.7481 N   0  0  0  0  0  0  0  0  0  0  0  0
  135.8096  141.0970  159.6744 C   0  0  0  0  0  0  0  0  0  0  0  0
  135.4520  140.9257  161.0213 C   0  0  0  0  0  0  0  0  0  0  0  0
  135.9974  141.7204  162.0424 C   0  0  0  0  0  0  0  0  0  0  0  0
  135.6157  141.5105  163.3326 C   0  0  0  0  0  0  0  0  0  0  0  0
  134.6910  140.5197  163.6569 C   0  0  0  0  0  0  0  0  0  0  0  0
  134.1413  139.7300  162.6920 C   0  0  0  0  0  0  0  0  0  0  0  0
  134.5110  139.9173  161.3540 C   0  0  0  0  0  0  0  0  0  0  0  0
  131.7585  138.4186  159.9360 C   0  0  0  0  0  0  0  0  0  0  0  0
  130.7531  137.3239  160.3000 C   0  0  0  0  0  0  0  0  0  0  0  0
  128.9611  135.9476  158.2908 C   0  0  0  0  0  0  0  0  0  0  0  0
  127.7590  136.2157  157.6629 C   0  0  0  0  0  0  0  0  0  0  0  0
  125.6316  136.0268  157.7558 H   0  0  0  0  0  0  0  0  0  0  0  0
  125.6567  134.8297  159.9073 H   0  0  0  0  0  0  0  0  0  0  0  0
  127.7983  134.3457  161.0221 H   0  0  0  0  0  0  0  0  0  0  0  0
  130.9223  134.1960  157.6410 H   0  0  0  0  0  0  0  0  0  0  0  0
  131.7782  131.9969  156.9366 H   0  0  0  0  0  0  0  0  0  0  0  0
  131.6587  130.5833  160.8370 H   0  0  0  0  0  0  0  0  0  0  0  0
  130.8093  132.7433  161.6602 H   0  0  0  0  0  0  0  0  0  0  0  0
  132.9059  134.7613  160.1802 H   0  0  0  0  0  0  0  0  0  0  0  0
  132.3905  135.7193  161.5889 H   0  0  0  0  0  0  0  0  0  0  0  0
  134.5014  136.6080  160.6514 H   0  0  0  0  0  0  0  0  0  0  0  0
  133.7150  136.8194  159.0682 H   0  0  0  0  0  0  0  0  0  0  0  0
  134.0043  138.7832  158.2102 H   0  0  0  0  0  0  0  0  0  0  0  0
  136.5238  141.8590  159.3998 H   0  0  0  0  0  0  0  0  0  0  0  0
  136.7146  142.4926  161.8062 H   0  0  0  0  0  0  0  0  0  0  0  0
  136.0362  142.1220  164.1171 H   0  0  0  0  0  0  0  0  0  0  0  0
  134.4060  140.3751  164.6885 H   0  0  0  0  0  0  0  0  0  0  0  0
  133.4262  138.9652  162.9569 H   0  0  0  0  0  0  0  0  0  0  0  0
  131.3896  139.3824  160.2870 H   0  0  0  0  0  0  0  0  0  0  0  0
  131.8862  138.4498  158.8540 H   0  0  0  0  0  0  0  0  0  0  0  0
  130.6153  137.3021  161.3810 H   0  0  0  0  0  0  0  0  0  0  0  0
  129.7987  137.5316  159.8162 H   0  0  0  0  0  0  0  0  0  0  0  0
  129.8891  136.2639  157.8380 H   0  0  0  0  0  0  0  0  0  0  0  0
  127.7481  136.7406  156.7191 H   0  0  0  0  0  0  0  0  0  0  0  0
  1 31  2  0
  1  2  1  0
  1 32  1  0
  2  3  2  0
  2 33  1  0
  3  4  1  0
  3 34  1  0
  4  5  1  0
  4 30  2  0
  5  6  1  1
  5  7  1  0
  5 13  1  0
  7 12  1  0
  7  8  2  0
  8  9  1  0
  8 35  1  0
  9 10  2  0
  9 36  1  0
 10 11  1  0
 11 12  2  0
 11 37  1  0
 12 38  1  0
 13 14  1  0
 13 29  1  0
 13 15  1  0
 15 16  1  0
 15 39  1  0
 15 40  1  0
 16 17  1  0
 16 41  1  0
 16 42  1  0
 17 18  1  0
 17 28  1  0
 18 27  1  0
 18 19  2  0
 19 20  1  0
 19 43  1  0
 20 21  2  0
 21 22  1  0
 21 44  1  0
 22 27  2  0
 22 23  1  0
 23 24  2  0
 23 45  1  0
 24 25  1  0
 24 46  1  0
 25 26  2  0
 25 47  1  0
 26 27  1  0
 26 48  1  0
 28 29  1  0
 28 49  1  0
 28 50  1  0
 29 51  1  0
 29 52  1  0
 30 31  1  0
 30 53  1  0
 31 54  1  0
M  CHG  1  13   1
M  END
>  <DOCK_score>  (1) 
-56.808846

>  <SMILES>  (1) 
c1ccc([C@@H](c2ccncc2)[NH+]2CCN(c3cncc4ccccc34)CC2)cc1

$$$$
