C[C@@H](CO)[NH2+][C@@H]1C[C@@H](O)C[C@H]1C(O)c1cccc(-c2ccccc2)c1
     RDKit          3D

 53 55  0  0  1  0  0  0  0  0999 V2000
  128.9491  134.7133  156.2024 C   0  0  0  0  0  0  0  0  0  0  0  0
  129.0705  134.2257  157.6475 C   0  0  1  0  0  0  0  0  0  0  0  0
  128.1244  133.7861  157.9635 H   0  0  0  0  0  0  0  0  0  0  0  0
  130.1776  133.1734  157.7392 C   0  0  0  0  0  0  0  0  0  0  0  0
  131.4495  133.8231  157.7859 O   0  0  0  0  0  0  0  0  0  0  0  0
  129.3996  135.3598  158.5211 N   0  0  0  0  0  0  0  0  0  0  0  0
  130.3872  135.5573  158.4585 H   0  0  0  0  0  0  0  0  0  0  0  0
  128.8754  136.1715  158.2303 H   0  0  0  0  0  0  0  0  0  0  0  0
  129.0540  135.0252  159.9091 C   0  0  2  0  0  0  0  0  0  0  0  0
  129.3187  133.9890  160.1201 H   0  0  0  0  0  0  0  0  0  0  0  0
  127.5495  135.2447  160.1453 C   0  0  0  0  0  0  0  0  0  0  0  0
  127.4283  136.3130  161.2515 C   0  0  1  0  0  0  0  0  0  0  0  0
  127.3041  137.3034  160.8134 H   0  0  0  0  0  0  0  0  0  0  0  0
  126.3368  136.0095  162.1225 O   0  0  0  0  0  0  0  0  0  0  0  0
  128.7727  136.2229  162.0155 C   0  0  0  0  0  0  0  0  0  0  0  0
  129.7947  135.9679  160.8800 C   0  0  1  0  0  0  0  0  0  0  0  0
  130.0547  136.9017  160.3812 H   0  0  0  0  0  0  0  0  0  0  0  0
  131.0502  135.2896  161.4318 C   0  0  1  0  0  0  0  0  0  0  0  0
  131.6903  134.5515  160.3891 O   0  0  0  0  0  0  0  0  0  0  0  0
  131.9964  136.3371  161.9597 C   0  0  0  0  0  0  0  0  0  0  0  0
  131.9135  136.7395  163.2807 C   0  0  0  0  0  0  0  0  0  0  0  0
  132.7816  137.6967  163.7731 C   0  0  0  0  0  0  0  0  0  0  0  0
  133.7295  138.2638  162.9450 C   0  0  0  0  0  0  0  0  0  0  0  0
  133.8138  137.8662  161.6124 C   0  0  0  0  0  0  0  0  0  0  0  0
  134.8309  138.4718  160.7175 C   0  0  0  0  0  0  0  0  0  0  0  0
  134.5787  138.5917  159.3524 C   0  0  0  0  0  0  0  0  0  0  0  0
  135.5261  139.1607  158.5255 C   0  0  0  0  0  0  0  0  0  0  0  0
  136.7287  139.6014  159.0480 C   0  0  0  0  0  0  0  0  0  0  0  0
  136.9865  139.4800  160.4016 C   0  0  0  0  0  0  0  0  0  0  0  0
  136.0441  138.9174  161.2384 C   0  0  0  0  0  0  0  0  0  0  0  0
  132.9399  136.8974  161.1231 C   0  0  0  0  0  0  0  0  0  0  0  0
  128.7938  133.8597  155.5427 H   0  0  0  0  0  0  0  0  0  0  0  0
  128.1028  135.3954  156.1191 H   0  0  0  0  0  0  0  0  0  0  0  0
  129.8635  135.2324  155.9160 H   0  0  0  0  0  0  0  0  0  0  0  0
  130.0398  132.5789  158.6422 H   0  0  0  0  0  0  0  0  0  0  0  0
  130.1337  132.5229  156.8656 H   0  0  0  0  0  0  0  0  0  0  0  0
  131.6398  134.3708  157.0122 H   0  0  0  0  0  0  0  0  0  0  0  0
  127.0756  135.5994  159.2300 H   0  0  0  0  0  0  0  0  0  0  0  0
  127.0834  134.3150  160.4714 H   0  0  0  0  0  0  0  0  0  0  0  0
  125.4718  136.0292  161.6905 H   0  0  0  0  0  0  0  0  0  0  0  0
  128.7619  135.3909  162.7196 H   0  0  0  0  0  0  0  0  0  0  0  0
  128.9916  137.1590  162.5293 H   0  0  0  0  0  0  0  0  0  0  0  0
  130.7719  134.6117  162.2388 H   0  0  0  0  0  0  0  0  0  0  0  0
  131.9658  135.0924  159.6363 H   0  0  0  0  0  0  0  0  0  0  0  0
  131.1705  136.3017  163.9310 H   0  0  0  0  0  0  0  0  0  0  0  0
  132.7156  138.0040  164.8063 H   0  0  0  0  0  0  0  0  0  0  0  0
  134.4044  139.0140  163.3294 H   0  0  0  0  0  0  0  0  0  0  0  0
  133.6419  138.2439  158.9428 H   0  0  0  0  0  0  0  0  0  0  0  0
  135.3300  139.2578  157.4680 H   0  0  0  0  0  0  0  0  0  0  0  0
  137.4692  140.0415  158.3966 H   0  0  0  0  0  0  0  0  0  0  0  0
  137.9271  139.8258  160.8043 H   0  0  0  0  0  0  0  0  0  0  0  0
  136.2466  138.8226  162.2950 H   0  0  0  0  0  0  0  0  0  0  0  0
  133.0008  136.5857  160.0907 H   0  0  0  0  0  0  0  0  0  0  0  0
  1  2  1  0
  1 32  1  0
  1 33  1  0
  1 34  1  0
  2  3  1  1
  2  4  1  0
  2  6  1  0
  4  5  1  0
  4 35  1  0
  4 36  1  0
  5 37  1  0
  6  7  1  0
  6  8  1  0
  6  9  1  0
  9 10  1  1
  9 16  1  0
  9 11  1  0
 11 12  1  0
 11 38  1  0
 11 39  1  0
 12 13  1  6
 12 14  1  0
 12 15  1  0
 14 40  1  0
 15 16  1  0
 15 41  1  0
 15 42  1  0
 16 17  1  6
 16 18  1  0
 18 19  1  0
 18 20  1  0
 18 43  1  1
 19 44  1  0
 20 31  1  0
 20 21  2  0
 21 22  1  0
 21 45  1  0
 22 23  2  0
 22 46  1  0
 23 24  1  0
 23 47  1  0
 24 25  1  0
 24 31  2  0
 25 30  1  0
 25 26  2  0
 26 27  1  0
 26 48  1  0
 27 28  2  0
 27 49  1  0
 28 29  1  0
 28 50  1  0
 29 30  2  0
 29 51  1  0
 30 52  1  0
 31 53  1  0
M  CHG  1   6   1
M  END
>  <DOCK_score>  (1) 
-44.125389

>  <SMILES>  (1) 
C[C@@H](CO)[NH2+][C@@H]1C[C@@H](O)C[C@H]1C(O)c1cccc(-c2ccccc2)c1

$$$$
