O[C@H]1C[C@@H]([NH+]=C(NCc2cccs2)NCc2cc(C3CC3)ccc2F)C1
     RDKit          3D

 51 54  0  0  1  0  0  0  0  0999 V2000
  124.0817  134.2598  161.7831 O   0  0  0  0  0  0  0  0  0  0  0  0
  125.3602  133.6407  161.6280 C   0  0  1  0  0  0  0  0  0  0  0  0
  125.3059  132.5521  161.6176 H   0  0  0  0  0  0  0  0  0  0  0  0
  126.1930  134.2271  160.4758 C   0  0  0  0  0  0  0  0  0  0  0  0
  127.4151  134.1042  161.4011 C   0  0  1  0  0  0  0  0  0  0  0  0
  127.9237  133.1428  161.3295 H   0  0  0  0  0  0  0  0  0  0  0  0
  128.3340  135.2419  161.3138 N   0  0  0  0  0  0  0  0  0  0  0  0
  128.2142  136.0079  161.8967 H   0  0  0  0  0  0  0  0  0  0  0  0
  129.3125  135.2246  160.4531 C   0  0  0  0  0  0  0  0  0  0  0  0
  130.1749  136.2922  160.3710 N   0  0  0  0  0  0  0  0  0  0  0  0
  129.9940  137.4493  161.2511 C   0  0  0  0  0  0  0  0  0  0  0  0
  131.0624  138.4721  160.9621 C   0  0  0  0  0  0  0  0  0  0  0  0
  131.1949  139.6430  161.5872 C   0  0  0  0  0  0  0  0  0  0  0  0
  132.2542  140.4202  161.1513 C   0  0  0  0  0  0  0  0  0  0  0  0
  132.9820  139.8803  160.1725 C   0  0  0  0  0  0  0  0  0  0  0  0
  132.3296  138.3013  159.7546 S   0  0  0  0  0  0  0  0  0  0  0  0
  129.4824  134.1388  159.6271 N   0  0  0  0  0  0  0  0  0  0  0  0
  130.5822  134.1191  158.6595 C   0  0  0  0  0  0  0  0  0  0  0  0
  130.5460  132.8275  157.8840 C   0  0  0  0  0  0  0  0  0  0  0  0
  130.7083  132.8404  156.5114 C   0  0  0  0  0  0  0  0  0  0  0  0
  130.6752  131.6560  155.7999 C   0  0  0  0  0  0  0  0  0  0  0  0
  130.8531  131.6714  154.3035 C   0  0  0  0  0  0  0  0  0  0  0  0
  129.9703  132.6257  153.4968 C   0  0  0  0  0  0  0  0  0  0  0  0
  129.7098  131.1180  153.4503 C   0  0  0  0  0  0  0  0  0  0  0  0
  130.4790  130.4568  156.4602 C   0  0  0  0  0  0  0  0  0  0  0  0
  130.3218  130.4411  157.8325 C   0  0  0  0  0  0  0  0  0  0  0  0
  130.3500  131.6276  158.5461 C   0  0  0  0  0  0  0  0  0  0  0  0
  130.1918  131.6137  159.8876 F   0  0  0  0  0  0  0  0  0  0  0  0
  126.4326  134.1949  162.5807 C   0  0  0  0  0  0  0  0  0  0  0  0
  124.0846  135.2136  161.6239 H   0  0  0  0  0  0  0  0  0  0  0  0
  125.9335  135.2568  160.2296 H   0  0  0  0  0  0  0  0  0  0  0  0
  126.2420  133.5808  159.5995 H   0  0  0  0  0  0  0  0  0  0  0  0
  130.9031  136.2793  159.7303 H   0  0  0  0  0  0  0  0  0  0  0  0
  129.0124  137.8895  161.0754 H   0  0  0  0  0  0  0  0  0  0  0  0
  130.0682  137.1301  162.2907 H   0  0  0  0  0  0  0  0  0  0  0  0
  130.5262  139.9609  162.3735 H   0  0  0  0  0  0  0  0  0  0  0  0
  132.4751  141.3899  161.5723 H   0  0  0  0  0  0  0  0  0  0  0  0
  133.8429  140.3403  159.7104 H   0  0  0  0  0  0  0  0  0  0  0  0
  128.8739  133.3855  159.6850 H   0  0  0  0  0  0  0  0  0  0  0  0
  131.5322  134.1993  159.1877 H   0  0  0  0  0  0  0  0  0  0  0  0
  130.4766  134.9586  157.9723 H   0  0  0  0  0  0  0  0  0  0  0  0
  130.8613  133.7765  155.9947 H   0  0  0  0  0  0  0  0  0  0  0  0
  131.8707  131.5065  153.9493 H   0  0  0  0  0  0  0  0  0  0  0  0
  129.2608  133.2426  154.0484 H   0  0  0  0  0  0  0  0  0  0  0  0
  130.4070  133.0885  152.6117 H   0  0  0  0  0  0  0  0  0  0  0  0
  129.9754  130.5896  152.5347 H   0  0  0  0  0  0  0  0  0  0  0  0
  128.8291  130.7426  153.9714 H   0  0  0  0  0  0  0  0  0  0  0  0
  130.4541  129.5320  155.9029 H   0  0  0  0  0  0  0  0  0  0  0  0
  130.1733  129.5039  158.3485 H   0  0  0  0  0  0  0  0  0  0  0  0
  126.6752  133.5226  163.4036 H   0  0  0  0  0  0  0  0  0  0  0  0
  126.2387  135.2158  162.9098 H   0  0  0  0  0  0  0  0  0  0  0  0
  1  2  1  0
  1 30  1  0
  2  3  1  6
  2 29  1  0
  2  4  1  0
  4  5  1  0
  4 31  1  0
  4 32  1  0
  5  6  1  6
  5  7  1  0
  5 29  1  0
  7  8  1  0
  9  7  2  0
  9 10  1  0
  9 17  1  0
 10 11  1  0
 10 33  1  0
 11 12  1  0
 11 34  1  0
 11 35  1  0
 12 16  1  0
 12 13  2  0
 13 14  1  0
 13 36  1  0
 14 15  2  0
 14 37  1  0
 15 16  1  0
 15 38  1  0
 17 18  1  0
 17 39  1  0
 18 19  1  0
 18 40  1  0
 18 41  1  0
 19 27  1  0
 19 20  2  0
 20 21  1  0
 20 42  1  0
 21 22  1  0
 21 25  2  0
 22 24  1  0
 22 23  1  0
 22 43  1  0
 23 24  1  0
 23 44  1  0
 23 45  1  0
 24 46  1  0
 24 47  1  0
 25 26  1  0
 25 48  1  0
 26 27  2  0
 26 49  1  0
 27 28  1  0
 29 50  1  0
 29 51  1  0
M  CHG  1   7   1
M  END
>  <DOCK_score>  (1) 
-43.737606

>  <SMILES>  (1) 
O[C@H]1C[C@@H]([NH+]=C(NCc2cccs2)NCc2cc(C3CC3)ccc2F)C1

$$$$
