O[C@H](c1ccccc1)[C@H](Nc1[nH]cc(-c2ccc(-c3ccccc3)cc2)[nH+]1)c1ccccc1
     RDKit          3D

 59 63  0  0  1  0  0  0  0  0999 V2000
  130.2685  139.0705  161.3092 O   0  0  0  0  0  0  0  0  0  0  0  0
  131.1616  138.2612  162.0769 C   0  0  2  0  0  0  0  0  0  0  0  0
  131.0429  138.4926  163.1353 H   0  0  0  0  0  0  0  0  0  0  0  0
  132.5814  138.5431  161.6573 C   0  0  0  0  0  0  0  0  0  0  0  0
  133.5394  137.5510  161.7500 C   0  0  0  0  0  0  0  0  0  0  0  0
  134.8408  137.8083  161.3611 C   0  0  0  0  0  0  0  0  0  0  0  0
  135.1859  139.0603  160.8879 C   0  0  0  0  0  0  0  0  0  0  0  0
  134.2290  140.0540  160.8000 C   0  0  0  0  0  0  0  0  0  0  0  0
  132.9267  139.7955  161.1849 C   0  0  0  0  0  0  0  0  0  0  0  0
  130.8434  136.7837  161.8389 C   0  0  2  0  0  0  0  0  0  0  0  0
  131.5247  136.1664  162.4245 H   0  0  0  0  0  0  0  0  0  0  0  0
  131.0031  136.4727  160.4163 N   0  0  0  0  0  0  0  0  0  0  0  0
  130.7678  135.1878  159.9580 C   0  0  0  0  0  0  0  0  0  0  0  0
  130.3862  134.1302  160.7250 N   0  0  0  0  0  0  0  0  0  0  0  0
  130.2312  134.1411  161.6824 H   0  0  0  0  0  0  0  0  0  0  0  0
  130.2612  133.0444  159.8932 C   0  0  0  0  0  0  0  0  0  0  0  0
  130.5651  133.4704  158.6414 C   0  0  0  0  0  0  0  0  0  0  0  0
  130.5603  132.6415  157.4124 C   0  0  0  0  0  0  0  0  0  0  0  0
  130.2648  133.2236  156.1797 C   0  0  0  0  0  0  0  0  0  0  0  0
  130.2658  132.4543  155.0371 C   0  0  0  0  0  0  0  0  0  0  0  0
  130.5514  131.0915  155.1142 C   0  0  0  0  0  0  0  0  0  0  0  0
  130.5466  130.2623  153.8847 C   0  0  0  0  0  0  0  0  0  0  0  0
  131.3829  129.1515  153.7868 C   0  0  0  0  0  0  0  0  0  0  0  0
  131.3707  128.3807  152.6420 C   0  0  0  0  0  0  0  0  0  0  0  0
  130.5383  128.7148  151.5889 C   0  0  0  0  0  0  0  0  0  0  0  0
  129.7101  129.8192  151.6785 C   0  0  0  0  0  0  0  0  0  0  0  0
  129.7100  130.5941  152.8202 C   0  0  0  0  0  0  0  0  0  0  0  0
  130.8412  130.5082  156.3474 C   0  0  0  0  0  0  0  0  0  0  0  0
  130.8457  131.2781  157.4894 C   0  0  0  0  0  0  0  0  0  0  0  0
  130.8768  134.7891  158.7142 N   0  0  0  0  0  0  0  0  0  0  0  0
  131.1347  135.3484  157.9648 H   0  0  0  0  0  0  0  0  0  0  0  0
  129.4237  136.5018  162.2585 C   0  0  0  0  0  0  0  0  0  0  0  0
  129.1514  136.1075  163.5551 C   0  0  0  0  0  0  0  0  0  0  0  0
  127.8486  135.8533  163.9412 C   0  0  0  0  0  0  0  0  0  0  0  0
  126.8191  135.9845  163.0282 C   0  0  0  0  0  0  0  0  0  0  0  0
  127.0918  136.3736  161.7300 C   0  0  0  0  0  0  0  0  0  0  0  0
  128.3941  136.6321  161.3451 C   0  0  0  0  0  0  0  0  0  0  0  0
  130.3200  138.9175  160.3557 H   0  0  0  0  0  0  0  0  0  0  0  0
  133.2706  136.5738  162.1234 H   0  0  0  0  0  0  0  0  0  0  0  0
  135.5884  137.0319  161.4295 H   0  0  0  0  0  0  0  0  0  0  0  0
  136.2032  139.2621  160.5865 H   0  0  0  0  0  0  0  0  0  0  0  0
  134.4988  141.0324  160.4304 H   0  0  0  0  0  0  0  0  0  0  0  0
  132.1792  140.5718  161.1163 H   0  0  0  0  0  0  0  0  0  0  0  0
  131.2736  137.1671  159.7954 H   0  0  0  0  0  0  0  0  0  0  0  0
  129.9725  132.0440  160.1800 H   0  0  0  0  0  0  0  0  0  0  0  0
  130.0397  134.2782  156.1206 H   0  0  0  0  0  0  0  0  0  0  0  0
  130.0414  132.9059  154.0821 H   0  0  0  0  0  0  0  0  0  0  0  0
  132.0361  128.8921  154.6068 H   0  0  0  0  0  0  0  0  0  0  0  0
  132.0150  127.5172  152.5668 H   0  0  0  0  0  0  0  0  0  0  0  0
  130.5354  128.1114  150.6932 H   0  0  0  0  0  0  0  0  0  0  0  0
  129.0626  130.0755  150.8530 H   0  0  0  0  0  0  0  0  0  0  0  0
  129.0633  131.4563  152.8890 H   0  0  0  0  0  0  0  0  0  0  0  0
  131.0617  129.4527  156.4070 H   0  0  0  0  0  0  0  0  0  0  0  0
  131.0704  130.8266  158.4443 H   0  0  0  0  0  0  0  0  0  0  0  0
  129.9562  136.0014  164.2675 H   0  0  0  0  0  0  0  0  0  0  0  0
  127.6355  135.5496  164.9554 H   0  0  0  0  0  0  0  0  0  0  0  0
  125.8016  135.7832  163.3290 H   0  0  0  0  0  0  0  0  0  0  0  0
  126.2875  136.4761  161.0167 H   0  0  0  0  0  0  0  0  0  0  0  0
  128.6072  136.9362  160.3310 H   0  0  0  0  0  0  0  0  0  0  0  0
  1  2  1  0
  1 38  1  0
  2  3  1  1
  2  4  1  0
  2 10  1  0
  4  9  1  0
  4  5  2  0
  5  6  1  0
  5 39  1  0
  6  7  2  0
  6 40  1  0
  7  8  1  0
  7 41  1  0
  8  9  2  0
  8 42  1  0
  9 43  1  0
 10 11  1  1
 10 12  1  0
 10 32  1  0
 12 44  1  0
 13 12  1  0
 13 30  2  0
 13 14  1  0
 14 15  1  0
 14 16  1  0
 16 17  2  0
 16 45  1  0
 17 18  1  0
 17 30  1  0
 18 29  1  0
 18 19  2  0
 19 20  1  0
 19 46  1  0
 20 21  2  0
 20 47  1  0
 21 22  1  0
 21 28  1  0
 22 27  1  0
 22 23  2  0
 23 24  1  0
 23 48  1  0
 24 25  2  0
 24 49  1  0
 25 26  1  0
 25 50  1  0
 26 27  2  0
 26 51  1  0
 27 52  1  0
 28 29  2  0
 28 53  1  0
 29 54  1  0
 30 31  1  0
 32 37  1  0
 32 33  2  0
 33 34  1  0
 33 55  1  0
 34 35  2  0
 34 56  1  0
 35 36  1  0
 35 57  1  0
 36 37  2  0
 36 58  1  0
 37 59  1  0
M  CHG  1  30   1
M  END
>  <DOCK_score>  (1) 
-59.834217

>  <SMILES>  (1) 
O[C@H](c1ccccc1)[C@H](Nc1[nH]cc(-c2ccc(-c3ccccc3)cc2)[nH+]1)c1ccccc1

$$$$
