Cc1ccccc1[C@@H](CF)Nc1c(C)cccc1N1CC[NH+](C(c2ccccc2)c2ccccc2)CC1
     RDKit          3D

 74 78  0  0  1  0  0  0  0  0999 V2000
  129.9708  137.6667  164.4991 C   0  0  0  0  0  0  0  0  0  0  0  0
  130.1215  136.1760  164.3368 C   0  0  0  0  0  0  0  0  0  0  0  0
  129.0014  135.3811  164.1789 C   0  0  0  0  0  0  0  0  0  0  0  0
  129.1396  134.0140  164.0295 C   0  0  0  0  0  0  0  0  0  0  0  0
  130.3979  133.4415  164.0381 C   0  0  0  0  0  0  0  0  0  0  0  0
  131.5180  134.2365  164.1920 C   0  0  0  0  0  0  0  0  0  0  0  0
  131.3794  135.6036  164.3462 C   0  0  0  0  0  0  0  0  0  0  0  0
  132.6003  136.4700  164.5184 C   0  0  1  0  0  0  0  0  0  0  0  0
  132.4060  137.4584  164.1021 H   0  0  0  0  0  0  0  0  0  0  0  0
  132.9282  136.5991  166.0073 C   0  0  0  0  0  0  0  0  0  0  0  0
  133.6063  135.4532  166.4366 F   0  0  0  0  0  0  0  0  0  0  0  0
  133.7375  135.8584  163.8179 N   0  0  0  0  0  0  0  0  0  0  0  0
  134.2366  136.7146  162.8286 C   0  0  0  0  0  0  0  0  0  0  0  0
  135.2370  137.6240  163.1362 C   0  0  0  0  0  0  0  0  0  0  0  0
  135.7894  137.6913  164.5367 C   0  0  0  0  0  0  0  0  0  0  0  0
  135.7281  138.4687  162.1579 C   0  0  0  0  0  0  0  0  0  0  0  0
  135.2209  138.4136  160.8730 C   0  0  0  0  0  0  0  0  0  0  0  0
  134.2269  137.5061  160.5562 C   0  0  0  0  0  0  0  0  0  0  0  0
  133.7285  136.6553  161.5311 C   0  0  0  0  0  0  0  0  0  0  0  0
  132.7180  135.7395  161.2138 N   0  0  0  0  0  0  0  0  0  0  0  0
  133.1876  134.7583  160.2256 C   0  0  0  0  0  0  0  0  0  0  0  0
  132.0760  133.7429  159.9515 C   0  0  0  0  0  0  0  0  0  0  0  0
  130.8874  134.4422  159.4459 N   0  0  0  0  0  0  0  0  0  0  0  0
  131.1230  134.9349  158.5974 H   0  0  0  0  0  0  0  0  0  0  0  0
  129.8269  133.4652  159.1658 C   0  0  0  0  0  0  0  0  0  0  0  0
  128.6073  134.1825  158.6470 C   0  0  0  0  0  0  0  0  0  0  0  0
  127.3480  133.6623  158.8804 C   0  0  0  0  0  0  0  0  0  0  0  0
  126.2290  134.3227  158.4087 C   0  0  0  0  0  0  0  0  0  0  0  0
  126.3699  135.4978  157.6944 C   0  0  0  0  0  0  0  0  0  0  0  0
  127.6294  136.0152  157.4564 C   0  0  0  0  0  0  0  0  0  0  0  0
  128.7482  135.3575  157.9326 C   0  0  0  0  0  0  0  0  0  0  0  0
  130.3098  132.4824  158.1306 C   0  0  0  0  0  0  0  0  0  0  0  0
  130.1042  132.7363  156.7874 C   0  0  0  0  0  0  0  0  0  0  0  0
  130.5515  131.8370  155.8375 C   0  0  0  0  0  0  0  0  0  0  0  0
  131.1953  130.6788  156.2313 C   0  0  0  0  0  0  0  0  0  0  0  0
  131.3963  130.4225  157.5747 C   0  0  0  0  0  0  0  0  0  0  0  0
  130.9537  131.3242  158.5243 C   0  0  0  0  0  0  0  0  0  0  0  0
  130.4158  135.4011  160.4536 C   0  0  0  0  0  0  0  0  0  0  0  0
  131.5135  136.4304  160.7319 C   0  0  0  0  0  0  0  0  0  0  0  0
  129.9502  138.1389  163.5170 H   0  0  0  0  0  0  0  0  0  0  0  0
  129.0411  137.8827  165.0257 H   0  0  0  0  0  0  0  0  0  0  0  0
  130.8119  138.0566  165.0723 H   0  0  0  0  0  0  0  0  0  0  0  0
  128.0183  135.8284  164.1719 H   0  0  0  0  0  0  0  0  0  0  0  0
  128.2646  133.3931  163.9058 H   0  0  0  0  0  0  0  0  0  0  0  0
  130.5061  132.3732  163.9209 H   0  0  0  0  0  0  0  0  0  0  0  0
  132.5012  133.7898  164.1950 H   0  0  0  0  0  0  0  0  0  0  0  0
  133.5578  137.4748  166.1660 H   0  0  0  0  0  0  0  0  0  0  0  0
  132.0041  136.7085  166.5747 H   0  0  0  0  0  0  0  0  0  0  0  0
  134.4631  135.5947  164.4676 H   0  0  0  0  0  0  0  0  0  0  0  0
  135.1545  138.3333  165.1473 H   0  0  0  0  0  0  0  0  0  0  0  0
  135.8137  136.6900  164.9663 H   0  0  0  0  0  0  0  0  0  0  0  0
  136.7998  138.0996  164.5095 H   0  0  0  0  0  0  0  0  0  0  0  0
  136.5071  139.1767  162.3993 H   0  0  0  0  0  0  0  0  0  0  0  0
  135.6048  139.0787  160.1136 H   0  0  0  0  0  0  0  0  0  0  0  0
  133.8360  137.4626  159.5503 H   0  0  0  0  0  0  0  0  0  0  0  0
  133.4483  135.2708  159.2996 H   0  0  0  0  0  0  0  0  0  0  0  0
  134.0646  134.2411  160.6148 H   0  0  0  0  0  0  0  0  0  0  0  0
  131.8250  133.2207  160.8748 H   0  0  0  0  0  0  0  0  0  0  0  0
  132.4173  133.0224  159.2081 H   0  0  0  0  0  0  0  0  0  0  0  0
  129.5726  132.9323  160.0820 H   0  0  0  0  0  0  0  0  0  0  0  0
  127.2382  132.7419  159.4347 H   0  0  0  0  0  0  0  0  0  0  0  0
  125.2449  133.9183  158.5944 H   0  0  0  0  0  0  0  0  0  0  0  0
  125.4958  136.0114  157.3221 H   0  0  0  0  0  0  0  0  0  0  0  0
  127.7394  136.9332  156.8980 H   0  0  0  0  0  0  0  0  0  0  0  0
  129.7322  135.7617  157.7464 H   0  0  0  0  0  0  0  0  0  0  0  0
  129.5972  133.6390  156.4800 H   0  0  0  0  0  0  0  0  0  0  0  0
  130.3940  132.0371  154.7880 H   0  0  0  0  0  0  0  0  0  0  0  0
  131.5408  129.9742  155.4894 H   0  0  0  0  0  0  0  0  0  0  0  0
  131.8991  129.5175  157.8824 H   0  0  0  0  0  0  0  0  0  0  0  0
  131.1106  131.1237  159.5739 H   0  0  0  0  0  0  0  0  0  0  0  0
  130.1733  134.8707  161.3744 H   0  0  0  0  0  0  0  0  0  0  0  0
  129.5262  135.9101  160.0825 H   0  0  0  0  0  0  0  0  0  0  0  0
  131.1692  137.1331  161.4906 H   0  0  0  0  0  0  0  0  0  0  0  0
  131.7467  136.9704  159.8142 H   0  0  0  0  0  0  0  0  0  0  0  0
  1  2  1  0
  1 40  1  0
  1 41  1  0
  1 42  1  0
  2  7  2  0
  2  3  1  0
  3  4  2  0
  3 43  1  0
  4  5  1  0
  4 44  1  0
  5  6  2  0
  5 45  1  0
  6  7  1  0
  6 46  1  0
  7  8  1  0
  8  9  1  6
  8 10  1  0
  8 12  1  0
 10 11  1  0
 10 47  1  0
 10 48  1  0
 12 13  1  0
 12 49  1  0
 13 19  1  0
 13 14  2  0
 14 15  1  0
 14 16  1  0
 15 50  1  0
 15 51  1  0
 15 52  1  0
 16 17  2  0
 16 53  1  0
 17 18  1  0
 17 54  1  0
 18 19  2  0
 18 55  1  0
 19 20  1  0
 20 39  1  0
 20 21  1  0
 21 22  1  0
 21 56  1  0
 21 57  1  0
 22 23  1  0
 22 58  1  0
 22 59  1  0
 23 24  1  0
 23 25  1  0
 23 38  1  0
 25 26  1  0
 25 32  1  0
 25 60  1  0
 26 31  1  0
 26 27  2  0
 27 28  1  0
 27 61  1  0
 28 29  2  0
 28 62  1  0
 29 30  1  0
 29 63  1  0
 30 31  2  0
 30 64  1  0
 31 65  1  0
 32 37  1  0
 32 33  2  0
 33 34  1  0
 33 66  1  0
 34 35  2  0
 34 67  1  0
 35 36  1  0
 35 68  1  0
 36 37  2  0
 36 69  1  0
 37 70  1  0
 38 39  1  0
 38 71  1  0
 38 72  1  0
 39 73  1  0
 39 74  1  0
M  CHG  1  23   1
M  END
>  <DOCK_score>  (1) 
-59.881584

>  <SMILES>  (1) 
Cc1ccccc1[C@@H](CF)Nc1c(C)cccc1N1CC[NH+](C(c2ccccc2)c2ccccc2)CC1

$$$$
