CCc1ccc(-c2c[nH]c(N[C@H](CS(C)(=O)=O)c3ccc(N)cc3)[nH+]2)cc1
     RDKit          3D

 52 54  0  0  1  0  0  0  0  0999 V2000
  129.9245  129.3239  151.7019 C   0  0  0  0  0  0  0  0  0  0  0  0
  131.2750  129.7633  152.2708 C   0  0  0  0  0  0  0  0  0  0  0  0
  131.0566  130.5215  153.5547 C   0  0  0  0  0  0  0  0  0  0  0  0
  131.0300  129.8428  154.7597 C   0  0  0  0  0  0  0  0  0  0  0  0
  130.8303  130.5320  155.9386 C   0  0  0  0  0  0  0  0  0  0  0  0
  130.6557  131.9145  155.9135 C   0  0  0  0  0  0  0  0  0  0  0  0
  130.4401  132.6608  157.1772 C   0  0  0  0  0  0  0  0  0  0  0  0
  129.8401  132.1812  158.2947 C   0  0  0  0  0  0  0  0  0  0  0  0
  129.8509  133.1966  159.2199 N   0  0  0  0  0  0  0  0  0  0  0  0
  129.4920  133.1573  160.1202 H   0  0  0  0  0  0  0  0  0  0  0  0
  130.4576  134.2679  158.6399 C   0  0  0  0  0  0  0  0  0  0  0  0
  130.6697  135.4971  159.2405 N   0  0  0  0  0  0  0  0  0  0  0  0
  130.2256  135.7260  160.6177 C   0  0  2  0  0  0  0  0  0  0  0  0
  130.4232  134.8364  161.2157 H   0  0  0  0  0  0  0  0  0  0  0  0
  128.7248  136.0234  160.6268 C   0  0  0  0  0  0  0  0  0  0  0  0
  128.0593  135.7259  162.2879 S   0  0  0  0  0  0  0  0  0  0  0  0
  128.5345  137.2443  163.1593 C   0  0  0  0  0  0  0  0  0  0  0  0
  126.6417  135.6759  162.2054 O   0  0  0  0  0  0  0  0  0  0  0  0
  128.7597  134.6335  162.8671 O   0  0  0  0  0  0  0  0  0  0  0  0
  130.9737  136.8982  161.1985 C   0  0  0  0  0  0  0  0  0  0  0  0
  130.8752  138.1426  160.6035 C   0  0  0  0  0  0  0  0  0  0  0  0
  131.5549  139.2203  161.1365 C   0  0  0  0  0  0  0  0  0  0  0  0
  132.3471  139.0506  162.2649 C   0  0  0  0  0  0  0  0  0  0  0  0
  133.0399  140.1372  162.8035 N   0  0  0  0  0  0  0  0  0  0  0  0
  132.4482  137.7979  162.8567 C   0  0  0  0  0  0  0  0  0  0  0  0
  131.7615  136.7258  162.3219 C   0  0  0  0  0  0  0  0  0  0  0  0
  130.8083  133.9439  157.4194 N   0  0  0  0  0  0  0  0  0  0  0  0
  131.2588  134.5283  156.7898 H   0  0  0  0  0  0  0  0  0  0  0  0
  130.6786  132.5925  154.6959 C   0  0  0  0  0  0  0  0  0  0  0  0
  130.8837  131.8936  153.5236 C   0  0  0  0  0  0  0  0  0  0  0  0
  129.4188  128.6807  152.4220 H   0  0  0  0  0  0  0  0  0  0  0  0
  129.3100  130.2023  151.5049 H   0  0  0  0  0  0  0  0  0  0  0  0
  130.0824  128.7754  150.7731 H   0  0  0  0  0  0  0  0  0  0  0  0
  131.7809  130.4064  151.5506 H   0  0  0  0  0  0  0  0  0  0  0  0
  131.8895  128.8848  152.4677 H   0  0  0  0  0  0  0  0  0  0  0  0
  131.1655  128.7714  154.7780 H   0  0  0  0  0  0  0  0  0  0  0  0
  130.8098  130.0011  156.8788 H   0  0  0  0  0  0  0  0  0  0  0  0
  129.4356  131.1894  158.4326 H   0  0  0  0  0  0  0  0  0  0  0  0
  131.1125  136.2068  158.7494 H   0  0  0  0  0  0  0  0  0  0  0  0
  128.5592  137.0647  160.3501 H   0  0  0  0  0  0  0  0  0  0  0  0
  128.2212  135.3729  159.9117 H   0  0  0  0  0  0  0  0  0  0  0  0
  128.0819  138.1036  162.6648 H   0  0  0  0  0  0  0  0  0  0  0  0
  128.1876  137.1944  164.1915 H   0  0  0  0  0  0  0  0  0  0  0  0
  129.6195  137.3468  163.1453 H   0  0  0  0  0  0  0  0  0  0  0  0
  130.2628  138.2728  159.7234 H   0  0  0  0  0  0  0  0  0  0  0  0
  131.4740  140.1928  160.6740 H   0  0  0  0  0  0  0  0  0  0  0  0
  133.5927  140.0176  163.5917 H   0  0  0  0  0  0  0  0  0  0  0  0
  132.9685  141.0114  162.3893 H   0  0  0  0  0  0  0  0  0  0  0  0
  133.0636  137.6626  163.7338 H   0  0  0  0  0  0  0  0  0  0  0  0
  131.8393  135.7517  162.7817 H   0  0  0  0  0  0  0  0  0  0  0  0
  130.5392  133.6632  154.6702 H   0  0  0  0  0  0  0  0  0  0  0  0
  130.9050  132.4184  152.5800 H   0  0  0  0  0  0  0  0  0  0  0  0
  1  2  1  0
  1 31  1  0
  1 32  1  0
  1 33  1  0
  2  3  1  0
  2 34  1  0
  2 35  1  0
  3 30  2  0
  3  4  1  0
  4  5  2  0
  4 36  1  0
  5  6  1  0
  5 37  1  0
  6  7  1  0
  6 29  2  0
  7 27  1  0
  7  8  2  0
  8  9  1  0
  8 38  1  0
  9 10  1  0
  9 11  1  0
 11 12  1  0
 11 27  2  0
 12 13  1  0
 12 39  1  0
 13 14  1  1
 13 15  1  0
 13 20  1  0
 15 16  1  0
 15 40  1  0
 15 41  1  0
 16 17  1  0
 16 18  2  0
 16 19  2  0
 17 42  1  0
 17 43  1  0
 17 44  1  0
 20 26  1  0
 20 21  2  0
 21 22  1  0
 21 45  1  0
 22 23  2  0
 22 46  1  0
 23 24  1  0
 23 25  1  0
 24 47  1  0
 24 48  1  0
 25 26  2  0
 25 49  1  0
 26 50  1  0
 27 28  1  0
 29 30  1  0
 29 51  1  0
 30 52  1  0
M  CHG  1  27   1
M  END
>  <DOCK_score>  (1) 
-52.462276

>  <SMILES>  (1) 
CCc1ccc(-c2c[nH]c(N[C@H](CS(C)(=O)=O)c3ccc(N)cc3)[nH+]2)cc1

$$$$
