Clc1ccccc1C(c1ccccc1Cl)[NH+]1CCN(c2cccc3cc[nH]c23)CC1
     RDKit          3D

 54 58  0  0  1  0  0  0  0  0999 V2000
  127.0266  134.0292  161.1273 Cl  0  0  0  0  0  0  0  0  0  0  0  0
  127.1594  134.7060  159.5341 C   0  0  0  0  0  0  0  0  0  0  0  0
  126.0657  135.3191  158.9492 C   0  0  0  0  0  0  0  0  0  0  0  0
  126.1721  135.8582  157.6812 C   0  0  0  0  0  0  0  0  0  0  0  0
  127.3712  135.7845  156.9969 C   0  0  0  0  0  0  0  0  0  0  0  0
  128.4659  135.1773  157.5829 C   0  0  0  0  0  0  0  0  0  0  0  0
  128.3591  134.6331  158.8491 C   0  0  0  0  0  0  0  0  0  0  0  0
  129.5511  133.9660  159.4857 C   0  0  0  0  0  0  0  0  0  0  0  0
  129.9923  132.8050  158.6322 C   0  0  0  0  0  0  0  0  0  0  0  0
  130.9261  132.9983  157.6315 C   0  0  0  0  0  0  0  0  0  0  0  0
  131.3346  131.9324  156.8519 C   0  0  0  0  0  0  0  0  0  0  0  0
  130.8012  130.6747  157.0650 C   0  0  0  0  0  0  0  0  0  0  0  0
  129.8637  130.4815  158.0618 C   0  0  0  0  0  0  0  0  0  0  0  0
  129.4585  131.5468  158.8462 C   0  0  0  0  0  0  0  0  0  0  0  0
  128.2804  131.3049  160.0981 Cl  0  0  0  0  0  0  0  0  0  0  0  0
  130.6499  134.9340  159.6016 N   0  0  0  0  0  0  0  0  0  0  0  0
  130.9018  135.2681  158.6835 H   0  0  0  0  0  0  0  0  0  0  0  0
  130.2195  136.0657  160.4331 C   0  0  0  0  0  0  0  0  0  0  0  0
  131.3575  137.0833  160.5387 C   0  0  0  0  0  0  0  0  0  0  0  0
  132.5358  136.4364  161.1333 N   0  0  0  0  0  0  0  0  0  0  0  0
  133.5811  137.3509  161.2957 C   0  0  0  0  0  0  0  0  0  0  0  0
  134.0926  137.6059  162.5563 C   0  0  0  0  0  0  0  0  0  0  0  0
  135.1341  138.5068  162.7263 C   0  0  0  0  0  0  0  0  0  0  0  0
  135.6642  139.1672  161.6541 C   0  0  0  0  0  0  0  0  0  0  0  0
  135.1604  138.9312  160.3716 C   0  0  0  0  0  0  0  0  0  0  0  0
  135.4843  139.4491  159.0404 C   0  0  0  0  0  0  0  0  0  0  0  0
  134.6545  138.8486  158.1724 C   0  0  0  0  0  0  0  0  0  0  0  0
  133.8260  137.9888  158.8390 N   0  0  0  0  0  0  0  0  0  0  0  0
  133.1408  137.4412  158.4248 H   0  0  0  0  0  0  0  0  0  0  0  0
  134.1104  138.0162  160.1875 C   0  0  0  0  0  0  0  0  0  0  0  0
  132.9632  135.2859  160.3247 C   0  0  0  0  0  0  0  0  0  0  0  0
  131.8120  134.2831  160.2209 C   0  0  0  0  0  0  0  0  0  0  0  0
  125.1287  135.3761  159.4833 H   0  0  0  0  0  0  0  0  0  0  0  0
  125.3183  136.3368  157.2245 H   0  0  0  0  0  0  0  0  0  0  0  0
  127.4539  136.2060  156.0058 H   0  0  0  0  0  0  0  0  0  0  0  0
  129.4037  135.1244  157.0498 H   0  0  0  0  0  0  0  0  0  0  0  0
  129.2788  133.6050  160.4775 H   0  0  0  0  0  0  0  0  0  0  0  0
  131.3396  133.9814  157.4614 H   0  0  0  0  0  0  0  0  0  0  0  0
  132.0674  132.0830  156.0729 H   0  0  0  0  0  0  0  0  0  0  0  0
  131.1176  129.8433  156.4528 H   0  0  0  0  0  0  0  0  0  0  0  0
  129.4476  129.4989  158.2287 H   0  0  0  0  0  0  0  0  0  0  0  0
  129.9596  135.7066  161.4290 H   0  0  0  0  0  0  0  0  0  0  0  0
  129.3493  136.5397  159.9792 H   0  0  0  0  0  0  0  0  0  0  0  0
  131.0435  137.9160  161.1679 H   0  0  0  0  0  0  0  0  0  0  0  0
  131.6085  137.4526  159.5444 H   0  0  0  0  0  0  0  0  0  0  0  0
  133.6810  137.0954  163.4144 H   0  0  0  0  0  0  0  0  0  0  0  0
  135.5256  138.6916  163.7157 H   0  0  0  0  0  0  0  0  0  0  0  0
  136.4716  139.8700  161.7970 H   0  0  0  0  0  0  0  0  0  0  0  0
  136.2460  140.1767  158.8022 H   0  0  0  0  0  0  0  0  0  0  0  0
  134.6429  139.0194  157.1061 H   0  0  0  0  0  0  0  0  0  0  0  0
  133.2407  135.6256  159.3269 H   0  0  0  0  0  0  0  0  0  0  0  0
  133.8208  134.8074  160.7979 H   0  0  0  0  0  0  0  0  0  0  0  0
  131.5440  133.9333  161.2179 H   0  0  0  0  0  0  0  0  0  0  0  0
  132.1224  133.4357  159.6098 H   0  0  0  0  0  0  0  0  0  0  0  0
  1  2  1  0
  2  7  2  0
  2  3  1  0
  3  4  2  0
  3 33  1  0
  4  5  1  0
  4 34  1  0
  5  6  2  0
  5 35  1  0
  6  7  1  0
  6 36  1  0
  7  8  1  0
  8  9  1  0
  8 16  1  0
  8 37  1  0
  9 14  1  0
  9 10  2  0
 10 11  1  0
 10 38  1  0
 11 12  2  0
 11 39  1  0
 12 13  1  0
 12 40  1  0
 13 14  2  0
 13 41  1  0
 14 15  1  0
 16 17  1  0
 16 32  1  0
 16 18  1  0
 18 19  1  0
 18 42  1  0
 18 43  1  0
 19 20  1  0
 19 44  1  0
 19 45  1  0
 20 21  1  0
 20 31  1  0
 21 30  1  0
 21 22  2  0
 22 23  1  0
 22 46  1  0
 23 24  2  0
 23 47  1  0
 24 25  1  0
 24 48  1  0
 25 30  2  0
 25 26  1  0
 26 27  2  0
 26 49  1  0
 27 28  1  0
 27 50  1  0
 28 29  1  0
 28 30  1  0
 31 32  1  0
 31 51  1  0
 31 52  1  0
 32 53  1  0
 32 54  1  0
M  CHG  1  16   1
M  END
>  <DOCK_score>  (1) 
-58.201401

>  <SMILES>  (1) 
Clc1ccccc1C(c1ccccc1Cl)[NH+]1CCN(c2cccc3cc[nH]c23)CC1

$$$$
