O=C(CC[NH+]1CC[C@H](c2c[nH]c3ccccc23)C1)Nc1ccc(Cl)cc1
     RDKit          3D

 49 52  0  0  1  0  0  0  0  0999 V2000
  130.5368  129.8609  155.9576 O   0  0  0  0  0  0  0  0  0  0  0  0
  130.8014  131.0110  155.6782 C   0  0  0  0  0  0  0  0  0  0  0  0
  130.9938  132.0275  156.7739 C   0  0  0  0  0  0  0  0  0  0  0  0
  129.7115  132.1340  157.6017 C   0  0  0  0  0  0  0  0  0  0  0  0
  129.8991  133.1249  158.6699 N   0  0  1  0  0  0  0  0  0  0  0  0
  130.6605  132.8407  159.2679 H   0  0  0  0  0  0  0  0  0  0  0  0
  130.2001  134.4438  158.0738 C   0  0  0  0  0  0  0  0  0  0  0  0
  129.4935  135.4664  158.9982 C   0  0  0  0  0  0  0  0  0  0  0  0
  128.1926  134.7068  159.3691 C   0  0  2  0  0  0  0  0  0  0  0  0
  127.4402  134.8218  158.5887 H   0  0  0  0  0  0  0  0  0  0  0  0
  127.6581  135.1816  160.6958 C   0  0  0  0  0  0  0  0  0  0  0  0
  126.4578  135.7393  160.9196 C   0  0  0  0  0  0  0  0  0  0  0  0
  126.3220  136.0365  162.2483 N   0  0  0  0  0  0  0  0  0  0  0  0
  125.5400  136.4453  162.6508 H   0  0  0  0  0  0  0  0  0  0  0  0
  127.4607  135.6678  162.9291 C   0  0  0  0  0  0  0  0  0  0  0  0
  127.8444  135.7415  164.2644 C   0  0  0  0  0  0  0  0  0  0  0  0
  129.0829  135.2755  164.6469 C   0  0  0  0  0  0  0  0  0  0  0  0
  129.9544  134.7319  163.7130 C   0  0  0  0  0  0  0  0  0  0  0  0
  129.5981  134.6499  162.3966 C   0  0  0  0  0  0  0  0  0  0  0  0
  128.3474  135.1162  161.9866 C   0  0  0  0  0  0  0  0  0  0  0  0
  128.6614  133.2397  159.4632 C   0  0  0  0  0  0  0  0  0  0  0  0
  130.9234  131.3801  154.3877 N   0  0  0  0  0  0  0  0  0  0  0  0
  130.7447  130.4359  153.3699 C   0  0  0  0  0  0  0  0  0  0  0  0
  130.2498  130.8308  152.1339 C   0  0  0  0  0  0  0  0  0  0  0  0
  130.0791  129.8980  151.1299 C   0  0  0  0  0  0  0  0  0  0  0  0
  130.3907  128.5693  151.3578 C   0  0  0  0  0  0  0  0  0  0  0  0
  130.1692  127.3984  150.0954 Cl  0  0  0  0  0  0  0  0  0  0  0  0
  130.8792  128.1723  152.5903 C   0  0  0  0  0  0  0  0  0  0  0  0
  131.0567  129.1019  153.5961 C   0  0  0  0  0  0  0  0  0  0  0  0
  131.2234  132.9977  156.3333 H   0  0  0  0  0  0  0  0  0  0  0  0
  131.8169  131.7168  157.4173 H   0  0  0  0  0  0  0  0  0  0  0  0
  129.4819  131.1638  158.0425 H   0  0  0  0  0  0  0  0  0  0  0  0
  128.8883  132.4446  156.9583 H   0  0  0  0  0  0  0  0  0  0  0  0
  131.2758  134.6199  158.0655 H   0  0  0  0  0  0  0  0  0  0  0  0
  129.7970  134.5043  157.0629 H   0  0  0  0  0  0  0  0  0  0  0  0
  129.2681  136.3877  158.4611 H   0  0  0  0  0  0  0  0  0  0  0  0
  130.0931  135.6702  159.8855 H   0  0  0  0  0  0  0  0  0  0  0  0
  125.7100  135.9258  160.1630 H   0  0  0  0  0  0  0  0  0  0  0  0
  127.1736  136.1630  164.9984 H   0  0  0  0  0  0  0  0  0  0  0  0
  129.3788  135.3331  165.6840 H   0  0  0  0  0  0  0  0  0  0  0  0
  130.9221  134.3714  164.0295 H   0  0  0  0  0  0  0  0  0  0  0  0
  130.2815  134.2261  161.6756 H   0  0  0  0  0  0  0  0  0  0  0  0
  128.8618  132.9803  160.5028 H   0  0  0  0  0  0  0  0  0  0  0  0
  127.8954  132.5789  159.0574 H   0  0  0  0  0  0  0  0  0  0  0  0
  131.1350  132.3000  154.1642 H   0  0  0  0  0  0  0  0  0  0  0  0
  130.0026  131.8672  151.9568 H   0  0  0  0  0  0  0  0  0  0  0  0
  129.6984  130.2055  150.1670 H   0  0  0  0  0  0  0  0  0  0  0  0
  131.1212  127.1344  152.7659 H   0  0  0  0  0  0  0  0  0  0  0  0
  131.4383  128.7915  154.5576 H   0  0  0  0  0  0  0  0  0  0  0  0
  1  2  2  0
  2  3  1  0
  2 22  1  0
  3  4  1  0
  3 30  1  0
  3 31  1  0
  4  5  1  0
  4 32  1  0
  4 33  1  0
  5  6  1  1
  5 21  1  0
  5  7  1  0
  7  8  1  0
  7 34  1  0
  7 35  1  0
  8  9  1  0
  8 36  1  0
  8 37  1  0
  9 10  1  6
  9 11  1  0
  9 21  1  0
 11 20  1  0
 11 12  2  0
 12 13  1  0
 12 38  1  0
 13 14  1  0
 13 15  1  0
 15 20  2  0
 15 16  1  0
 16 17  2  0
 16 39  1  0
 17 18  1  0
 17 40  1  0
 18 19  2  0
 18 41  1  0
 19 20  1  0
 19 42  1  0
 21 43  1  0
 21 44  1  0
 22 23  1  0
 22 45  1  0
 23 29  1  0
 23 24  2  0
 24 25  1  0
 24 46  1  0
 25 26  2  0
 25 47  1  0
 26 27  1  0
 26 28  1  0
 28 29  2  0
 28 48  1  0
 29 49  1  0
M  CHG  1   5   1
M  END
>  <DOCK_score>  (1) 
-41.190712

>  <SMILES>  (1) 
O=C(CC[NH+]1CC[C@H](c2c[nH]c3ccccc23)C1)Nc1ccc(Cl)cc1

$$$$
