Brc1ccc(-c2c[nH]c(N[C@H](c3ccccc3)c3ccccc3-c3ccccc3)[nH+]2)cc1
     RDKit          3D

 55 59  0  0  1  0  0  0  0  0999 V2000
  131.6526  129.4172  151.5611 Br  0  0  0  0  0  0  0  0  0  0  0  0
  131.1971  130.3011  153.1695 C   0  0  0  0  0  0  0  0  0  0  0  0
  130.4644  131.4747  153.1279 C   0  0  0  0  0  0  0  0  0  0  0  0
  130.1244  132.1206  154.2989 C   0  0  0  0  0  0  0  0  0  0  0  0
  130.5253  131.5924  155.5249 C   0  0  0  0  0  0  0  0  0  0  0  0
  130.1631  132.2828  156.7869 C   0  0  0  0  0  0  0  0  0  0  0  0
  129.4299  131.7598  157.8006 C   0  0  0  0  0  0  0  0  0  0  0  0
  129.3353  132.7318  158.7669 N   0  0  0  0  0  0  0  0  0  0  0  0
  128.8704  132.6557  159.6148 H   0  0  0  0  0  0  0  0  0  0  0  0
  130.0141  133.8212  158.3148 C   0  0  0  0  0  0  0  0  0  0  0  0
  130.1595  135.0193  158.9930 N   0  0  0  0  0  0  0  0  0  0  0  0
  129.1145  135.4704  159.9154 C   0  0  2  0  0  0  0  0  0  0  0  0
  128.9864  134.7333  160.7078 H   0  0  0  0  0  0  0  0  0  0  0  0
  127.8178  135.6320  159.1650 C   0  0  0  0  0  0  0  0  0  0  0  0
  126.6140  135.4302  159.8137 C   0  0  0  0  0  0  0  0  0  0  0  0
  125.4243  135.5827  159.1264 C   0  0  0  0  0  0  0  0  0  0  0  0
  125.4388  135.9275  157.7878 C   0  0  0  0  0  0  0  0  0  0  0  0
  126.6427  136.1245  157.1377 C   0  0  0  0  0  0  0  0  0  0  0  0
  127.8322  135.9762  157.8262 C   0  0  0  0  0  0  0  0  0  0  0  0
  129.5138  136.7924  160.5189 C   0  0  0  0  0  0  0  0  0  0  0  0
  129.7341  137.8856  159.7053 C   0  0  0  0  0  0  0  0  0  0  0  0
  130.0995  139.0995  160.2579 C   0  0  0  0  0  0  0  0  0  0  0  0
  130.2473  139.2254  161.6276 C   0  0  0  0  0  0  0  0  0  0  0  0
  130.0305  138.1389  162.4503 C   0  0  0  0  0  0  0  0  0  0  0  0
  129.6555  136.9149  161.8994 C   0  0  0  0  0  0  0  0  0  0  0  0
  129.4142  135.7448  162.7795 C   0  0  0  0  0  0  0  0  0  0  0  0
  128.1403  135.5055  163.2908 C   0  0  0  0  0  0  0  0  0  0  0  0
  127.9201  134.4121  164.1038 C   0  0  0  0  0  0  0  0  0  0  0  0
  128.9639  133.5618  164.4214 C   0  0  0  0  0  0  0  0  0  0  0  0
  130.2316  133.7980  163.9214 C   0  0  0  0  0  0  0  0  0  0  0  0
  130.4618  134.8847  163.1024 C   0  0  0  0  0  0  0  0  0  0  0  0
  130.5119  133.5472  157.1337 N   0  0  0  0  0  0  0  0  0  0  0  0
  131.0428  134.1526  156.5928 H   0  0  0  0  0  0  0  0  0  0  0  0
  131.2679  130.4135  155.5610 C   0  0  0  0  0  0  0  0  0  0  0  0
  131.6025  129.7754  154.3841 C   0  0  0  0  0  0  0  0  0  0  0  0
  130.1542  131.8831  152.1773 H   0  0  0  0  0  0  0  0  0  0  0  0
  129.5486  133.0336  154.2656 H   0  0  0  0  0  0  0  0  0  0  0  0
  129.0018  130.7691  157.8405 H   0  0  0  0  0  0  0  0  0  0  0  0
  130.9534  135.5600  158.8574 H   0  0  0  0  0  0  0  0  0  0  0  0
  126.6027  135.1568  160.8585 H   0  0  0  0  0  0  0  0  0  0  0  0
  124.4837  135.4292  159.6344 H   0  0  0  0  0  0  0  0  0  0  0  0
  124.5094  136.0434  157.2499 H   0  0  0  0  0  0  0  0  0  0  0  0
  126.6540  136.3939  156.0920 H   0  0  0  0  0  0  0  0  0  0  0  0
  128.7729  136.1299  157.3183 H   0  0  0  0  0  0  0  0  0  0  0  0
  129.6206  137.7928  158.6353 H   0  0  0  0  0  0  0  0  0  0  0  0
  130.2706  139.9524  159.6177 H   0  0  0  0  0  0  0  0  0  0  0  0
  130.5332  140.1756  162.0538 H   0  0  0  0  0  0  0  0  0  0  0  0
  130.1465  138.2382  163.5195 H   0  0  0  0  0  0  0  0  0  0  0  0
  127.3257  136.1715  163.0473 H   0  0  0  0  0  0  0  0  0  0  0  0
  126.9321  134.2231  164.4971 H   0  0  0  0  0  0  0  0  0  0  0  0
  128.7881  132.7103  165.0620 H   0  0  0  0  0  0  0  0  0  0  0  0
  131.0431  133.1309  164.1726 H   0  0  0  0  0  0  0  0  0  0  0  0
  131.4521  135.0681  162.7122 H   0  0  0  0  0  0  0  0  0  0  0  0
  131.5813  130.0003  156.5082 H   0  0  0  0  0  0  0  0  0  0  0  0
  132.1776  128.8616  154.4109 H   0  0  0  0  0  0  0  0  0  0  0  0
  1  2  1  0
  2 35  2  0
  2  3  1  0
  3  4  2  0
  3 36  1  0
  4  5  1  0
  4 37  1  0
  5  6  1  0
  5 34  2  0
  6 32  1  0
  6  7  2  0
  7  8  1  0
  7 38  1  0
  8  9  1  0
  8 10  1  0
 10 11  1  0
 10 32  2  0
 11 12  1  0
 11 39  1  0
 12 13  1  1
 12 14  1  0
 12 20  1  0
 14 19  1  0
 14 15  2  0
 15 16  1  0
 15 40  1  0
 16 17  2  0
 16 41  1  0
 17 18  1  0
 17 42  1  0
 18 19  2  0
 18 43  1  0
 19 44  1  0
 20 25  1  0
 20 21  2  0
 21 22  1  0
 21 45  1  0
 22 23  2  0
 22 46  1  0
 23 24  1  0
 23 47  1  0
 24 25  2  0
 24 48  1  0
 25 26  1  0
 26 31  1  0
 26 27  2  0
 27 28  1  0
 27 49  1  0
 28 29  2  0
 28 50  1  0
 29 30  1  0
 29 51  1  0
 30 31  2  0
 30 52  1  0
 31 53  1  0
 32 33  1  0
 34 35  1  0
 34 54  1  0
 35 55  1  0
M  CHG  1  32   1
M  END
>  <DOCK_score>  (1) 
-62.813011

>  <SMILES>  (1) 
Brc1ccc(-c2c[nH]c(N[C@H](c3ccccc3)c3ccccc3-c3ccccc3)[nH+]2)cc1

$$$$
