CCc1ccc(-c2c[nH]c(N[C@@H](CCc3cccc4ccccc34)Cc3ccccn3)[nH+]2)cc1
     RDKit          3D

 65 69  0  0  1  0  0  0  0  0999 V2000
  132.1267  129.5828  152.4829 C   0  0  0  0  0  0  0  0  0  0  0  0
  130.7093  129.5755  153.0585 C   0  0  0  0  0  0  0  0  0  0  0  0
  130.6656  130.4329  154.2971 C   0  0  0  0  0  0  0  0  0  0  0  0
  130.3683  131.7799  154.1926 C   0  0  0  0  0  0  0  0  0  0  0  0
  130.3214  132.5686  155.3240 C   0  0  0  0  0  0  0  0  0  0  0  0
  130.5854  132.0081  156.5724 C   0  0  0  0  0  0  0  0  0  0  0  0
  130.5419  132.8519  157.7916 C   0  0  0  0  0  0  0  0  0  0  0  0
  130.2160  132.4343  159.0400 C   0  0  0  0  0  0  0  0  0  0  0  0
  130.3026  133.5311  159.8625 N   0  0  0  0  0  0  0  0  0  0  0  0
  130.1273  133.5491  160.8164 H   0  0  0  0  0  0  0  0  0  0  0  0
  130.6793  134.5878  159.0921 C   0  0  0  0  0  0  0  0  0  0  0  0
  130.8794  135.8821  159.5407 N   0  0  0  0  0  0  0  0  0  0  0  0
  130.1154  136.3874  160.6840 C   0  0  1  0  0  0  0  0  0  0  0  0
  130.0288  135.6046  161.4376 H   0  0  0  0  0  0  0  0  0  0  0  0
  130.8356  137.5963  161.2845 C   0  0  0  0  0  0  0  0  0  0  0  0
  132.2325  137.1788  161.7490 C   0  0  0  0  0  0  0  0  0  0  0  0
  132.9419  138.3696  162.3405 C   0  0  0  0  0  0  0  0  0  0  0  0
  132.8354  138.6380  163.6707 C   0  0  0  0  0  0  0  0  0  0  0  0
  133.4848  139.7337  164.2355 C   0  0  0  0  0  0  0  0  0  0  0  0
  134.2442  140.5679  163.4735 C   0  0  0  0  0  0  0  0  0  0  0  0
  134.3772  140.3230  162.0964 C   0  0  0  0  0  0  0  0  0  0  0  0
  135.1521  141.1620  161.2774 C   0  0  0  0  0  0  0  0  0  0  0  0
  135.2578  140.8940  159.9473 C   0  0  0  0  0  0  0  0  0  0  0  0
  134.6080  139.7980  159.3822 C   0  0  0  0  0  0  0  0  0  0  0  0
  133.8487  138.9642  160.1440 C   0  0  0  0  0  0  0  0  0  0  0  0
  133.7213  139.2050  161.5229 C   0  0  0  0  0  0  0  0  0  0  0  0
  128.7186  136.8049  160.2195 C   0  0  0  0  0  0  0  0  0  0  0  0
  127.8455  135.5833  160.0923 C   0  0  0  0  0  0  0  0  0  0  0  0
  126.8302  135.5639  159.1544 C   0  0  0  0  0  0  0  0  0  0  0  0
  126.0331  134.4351  159.0451 C   0  0  0  0  0  0  0  0  0  0  0  0
  126.2878  133.3631  159.8872 C   0  0  0  0  0  0  0  0  0  0  0  0
  127.3205  133.4550  160.8006 C   0  0  0  0  0  0  0  0  0  0  0  0
  128.0621  134.5432  160.8733 N   0  0  0  0  0  0  0  0  0  0  0  0
  130.8270  134.1767  157.8563 N   0  0  0  0  0  0  0  0  0  0  0  0
  131.0950  134.7316  157.1072 H   0  0  0  0  0  0  0  0  0  0  0  0
  130.8898  130.6515  156.6712 C   0  0  0  0  0  0  0  0  0  0  0  0
  130.9285  129.8712  155.5336 C   0  0  0  0  0  0  0  0  0  0  0  0
  132.8217  129.1871  153.2234 H   0  0  0  0  0  0  0  0  0  0  0  0
  132.1583  128.9628  151.5870 H   0  0  0  0  0  0  0  0  0  0  0  0
  132.4102  130.6041  152.2280 H   0  0  0  0  0  0  0  0  0  0  0  0
  130.0142  129.9713  152.3179 H   0  0  0  0  0  0  0  0  0  0  0  0
  130.4258  128.5543  153.3134 H   0  0  0  0  0  0  0  0  0  0  0  0
  130.1686  132.2141  153.2241 H   0  0  0  0  0  0  0  0  0  0  0  0
  130.0845  133.6192  155.2418 H   0  0  0  0  0  0  0  0  0  0  0  0
  129.9406  131.4315  159.3316 H   0  0  0  0  0  0  0  0  0  0  0  0
  131.5256  136.4543  159.0981 H   0  0  0  0  0  0  0  0  0  0  0  0
  130.9221  138.3790  160.5310 H   0  0  0  0  0  0  0  0  0  0  0  0
  130.2672  137.9722  162.1354 H   0  0  0  0  0  0  0  0  0  0  0  0
  132.1460  136.3961  162.5025 H   0  0  0  0  0  0  0  0  0  0  0  0
  132.8009  136.8029  160.8982 H   0  0  0  0  0  0  0  0  0  0  0  0
  132.2390  137.9919  164.2977 H   0  0  0  0  0  0  0  0  0  0  0  0
  133.3840  139.9243  165.2938 H   0  0  0  0  0  0  0  0  0  0  0  0
  134.7416  141.4135  163.9250 H   0  0  0  0  0  0  0  0  0  0  0  0
  135.6609  142.0153  161.7012 H   0  0  0  0  0  0  0  0  0  0  0  0
  135.8539  141.5403  159.3202 H   0  0  0  0  0  0  0  0  0  0  0  0
  134.7082  139.6080  158.3238 H   0  0  0  0  0  0  0  0  0  0  0  0
  133.3511  138.1189  159.6923 H   0  0  0  0  0  0  0  0  0  0  0  0
  128.2829  137.4888  160.9479 H   0  0  0  0  0  0  0  0  0  0  0  0
  128.7910  137.3021  159.2522 H   0  0  0  0  0  0  0  0  0  0  0  0
  126.6601  136.4174  158.5150 H   0  0  0  0  0  0  0  0  0  0  0  0
  125.2328  134.3914  158.3212 H   0  0  0  0  0  0  0  0  0  0  0  0
  125.6870  132.4675  159.8295 H   0  0  0  0  0  0  0  0  0  0  0  0
  127.5254  132.6245  161.4601 H   0  0  0  0  0  0  0  0  0  0  0  0
  131.0956  130.2120  157.6360 H   0  0  0  0  0  0  0  0  0  0  0  0
  131.1646  128.8200  155.6089 H   0  0  0  0  0  0  0  0  0  0  0  0
  1  2  1  0
  1 38  1  0
  1 39  1  0
  1 40  1  0
  2  3  1  0
  2 41  1  0
  2 42  1  0
  3 37  2  0
  3  4  1  0
  4  5  2  0
  4 43  1  0
  5  6  1  0
  5 44  1  0
  6  7  1  0
  6 36  2  0
  7 34  1  0
  7  8  2  0
  8  9  1  0
  8 45  1  0
  9 10  1  0
  9 11  1  0
 11 12  1  0
 11 34  2  0
 12 13  1  0
 12 46  1  0
 13 14  1  1
 13 15  1  0
 13 27  1  0
 15 16  1  0
 15 47  1  0
 15 48  1  0
 16 17  1  0
 16 49  1  0
 16 50  1  0
 17 26  1  0
 17 18  2  0
 18 19  1  0
 18 51  1  0
 19 20  2  0
 19 52  1  0
 20 21  1  0
 20 53  1  0
 21 26  2  0
 21 22  1  0
 22 23  2  0
 22 54  1  0
 23 24  1  0
 23 55  1  0
 24 25  2  0
 24 56  1  0
 25 26  1  0
 25 57  1  0
 27 28  1  0
 27 58  1  0
 27 59  1  0
 28 33  1  0
 28 29  2  0
 29 30  1  0
 29 60  1  0
 30 31  2  0
 30 61  1  0
 31 32  1  0
 31 62  1  0
 32 33  2  0
 32 63  1  0
 34 35  1  0
 36 37  1  0
 36 64  1  0
 37 65  1  0
M  CHG  1  34   1
M  END
>  <DOCK_score>  (1) 
-61.411659

>  <SMILES>  (1) 
CCc1ccc(-c2c[nH]c(N[C@@H](CCc3cccc4ccccc34)Cc3ccccn3)[nH+]2)cc1

$$$$
