Nc1ccc(-c2c[nH]c(Nc3cc(O)cc(Nc4cc(O)cc(O)c4)c3)[nH+]2)cc1
     RDKit          3D

 49 52  0  0  1  0  0  0  0  0999 V2000
  131.4079  129.7400  151.9938 N   0  0  0  0  0  0  0  0  0  0  0  0
  131.0828  130.4337  153.1619 C   0  0  0  0  0  0  0  0  0  0  0  0
  130.3777  131.6295  153.0854 C   0  0  0  0  0  0  0  0  0  0  0  0
  130.0556  132.3158  154.2372 C   0  0  0  0  0  0  0  0  0  0  0  0
  130.4376  131.8097  155.4787 C   0  0  0  0  0  0  0  0  0  0  0  0
  130.0923  132.5464  156.7193 C   0  0  0  0  0  0  0  0  0  0  0  0
  129.3320  132.0781  157.7401 C   0  0  0  0  0  0  0  0  0  0  0  0
  129.2671  133.0784  158.6802 N   0  0  0  0  0  0  0  0  0  0  0  0
  128.7933  133.0423  159.5258 H   0  0  0  0  0  0  0  0  0  0  0  0
  129.9902  134.1290  158.2053 C   0  0  0  0  0  0  0  0  0  0  0  0
  130.1761  135.3393  158.8532 N   0  0  0  0  0  0  0  0  0  0  0  0
  129.1895  135.8306  159.7128 C   0  0  0  0  0  0  0  0  0  0  0  0
  127.8539  135.5256  159.4839 C   0  0  0  0  0  0  0  0  0  0  0  0
  126.8752  136.0122  160.3367 C   0  0  0  0  0  0  0  0  0  0  0  0
  125.5688  135.7132  160.1119 O   0  0  0  0  0  0  0  0  0  0  0  0
  127.2286  136.8045  161.4185 C   0  0  0  0  0  0  0  0  0  0  0  0
  128.5634  137.1102  161.6492 C   0  0  0  0  0  0  0  0  0  0  0  0
  128.9193  137.9084  162.7393 N   0  0  0  0  0  0  0  0  0  0  0  0
  130.2623  138.2158  162.9710 C   0  0  0  0  0  0  0  0  0  0  0  0
  131.0352  137.3892  163.7760 C   0  0  0  0  0  0  0  0  0  0  0  0
  132.3691  137.6924  164.0016 C   0  0  0  0  0  0  0  0  0  0  0  0
  133.1271  136.8809  164.7849 O   0  0  0  0  0  0  0  0  0  0  0  0
  132.9289  138.8264  163.4319 C   0  0  0  0  0  0  0  0  0  0  0  0
  132.1562  139.6556  162.6325 C   0  0  0  0  0  0  0  0  0  0  0  0
  132.7055  140.7666  162.0753 O   0  0  0  0  0  0  0  0  0  0  0  0
  130.8235  139.3511  162.4016 C   0  0  0  0  0  0  0  0  0  0  0  0
  129.5438  136.6271  160.7929 C   0  0  0  0  0  0  0  0  0  0  0  0
  130.4773  133.8088  157.0311 N   0  0  0  0  0  0  0  0  0  0  0  0
  131.0270  134.3826  156.4748 H   0  0  0  0  0  0  0  0  0  0  0  0
  131.1495  130.6135  155.5523 C   0  0  0  0  0  0  0  0  0  0  0  0
  131.4647  129.9279  154.3982 C   0  0  0  0  0  0  0  0  0  0  0  0
  131.1415  130.0932  151.1299 H   0  0  0  0  0  0  0  0  0  0  0  0
  131.9002  128.9064  152.0457 H   0  0  0  0  0  0  0  0  0  0  0  0
  130.0818  132.0211  152.1234 H   0  0  0  0  0  0  0  0  0  0  0  0
  129.5075  133.2445  154.1775 H   0  0  0  0  0  0  0  0  0  0  0  0
  128.8668  131.1053  157.8022 H   0  0  0  0  0  0  0  0  0  0  0  0
  130.9909  135.8459  158.7104 H   0  0  0  0  0  0  0  0  0  0  0  0
  127.5778  134.9086  158.6416 H   0  0  0  0  0  0  0  0  0  0  0  0
  124.9607  136.0968  160.7584 H   0  0  0  0  0  0  0  0  0  0  0  0
  126.4655  137.1836  162.0822 H   0  0  0  0  0  0  0  0  0  0  0  0
  128.2336  138.2526  163.3327 H   0  0  0  0  0  0  0  0  0  0  0  0
  130.5986  136.5082  164.2227 H   0  0  0  0  0  0  0  0  0  0  0  0
  134.0434  137.1737  164.8837 H   0  0  0  0  0  0  0  0  0  0  0  0
  133.9670  139.0640  163.6111 H   0  0  0  0  0  0  0  0  0  0  0  0
  133.6388  140.8952  162.2928 H   0  0  0  0  0  0  0  0  0  0  0  0
  130.2220  139.9969  161.7790 H   0  0  0  0  0  0  0  0  0  0  0  0
  130.5818  136.8677  160.9694 H   0  0  0  0  0  0  0  0  0  0  0  0
  131.4506  130.2221  156.5128 H   0  0  0  0  0  0  0  0  0  0  0  0
  132.0128  128.9989  154.4551 H   0  0  0  0  0  0  0  0  0  0  0  0
  1  2  1  0
  1 32  1  0
  1 33  1  0
  2 31  2  0
  2  3  1  0
  3  4  2  0
  3 34  1  0
  4  5  1  0
  4 35  1  0
  5  6  1  0
  5 30  2  0
  6 28  1  0
  6  7  2  0
  7  8  1  0
  7 36  1  0
  8  9  1  0
  8 10  1  0
 10 11  1  0
 10 28  2  0
 11 12  1  0
 11 37  1  0
 12 27  1  0
 12 13  2  0
 13 14  1  0
 13 38  1  0
 14 15  1  0
 14 16  2  0
 15 39  1  0
 16 17  1  0
 16 40  1  0
 17 18  1  0
 17 27  2  0
 18 19  1  0
 18 41  1  0
 19 26  1  0
 19 20  2  0
 20 21  1  0
 20 42  1  0
 21 22  1  0
 21 23  2  0
 22 43  1  0
 23 24  1  0
 23 44  1  0
 24 25  1  0
 24 26  2  0
 25 45  1  0
 26 46  1  0
 27 47  1  0
 28 29  1  0
 30 31  1  0
 30 48  1  0
 31 49  1  0
M  CHG  1  28   1
M  END
>  <DOCK_score>  (1) 
-53.589558

>  <SMILES>  (1) 
Nc1ccc(-c2c[nH]c(Nc3cc(O)cc(Nc4cc(O)cc(O)c4)c3)[nH+]2)cc1

$$$$
