CC1=CC[C@H](C[NH2+]Cc2c[nH]nc2-c2ccc(Nc3c(F)c(F)c(O)c(F)c3F)o2)CC1
     RDKit          3D

 55 58  0  0  1  0  0  0  0  0999 V2000
  137.8483  139.9435  160.9160 C   0  0  0  0  0  0  0  0  0  0  0  0
  136.4834  139.3110  161.0068 C   0  0  0  0  0  0  0  0  0  0  0  0
  135.7927  139.1993  159.9178 C   0  0  0  0  0  0  0  0  0  0  0  0
  134.4174  138.6022  159.8519 C   0  0  0  0  0  0  0  0  0  0  0  0
  134.1370  137.7842  161.1144 C   0  0  2  0  0  0  0  0  0  0  0  0
  134.7443  136.8792  161.1069 H   0  0  0  0  0  0  0  0  0  0  0  0
  132.6547  137.4084  161.1650 C   0  0  0  0  0  0  0  0  0  0  0  0
  132.4118  136.2549  160.2885 N   0  0  0  0  0  0  0  0  0  0  0  0
  132.9678  135.4727  160.6000 H   0  0  0  0  0  0  0  0  0  0  0  0
  132.6664  136.4926  159.3415 H   0  0  0  0  0  0  0  0  0  0  0  0
  130.9886  135.8941  160.3371 C   0  0  0  0  0  0  0  0  0  0  0  0
  130.7393  134.7108  159.4378 C   0  0  0  0  0  0  0  0  0  0  0  0
  131.6655  134.0673  158.6954 C   0  0  0  0  0  0  0  0  0  0  0  0
  131.0479  133.0657  158.0323 N   0  0  0  0  0  0  0  0  0  0  0  0
  131.4717  132.4398  157.4242 H   0  0  0  0  0  0  0  0  0  0  0  0
  129.6908  133.0838  158.3783 N   0  0  0  0  0  0  0  0  0  0  0  0
  129.4970  134.0778  159.2224 C   0  0  0  0  0  0  0  0  0  0  0  0
  128.2089  134.4576  159.8384 C   0  0  0  0  0  0  0  0  0  0  0  0
  127.0131  133.8478  159.6236 C   0  0  0  0  0  0  0  0  0  0  0  0
  126.0610  134.5289  160.4069 C   0  0  0  0  0  0  0  0  0  0  0  0
  126.7205  135.5187  161.0599 C   0  0  0  0  0  0  0  0  0  0  0  0
  126.1507  136.4301  161.9406 N   0  0  0  0  0  0  0  0  0  0  0  0
  126.9133  136.9605  162.9909 C   0  0  0  0  0  0  0  0  0  0  0  0
  126.6496  138.2403  163.4645 C   0  0  0  0  0  0  0  0  0  0  0  0
  125.6580  138.9738  162.9128 F   0  0  0  0  0  0  0  0  0  0  0  0
  127.3996  138.7612  164.5052 C   0  0  0  0  0  0  0  0  0  0  0  0
  127.1400  140.0033  164.9691 F   0  0  0  0  0  0  0  0  0  0  0  0
  128.4216  138.0103  165.0684 C   0  0  0  0  0  0  0  0  0  0  0  0
  129.1617  138.5251  166.0879 O   0  0  0  0  0  0  0  0  0  0  0  0
  128.6899  136.7337  164.5924 C   0  0  0  0  0  0  0  0  0  0  0  0
  129.6853  136.0033  165.1412 F   0  0  0  0  0  0  0  0  0  0  0  0
  127.9373  136.2090  163.5552 C   0  0  0  0  0  0  0  0  0  0  0  0
  128.1980  134.9669  163.0923 F   0  0  0  0  0  0  0  0  0  0  0  0
  128.0167  135.4727  160.7067 O   0  0  0  0  0  0  0  0  0  0  0  0
  134.4940  138.6400  162.3363 C   0  0  0  0  0  0  0  0  0  0  0  0
  136.0095  138.8503  162.3541 C   0  0  0  0  0  0  0  0  0  0  0  0
  138.0505  140.2245  159.8825 H   0  0  0  0  0  0  0  0  0  0  0  0
  137.8798  140.8318  161.5470 H   0  0  0  0  0  0  0  0  0  0  0  0
  138.6017  139.2315  161.2531 H   0  0  0  0  0  0  0  0  0  0  0  0
  136.2336  139.5579  158.9994 H   0  0  0  0  0  0  0  0  0  0  0  0
  134.3463  137.9543  158.9782 H   0  0  0  0  0  0  0  0  0  0  0  0
  133.6804  139.4009  159.7679 H   0  0  0  0  0  0  0  0  0  0  0  0
  132.0540  138.2535  160.8285 H   0  0  0  0  0  0  0  0  0  0  0  0
  132.3797  137.1516  162.1881 H   0  0  0  0  0  0  0  0  0  0  0  0
  130.3878  136.7392  160.0004 H   0  0  0  0  0  0  0  0  0  0  0  0
  130.7135  135.6375  161.3600 H   0  0  0  0  0  0  0  0  0  0  0  0
  132.7162  134.3111  158.6410 H   0  0  0  0  0  0  0  0  0  0  0  0
  126.8285  133.0033  158.9763 H   0  0  0  0  0  0  0  0  0  0  0  0
  125.0066  134.3055  160.4752 H   0  0  0  0  0  0  0  0  0  0  0  0
  125.2245  136.6964  161.8313 H   0  0  0  0  0  0  0  0  0  0  0  0
  129.8503  137.9288  166.4143 H   0  0  0  0  0  0  0  0  0  0  0  0
  133.9914  139.6047  162.2675 H   0  0  0  0  0  0  0  0  0  0  0  0
  134.1846  138.1261  163.2464 H   0  0  0  0  0  0  0  0  0  0  0  0
  136.5013  137.9114  162.6084 H   0  0  0  0  0  0  0  0  0  0  0  0
  136.2614  139.6019  163.1021 H   0  0  0  0  0  0  0  0  0  0  0  0
  1  2  1  0
  1 37  1  0
  1 38  1  0
  1 39  1  0
  2 36  1  0
  2  3  2  0
  3  4  1  0
  3 40  1  0
  4  5  1  0
  4 41  1  0
  4 42  1  0
  5  6  1  6
  5  7  1  0
  5 35  1  0
  7  8  1  0
  7 43  1  0
  7 44  1  0
  8  9  1  0
  8 10  1  0
  8 11  1  0
 11 12  1  0
 11 45  1  0
 11 46  1  0
 12 17  1  0
 12 13  2  0
 13 14  1  0
 13 47  1  0
 14 15  1  0
 14 16  1  0
 16 17  2  0
 17 18  1  0
 18 34  1  0
 18 19  2  0
 19 20  1  0
 19 48  1  0
 20 21  2  0
 20 49  1  0
 21 22  1  0
 21 34  1  0
 22 23  1  0
 22 50  1  0
 23 32  1  0
 23 24  2  0
 24 25  1  0
 24 26  1  0
 26 27  1  0
 26 28  2  0
 28 29  1  0
 28 30  1  0
 29 51  1  0
 30 31  1  0
 30 32  2  0
 32 33  1  0
 35 36  1  0
 35 52  1  0
 35 53  1  0
 36 54  1  0
 36 55  1  0
M  CHG  1   8   1
M  END
>  <DOCK_score>  (1) 
-47.049206

>  <SMILES>  (1) 
CC1=CC[C@H](C[NH2+]Cc2c[nH]nc2-c2ccc(Nc3c(F)c(F)c(O)c(F)c3F)o2)CC1

$$$$
