C=C(F)C[C@H](CCBr)Nc1[nH]cc(-c2ccc(N)cc2)[nH+]1
     RDKit          3D

 40 41  0  0  1  0  0  0  0  0999 V2000
  127.4929  136.1262  157.7002 C   0  0  0  0  0  0  0  0  0  0  0  0
  127.6746  136.0009  158.9946 C   0  0  0  0  0  0  0  0  0  0  0  0
  126.6601  135.5804  159.7815 F   0  0  0  0  0  0  0  0  0  0  0  0
  129.0148  136.3261  159.6023 C   0  0  0  0  0  0  0  0  0  0  0  0
  129.8867  135.0689  159.6169 C   0  0  2  0  0  0  0  0  0  0  0  0
  129.2761  134.2064  159.8843 H   0  0  0  0  0  0  0  0  0  0  0  0
  131.0082  135.2380  160.6438 C   0  0  0  0  0  0  0  0  0  0  0  0
  132.1391  134.2565  160.3300 C   0  0  0  0  0  0  0  0  0  0  0  0
  131.4508  132.4167  160.4082 Br  0  0  0  0  0  0  0  0  0  0  0  0
  130.4681  134.8624  158.2882 N   0  0  0  0  0  0  0  0  0  0  0  0
  130.1987  133.6989  157.5880 C   0  0  0  0  0  0  0  0  0  0  0  0
  129.4142  132.6758  158.0229 N   0  0  0  0  0  0  0  0  0  0  0  0
  128.9468  132.6307  158.8717 H   0  0  0  0  0  0  0  0  0  0  0  0
  129.4066  131.7174  157.0371 C   0  0  0  0  0  0  0  0  0  0  0  0
  130.1815  132.1856  156.0277 C   0  0  0  0  0  0  0  0  0  0  0  0
  130.4615  131.4903  154.7476 C   0  0  0  0  0  0  0  0  0  0  0  0
  130.0956  132.0797  153.5385 C   0  0  0  0  0  0  0  0  0  0  0  0
  130.3621  131.4343  152.3494 C   0  0  0  0  0  0  0  0  0  0  0  0
  130.9843  130.1916  152.3563 C   0  0  0  0  0  0  0  0  0  0  0  0
  131.2475  129.5368  151.1507 N   0  0  0  0  0  0  0  0  0  0  0  0
  131.3452  129.5995  153.5609 C   0  0  0  0  0  0  0  0  0  0  0  0
  131.0858  130.2439  154.7520 C   0  0  0  0  0  0  0  0  0  0  0  0
  130.6582  133.4008  156.3970 N   0  0  0  0  0  0  0  0  0  0  0  0
  131.2425  133.9616  155.8632 H   0  0  0  0  0  0  0  0  0  0  0  0
  128.3038  136.4622  157.0711 H   0  0  0  0  0  0  0  0  0  0  0  0
  126.5325  135.8931  157.2648 H   0  0  0  0  0  0  0  0  0  0  0  0
  128.8741  136.6827  160.6227 H   0  0  0  0  0  0  0  0  0  0  0  0
  129.5036  137.1004  159.0111 H   0  0  0  0  0  0  0  0  0  0  0  0
  131.3897  136.2580  160.6004 H   0  0  0  0  0  0  0  0  0  0  0  0
  130.6198  135.0375  161.6423 H   0  0  0  0  0  0  0  0  0  0  0  0
  132.5275  134.4569  159.3313 H   0  0  0  0  0  0  0  0  0  0  0  0
  132.9382  134.3770  161.0615 H   0  0  0  0  0  0  0  0  0  0  0  0
  131.0418  135.5408  157.8990 H   0  0  0  0  0  0  0  0  0  0  0  0
  128.8804  130.7746  157.0603 H   0  0  0  0  0  0  0  0  0  0  0  0
  129.6073  133.0431  153.5328 H   0  0  0  0  0  0  0  0  0  0  0  0
  130.0827  131.8926  151.4122 H   0  0  0  0  0  0  0  0  0  0  0  0
  131.6820  128.6693  151.1549 H   0  0  0  0  0  0  0  0  0  0  0  0
  130.9959  129.9491  150.3098 H   0  0  0  0  0  0  0  0  0  0  0  0
  131.8288  128.6339  153.5641 H   0  0  0  0  0  0  0  0  0  0  0  0
  131.3665  129.7835  155.6879 H   0  0  0  0  0  0  0  0  0  0  0  0
  1  2  2  0
  1 25  1  0
  1 26  1  0
  2  3  1  0
  2  4  1  0
  4  5  1  0
  4 27  1  0
  4 28  1  0
  5  6  1  1
  5  7  1  0
  5 10  1  0
  7  8  1  0
  7 29  1  0
  7 30  1  0
  8  9  1  0
  8 31  1  0
  8 32  1  0
 10 33  1  0
 11 10  1  0
 11 23  2  0
 11 12  1  0
 12 13  1  0
 12 14  1  0
 14 15  2  0
 14 34  1  0
 15 16  1  0
 15 23  1  0
 16 22  1  0
 16 17  2  0
 17 18  1  0
 17 35  1  0
 18 19  2  0
 18 36  1  0
 19 20  1  0
 19 21  1  0
 20 37  1  0
 20 38  1  0
 21 22  2  0
 21 39  1  0
 22 40  1  0
 23 24  1  0
M  CHG  1  23   1
M  END
>  <DOCK_score>  (1) 
-57.85918

>  <SMILES>  (1) 
C=C(F)C[C@H](CCBr)Nc1[nH]cc(-c2ccc(N)cc2)[nH+]1

$$$$
