Brc1ccc(-c2c[nH]c(N[C@H](c3ccccc3)c3ccc(C4CC4)cc3)[nH+]2)cc1
     RDKit          3D

 52 56  0  0  1  0  0  0  0  0999 V2000
  130.8533  129.3034  150.5240 Br  0  0  0  0  0  0  0  0  0  0  0  0
  130.7591  130.0995  152.2367 C   0  0  0  0  0  0  0  0  0  0  0  0
  130.0065  131.2458  152.4239 C   0  0  0  0  0  0  0  0  0  0  0  0
  129.9344  131.8308  153.6716 C   0  0  0  0  0  0  0  0  0  0  0  0
  130.6211  131.2650  154.7445 C   0  0  0  0  0  0  0  0  0  0  0  0
  130.5471  131.8895  156.0880 C   0  0  0  0  0  0  0  0  0  0  0  0
  130.0790  131.3015  157.2167 C   0  0  0  0  0  0  0  0  0  0  0  0
  130.1848  132.2303  158.2234 N   0  0  0  0  0  0  0  0  0  0  0  0
  129.9260  132.1055  159.1499 H   0  0  0  0  0  0  0  0  0  0  0  0
  130.7203  133.3577  157.6810 C   0  0  0  0  0  0  0  0  0  0  0  0
  130.9900  134.5315  158.3638 N   0  0  0  0  0  0  0  0  0  0  0  0
  130.6955  134.6303  159.7955 C   0  0  2  0  0  0  0  0  0  0  0  0
  130.9607  133.6939  160.2865 H   0  0  0  0  0  0  0  0  0  0  0  0
  129.2254  134.8999  159.9886 C   0  0  0  0  0  0  0  0  0  0  0  0
  128.5810  134.4383  161.1211 C   0  0  0  0  0  0  0  0  0  0  0  0
  127.2335  134.6893  161.3001 C   0  0  0  0  0  0  0  0  0  0  0  0
  126.5284  135.3941  160.3425 C   0  0  0  0  0  0  0  0  0  0  0  0
  127.1718  135.8510  159.2076 C   0  0  0  0  0  0  0  0  0  0  0  0
  128.5202  135.6038  159.0304 C   0  0  0  0  0  0  0  0  0  0  0  0
  131.4959  135.7569  160.3965 C   0  0  0  0  0  0  0  0  0  0  0  0
  132.8769  135.7301  160.3406 C   0  0  0  0  0  0  0  0  0  0  0  0
  133.6110  136.7657  160.8881 C   0  0  0  0  0  0  0  0  0  0  0  0
  132.9648  137.8236  161.4986 C   0  0  0  0  0  0  0  0  0  0  0  0
  133.7644  138.9504  162.1002 C   0  0  0  0  0  0  0  0  0  0  0  0
  133.3900  140.3774  161.6934 C   0  0  0  0  0  0  0  0  0  0  0  0
  134.6789  139.7440  161.1637 C   0  0  0  0  0  0  0  0  0  0  0  0
  131.5835  137.8476  161.5600 C   0  0  0  0  0  0  0  0  0  0  0  0
  130.8493  136.8142  161.0087 C   0  0  0  0  0  0  0  0  0  0  0  0
  130.9388  133.1490  156.4056 N   0  0  0  0  0  0  0  0  0  0  0  0
  131.3162  133.7937  155.7868 H   0  0  0  0  0  0  0  0  0  0  0  0
  131.3820  130.1137  154.5495 C   0  0  0  0  0  0  0  0  0  0  0  0
  131.4424  129.5332  153.2991 C   0  0  0  0  0  0  0  0  0  0  0  0
  129.4752  131.6836  151.5918 H   0  0  0  0  0  0  0  0  0  0  0  0
  129.3468  132.7252  153.8167 H   0  0  0  0  0  0  0  0  0  0  0  0
  129.6922  130.2971  157.3060 H   0  0  0  0  0  0  0  0  0  0  0  0
  131.3739  135.2884  157.8943 H   0  0  0  0  0  0  0  0  0  0  0  0
  129.1310  133.8846  161.8676 H   0  0  0  0  0  0  0  0  0  0  0  0
  126.7309  134.3326  162.1871 H   0  0  0  0  0  0  0  0  0  0  0  0
  125.4750  135.5879  160.4812 H   0  0  0  0  0  0  0  0  0  0  0  0
  126.6209  136.4017  158.4592 H   0  0  0  0  0  0  0  0  0  0  0  0
  129.0228  135.9607  158.1436 H   0  0  0  0  0  0  0  0  0  0  0  0
  133.3822  134.9019  159.8662 H   0  0  0  0  0  0  0  0  0  0  0  0
  134.6897  136.7471  160.8405 H   0  0  0  0  0  0  0  0  0  0  0  0
  134.1067  138.7919  163.1221 H   0  0  0  0  0  0  0  0  0  0  0  0
  132.5645  140.5009  160.9923 H   0  0  0  0  0  0  0  0  0  0  0  0
  133.4860  141.1574  162.4487 H   0  0  0  0  0  0  0  0  0  0  0  0
  135.6224  140.1075  161.5709 H   0  0  0  0  0  0  0  0  0  0  0  0
  134.7018  139.4504  160.1143 H   0  0  0  0  0  0  0  0  0  0  0  0
  131.0782  138.6741  162.0376 H   0  0  0  0  0  0  0  0  0  0  0  0
  129.7705  136.8331  161.0560 H   0  0  0  0  0  0  0  0  0  0  0  0
  131.9198  129.6741  155.3766 H   0  0  0  0  0  0  0  0  0  0  0  0
  132.0279  128.6383  153.1479 H   0  0  0  0  0  0  0  0  0  0  0  0
  1  2  1  0
  2 32  2  0
  2  3  1  0
  3  4  2  0
  3 33  1  0
  4  5  1  0
  4 34  1  0
  5  6  1  0
  5 31  2  0
  6 29  1  0
  6  7  2  0
  7  8  1  0
  7 35  1  0
  8  9  1  0
  8 10  1  0
 10 11  1  0
 10 29  2  0
 11 12  1  0
 11 36  1  0
 12 13  1  1
 12 14  1  0
 12 20  1  0
 14 19  1  0
 14 15  2  0
 15 16  1  0
 15 37  1  0
 16 17  2  0
 16 38  1  0
 17 18  1  0
 17 39  1  0
 18 19  2  0
 18 40  1  0
 19 41  1  0
 20 28  1  0
 20 21  2  0
 21 22  1  0
 21 42  1  0
 22 23  2  0
 22 43  1  0
 23 24  1  0
 23 27  1  0
 24 26  1  0
 24 25  1  0
 24 44  1  0
 25 26  1  0
 25 45  1  0
 25 46  1  0
 26 47  1  0
 26 48  1  0
 27 28  2  0
 27 49  1  0
 28 50  1  0
 29 30  1  0
 31 32  1  0
 31 51  1  0
 32 52  1  0
M  CHG  1  29   1
M  END
>  <DOCK_score>  (1) 
-60.790329

>  <SMILES>  (1) 
Brc1ccc(-c2c[nH]c(N[C@H](c3ccccc3)c3ccc(C4CC4)cc3)[nH+]2)cc1

$$$$
