C[C@H](NC(N[C@H]1CCC(=O)NC1)=[NH+]C1CC1)c1ccccc1
     RDKit          3D

 47 49  0  0  1  0  0  0  0  0999 V2000
  132.9715  134.8370  161.6990 C   0  0  0  0  0  0  0  0  0  0  0  0
  131.5908  135.3935  161.3458 C   0  0  2  0  0  0  0  0  0  0  0  0
  130.8413  134.9476  161.9996 H   0  0  0  0  0  0  0  0  0  0  0  0
  131.2764  135.0713  159.9516 N   0  0  0  0  0  0  0  0  0  0  0  0
  129.9695  134.8871  159.5666 C   0  0  0  0  0  0  0  0  0  0  0  0
  128.9604  135.5576  160.2163 N   0  0  0  0  0  0  0  0  0  0  0  0
  127.6286  134.9558  160.3189 C   0  0  1  0  0  0  0  0  0  0  0  0
  127.2275  134.7831  159.3203 H   0  0  0  0  0  0  0  0  0  0  0  0
  127.7227  133.6240  161.0731 C   0  0  0  0  0  0  0  0  0  0  0  0
  126.3580  132.9345  161.0099 C   0  0  0  0  0  0  0  0  0  0  0  0
  125.2750  133.9035  161.3887 C   0  0  0  0  0  0  0  0  0  0  0  0
  124.1912  133.4590  161.7027 O   0  0  0  0  0  0  0  0  0  0  0  0
  125.4414  135.2266  161.3984 N   0  0  0  0  0  0  0  0  0  0  0  0
  126.6996  135.8944  161.0898 C   0  0  0  0  0  0  0  0  0  0  0  0
  129.6872  134.0767  158.5854 N   0  0  0  0  0  0  0  0  0  0  0  0
  128.7651  133.9467  158.3137 H   0  0  0  0  0  0  0  0  0  0  0  0
  130.7629  133.3668  157.8891 C   0  0  0  0  0  0  0  0  0  0  0  0
  130.3902  132.0968  157.1217 C   0  0  0  0  0  0  0  0  0  0  0  0
  131.1733  131.9970  158.4332 C   0  0  0  0  0  0  0  0  0  0  0  0
  131.5904  136.8895  161.5281 C   0  0  0  0  0  0  0  0  0  0  0  0
  131.2379  137.4369  162.7475 C   0  0  0  0  0  0  0  0  0  0  0  0
  131.2412  138.8090  162.9159 C   0  0  0  0  0  0  0  0  0  0  0  0
  131.5887  139.6339  161.8624 C   0  0  0  0  0  0  0  0  0  0  0  0
  131.9367  139.0864  160.6417 C   0  0  0  0  0  0  0  0  0  0  0  0
  131.9370  137.7143  160.4743 C   0  0  0  0  0  0  0  0  0  0  0  0
  133.7210  135.2829  161.0451 H   0  0  0  0  0  0  0  0  0  0  0  0
  133.2054  135.0767  162.7363 H   0  0  0  0  0  0  0  0  0  0  0  0
  132.9719  133.7550  161.5672 H   0  0  0  0  0  0  0  0  0  0  0  0
  131.9903  134.9877  159.3003 H   0  0  0  0  0  0  0  0  0  0  0  0
  129.1302  136.4293  160.6067 H   0  0  0  0  0  0  0  0  0  0  0  0
  128.4778  132.9910  160.6072 H   0  0  0  0  0  0  0  0  0  0  0  0
  127.9899  133.8094  162.1135 H   0  0  0  0  0  0  0  0  0  0  0  0
  126.3459  132.0903  161.6994 H   0  0  0  0  0  0  0  0  0  0  0  0
  126.1845  132.5759  159.9953 H   0  0  0  0  0  0  0  0  0  0  0  0
  124.6769  135.7792  161.6248 H   0  0  0  0  0  0  0  0  0  0  0  0
  127.1835  136.1980  162.0182 H   0  0  0  0  0  0  0  0  0  0  0  0
  126.4962  136.7775  160.4842 H   0  0  0  0  0  0  0  0  0  0  0  0
  131.5470  133.9969  157.4690 H   0  0  0  0  0  0  0  0  0  0  0  0
  129.3447  131.7894  157.1349 H   0  0  0  0  0  0  0  0  0  0  0  0
  130.9293  131.8911  156.1968 H   0  0  0  0  0  0  0  0  0  0  0  0
  132.2271  131.7256  158.3708 H   0  0  0  0  0  0  0  0  0  0  0  0
  130.6428  131.6239  159.3092 H   0  0  0  0  0  0  0  0  0  0  0  0
  130.9626  136.7926  163.5694 H   0  0  0  0  0  0  0  0  0  0  0  0
  130.9690  139.2367  163.8695 H   0  0  0  0  0  0  0  0  0  0  0  0
  131.5881  140.7059  161.9931 H   0  0  0  0  0  0  0  0  0  0  0  0
  132.2078  139.7309  159.8185 H   0  0  0  0  0  0  0  0  0  0  0  0
  132.2085  137.2867  159.5204 H   0  0  0  0  0  0  0  0  0  0  0  0
  1  2  1  0
  1 26  1  0
  1 27  1  0
  1 28  1  0
  2  3  1  1
  2  4  1  0
  2 20  1  0
  4 29  1  0
  5  4  1  0
  5  6  1  0
  5 15  2  0
  6  7  1  0
  6 30  1  0
  7  8  1  6
  7 14  1  0
  7  9  1  0
  9 10  1  0
  9 31  1  0
  9 32  1  0
 10 11  1  0
 10 33  1  0
 10 34  1  0
 11 12  2  0
 11 13  1  0
 13 14  1  0
 13 35  1  0
 14 36  1  0
 14 37  1  0
 15 16  1  0
 15 17  1  0
 17 19  1  0
 17 18  1  0
 17 38  1  0
 18 19  1  0
 18 39  1  0
 18 40  1  0
 19 41  1  0
 19 42  1  0
 20 25  1  0
 20 21  2  0
 21 22  1  0
 21 43  1  0
 22 23  2  0
 22 44  1  0
 23 24  1  0
 23 45  1  0
 24 25  2  0
 24 46  1  0
 25 47  1  0
M  CHG  1  15   1
M  END
>  <DOCK_score>  (1) 
-41.007099

>  <SMILES>  (1) 
C[C@H](NC(N[C@H]1CCC(=O)NC1)=[NH+]C1CC1)c1ccccc1

$$$$
