O=C1CC[C@H]([NH2+]Cc2c[nH]nc2-c2ccc(N[C@H]3Cc4ccc([N+](=O)[O-])cc4C3)o2)CN1
     RDKit          3D

 57 61  0  0  1  0  0  0  0  0999 V2000
  133.3817  141.2054  161.8045 O   0  0  0  0  0  0  0  0  0  0  0  0
  133.1469  140.1013  161.3609 C   0  0  0  0  0  0  0  0  0  0  0  0
  134.0076  138.9565  161.8121 C   0  0  0  0  0  0  0  0  0  0  0  0
  133.8543  137.7779  160.8474 C   0  0  0  0  0  0  0  0  0  0  0  0
  132.3580  137.5304  160.6260 C   0  0  2  0  0  0  0  0  0  0  0  0
  131.8540  137.4371  161.5879 H   0  0  0  0  0  0  0  0  0  0  0  0
  132.1766  136.2969  159.8491 N   0  0  0  0  0  0  0  0  0  0  0  0
  132.3345  136.4890  158.8712 H   0  0  0  0  0  0  0  0  0  0  0  0
  132.8345  135.6004  160.1655 H   0  0  0  0  0  0  0  0  0  0  0  0
  130.8077  135.7979  160.0352 C   0  0  0  0  0  0  0  0  0  0  0  0
  130.6215  134.5325  159.2382 C   0  0  0  0  0  0  0  0  0  0  0  0
  131.5561  133.9308  158.4716 C   0  0  0  0  0  0  0  0  0  0  0  0
  131.0016  132.8268  157.9255 N   0  0  0  0  0  0  0  0  0  0  0  0
  131.4452  132.2028  157.3298 H   0  0  0  0  0  0  0  0  0  0  0  0
  129.6757  132.7387  158.3679 N   0  0  0  0  0  0  0  0  0  0  0  0
  129.4416  133.7625  159.1652 C   0  0  0  0  0  0  0  0  0  0  0  0
  128.1685  134.0537  159.8564 C   0  0  0  0  0  0  0  0  0  0  0  0
  127.0360  133.3054  159.7875 C   0  0  0  0  0  0  0  0  0  0  0  0
  126.0747  133.9449  160.5949 C   0  0  0  0  0  0  0  0  0  0  0  0
  126.6662  135.0490  161.1153 C   0  0  0  0  0  0  0  0  0  0  0  0
  126.0654  135.9653  161.9707 N   0  0  0  0  0  0  0  0  0  0  0  0
  126.8748  136.6895  162.9539 C   0  0  1  0  0  0  0  0  0  0  0  0
  127.2507  137.6219  162.5325 H   0  0  0  0  0  0  0  0  0  0  0  0
  126.0660  136.9557  164.2411 C   0  0  0  0  0  0  0  0  0  0  0  0
  127.0681  136.8392  165.3698 C   0  0  0  0  0  0  0  0  0  0  0  0
  126.9964  137.2759  166.6822 C   0  0  0  0  0  0  0  0  0  0  0  0
  128.0502  137.0543  167.5468 C   0  0  0  0  0  0  0  0  0  0  0  0
  129.1809  136.3947  167.1017 C   0  0  0  0  0  0  0  0  0  0  0  0
  130.3118  136.1565  168.0265 N   0  0  0  0  0  0  0  0  0  0  0  0
  130.2467  136.5417  169.1802 O   0  0  0  0  0  0  0  0  0  0  0  0
  131.3075  135.5753  167.6338 O   0  0  0  0  0  0  0  0  0  0  0  0
  129.2542  135.9585  165.7934 C   0  0  0  0  0  0  0  0  0  0  0  0
  128.1982  136.1797  164.9248 C   0  0  0  0  0  0  0  0  0  0  0  0
  128.0332  135.8078  163.4669 C   0  0  0  0  0  0  0  0  0  0  0  0
  127.9326  135.1051  160.6689 O   0  0  0  0  0  0  0  0  0  0  0  0
  131.7740  138.7139  159.8534 C   0  0  0  0  0  0  0  0  0  0  0  0
  132.1381  139.9689  160.4990 N   0  0  0  0  0  0  0  0  0  0  0  0
  135.0502  139.2736  161.8335 H   0  0  0  0  0  0  0  0  0  0  0  0
  133.7040  138.6474  162.8123 H   0  0  0  0  0  0  0  0  0  0  0  0
  134.3339  138.0162  159.8980 H   0  0  0  0  0  0  0  0  0  0  0  0
  134.3147  136.8887  161.2781 H   0  0  0  0  0  0  0  0  0  0  0  0
  130.6369  135.5903  161.0915 H   0  0  0  0  0  0  0  0  0  0  0  0
  130.0969  136.5504  159.6934 H   0  0  0  0  0  0  0  0  0  0  0  0
  132.5694  134.2724  158.3214 H   0  0  0  0  0  0  0  0  0  0  0  0
  126.8994  132.3950  159.2229 H   0  0  0  0  0  0  0  0  0  0  0  0
  125.0597  133.6182  160.7667 H   0  0  0  0  0  0  0  0  0  0  0  0
  125.1102  136.1252  161.9166 H   0  0  0  0  0  0  0  0  0  0  0  0
  125.6372  137.9576  164.2180 H   0  0  0  0  0  0  0  0  0  0  0  0
  125.2787  136.2104  164.3540 H   0  0  0  0  0  0  0  0  0  0  0  0
  126.1138  137.7915  167.0304 H   0  0  0  0  0  0  0  0  0  0  0  0
  127.9914  137.3963  168.5695 H   0  0  0  0  0  0  0  0  0  0  0  0
  130.1376  135.4432  165.4466 H   0  0  0  0  0  0  0  0  0  0  0  0
  127.7761  134.7529  163.3724 H   0  0  0  0  0  0  0  0  0  0  0  0
  128.9476  136.0260  162.9150 H   0  0  0  0  0  0  0  0  0  0  0  0
  130.6880  138.6250  159.8253 H   0  0  0  0  0  0  0  0  0  0  0  0
  132.1625  138.7065  158.8352 H   0  0  0  0  0  0  0  0  0  0  0  0
  131.6134  140.7573  160.2885 H   0  0  0  0  0  0  0  0  0  0  0  0
  1  2  2  0
  2 37  1  0
  2  3  1  0
  3  4  1  0
  3 38  1  0
  3 39  1  0
  4  5  1  0
  4 40  1  0
  4 41  1  0
  5  6  1  1
  5  7  1  0
  5 36  1  0
  7  8  1  0
  7  9  1  0
  7 10  1  0
 10 11  1  0
 10 42  1  0
 10 43  1  0
 11 16  1  0
 11 12  2  0
 12 13  1  0
 12 44  1  0
 13 14  1  0
 13 15  1  0
 15 16  2  0
 16 17  1  0
 17 35  1  0
 17 18  2  0
 18 19  1  0
 18 45  1  0
 19 20  2  0
 19 46  1  0
 20 21  1  0
 20 35  1  0
 21 22  1  0
 21 47  1  0
 22 23  1  6
 22 34  1  0
 22 24  1  0
 24 25  1  0
 24 48  1  0
 24 49  1  0
 25 33  2  0
 25 26  1  0
 26 27  2  0
 26 50  1  0
 27 28  1  0
 27 51  1  0
 28 29  1  0
 28 32  2  0
 29 30  2  0
 29 31  1  0
 32 33  1  0
 32 52  1  0
 33 34  1  0
 34 53  1  0
 34 54  1  0
 36 37  1  0
 36 55  1  0
 36 56  1  0
 37 57  1  0
M  CHG  3   7   1  29   1  31  -1
M  END
>  <DOCK_score>  (1) 
-41.246349

>  <SMILES>  (1) 
O=C1CC[C@H]([NH2+]Cc2c[nH]nc2-c2ccc(N[C@H]3Cc4ccc([N+](=O)[O-])cc4C3)o2)CN1

$$$$
