Nc1ccc(-c2c[nH]c(NC(CCc3ccccc3)CCc3ccccc3)[nH+]2)cc1
     RDKit          3D

 59 62  0  0  1  0  0  0  0  0999 V2000
  131.2473  129.3874  152.2107 N   0  0  0  0  0  0  0  0  0  0  0  0
  130.9887  130.0851  153.3931 C   0  0  0  0  0  0  0  0  0  0  0  0
  130.0748  131.1322  153.3958 C   0  0  0  0  0  0  0  0  0  0  0  0
  129.8179  131.8216  154.5620 C   0  0  0  0  0  0  0  0  0  0  0  0
  130.4758  131.4676  155.7390 C   0  0  0  0  0  0  0  0  0  0  0  0
  130.2015  132.2082  156.9949 C   0  0  0  0  0  0  0  0  0  0  0  0
  129.7129  131.6781  158.1433 C   0  0  0  0  0  0  0  0  0  0  0  0
  129.6131  132.7091  159.0473 N   0  0  0  0  0  0  0  0  0  0  0  0
  129.2947  132.6431  159.9612 H   0  0  0  0  0  0  0  0  0  0  0  0
  130.0440  133.8389  158.4234 C   0  0  0  0  0  0  0  0  0  0  0  0
  130.1020  135.1008  158.9899 N   0  0  0  0  0  0  0  0  0  0  0  0
  129.6765  135.3011  160.3773 C   0  0  0  0  0  0  0  0  0  0  0  0
  130.8486  135.8443  161.1969 C   0  0  0  0  0  0  0  0  0  0  0  0
  132.0054  134.8436  161.1577 C   0  0  0  0  0  0  0  0  0  0  0  0
  133.1600  135.3787  161.9648 C   0  0  0  0  0  0  0  0  0  0  0  0
  134.1260  136.1586  161.3568 C   0  0  0  0  0  0  0  0  0  0  0  0
  135.1825  136.6533  162.0984 C   0  0  0  0  0  0  0  0  0  0  0  0
  135.2788  136.3593  163.4457 C   0  0  0  0  0  0  0  0  0  0  0  0
  134.3157  135.5751  164.0526 C   0  0  0  0  0  0  0  0  0  0  0  0
  133.2564  135.0848  163.3122 C   0  0  0  0  0  0  0  0  0  0  0  0
  128.5197  136.3017  160.4166 C   0  0  0  0  0  0  0  0  0  0  0  0
  127.7565  136.1477  161.7337 C   0  0  0  0  0  0  0  0  0  0  0  0
  127.2122  134.7463  161.8379 C   0  0  0  0  0  0  0  0  0  0  0  0
  125.9526  134.4560  161.3480 C   0  0  0  0  0  0  0  0  0  0  0  0
  125.4552  133.1693  161.4392 C   0  0  0  0  0  0  0  0  0  0  0  0
  126.2132  132.1756  162.0298 C   0  0  0  0  0  0  0  0  0  0  0  0
  127.4706  132.4671  162.5244 C   0  0  0  0  0  0  0  0  0  0  0  0
  127.9701  133.7525  162.4285 C   0  0  0  0  0  0  0  0  0  0  0  0
  130.3947  133.5356  157.1973 N   0  0  0  0  0  0  0  0  0  0  0  0
  130.7343  134.1613  156.5385 H   0  0  0  0  0  0  0  0  0  0  0  0
  131.3960  130.4205  155.7328 C   0  0  0  0  0  0  0  0  0  0  0  0
  131.6458  129.7305  154.5654 C   0  0  0  0  0  0  0  0  0  0  0  0
  130.7887  129.6345  151.3921 H   0  0  0  0  0  0  0  0  0  0  0  0
  131.8848  128.6568  152.2079 H   0  0  0  0  0  0  0  0  0  0  0  0
  129.5657  131.4063  152.4836 H   0  0  0  0  0  0  0  0  0  0  0  0
  129.1073  132.6349  154.5637 H   0  0  0  0  0  0  0  0  0  0  0  0
  129.4527  130.6441  158.3151 H   0  0  0  0  0  0  0  0  0  0  0  0
  130.4245  135.8522  158.4682 H   0  0  0  0  0  0  0  0  0  0  0  0
  129.3488  134.3503  160.7977 H   0  0  0  0  0  0  0  0  0  0  0  0
  131.1762  136.7951  160.7766 H   0  0  0  0  0  0  0  0  0  0  0  0
  130.5322  135.9932  162.2293 H   0  0  0  0  0  0  0  0  0  0  0  0
  131.6779  133.8928  161.5779 H   0  0  0  0  0  0  0  0  0  0  0  0
  132.3221  134.6947  160.1253 H   0  0  0  0  0  0  0  0  0  0  0  0
  134.0532  136.3844  160.3032 H   0  0  0  0  0  0  0  0  0  0  0  0
  135.9353  137.2656  161.6241 H   0  0  0  0  0  0  0  0  0  0  0  0
  136.1066  136.7422  164.0241 H   0  0  0  0  0  0  0  0  0  0  0  0
  134.3911  135.3453  165.1052 H   0  0  0  0  0  0  0  0  0  0  0  0
  132.5041  134.4717  163.7863 H   0  0  0  0  0  0  0  0  0  0  0  0
  128.9134  137.3153  160.3411 H   0  0  0  0  0  0  0  0  0  0  0  0
  127.8456  136.1107  159.5815 H   0  0  0  0  0  0  0  0  0  0  0  0
  128.4306  136.3387  162.5686 H   0  0  0  0  0  0  0  0  0  0  0  0
  126.9324  136.8605  161.7616 H   0  0  0  0  0  0  0  0  0  0  0  0
  125.3587  135.2333  160.8906 H   0  0  0  0  0  0  0  0  0  0  0  0
  124.4725  132.9416  161.0532 H   0  0  0  0  0  0  0  0  0  0  0  0
  125.8228  131.1715  162.1051 H   0  0  0  0  0  0  0  0  0  0  0  0
  128.0627  131.6908  162.9862 H   0  0  0  0  0  0  0  0  0  0  0  0
  128.9524  133.9804  162.8153 H   0  0  0  0  0  0  0  0  0  0  0  0
  131.9100  130.1475  156.6425 H   0  0  0  0  0  0  0  0  0  0  0  0
  132.3552  128.9162  154.5612 H   0  0  0  0  0  0  0  0  0  0  0  0
  1  2  1  0
  1 33  1  0
  1 34  1  0
  2 32  2  0
  2  3  1  0
  3  4  2  0
  3 35  1  0
  4  5  1  0
  4 36  1  0
  5  6  1  0
  5 31  2  0
  6 29  1  0
  6  7  2  0
  7  8  1  0
  7 37  1  0
  8  9  1  0
  8 10  1  0
 10 11  1  0
 10 29  2  0
 11 12  1  0
 11 38  1  0
 12 13  1  0
 12 21  1  0
 12 39  1  0
 13 14  1  0
 13 40  1  0
 13 41  1  0
 14 15  1  0
 14 42  1  0
 14 43  1  0
 15 20  1  0
 15 16  2  0
 16 17  1  0
 16 44  1  0
 17 18  2  0
 17 45  1  0
 18 19  1  0
 18 46  1  0
 19 20  2  0
 19 47  1  0
 20 48  1  0
 21 22  1  0
 21 49  1  0
 21 50  1  0
 22 23  1  0
 22 51  1  0
 22 52  1  0
 23 28  1  0
 23 24  2  0
 24 25  1  0
 24 53  1  0
 25 26  2  0
 25 54  1  0
 26 27  1  0
 26 55  1  0
 27 28  2  0
 27 56  1  0
 28 57  1  0
 29 30  1  0
 31 32  1  0
 31 58  1  0
 32 59  1  0
M  CHG  1  29   1
M  END
>  <DOCK_score>  (1) 
-57.152145

>  <SMILES>  (1) 
Nc1ccc(-c2c[nH]c(NC(CCc3ccccc3)CCc3ccccc3)[nH+]2)cc1

$$$$
