O=C1CC[C@H](NC(NC2CC=CC2)=[NH+][C@H]2C[C@H](c3ccccc3)C2)CN1
     RDKit          3D

 55 58  0  0  1  0  0  0  0  0999 V2000
  124.3414  133.5865  161.9525 O   0  0  0  0  0  0  0  0  0  0  0  0
  125.4211  134.0099  161.5977 C   0  0  0  0  0  0  0  0  0  0  0  0
  126.4724  133.0197  161.1860 C   0  0  0  0  0  0  0  0  0  0  0  0
  127.8501  133.6865  161.2006 C   0  0  0  0  0  0  0  0  0  0  0  0
  127.7540  135.0144  160.4398 C   0  0  2  0  0  0  0  0  0  0  0  0
  127.3157  134.8418  159.4568 H   0  0  0  0  0  0  0  0  0  0  0  0
  129.0919  135.5914  160.2871 N   0  0  0  0  0  0  0  0  0  0  0  0
  130.0680  134.8955  159.6143 C   0  0  0  0  0  0  0  0  0  0  0  0
  129.7229  134.0334  158.6005 N   0  0  0  0  0  0  0  0  0  0  0  0
  130.7633  133.2918  157.8835 C   0  0  0  0  0  0  0  0  0  0  0  0
  130.2624  132.8370  156.4930 C   0  0  0  0  0  0  0  0  0  0  0  0
  130.8712  131.4685  156.2942 C   0  0  0  0  0  0  0  0  0  0  0  0
  131.2990  130.9757  157.4246 C   0  0  0  0  0  0  0  0  0  0  0  0
  131.0468  131.9334  158.5658 C   0  0  0  0  0  0  0  0  0  0  0  0
  131.3205  135.0490  159.9410 N   0  0  0  0  0  0  0  0  0  0  0  0
  132.0093  134.5581  159.4664 H   0  0  0  0  0  0  0  0  0  0  0  0
  131.6878  135.9634  161.0252 C   0  0  1  0  0  0  0  0  0  0  0  0
  130.9144  136.0468  161.7888 H   0  0  0  0  0  0  0  0  0  0  0  0
  133.0927  135.7088  161.5963 C   0  0  0  0  0  0  0  0  0  0  0  0
  133.6180  136.6810  160.5269 C   0  0  2  0  0  0  0  0  0  0  0  0
  133.8724  136.1970  159.5840 H   0  0  0  0  0  0  0  0  0  0  0  0
  134.7048  137.5978  161.0260 C   0  0  0  0  0  0  0  0  0  0  0  0
  134.8534  138.8572  160.4761 C   0  0  0  0  0  0  0  0  0  0  0  0
  135.8472  139.7002  160.9377 C   0  0  0  0  0  0  0  0  0  0  0  0
  136.6992  139.2794  161.9417 C   0  0  0  0  0  0  0  0  0  0  0  0
  136.5542  138.0178  162.4876 C   0  0  0  0  0  0  0  0  0  0  0  0
  135.5570  137.1770  162.0299 C   0  0  0  0  0  0  0  0  0  0  0  0
  132.2168  137.3210  160.5334 C   0  0  0  0  0  0  0  0  0  0  0  0
  126.8686  135.9750  161.2347 C   0  0  0  0  0  0  0  0  0  0  0  0
  125.6114  135.3297  161.5944 N   0  0  0  0  0  0  0  0  0  0  0  0
  126.2557  132.6583  160.1808 H   0  0  0  0  0  0  0  0  0  0  0  0
  126.4692  132.1800  161.8811 H   0  0  0  0  0  0  0  0  0  0  0  0
  128.5775  133.0367  160.7141 H   0  0  0  0  0  0  0  0  0  0  0  0
  128.1566  133.8745  162.2296 H   0  0  0  0  0  0  0  0  0  0  0  0
  129.2889  136.4646  160.6607 H   0  0  0  0  0  0  0  0  0  0  0  0
  128.7906  133.9162  158.3599 H   0  0  0  0  0  0  0  0  0  0  0  0
  131.6742  133.8842  157.7975 H   0  0  0  0  0  0  0  0  0  0  0  0
  129.1743  132.7737  156.4833 H   0  0  0  0  0  0  0  0  0  0  0  0
  130.6106  133.5233  155.7209 H   0  0  0  0  0  0  0  0  0  0  0  0
  130.9428  130.9641  155.3419 H   0  0  0  0  0  0  0  0  0  0  0  0
  131.7709  130.0100  157.5304 H   0  0  0  0  0  0  0  0  0  0  0  0
  131.9282  132.0052  159.2031 H   0  0  0  0  0  0  0  0  0  0  0  0
  130.1822  131.6125  159.1469 H   0  0  0  0  0  0  0  0  0  0  0  0
  133.2215  136.0708  162.6164 H   0  0  0  0  0  0  0  0  0  0  0  0
  133.4386  134.6837  161.4641 H   0  0  0  0  0  0  0  0  0  0  0  0
  134.1906  139.1844  159.6887 H   0  0  0  0  0  0  0  0  0  0  0  0
  135.9602  140.6860  160.5114 H   0  0  0  0  0  0  0  0  0  0  0  0
  137.4779  139.9365  162.2997 H   0  0  0  0  0  0  0  0  0  0  0  0
  137.2200  137.6890  163.2719 H   0  0  0  0  0  0  0  0  0  0  0  0
  135.4438  136.1913  162.4565 H   0  0  0  0  0  0  0  0  0  0  0  0
  131.8566  137.5970  159.5424 H   0  0  0  0  0  0  0  0  0  0  0  0
  132.1065  138.1230  161.2635 H   0  0  0  0  0  0  0  0  0  0  0  0
  127.3894  136.2764  162.1436 H   0  0  0  0  0  0  0  0  0  0  0  0
  126.6633  136.8589  160.6309 H   0  0  0  0  0  0  0  0  0  0  0  0
  124.8657  135.8972  161.8448 H   0  0  0  0  0  0  0  0  0  0  0  0
  1  2  2  0
  2 30  1  0
  2  3  1  0
  3  4  1  0
  3 31  1  0
  3 32  1  0
  4  5  1  0
  4 33  1  0
  4 34  1  0
  5  6  1  6
  5  7  1  0
  5 29  1  0
  7 35  1  0
  8  7  1  0
  8  9  1  0
  8 15  2  0
  9 10  1  0
  9 36  1  0
 10 14  1  0
 10 11  1  0
 10 37  1  0
 11 12  1  0
 11 38  1  0
 11 39  1  0
 12 13  2  0
 12 40  1  0
 13 14  1  0
 13 41  1  0
 14 42  1  0
 14 43  1  0
 15 16  1  0
 15 17  1  0
 17 18  1  1
 17 28  1  0
 17 19  1  0
 19 20  1  0
 19 44  1  0
 19 45  1  0
 20 21  1  6
 20 22  1  0
 20 28  1  0
 22 27  1  0
 22 23  2  0
 23 24  1  0
 23 46  1  0
 24 25  2  0
 24 47  1  0
 25 26  1  0
 25 48  1  0
 26 27  2  0
 26 49  1  0
 27 50  1  0
 28 51  1  0
 28 52  1  0
 29 30  1  0
 29 53  1  0
 29 54  1  0
 30 55  1  0
M  CHG  1  15   1
M  END
>  <DOCK_score>  (1) 
-48.837093

>  <SMILES>  (1) 
O=C1CC[C@H](NC(NC2CC=CC2)=[NH+][C@H]2C[C@H](c3ccccc3)C2)CN1

$$$$
