Nc1ccc(-c2c[nH]c(N[C@@H](c3ccc(Cl)cc3)c3ccccn3)[nH+]2)cc1
     RDKit          3D

 46 49  0  0  1  0  0  0  0  0999 V2000
  131.6239  129.6659  151.9680 N   0  0  0  0  0  0  0  0  0  0  0  0
  131.2675  130.3227  153.1483 C   0  0  0  0  0  0  0  0  0  0  0  0
  130.5254  131.4973  153.0909 C   0  0  0  0  0  0  0  0  0  0  0  0
  130.1726  132.1482  154.2542 C   0  0  0  0  0  0  0  0  0  0  0  0
  130.5601  131.6277  155.4879 C   0  0  0  0  0  0  0  0  0  0  0  0
  130.1823  132.3265  156.7409 C   0  0  0  0  0  0  0  0  0  0  0  0
  129.4282  131.8136  157.7442 C   0  0  0  0  0  0  0  0  0  0  0  0
  129.3246  132.7914  158.7050 N   0  0  0  0  0  0  0  0  0  0  0  0
  128.8450  132.7228  159.5454 H   0  0  0  0  0  0  0  0  0  0  0  0
  130.0192  133.8733  158.2593 C   0  0  0  0  0  0  0  0  0  0  0  0
  130.1626  135.0735  158.9342 N   0  0  0  0  0  0  0  0  0  0  0  0
  129.5360  135.2558  160.2458 C   0  0  1  0  0  0  0  0  0  0  0  0
  129.9276  134.5139  160.9418 H   0  0  0  0  0  0  0  0  0  0  0  0
  129.8419  136.6385  160.7608 C   0  0  0  0  0  0  0  0  0  0  0  0
  129.9263  136.8660  162.1218 C   0  0  0  0  0  0  0  0  0  0  0  0
  130.2125  138.1329  162.5945 C   0  0  0  0  0  0  0  0  0  0  0  0
  130.4029  139.1760  161.7058 C   0  0  0  0  0  0  0  0  0  0  0  0
  130.7556  140.7689  162.2987 Cl  0  0  0  0  0  0  0  0  0  0  0  0
  130.3129  138.9488  160.3440 C   0  0  0  0  0  0  0  0  0  0  0  0
  130.0323  137.6803  159.8722 C   0  0  0  0  0  0  0  0  0  0  0  0
  128.0440  135.0860  160.1177 C   0  0  0  0  0  0  0  0  0  0  0  0
  127.3304  135.9244  159.2819 C   0  0  0  0  0  0  0  0  0  0  0  0
  125.9582  135.7600  159.1716 C   0  0  0  0  0  0  0  0  0  0  0  0
  125.3525  134.7542  159.9093 C   0  0  0  0  0  0  0  0  0  0  0  0
  126.1303  133.9585  160.7287 C   0  0  0  0  0  0  0  0  0  0  0  0
  127.4345  134.1398  160.8045 N   0  0  0  0  0  0  0  0  0  0  0  0
  130.5255  133.5936  157.0829 N   0  0  0  0  0  0  0  0  0  0  0  0
  131.0616  134.1959  156.5438 H   0  0  0  0  0  0  0  0  0  0  0  0
  131.3084  130.4528  155.5424 C   0  0  0  0  0  0  0  0  0  0  0  0
  131.6544  129.8025  154.3768 C   0  0  0  0  0  0  0  0  0  0  0  0
  131.3538  130.0286  151.1099 H   0  0  0  0  0  0  0  0  0  0  0  0
  132.1417  128.8466  152.0069 H   0  0  0  0  0  0  0  0  0  0  0  0
  130.2252  131.9001  152.1348 H   0  0  0  0  0  0  0  0  0  0  0  0
  129.5960  133.0603  154.2095 H   0  0  0  0  0  0  0  0  0  0  0  0
  128.9920  130.8262  157.7812 H   0  0  0  0  0  0  0  0  0  0  0  0
  130.6779  135.7938  158.5386 H   0  0  0  0  0  0  0  0  0  0  0  0
  129.7731  136.0526  162.8156 H   0  0  0  0  0  0  0  0  0  0  0  0
  130.2827  138.3095  163.6577 H   0  0  0  0  0  0  0  0  0  0  0  0
  130.4613  139.7626  159.6497 H   0  0  0  0  0  0  0  0  0  0  0  0
  129.9622  137.5029  158.8092 H   0  0  0  0  0  0  0  0  0  0  0  0
  127.8354  136.6972  158.7215 H   0  0  0  0  0  0  0  0  0  0  0  0
  125.3750  136.3999  158.5260 H   0  0  0  0  0  0  0  0  0  0  0  0
  124.2857  134.5977  159.8479 H   0  0  0  0  0  0  0  0  0  0  0  0
  125.6655  133.1761  161.3102 H   0  0  0  0  0  0  0  0  0  0  0  0
  131.6134  130.0501  156.4970 H   0  0  0  0  0  0  0  0  0  0  0  0
  132.2307  128.8900  154.4187 H   0  0  0  0  0  0  0  0  0  0  0  0
  1  2  1  0
  1 31  1  0
  1 32  1  0
  2 30  2  0
  2  3  1  0
  3  4  2  0
  3 33  1  0
  4  5  1  0
  4 34  1  0
  5  6  1  0
  5 29  2  0
  6 27  1  0
  6  7  2  0
  7  8  1  0
  7 35  1  0
  8  9  1  0
  8 10  1  0
 10 11  1  0
 10 27  2  0
 11 12  1  0
 11 36  1  0
 12 13  1  1
 12 14  1  0
 12 21  1  0
 14 20  1  0
 14 15  2  0
 15 16  1  0
 15 37  1  0
 16 17  2  0
 16 38  1  0
 17 18  1  0
 17 19  1  0
 19 20  2  0
 19 39  1  0
 20 40  1  0
 21 26  1  0
 21 22  2  0
 22 23  1  0
 22 41  1  0
 23 24  2  0
 23 42  1  0
 24 25  1  0
 24 43  1  0
 25 26  2  0
 25 44  1  0
 27 28  1  0
 29 30  1  0
 29 45  1  0
 30 46  1  0
M  CHG  1  27   1
M  END
>  <DOCK_score>  (1) 
-58.073265

>  <SMILES>  (1) 
Nc1ccc(-c2c[nH]c(N[C@@H](c3ccc(Cl)cc3)c3ccccn3)[nH+]2)cc1

$$$$
