CC=Cc1ccc(-c2c[nH]c(N[C@@H](CCl)Cc3ccccc3)[nH+]2)cc1
     RDKit          3D

 48 50  0  0  1  0  0  0  0  0999 V2000
  130.9129  130.0048  149.6321 C   0  0  0  0  0  0  0  0  0  0  0  0
  130.7200  130.6586  150.9762 C   0  0  0  0  0  0  0  0  0  0  0  0
  131.0957  130.0270  152.0810 C   0  0  0  0  0  0  0  0  0  0  0  0
  130.9067  130.6680  153.3981 C   0  0  0  0  0  0  0  0  0  0  0  0
  130.7370  132.0518  153.4839 C   0  0  0  0  0  0  0  0  0  0  0  0
  130.5612  132.6485  154.7121 C   0  0  0  0  0  0  0  0  0  0  0  0
  130.5516  131.8713  155.8708 C   0  0  0  0  0  0  0  0  0  0  0  0
  130.3618  132.5145  157.1926 C   0  0  0  0  0  0  0  0  0  0  0  0
  129.7826  131.9478  158.2809 C   0  0  0  0  0  0  0  0  0  0  0  0
  129.8082  132.8884  159.2813 N   0  0  0  0  0  0  0  0  0  0  0  0
  129.4634  132.7793  160.1813 H   0  0  0  0  0  0  0  0  0  0  0  0
  130.4075  134.0016  158.7770 C   0  0  0  0  0  0  0  0  0  0  0  0
  130.6295  135.1805  159.4677 N   0  0  0  0  0  0  0  0  0  0  0  0
  130.2055  135.3020  160.8648 C   0  0  1  0  0  0  0  0  0  0  0  0
  129.2352  134.8224  160.9930 H   0  0  0  0  0  0  0  0  0  0  0  0
  131.2341  134.6222  161.7708 C   0  0  0  0  0  0  0  0  0  0  0  0
  130.9595  132.8403  161.7606 Cl  0  0  0  0  0  0  0  0  0  0  0  0
  130.0964  136.7818  161.2379 C   0  0  0  0  0  0  0  0  0  0  0  0
  131.4380  137.4449  161.0605 C   0  0  0  0  0  0  0  0  0  0  0  0
  132.3318  137.4889  162.1141 C   0  0  0  0  0  0  0  0  0  0  0  0
  133.5645  138.0928  161.9499 C   0  0  0  0  0  0  0  0  0  0  0  0
  133.8991  138.6618  160.7354 C   0  0  0  0  0  0  0  0  0  0  0  0
  133.0031  138.6225  159.6834 C   0  0  0  0  0  0  0  0  0  0  0  0
  131.7727  138.0139  159.8459 C   0  0  0  0  0  0  0  0  0  0  0  0
  130.7399  133.7734  157.5300 N   0  0  0  0  0  0  0  0  0  0  0  0
  131.1816  134.4050  156.9410 H   0  0  0  0  0  0  0  0  0  0  0  0
  130.7262  130.4897  155.7863 C   0  0  0  0  0  0  0  0  0  0  0  0
  130.8969  129.8909  154.5583 C   0  0  0  0  0  0  0  0  0  0  0  0
  130.5480  130.6694  148.8490 H   0  0  0  0  0  0  0  0  0  0  0  0
  131.9726  129.8046  149.4741 H   0  0  0  0  0  0  0  0  0  0  0  0
  130.3576  129.0674  149.6010 H   0  0  0  0  0  0  0  0  0  0  0  0
  130.2767  131.6413  151.0399 H   0  0  0  0  0  0  0  0  0  0  0  0
  131.5387  129.0446  152.0170 H   0  0  0  0  0  0  0  0  0  0  0  0
  130.7444  132.6536  152.5872 H   0  0  0  0  0  0  0  0  0  0  0  0
  130.4304  133.7186  154.7787 H   0  0  0  0  0  0  0  0  0  0  0  0
  129.3750  130.9497  158.3464 H   0  0  0  0  0  0  0  0  0  0  0  0
  131.0656  135.9263  159.0266 H   0  0  0  0  0  0  0  0  0  0  0  0
  132.2384  134.8371  161.4055 H   0  0  0  0  0  0  0  0  0  0  0  0
  131.1289  135.0004  162.7876 H   0  0  0  0  0  0  0  0  0  0  0  0
  129.3636  137.2661  160.5923 H   0  0  0  0  0  0  0  0  0  0  0  0
  129.7810  136.8723  162.2774 H   0  0  0  0  0  0  0  0  0  0  0  0
  132.0687  137.0482  163.0643 H   0  0  0  0  0  0  0  0  0  0  0  0
  134.2643  138.1239  162.7719 H   0  0  0  0  0  0  0  0  0  0  0  0
  134.8602  139.1376  160.6084 H   0  0  0  0  0  0  0  0  0  0  0  0
  133.2643  139.0674  158.7346 H   0  0  0  0  0  0  0  0  0  0  0  0
  131.0725  137.9833  159.0242 H   0  0  0  0  0  0  0  0  0  0  0  0
  130.7234  129.8893  156.6840 H   0  0  0  0  0  0  0  0  0  0  0  0
  131.0276  128.8206  154.4928 H   0  0  0  0  0  0  0  0  0  0  0  0
  1  2  1  0
  1 29  1  0
  1 30  1  0
  1 31  1  0
  2  3  2  0
  2 32  1  0
  3  4  1  0
  3 33  1  0
  4 28  2  0
  4  5  1  0
  5  6  2  0
  5 34  1  0
  6  7  1  0
  6 35  1  0
  7  8  1  0
  7 27  2  0
  8 25  1  0
  8  9  2  0
  9 10  1  0
  9 36  1  0
 10 11  1  0
 10 12  1  0
 12 13  1  0
 12 25  2  0
 13 14  1  0
 13 37  1  0
 14 15  1  6
 14 16  1  0
 14 18  1  0
 16 17  1  0
 16 38  1  0
 16 39  1  0
 18 19  1  0
 18 40  1  0
 18 41  1  0
 19 24  1  0
 19 20  2  0
 20 21  1  0
 20 42  1  0
 21 22  2  0
 21 43  1  0
 22 23  1  0
 22 44  1  0
 23 24  2  0
 23 45  1  0
 24 46  1  0
 25 26  1  0
 27 28  1  0
 27 47  1  0
 28 48  1  0
M  CHG  1  25   1
M  END
>  <DOCK_score>  (1) 
-60.193214

>  <SMILES>  (1) 
CC=Cc1ccc(-c2c[nH]c(N[C@@H](CCl)Cc3ccccc3)[nH+]2)cc1

$$$$
