O=C1C=CC(O)(c2ccc(SCC3=CCCCC3)c(Nc3[nH]cc(-c4ccccc4)[nH+]3)c2)C=C1
     RDKit          3D

 62 66  0  0  1  0  0  0  0  0999 V2000
  126.2060  131.1331  159.5363 O   0  0  0  0  0  0  0  0  0  0  0  0
  126.0268  132.1632  160.1588 C   0  0  0  0  0  0  0  0  0  0  0  0
  125.6952  133.4234  159.4680 C   0  0  0  0  0  0  0  0  0  0  0  0
  125.8301  134.5746  160.1129 C   0  0  0  0  0  0  0  0  0  0  0  0
  126.3219  134.6667  161.5230 C   0  0  0  0  0  0  0  0  0  0  0  0
  125.5216  135.6176  162.2281 O   0  0  0  0  0  0  0  0  0  0  0  0
  127.7489  135.1509  161.5083 C   0  0  0  0  0  0  0  0  0  0  0  0
  128.2356  135.8935  162.5685 C   0  0  0  0  0  0  0  0  0  0  0  0
  129.5451  136.3364  162.5642 C   0  0  0  0  0  0  0  0  0  0  0  0
  130.3722  136.0452  161.4890 C   0  0  0  0  0  0  0  0  0  0  0  0
  132.0398  136.6140  161.4773 S   0  0  0  0  0  0  0  0  0  0  0  0
  132.7470  135.8349  162.9549 C   0  0  0  0  0  0  0  0  0  0  0  0
  134.1950  136.2307  163.0873 C   0  0  0  0  0  0  0  0  0  0  0  0
  135.0848  135.2905  163.0757 C   0  0  0  0  0  0  0  0  0  0  0  0
  136.5601  135.5273  163.2141 C   0  0  0  0  0  0  0  0  0  0  0  0
  136.8852  136.9974  162.9315 C   0  0  0  0  0  0  0  0  0  0  0  0
  135.9366  137.8689  163.7644 C   0  0  0  0  0  0  0  0  0  0  0  0
  134.5158  137.6901  163.2249 C   0  0  0  0  0  0  0  0  0  0  0  0
  129.8810  135.2954  160.4196 C   0  0  0  0  0  0  0  0  0  0  0  0
  130.7118  134.9933  159.3333 N   0  0  0  0  0  0  0  0  0  0  0  0
  130.5169  133.8243  158.6167 C   0  0  0  0  0  0  0  0  0  0  0  0
  130.0233  132.6593  159.1189 N   0  0  0  0  0  0  0  0  0  0  0  0
  129.7473  132.4997  160.0350 H   0  0  0  0  0  0  0  0  0  0  0  0
  129.9851  131.7525  158.0882 C   0  0  0  0  0  0  0  0  0  0  0  0
  130.4645  132.3857  156.9887 C   0  0  0  0  0  0  0  0  0  0  0  0
  130.6140  131.7944  155.6366 C   0  0  0  0  0  0  0  0  0  0  0  0
  129.9326  132.3455  154.5528 C   0  0  0  0  0  0  0  0  0  0  0  0
  130.0807  131.7953  153.2959 C   0  0  0  0  0  0  0  0  0  0  0  0
  130.8936  130.6910  153.1128 C   0  0  0  0  0  0  0  0  0  0  0  0
  131.5674  130.1361  154.1859 C   0  0  0  0  0  0  0  0  0  0  0  0
  131.4320  130.6821  155.4462 C   0  0  0  0  0  0  0  0  0  0  0  0
  130.7824  133.6554  157.3441 N   0  0  0  0  0  0  0  0  0  0  0  0
  131.1482  134.3306  156.7514 H   0  0  0  0  0  0  0  0  0  0  0  0
  128.5676  134.8510  160.4352 C   0  0  0  0  0  0  0  0  0  0  0  0
  126.2642  133.3597  162.2487 C   0  0  0  0  0  0  0  0  0  0  0  0
  126.1342  132.1938  161.6294 C   0  0  0  0  0  0  0  0  0  0  0  0
  125.3461  133.4091  158.4462 H   0  0  0  0  0  0  0  0  0  0  0  0
  125.5732  135.4877  159.5965 H   0  0  0  0  0  0  0  0  0  0  0  0
  125.5257  136.5022  161.8371 H   0  0  0  0  0  0  0  0  0  0  0  0
  127.5920  136.1243  163.4046 H   0  0  0  0  0  0  0  0  0  0  0  0
  129.9231  136.9124  163.3958 H   0  0  0  0  0  0  0  0  0  0  0  0
  132.6734  134.7511  162.8647 H   0  0  0  0  0  0  0  0  0  0  0  0
  132.1983  136.1640  163.8373 H   0  0  0  0  0  0  0  0  0  0  0  0
  134.7437  134.2719  162.9640 H   0  0  0  0  0  0  0  0  0  0  0  0
  136.8736  135.2727  164.2265 H   0  0  0  0  0  0  0  0  0  0  0  0
  137.0953  134.8978  162.5031 H   0  0  0  0  0  0  0  0  0  0  0  0
  136.7432  137.2105  161.8720 H   0  0  0  0  0  0  0  0  0  0  0  0
  137.9172  137.2072  163.2124 H   0  0  0  0  0  0  0  0  0  0  0  0
  136.2315  138.9149  163.6804 H   0  0  0  0  0  0  0  0  0  0  0  0
  135.9742  137.5572  164.8082 H   0  0  0  0  0  0  0  0  0  0  0  0
  134.4364  138.1710  162.2499 H   0  0  0  0  0  0  0  0  0  0  0  0
  133.8090  138.1520  163.9142 H   0  0  0  0  0  0  0  0  0  0  0  0
  131.4237  135.6027  159.0829 H   0  0  0  0  0  0  0  0  0  0  0  0
  129.6426  130.7297  158.1434 H   0  0  0  0  0  0  0  0  0  0  0  0
  129.2940  133.2047  154.6954 H   0  0  0  0  0  0  0  0  0  0  0  0
  129.5573  132.2246  152.4544 H   0  0  0  0  0  0  0  0  0  0  0  0
  131.0027  130.2608  152.1283 H   0  0  0  0  0  0  0  0  0  0  0  0
  132.2010  129.2742  154.0371 H   0  0  0  0  0  0  0  0  0  0  0  0
  131.9591  130.2484  156.2831 H   0  0  0  0  0  0  0  0  0  0  0  0
  128.1839  134.2709  159.6089 H   0  0  0  0  0  0  0  0  0  0  0  0
  126.3316  133.3656  163.3266 H   0  0  0  0  0  0  0  0  0  0  0  0
  126.1071  131.2754  162.1969 H   0  0  0  0  0  0  0  0  0  0  0  0
  1  2  2  0
  2 36  1  0
  2  3  1  0
  3  4  2  0
  3 37  1  0
  4  5  1  0
  4 38  1  0
  5  6  1  0
  5  7  1  0
  5 35  1  0
  6 39  1  0
  7 34  1  0
  7  8  2  0
  8  9  1  0
  8 40  1  0
  9 10  2  0
  9 41  1  0
 10 11  1  0
 10 19  1  0
 11 12  1  0
 12 13  1  0
 12 42  1  0
 12 43  1  0
 13 18  1  0
 13 14  2  0
 14 15  1  0
 14 44  1  0
 15 16  1  0
 15 45  1  0
 15 46  1  0
 16 17  1  0
 16 47  1  0
 16 48  1  0
 17 18  1  0
 17 49  1  0
 17 50  1  0
 18 51  1  0
 18 52  1  0
 19 20  1  0
 19 34  2  0
 20 53  1  0
 21 20  1  0
 21 32  2  0
 21 22  1  0
 22 23  1  0
 22 24  1  0
 24 25  2  0
 24 54  1  0
 25 26  1  0
 25 32  1  0
 26 31  1  0
 26 27  2  0
 27 28  1  0
 27 55  1  0
 28 29  2  0
 28 56  1  0
 29 30  1  0
 29 57  1  0
 30 31  2  0
 30 58  1  0
 31 59  1  0
 32 33  1  0
 34 60  1  0
 35 36  2  0
 35 61  1  0
 36 62  1  0
M  CHG  1  32   1
M  END
>  <DOCK_score>  (1) 
-57.426262

>  <SMILES>  (1) 
O=C1C=CC(O)(c2ccc(SCC3=CCCCC3)c(Nc3[nH]cc(-c4ccccc4)[nH+]3)c2)C=C1

$$$$
