OC1CC(Nc2cc(Nc3[nH]c4ccccc4[nH+]3)cc3ccccc23)C1
     RDKit          3D

 47 51  0  0  1  0  0  0  0  0999 V2000
  123.3681  134.9340  161.9282 O   0  0  0  0  0  0  0  0  0  0  0  0
  124.5404  134.1434  161.7211 C   0  0  2  0  0  0  0  0  0  0  0  0
  125.8491  134.9447  161.8200 C   0  0  0  0  0  0  0  0  0  0  0  0
  126.3557  134.1140  160.6292 C   0  0  2  0  0  0  0  0  0  0  0  0
  127.1236  134.8929  159.6546 N   0  0  0  0  0  0  0  0  0  0  0  0
  128.5040  135.0174  159.7947 C   0  0  0  0  0  0  0  0  0  0  0  0
  129.0346  136.0571  160.5245 C   0  0  0  0  0  0  0  0  0  0  0  0
  130.4180  136.1923  160.6720 C   0  0  0  0  0  0  0  0  0  0  0  0
  130.9324  137.2571  161.4170 N   0  0  0  0  0  0  0  0  0  0  0  0
  132.1648  137.7843  161.1039 C   0  0  0  0  0  0  0  0  0  0  0  0
  132.9981  138.3458  161.9772 N   0  0  0  0  0  0  0  0  0  0  0  0
  132.8379  138.4488  162.9283 H   0  0  0  0  0  0  0  0  0  0  0  0
  134.1176  138.7585  161.3042 C   0  0  0  0  0  0  0  0  0  0  0  0
  135.2979  139.3859  161.6924 C   0  0  0  0  0  0  0  0  0  0  0  0
  136.2643  139.6691  160.7518 C   0  0  0  0  0  0  0  0  0  0  0  0
  136.0725  139.3273  159.4211 C   0  0  0  0  0  0  0  0  0  0  0  0
  134.9128  138.6997  159.0210 C   0  0  0  0  0  0  0  0  0  0  0  0
  133.9259  138.4067  159.9580 C   0  0  0  0  0  0  0  0  0  0  0  0
  132.6965  137.8074  159.8837 N   0  0  0  0  0  0  0  0  0  0  0  0
  132.2833  137.4587  159.0784 H   0  0  0  0  0  0  0  0  0  0  0  0
  131.2811  135.2907  160.0867 C   0  0  0  0  0  0  0  0  0  0  0  0
  130.7684  134.2169  159.3414 C   0  0  0  0  0  0  0  0  0  0  0  0
  131.6238  133.2783  158.7370 C   0  0  0  0  0  0  0  0  0  0  0  0
  131.0957  132.2522  158.0156 C   0  0  0  0  0  0  0  0  0  0  0  0
  129.7170  132.1160  157.8668 C   0  0  0  0  0  0  0  0  0  0  0  0
  128.8590  133.0058  158.4384 C   0  0  0  0  0  0  0  0  0  0  0  0
  129.3665  134.0773  159.1894 C   0  0  0  0  0  0  0  0  0  0  0  0
  124.8810  133.9200  160.2383 C   0  0  0  0  0  0  0  0  0  0  0  0
  123.2641  135.6567  161.2940 H   0  0  0  0  0  0  0  0  0  0  0  0
  124.5433  133.2278  162.3126 H   0  0  0  0  0  0  0  0  0  0  0  0
  126.4013  134.7669  162.7428 H   0  0  0  0  0  0  0  0  0  0  0  0
  125.7305  136.0044  161.5941 H   0  0  0  0  0  0  0  0  0  0  0  0
  126.8563  133.1910  160.9221 H   0  0  0  0  0  0  0  0  0  0  0  0
  126.6708  135.3221  158.9118 H   0  0  0  0  0  0  0  0  0  0  0  0
  128.3751  136.7763  160.9875 H   0  0  0  0  0  0  0  0  0  0  0  0
  130.4209  137.6247  162.1547 H   0  0  0  0  0  0  0  0  0  0  0  0
  135.4539  139.6541  162.7268 H   0  0  0  0  0  0  0  0  0  0  0  0
  137.1778  140.1604  161.0529 H   0  0  0  0  0  0  0  0  0  0  0  0
  136.8377  139.5544  158.6936 H   0  0  0  0  0  0  0  0  0  0  0  0
  134.7701  138.4358  157.9835 H   0  0  0  0  0  0  0  0  0  0  0  0
  132.3483  135.4079  160.2043 H   0  0  0  0  0  0  0  0  0  0  0  0
  132.6944  133.3714  158.8448 H   0  0  0  0  0  0  0  0  0  0  0  0
  131.7546  131.5330  157.5522 H   0  0  0  0  0  0  0  0  0  0  0  0
  129.3228  131.2929  157.2892 H   0  0  0  0  0  0  0  0  0  0  0  0
  127.7927  132.8876  158.3141 H   0  0  0  0  0  0  0  0  0  0  0  0
  124.4978  134.6996  159.5800 H   0  0  0  0  0  0  0  0  0  0  0  0
  124.6518  132.9150  159.8842 H   0  0  0  0  0  0  0  0  0  0  0  0
  1  2  1  0
  1 29  1  0
  2 28  1  0
  2  3  1  0
  2 30  1  1
  3  4  1  0
  3 31  1  0
  3 32  1  0
  4  5  1  0
  4 28  1  0
  4 33  1  1
  5  6  1  0
  5 34  1  0
  6 27  1  0
  6  7  2  0
  7  8  1  0
  7 35  1  0
  8  9  1  0
  8 21  2  0
  9 10  1  0
  9 36  1  0
 10 19  1  0
 10 11  2  0
 11 12  1  0
 11 13  1  0
 13 18  2  0
 13 14  1  0
 14 15  2  0
 14 37  1  0
 15 16  1  0
 15 38  1  0
 16 17  2  0
 16 39  1  0
 17 18  1  0
 17 40  1  0
 18 19  1  0
 19 20  1  0
 21 22  1  0
 21 41  1  0
 22 27  2  0
 22 23  1  0
 23 24  2  0
 23 42  1  0
 24 25  1  0
 24 43  1  0
 25 26  2  0
 25 44  1  0
 26 27  1  0
 26 45  1  0
 28 46  1  0
 28 47  1  0
M  CHG  1  11   1
M  END
>  <DOCK_score>  (1) 
-48.333122

>  <SMILES>  (1) 
OC1CC(Nc2cc(Nc3[nH]c4ccccc4[nH+]3)cc3ccccc23)C1

$$$$
