O=C1CC[C@H](NC(NC2CC2)=[NH+][C@H]2COC[C@H]2NC2=CCCC2)CN1
     RDKit          3D

 55 58  0  0  1  0  0  0  0  0999 V2000
  123.7421  133.6714  161.6590 O   0  0  0  0  0  0  0  0  0  0  0  0
  124.9103  133.8876  161.4147 C   0  0  0  0  0  0  0  0  0  0  0  0
  125.7516  132.7529  160.9050 C   0  0  0  0  0  0  0  0  0  0  0  0
  127.2359  133.0866  161.0698 C   0  0  0  0  0  0  0  0  0  0  0  0
  127.4813  134.4941  160.5128 C   0  0  2  0  0  0  0  0  0  0  0  0
  127.0875  134.5599  159.4986 H   0  0  0  0  0  0  0  0  0  0  0  0
  128.9193  134.7741  160.5009 N   0  0  0  0  0  0  0  0  0  0  0  0
  129.6722  134.4565  159.3952 C   0  0  0  0  0  0  0  0  0  0  0  0
  129.0758  133.8762  158.3010 N   0  0  0  0  0  0  0  0  0  0  0  0
  129.8781  133.5377  157.1228 C   0  0  0  0  0  0  0  0  0  0  0  0
  129.3210  132.4789  156.1692 C   0  0  0  0  0  0  0  0  0  0  0  0
  130.5088  132.1446  157.0740 C   0  0  0  0  0  0  0  0  0  0  0  0
  130.9516  134.7056  159.3846 N   0  0  0  0  0  0  0  0  0  0  0  0
  131.4000  134.9046  158.5478 H   0  0  0  0  0  0  0  0  0  0  0  0
  131.7123  134.6851  160.6364 C   0  0  1  0  0  0  0  0  0  0  0  0
  131.2704  133.9810  161.3415 H   0  0  0  0  0  0  0  0  0  0  0  0
  133.1900  134.3252  160.3660 C   0  0  0  0  0  0  0  0  0  0  0  0
  133.9434  135.1413  161.2891 O   0  0  0  0  0  0  0  0  0  0  0  0
  133.2868  136.4277  161.2831 C   0  0  0  0  0  0  0  0  0  0  0  0
  131.7774  136.1001  161.2536 C   0  0  1  0  0  0  0  0  0  0  0  0
  131.3656  136.0961  162.2627 H   0  0  0  0  0  0  0  0  0  0  0  0
  131.0600  137.0609  160.4117 N   0  0  0  0  0  0  0  0  0  0  0  0
  130.6316  138.2690  160.9468 C   0  0  0  0  0  0  0  0  0  0  0  0
  129.9819  139.1941  160.2740 C   0  0  0  0  0  0  0  0  0  0  0  0
  129.6607  140.3782  161.1562 C   0  0  0  0  0  0  0  0  0  0  0  0
  130.5875  140.2184  162.3835 C   0  0  0  0  0  0  0  0  0  0  0  0
  130.8438  138.6938  162.3813 C   0  0  0  0  0  0  0  0  0  0  0  0
  126.7683  135.5094  161.4068 C   0  0  0  0  0  0  0  0  0  0  0  0
  125.3789  135.1202  161.6134 N   0  0  0  0  0  0  0  0  0  0  0  0
  125.5185  131.8485  161.4671 H   0  0  0  0  0  0  0  0  0  0  0  0
  125.5365  132.5885  159.8492 H   0  0  0  0  0  0  0  0  0  0  0  0
  127.8397  132.3642  160.5206 H   0  0  0  0  0  0  0  0  0  0  0  0
  127.5008  133.0589  162.1267 H   0  0  0  0  0  0  0  0  0  0  0  0
  129.3402  135.1836  161.2730 H   0  0  0  0  0  0  0  0  0  0  0  0
  128.1236  133.6909  158.3088 H   0  0  0  0  0  0  0  0  0  0  0  0
  130.4429  134.3614  156.6864 H   0  0  0  0  0  0  0  0  0  0  0  0
  128.3577  132.0341  156.4182 H   0  0  0  0  0  0  0  0  0  0  0  0
  129.5193  132.6061  155.1049 H   0  0  0  0  0  0  0  0  0  0  0  0
  131.4883  132.0518  156.6050 H   0  0  0  0  0  0  0  0  0  0  0  0
  130.3267  131.4799  157.9184 H   0  0  0  0  0  0  0  0  0  0  0  0
  133.3652  133.2677  160.5643 H   0  0  0  0  0  0  0  0  0  0  0  0
  133.4579  134.5689  159.3381 H   0  0  0  0  0  0  0  0  0  0  0  0
  133.5696  136.9940  160.3957 H   0  0  0  0  0  0  0  0  0  0  0  0
  133.5364  136.9855  162.1857 H   0  0  0  0  0  0  0  0  0  0  0  0
  130.8841  136.8533  159.4808 H   0  0  0  0  0  0  0  0  0  0  0  0
  129.7135  139.1175  159.2306 H   0  0  0  0  0  0  0  0  0  0  0  0
  129.8788  141.3101  160.6347 H   0  0  0  0  0  0  0  0  0  0  0  0
  128.6149  140.3509  161.4622 H   0  0  0  0  0  0  0  0  0  0  0  0
  131.5169  140.7712  162.2457 H   0  0  0  0  0  0  0  0  0  0  0  0
  130.0822  140.5293  163.2978 H   0  0  0  0  0  0  0  0  0  0  0  0
  130.1334  138.1888  163.0359 H   0  0  0  0  0  0  0  0  0  0  0  0
  131.8663  138.4805  162.6930 H   0  0  0  0  0  0  0  0  0  0  0  0
  127.2754  135.5597  162.3704 H   0  0  0  0  0  0  0  0  0  0  0  0
  126.8010  136.4911  160.9343 H   0  0  0  0  0  0  0  0  0  0  0  0
  124.7562  135.8003  161.9140 H   0  0  0  0  0  0  0  0  0  0  0  0
  1  2  2  0
  2 29  1  0
  2  3  1  0
  3  4  1  0
  3 30  1  0
  3 31  1  0
  4  5  1  0
  4 32  1  0
  4 33  1  0
  5  6  1  6
  5  7  1  0
  5 28  1  0
  7 34  1  0
  8  7  1  0
  8  9  1  0
  8 13  2  0
  9 10  1  0
  9 35  1  0
 10 12  1  0
 10 11  1  0
 10 36  1  0
 11 12  1  0
 11 37  1  0
 11 38  1  0
 12 39  1  0
 12 40  1  0
 13 14  1  0
 13 15  1  0
 15 16  1  1
 15 20  1  0
 15 17  1  0
 17 18  1  0
 17 41  1  0
 17 42  1  0
 18 19  1  0
 19 20  1  0
 19 43  1  0
 19 44  1  0
 20 21  1  1
 20 22  1  0
 22 23  1  0
 22 45  1  0
 23 27  1  0
 23 24  2  0
 24 25  1  0
 24 46  1  0
 25 26  1  0
 25 47  1  0
 25 48  1  0
 26 27  1  0
 26 49  1  0
 26 50  1  0
 27 51  1  0
 27 52  1  0
 28 29  1  0
 28 53  1  0
 28 54  1  0
 29 55  1  0
M  CHG  1  13   1
M  END
>  <DOCK_score>  (1) 
-49.829746

>  <SMILES>  (1) 
O=C1CC[C@H](NC(NC2CC2)=[NH+][C@H]2COC[C@H]2NC2=CCCC2)CN1

$$$$
