c1ccc(CC(Cc2ccccc2)[NH2+]Cc2cncc(-c3cc4cccnc4[nH]3)c2)cc1
     RDKit          3D

 59 63  0  0  0  0  0  0  0  0999 V2000
  131.3163  131.3168  155.9058 C   0  0  0  0  0  0  0  0  0  0  0  0
  130.4819  132.4003  155.7032 C   0  0  0  0  0  0  0  0  0  0  0  0
  129.7881  132.9467  156.7668 C   0  0  0  0  0  0  0  0  0  0  0  0
  129.9290  132.4099  158.0329 C   0  0  0  0  0  0  0  0  0  0  0  0
  129.1730  133.0060  159.1924 C   0  0  0  0  0  0  0  0  0  0  0  0
  130.0153  134.1083  159.8376 C   0  0  0  0  0  0  0  0  0  0  0  0
  131.3336  133.5152  160.3391 C   0  0  0  0  0  0  0  0  0  0  0  0
  132.1632  134.6010  160.9746 C   0  0  0  0  0  0  0  0  0  0  0  0
  133.0553  135.3275  160.2081 C   0  0  0  0  0  0  0  0  0  0  0  0
  133.8128  136.3266  160.7902 C   0  0  0  0  0  0  0  0  0  0  0  0
  133.6852  136.5929  162.1410 C   0  0  0  0  0  0  0  0  0  0  0  0
  132.7975  135.8625  162.9083 C   0  0  0  0  0  0  0  0  0  0  0  0
  132.0363  134.8668  162.3253 C   0  0  0  0  0  0  0  0  0  0  0  0
  130.2952  135.1550  158.8456 N   0  0  0  0  0  0  0  0  0  0  0  0
  130.4933  134.7281  157.9530 H   0  0  0  0  0  0  0  0  0  0  0  0
  131.0926  135.6964  159.1439 H   0  0  0  0  0  0  0  0  0  0  0  0
  129.1257  136.0348  158.7187 C   0  0  0  0  0  0  0  0  0  0  0  0
  128.8298  136.6725  160.0517 C   0  0  0  0  0  0  0  0  0  0  0  0
  127.5306  136.7375  160.5225 C   0  0  0  0  0  0  0  0  0  0  0  0
  127.2561  137.2875  161.6897 N   0  0  0  0  0  0  0  0  0  0  0  0
  128.1960  137.8064  162.4523 C   0  0  0  0  0  0  0  0  0  0  0  0
  129.5307  137.7858  162.0466 C   0  0  0  0  0  0  0  0  0  0  0  0
  130.5859  138.3694  162.9025 C   0  0  0  0  0  0  0  0  0  0  0  0
  131.4114  139.3840  162.5445 C   0  0  0  0  0  0  0  0  0  0  0  0
  132.2877  139.6382  163.6854 C   0  0  0  0  0  0  0  0  0  0  0  0
  133.3277  140.5403  163.9323 C   0  0  0  0  0  0  0  0  0  0  0  0
  133.9548  140.4880  165.1623 C   0  0  0  0  0  0  0  0  0  0  0  0
  133.5381  139.5550  166.1000 C   0  0  0  0  0  0  0  0  0  0  0  0
  132.5572  138.7146  165.8482 N   0  0  0  0  0  0  0  0  0  0  0  0
  131.9178  138.7175  164.6860 C   0  0  0  0  0  0  0  0  0  0  0  0
  130.8849  137.9625  164.1832 N   0  0  0  0  0  0  0  0  0  0  0  0
  130.4334  137.2488  164.6602 H   0  0  0  0  0  0  0  0  0  0  0  0
  129.8541  137.2038  160.8151 C   0  0  0  0  0  0  0  0  0  0  0  0
  130.7677  131.3302  158.2365 C   0  0  0  0  0  0  0  0  0  0  0  0
  131.4575  130.7805  157.1720 C   0  0  0  0  0  0  0  0  0  0  0  0
  131.8581  130.8897  155.0749 H   0  0  0  0  0  0  0  0  0  0  0  0
  130.3718  132.8196  154.7141 H   0  0  0  0  0  0  0  0  0  0  0  0
  129.1363  133.7931  156.6086 H   0  0  0  0  0  0  0  0  0  0  0  0
  128.9655  132.2294  159.9285 H   0  0  0  0  0  0  0  0  0  0  0  0
  128.2339  133.4284  158.8351 H   0  0  0  0  0  0  0  0  0  0  0  0
  129.4686  134.5395  160.6763 H   0  0  0  0  0  0  0  0  0  0  0  0
  131.1259  132.7387  161.0754 H   0  0  0  0  0  0  0  0  0  0  0  0
  131.8803  133.0841  159.5006 H   0  0  0  0  0  0  0  0  0  0  0  0
  133.1576  135.1168  159.1539 H   0  0  0  0  0  0  0  0  0  0  0  0
  134.5067  136.8968  160.1905 H   0  0  0  0  0  0  0  0  0  0  0  0
  134.2797  137.3708  162.5964 H   0  0  0  0  0  0  0  0  0  0  0  0
  132.6985  136.0701  163.9635 H   0  0  0  0  0  0  0  0  0  0  0  0
  131.3426  134.2963  162.9250 H   0  0  0  0  0  0  0  0  0  0  0  0
  129.3334  136.8113  157.9826 H   0  0  0  0  0  0  0  0  0  0  0  0
  128.2641  135.4499  158.3967 H   0  0  0  0  0  0  0  0  0  0  0  0
  126.7286  136.3273  159.9267 H   0  0  0  0  0  0  0  0  0  0  0  0
  127.9314  138.2520  163.3999 H   0  0  0  0  0  0  0  0  0  0  0  0
  131.4184  139.9050  161.5986 H   0  0  0  0  0  0  0  0  0  0  0  0
  133.6319  141.2565  163.1832 H   0  0  0  0  0  0  0  0  0  0  0  0
  134.7620  141.1678  165.3916 H   0  0  0  0  0  0  0  0  0  0  0  0
  134.0311  139.5170  167.0603 H   0  0  0  0  0  0  0  0  0  0  0  0
  130.8769  137.1711  160.4697 H   0  0  0  0  0  0  0  0  0  0  0  0
  130.8812  130.9137  159.2264 H   0  0  0  0  0  0  0  0  0  0  0  0
  132.1096  129.9343  157.3303 H   0  0  0  0  0  0  0  0  0  0  0  0
  1 35  2  0
  1  2  1  0
  1 36  1  0
  2  3  2  0
  2 37  1  0
  3  4  1  0
  3 38  1  0
  4  5  1  0
  4 34  2  0
  5  6  1  0
  5 39  1  0
  5 40  1  0
  6  7  1  0
  6 14  1  0
  6 41  1  0
  7  8  1  0
  7 42  1  0
  7 43  1  0
  8 13  1  0
  8  9  2  0
  9 10  1  0
  9 44  1  0
 10 11  2  0
 10 45  1  0
 11 12  1  0
 11 46  1  0
 12 13  2  0
 12 47  1  0
 13 48  1  0
 14 15  1  0
 14 16  1  0
 14 17  1  0
 17 18  1  0
 17 49  1  0
 17 50  1  0
 18 33  1  0
 18 19  2  0
 19 20  1  0
 19 51  1  0
 20 21  2  0
 21 22  1  0
 21 52  1  0
 22 23  1  0
 22 33  2  0
 23 31  1  0
 23 24  2  0
 24 25  1  0
 24 53  1  0
 25 30  2  0
 25 26  1  0
 26 27  2  0
 26 54  1  0
 27 28  1  0
 27 55  1  0
 28 29  2  0
 28 56  1  0
 29 30  1  0
 30 31  1  0
 31 32  1  0
 33 57  1  0
 34 35  1  0
 34 58  1  0
 35 59  1  0
M  CHG  1  14   1
M  END
>  <DOCK_score>  (1) 
-42.041721

>  <SMILES>  (1) 
c1ccc(CC(Cc2ccccc2)[NH2+]Cc2cncc(-c3cc4cccnc4[nH]3)c2)cc1

$$$$
