CCc1ccc(-c2c[nH]c(N[C@H](CSc3ccccc3)CC3CCCC3)[nH+]2)cc1
     RDKit          3D

 61 64  0  0  1  0  0  0  0  0999 V2000
  130.3064  129.1783  151.2665 C   0  0  0  0  0  0  0  0  0  0  0  0
  131.5773  129.5661  152.0248 C   0  0  0  0  0  0  0  0  0  0  0  0
  131.2067  130.3395  153.2640 C   0  0  0  0  0  0  0  0  0  0  0  0
  130.9787  129.6689  154.4522 C   0  0  0  0  0  0  0  0  0  0  0  0
  130.6446  130.3725  155.5915 C   0  0  0  0  0  0  0  0  0  0  0  0
  130.5256  131.7603  155.5405 C   0  0  0  0  0  0  0  0  0  0  0  0
  130.1613  132.5215  156.7603 C   0  0  0  0  0  0  0  0  0  0  0  0
  129.3976  132.0686  157.7853 C   0  0  0  0  0  0  0  0  0  0  0  0
  129.3125  133.0895  158.7005 N   0  0  0  0  0  0  0  0  0  0  0  0
  128.8315  133.0677  159.5425 H   0  0  0  0  0  0  0  0  0  0  0  0
  130.0274  134.1374  158.2076 C   0  0  0  0  0  0  0  0  0  0  0  0
  130.1932  135.3636  158.8284 N   0  0  0  0  0  0  0  0  0  0  0  0
  129.5698  135.6159  160.1299 C   0  0  2  0  0  0  0  0  0  0  0  0
  129.6543  134.7249  160.7520 H   0  0  0  0  0  0  0  0  0  0  0  0
  128.0925  135.9599  159.9298 C   0  0  0  0  0  0  0  0  0  0  0  0
  127.1942  135.6948  161.4834 S   0  0  0  0  0  0  0  0  0  0  0  0
  126.6822  134.0131  161.3631 C   0  0  0  0  0  0  0  0  0  0  0  0
  127.1035  133.0873  162.3100 C   0  0  0  0  0  0  0  0  0  0  0  0
  126.6964  131.7712  162.2153 C   0  0  0  0  0  0  0  0  0  0  0  0
  125.8784  131.3721  161.1740 C   0  0  0  0  0  0  0  0  0  0  0  0
  125.4614  132.2895  160.2269 C   0  0  0  0  0  0  0  0  0  0  0  0
  125.8607  133.6082  160.3178 C   0  0  0  0  0  0  0  0  0  0  0  0
  130.2775  136.7861  160.8161 C   0  0  0  0  0  0  0  0  0  0  0  0
  131.7549  136.4422  161.0163 C   0  0  0  0  0  0  0  0  0  0  0  0
  131.8916  135.2244  161.9536 C   0  0  0  0  0  0  0  0  0  0  0  0
  133.1495  135.5371  162.8015 C   0  0  0  0  0  0  0  0  0  0  0  0
  133.0312  137.0632  163.0383 C   0  0  0  0  0  0  0  0  0  0  0  0
  132.4794  137.6113  161.7061 C   0  0  0  0  0  0  0  0  0  0  0  0
  130.5379  133.7921  157.0508 N   0  0  0  0  0  0  0  0  0  0  0  0
  131.0941  134.3559  156.4906 H   0  0  0  0  0  0  0  0  0  0  0  0
  130.7508  132.4301  154.3393 C   0  0  0  0  0  0  0  0  0  0  0  0
  131.0900  131.7168  153.2075 C   0  0  0  0  0  0  0  0  0  0  0  0
  129.7629  130.0799  150.9833 H   0  0  0  0  0  0  0  0  0  0  0  0
  130.5745  128.6191  150.3702 H   0  0  0  0  0  0  0  0  0  0  0  0
  129.6762  128.5600  151.9057 H   0  0  0  0  0  0  0  0  0  0  0  0
  132.1208  128.6647  152.3081 H   0  0  0  0  0  0  0  0  0  0  0  0
  132.2075  130.1845  151.3856 H   0  0  0  0  0  0  0  0  0  0  0  0
  131.0666  128.5931  154.4895 H   0  0  0  0  0  0  0  0  0  0  0  0
  130.4716  129.8483  156.5199 H   0  0  0  0  0  0  0  0  0  0  0  0
  128.9430  131.0923  157.8664 H   0  0  0  0  0  0  0  0  0  0  0  0
  130.7221  136.0558  158.4016 H   0  0  0  0  0  0  0  0  0  0  0  0
  127.9998  137.0036  159.6300 H   0  0  0  0  0  0  0  0  0  0  0  0
  127.6725  135.3202  159.1536 H   0  0  0  0  0  0  0  0  0  0  0  0
  127.7456  133.3975  163.1211 H   0  0  0  0  0  0  0  0  0  0  0  0
  127.0203  131.0519  162.9528 H   0  0  0  0  0  0  0  0  0  0  0  0
  125.5649  130.3413  161.1000 H   0  0  0  0  0  0  0  0  0  0  0  0
  124.8230  131.9742  159.4148 H   0  0  0  0  0  0  0  0  0  0  0  0
  125.5352  134.3241  159.5775 H   0  0  0  0  0  0  0  0  0  0  0  0
  130.1930  137.6771  160.1939 H   0  0  0  0  0  0  0  0  0  0  0  0
  129.8137  136.9738  161.7844 H   0  0  0  0  0  0  0  0  0  0  0  0
  132.2219  136.2286  160.0549 H   0  0  0  0  0  0  0  0  0  0  0  0
  131.0132  135.1345  162.5927 H   0  0  0  0  0  0  0  0  0  0  0  0
  132.0385  134.3124  161.3751 H   0  0  0  0  0  0  0  0  0  0  0  0
  134.0577  135.3016  162.2468 H   0  0  0  0  0  0  0  0  0  0  0  0
  133.1220  134.9961  163.7474 H   0  0  0  0  0  0  0  0  0  0  0  0
  134.0099  137.4931  163.2516 H   0  0  0  0  0  0  0  0  0  0  0  0
  132.3369  137.2703  163.8528 H   0  0  0  0  0  0  0  0  0  0  0  0
  133.2986  137.9644  161.0798 H   0  0  0  0  0  0  0  0  0  0  0  0
  131.7788  138.4240  161.8975 H   0  0  0  0  0  0  0  0  0  0  0  0
  130.6597  133.5053  154.2939 H   0  0  0  0  0  0  0  0  0  0  0  0
  131.2644  132.2347  152.2760 H   0  0  0  0  0  0  0  0  0  0  0  0
  1  2  1  0
  1 33  1  0
  1 34  1  0
  1 35  1  0
  2  3  1  0
  2 36  1  0
  2 37  1  0
  3 32  2  0
  3  4  1  0
  4  5  2  0
  4 38  1  0
  5  6  1  0
  5 39  1  0
  6  7  1  0
  6 31  2  0
  7 29  1  0
  7  8  2  0
  8  9  1  0
  8 40  1  0
  9 10  1  0
  9 11  1  0
 11 12  1  0
 11 29  2  0
 12 13  1  0
 12 41  1  0
 13 14  1  1
 13 15  1  0
 13 23  1  0
 15 16  1  0
 15 42  1  0
 15 43  1  0
 16 17  1  0
 17 22  1  0
 17 18  2  0
 18 19  1  0
 18 44  1  0
 19 20  2  0
 19 45  1  0
 20 21  1  0
 20 46  1  0
 21 22  2  0
 21 47  1  0
 22 48  1  0
 23 24  1  0
 23 49  1  0
 23 50  1  0
 24 28  1  0
 24 25  1  0
 24 51  1  0
 25 26  1  0
 25 52  1  0
 25 53  1  0
 26 27  1  0
 26 54  1  0
 26 55  1  0
 27 28  1  0
 27 56  1  0
 27 57  1  0
 28 58  1  0
 28 59  1  0
 29 30  1  0
 31 32  1  0
 31 60  1  0
 32 61  1  0
M  CHG  1  29   1
M  END
>  <DOCK_score>  (1) 
-59.617188

>  <SMILES>  (1) 
CCc1ccc(-c2c[nH]c(N[C@H](CSc3ccccc3)CC3CCCC3)[nH+]2)cc1

$$$$
