O=C1CC[C@H](NC(NC2CCCCCC2)=[NH+]C[C@@H](O)c2ccc(-c3ccccc3)cc2)CN1
     RDKit          3D

 70 73  0  0  1  0  0  0  0  0999 V2000
  123.5835  133.6623  161.2482 O   0  0  0  0  0  0  0  0  0  0  0  0
  124.7634  133.9110  161.1178 C   0  0  0  0  0  0  0  0  0  0  0  0
  125.6598  132.8382  160.5685 C   0  0  0  0  0  0  0  0  0  0  0  0
  127.1199  133.1673  160.8889 C   0  0  0  0  0  0  0  0  0  0  0  0
  127.3886  134.6222  160.4859 C   0  0  2  0  0  0  0  0  0  0  0  0
  127.0752  134.7796  159.4539 H   0  0  0  0  0  0  0  0  0  0  0  0
  128.8183  134.9130  160.6185 N   0  0  0  0  0  0  0  0  0  0  0  0
  129.6638  134.7052  159.5545 C   0  0  0  0  0  0  0  0  0  0  0  0
  129.1675  134.2245  158.3659 N   0  0  0  0  0  0  0  0  0  0  0  0
  130.0146  133.4045  157.4966 C   0  0  0  0  0  0  0  0  0  0  0  0
  129.2327  133.0680  156.2103 C   0  0  0  0  0  0  0  0  0  0  0  0
  130.2177  132.6920  155.1366 C   0  0  0  0  0  0  0  0  0  0  0  0
  130.4469  131.1707  155.0534 C   0  0  0  0  0  0  0  0  0  0  0  0
  130.5569  130.5065  156.4391 C   0  0  0  0  0  0  0  0  0  0  0  0
  131.3765  131.3198  157.4041 C   0  0  0  0  0  0  0  0  0  0  0  0
  130.4234  132.2126  158.2250 C   0  0  0  0  0  0  0  0  0  0  0  0
  130.9357  134.9642  159.6726 N   0  0  0  0  0  0  0  0  0  0  0  0
  131.5323  134.8176  158.9219 H   0  0  0  0  0  0  0  0  0  0  0  0
  131.4644  135.4767  160.9391 C   0  0  0  0  0  0  0  0  0  0  0  0
  132.9734  135.6945  160.8109 C   0  0  1  0  0  0  0  0  0  0  0  0
  133.4117  134.8752  160.2411 H   0  0  0  0  0  0  0  0  0  0  0  0
  133.2207  136.9298  160.1364 O   0  0  0  0  0  0  0  0  0  0  0  0
  133.5928  135.7392  162.1840 C   0  0  0  0  0  0  0  0  0  0  0  0
  133.1902  136.7033  163.0906 C   0  0  0  0  0  0  0  0  0  0  0  0
  133.7501  136.7453  164.3514 C   0  0  0  0  0  0  0  0  0  0  0  0
  134.7309  135.8214  164.7065 C   0  0  0  0  0  0  0  0  0  0  0  0
  135.3405  135.8651  166.0586 C   0  0  0  0  0  0  0  0  0  0  0  0
  136.6526  135.4362  166.2483 C   0  0  0  0  0  0  0  0  0  0  0  0
  137.2162  135.4836  167.5072 C   0  0  0  0  0  0  0  0  0  0  0  0
  136.4776  135.9467  168.5815 C   0  0  0  0  0  0  0  0  0  0  0  0
  135.1730  136.3681  168.3998 C   0  0  0  0  0  0  0  0  0  0  0  0
  134.6010  136.3297  167.1444 C   0  0  0  0  0  0  0  0  0  0  0  0
  135.1369  134.8560  163.7873 C   0  0  0  0  0  0  0  0  0  0  0  0
  134.5662  134.8197  162.5312 C   0  0  0  0  0  0  0  0  0  0  0  0
  126.5901  135.5419  161.4106 C   0  0  0  0  0  0  0  0  0  0  0  0
  125.1947  135.1243  161.4646 N   0  0  0  0  0  0  0  0  0  0  0  0
  125.5320  132.7727  159.4881 H   0  0  0  0  0  0  0  0  0  0  0  0
  125.3957  131.8833  161.0230 H   0  0  0  0  0  0  0  0  0  0  0  0
  127.7773  132.5035  160.3275 H   0  0  0  0  0  0  0  0  0  0  0  0
  127.2981  133.0435  161.9572 H   0  0  0  0  0  0  0  0  0  0  0  0
  129.1684  135.2521  161.4572 H   0  0  0  0  0  0  0  0  0  0  0  0
  128.2562  134.4284  158.1029 H   0  0  0  0  0  0  0  0  0  0  0  0
  130.9030  133.9764  157.2285 H   0  0  0  0  0  0  0  0  0  0  0  0
  128.5597  132.2316  156.3991 H   0  0  0  0  0  0  0  0  0  0  0  0
  128.6591  133.9386  155.8923 H   0  0  0  0  0  0  0  0  0  0  0  0
  131.1693  133.1812  155.3440 H   0  0  0  0  0  0  0  0  0  0  0  0
  129.8437  133.0455  154.1757 H   0  0  0  0  0  0  0  0  0  0  0  0
  131.3669  130.9837  154.4998 H   0  0  0  0  0  0  0  0  0  0  0  0
  129.6155  130.7191  154.5121 H   0  0  0  0  0  0  0  0  0  0  0  0
  131.0181  129.5255  156.3242 H   0  0  0  0  0  0  0  0  0  0  0  0
  129.5546  130.3788  156.8480 H   0  0  0  0  0  0  0  0  0  0  0  0
  132.0787  131.9444  156.8521 H   0  0  0  0  0  0  0  0  0  0  0  0
  131.9242  130.6565  158.0734 H   0  0  0  0  0  0  0  0  0  0  0  0
  130.9267  132.5154  159.1432 H   0  0  0  0  0  0  0  0  0  0  0  0
  129.5359  131.6359  158.4847 H   0  0  0  0  0  0  0  0  0  0  0  0
  130.9797  136.4230  161.1787 H   0  0  0  0  0  0  0  0  0  0  0  0
  131.2675  134.7563  161.7331 H   0  0  0  0  0  0  0  0  0  0  0  0
  132.8496  136.9720  159.2444 H   0  0  0  0  0  0  0  0  0  0  0  0
  132.4330  137.4216  162.8129 H   0  0  0  0  0  0  0  0  0  0  0  0
  133.4318  137.4956  165.0600 H   0  0  0  0  0  0  0  0  0  0  0  0
  137.2286  135.0707  165.4110 H   0  0  0  0  0  0  0  0  0  0  0  0
  138.2344  135.1550  167.6546 H   0  0  0  0  0  0  0  0  0  0  0  0
  136.9211  135.9784  169.5657 H   0  0  0  0  0  0  0  0  0  0  0  0
  134.6008  136.7281  169.2420 H   0  0  0  0  0  0  0  0  0  0  0  0
  133.5820  136.6588  167.0038 H   0  0  0  0  0  0  0  0  0  0  0  0
  135.8969  134.1378  164.0572 H   0  0  0  0  0  0  0  0  0  0  0  0
  134.8802  134.0721  161.8178 H   0  0  0  0  0  0  0  0  0  0  0  0
  126.6458  136.5645  161.0374 H   0  0  0  0  0  0  0  0  0  0  0  0
  127.0167  135.5035  162.4129 H   0  0  0  0  0  0  0  0  0  0  0  0
  124.5393  135.7679  161.7761 H   0  0  0  0  0  0  0  0  0  0  0  0
  1  2  2  0
  2 36  1  0
  2  3  1  0
  3  4  1  0
  3 37  1  0
  3 38  1  0
  4  5  1  0
  4 39  1  0
  4 40  1  0
  5  6  1  6
  5  7  1  0
  5 35  1  0
  7 41  1  0
  8  7  1  0
  8  9  1  0
  8 17  2  0
  9 10  1  0
  9 42  1  0
 10 16  1  0
 10 11  1  0
 10 43  1  0
 11 12  1  0
 11 44  1  0
 11 45  1  0
 12 13  1  0
 12 46  1  0
 12 47  1  0
 13 14  1  0
 13 48  1  0
 13 49  1  0
 14 15  1  0
 14 50  1  0
 14 51  1  0
 15 16  1  0
 15 52  1  0
 15 53  1  0
 16 54  1  0
 16 55  1  0
 17 18  1  0
 17 19  1  0
 19 20  1  0
 19 56  1  0
 19 57  1  0
 20 21  1  6
 20 22  1  0
 20 23  1  0
 22 58  1  0
 23 34  1  0
 23 24  2  0
 24 25  1  0
 24 59  1  0
 25 26  2  0
 25 60  1  0
 26 27  1  0
 26 33  1  0
 27 32  1  0
 27 28  2  0
 28 29  1  0
 28 61  1  0
 29 30  2  0
 29 62  1  0
 30 31  1  0
 30 63  1  0
 31 32  2  0
 31 64  1  0
 32 65  1  0
 33 34  2  0
 33 66  1  0
 34 67  1  0
 35 36  1  0
 35 68  1  0
 35 69  1  0
 36 70  1  0
M  CHG  1  17   1
M  END
>  <DOCK_score>  (1) 
-55.703857

>  <SMILES>  (1) 
O=C1CC[C@H](NC(NC2CCCCCC2)=[NH+]C[C@@H](O)c2ccc(-c3ccccc3)cc2)CN1

$$$$
