Cc1[nH]c(NCc2ccccc2O[C@@H](C)C(C)Nc2nc3ccccc3[nH]2)[nH+]c1C
     RDKit          3D

 59 62  0  0  1  0  0  0  0  0999 V2000
  131.5625  130.0724  154.4246 C   0  0  0  0  0  0  0  0  0  0  0  0
  130.9155  131.3135  154.9833 C   0  0  0  0  0  0  0  0  0  0  0  0
  130.6715  131.5726  156.2966 N   0  0  0  0  0  0  0  0  0  0  0  0
  130.8850  130.9881  157.0409 H   0  0  0  0  0  0  0  0  0  0  0  0
  130.0909  132.7659  156.3836 C   0  0  0  0  0  0  0  0  0  0  0  0
  129.6884  133.3826  157.5530 N   0  0  0  0  0  0  0  0  0  0  0  0
  129.8917  132.7149  158.8410 C   0  0  0  0  0  0  0  0  0  0  0  0
  128.8107  133.1375  159.8022 C   0  0  0  0  0  0  0  0  0  0  0  0
  127.6305  132.4226  159.8732 C   0  0  0  0  0  0  0  0  0  0  0  0
  126.6408  132.8064  160.7588 C   0  0  0  0  0  0  0  0  0  0  0  0
  126.8266  133.9100  161.5712 C   0  0  0  0  0  0  0  0  0  0  0  0
  128.0021  134.6317  161.4996 C   0  0  0  0  0  0  0  0  0  0  0  0
  128.9971  134.2482  160.6120 C   0  0  0  0  0  0  0  0  0  0  0  0
  130.1545  134.9569  160.5392 O   0  0  0  0  0  0  0  0  0  0  0  0
  130.9344  135.0496  161.7330 C   0  0  1  0  0  0  0  0  0  0  0  0
  130.2765  135.0088  162.6010 H   0  0  0  0  0  0  0  0  0  0  0  0
  131.9237  133.8837  161.7876 C   0  0  0  0  0  0  0  0  0  0  0  0
  131.7040  136.3720  161.7380 C   0  0  2  0  0  0  0  0  0  0  0  0
  130.7725  137.5025  162.1797 C   0  0  0  0  0  0  0  0  0  0  0  0
  132.2050  136.6506  160.3899 N   0  0  0  0  0  0  0  0  0  0  0  0
  133.3717  137.3665  160.2221 C   0  0  0  0  0  0  0  0  0  0  0  0
  134.1085  137.8430  161.1944 N   0  0  0  0  0  0  0  0  0  0  0  0
  135.1834  138.4932  160.6759 C   0  0  0  0  0  0  0  0  0  0  0  0
  136.2630  139.1708  161.2478 C   0  0  0  0  0  0  0  0  0  0  0  0
  137.2194  139.7406  160.4376 C   0  0  0  0  0  0  0  0  0  0  0  0
  137.1193  139.6469  159.0573 C   0  0  0  0  0  0  0  0  0  0  0  0
  136.0594  138.9812  158.4771 C   0  0  0  0  0  0  0  0  0  0  0  0
  135.0870  138.4014  159.2777 C   0  0  0  0  0  0  0  0  0  0  0  0
  133.9339  137.6790  159.0177 N   0  0  0  0  0  0  0  0  0  0  0  0
  133.5890  137.4413  158.1428 H   0  0  0  0  0  0  0  0  0  0  0  0
  129.9566  133.2645  155.1580 N   0  0  0  0  0  0  0  0  0  0  0  0
  129.5603  134.1206  154.9326 H   0  0  0  0  0  0  0  0  0  0  0  0
  130.4741  132.3673  154.2755 C   0  0  0  0  0  0  0  0  0  0  0  0
  130.5349  132.5238  152.7777 C   0  0  0  0  0  0  0  0  0  0  0  0
  130.7952  129.3298  154.2057 H   0  0  0  0  0  0  0  0  0  0  0  0
  132.0980  130.3226  153.5088 H   0  0  0  0  0  0  0  0  0  0  0  0
  132.2623  129.6671  155.1555 H   0  0  0  0  0  0  0  0  0  0  0  0
  129.2713  134.2579  157.5210 H   0  0  0  0  0  0  0  0  0  0  0  0
  130.8655  132.9923  159.2445 H   0  0  0  0  0  0  0  0  0  0  0  0
  129.8511  131.6348  158.7006 H   0  0  0  0  0  0  0  0  0  0  0  0
  127.4829  131.5606  159.2396 H   0  0  0  0  0  0  0  0  0  0  0  0
  125.7208  132.2436  160.8162 H   0  0  0  0  0  0  0  0  0  0  0  0
  126.0518  134.2081  162.2620 H   0  0  0  0  0  0  0  0  0  0  0  0
  128.1466  135.4935  162.1342 H   0  0  0  0  0  0  0  0  0  0  0  0
  132.5186  133.9544  162.6982 H   0  0  0  0  0  0  0  0  0  0  0  0
  131.3754  132.9416  161.7840 H   0  0  0  0  0  0  0  0  0  0  0  0
  132.5817  133.9245  160.9197 H   0  0  0  0  0  0  0  0  0  0  0  0
  132.5432  136.3014  162.4301 H   0  0  0  0  0  0  0  0  0  0  0  0
  131.3206  138.4446  162.1833 H   0  0  0  0  0  0  0  0  0  0  0  0
  129.9333  137.5731  161.4876 H   0  0  0  0  0  0  0  0  0  0  0  0
  130.3996  137.2952  163.1828 H   0  0  0  0  0  0  0  0  0  0  0  0
  131.7161  136.3315  159.6152 H   0  0  0  0  0  0  0  0  0  0  0  0
  136.3473  139.2472  162.3217 H   0  0  0  0  0  0  0  0  0  0  0  0
  138.0540  140.2640  160.8802 H   0  0  0  0  0  0  0  0  0  0  0  0
  137.8763  140.0979  158.4328 H   0  0  0  0  0  0  0  0  0  0  0  0
  135.9873  138.9115  157.4018 H   0  0  0  0  0  0  0  0  0  0  0  0
  129.6260  132.1184  152.3330 H   0  0  0  0  0  0  0  0  0  0  0  0
  130.6223  133.5807  152.5261 H   0  0  0  0  0  0  0  0  0  0  0  0
  131.4000  131.9852  152.3911 H   0  0  0  0  0  0  0  0  0  0  0  0
  1  2  1  0
  1 35  1  0
  1 36  1  0
  1 37  1  0
  2 33  2  0
  2  3  1  0
  3  4  1  0
  3  5  1  0
  5  6  1  0
  5 31  2  0
  6  7  1  0
  6 38  1  0
  7  8  1  0
  7 39  1  0
  7 40  1  0
  8 13  1  0
  8  9  2  0
  9 10  1  0
  9 41  1  0
 10 11  2  0
 10 42  1  0
 11 12  1  0
 11 43  1  0
 12 13  2  0
 12 44  1  0
 13 14  1  0
 14 15  1  0
 15 16  1  1
 15 17  1  0
 15 18  1  0
 17 45  1  0
 17 46  1  0
 17 47  1  0
 18 19  1  0
 18 20  1  0
 18 48  1  1
 19 49  1  0
 19 50  1  0
 19 51  1  0
 20 21  1  0
 20 52  1  0
 21 29  1  0
 21 22  2  0
 22 23  1  0
 23 28  2  0
 23 24  1  0
 24 25  2  0
 24 53  1  0
 25 26  1  0
 25 54  1  0
 26 27  2  0
 26 55  1  0
 27 28  1  0
 27 56  1  0
 28 29  1  0
 29 30  1  0
 31 32  1  0
 31 33  1  0
 33 34  1  0
 34 57  1  0
 34 58  1  0
 34 59  1  0
M  CHG  1  31   1
M  END
>  <DOCK_score>  (1) 
-57.580181

>  <SMILES>  (1) 
Cc1[nH]c(NCc2ccccc2O[C@@H](C)C(C)Nc2nc3ccccc3[nH]2)[nH+]c1C

$$$$
