CCc1ccc(-c2c[nH]c(N[C@@H](Cc3ccc(N)cc3)C3=CCCCCC3)[nH+]2)cc1
     RDKit          3D

 63 66  0  0  1  0  0  0  0  0999 V2000
  130.1407  128.2561  151.8668 C   0  0  0  0  0  0  0  0  0  0  0  0
  131.1127  129.4241  152.0449 C   0  0  0  0  0  0  0  0  0  0  0  0
  130.8385  130.1102  153.3584 C   0  0  0  0  0  0  0  0  0  0  0  0
  131.4927  129.6930  154.5030 C   0  0  0  0  0  0  0  0  0  0  0  0
  131.2500  130.3212  155.7077 C   0  0  0  0  0  0  0  0  0  0  0  0
  130.3349  131.3704  155.7713 C   0  0  0  0  0  0  0  0  0  0  0  0
  130.0656  132.0459  157.0642 C   0  0  0  0  0  0  0  0  0  0  0  0
  129.5871  131.4567  158.1880 C   0  0  0  0  0  0  0  0  0  0  0  0
  129.4890  132.4397  159.1426 N   0  0  0  0  0  0  0  0  0  0  0  0
  129.1764  132.3264  160.0538 H   0  0  0  0  0  0  0  0  0  0  0  0
  129.9107  133.6018  158.5737 C   0  0  0  0  0  0  0  0  0  0  0  0
  129.9672  134.8336  159.2029 N   0  0  0  0  0  0  0  0  0  0  0  0
  129.5504  134.9615  160.6016 C   0  0  1  0  0  0  0  0  0  0  0  0
  129.8984  134.0957  161.1649 H   0  0  0  0  0  0  0  0  0  0  0  0
  130.1531  136.2347  161.1989 C   0  0  0  0  0  0  0  0  0  0  0  0
  131.5882  135.9795  161.5816 C   0  0  0  0  0  0  0  0  0  0  0  0
  132.3373  135.0572  160.8742 C   0  0  0  0  0  0  0  0  0  0  0  0
  133.6544  134.8251  161.2186 C   0  0  0  0  0  0  0  0  0  0  0  0
  134.2231  135.5109  162.2844 C   0  0  0  0  0  0  0  0  0  0  0  0
  135.5532  135.2748  162.6393 N   0  0  0  0  0  0  0  0  0  0  0  0
  133.4661  136.4327  162.9964 C   0  0  0  0  0  0  0  0  0  0  0  0
  132.1513  136.6641  162.6431 C   0  0  0  0  0  0  0  0  0  0  0  0
  128.0469  135.0361  160.6729 C   0  0  0  0  0  0  0  0  0  0  0  0
  127.3885  134.1410  161.3383 C   0  0  0  0  0  0  0  0  0  0  0  0
  125.8783  134.2046  161.4189 C   0  0  0  0  0  0  0  0  0  0  0  0
  125.2997  133.8211  160.0551 C   0  0  0  0  0  0  0  0  0  0  0  0
  125.2301  135.0312  159.1404 C   0  0  0  0  0  0  0  0  0  0  0  0
  126.5917  135.5772  158.7485 C   0  0  0  0  0  0  0  0  0  0  0  0
  127.3149  136.1603  159.9716 C   0  0  0  0  0  0  0  0  0  0  0  0
  130.2599  133.3614  157.3335 N   0  0  0  0  0  0  0  0  0  0  0  0
  130.6006  134.0193  156.7074 H   0  0  0  0  0  0  0  0  0  0  0  0
  129.6741  131.7831  154.6156 C   0  0  0  0  0  0  0  0  0  0  0  0
  129.9290  131.1514  153.4153 C   0  0  0  0  0  0  0  0  0  0  0  0
  129.1170  128.6303  151.8747 H   0  0  0  0  0  0  0  0  0  0  0  0
  130.3389  127.7600  150.9167 H   0  0  0  0  0  0  0  0  0  0  0  0
  130.2741  127.5455  152.6825 H   0  0  0  0  0  0  0  0  0  0  0  0
  132.1359  129.0504  152.0365 H   0  0  0  0  0  0  0  0  0  0  0  0
  130.9788  130.1352  151.2287 H   0  0  0  0  0  0  0  0  0  0  0  0
  132.1981  128.8766  154.4534 H   0  0  0  0  0  0  0  0  0  0  0  0
  131.7649  129.9975  156.6001 H   0  0  0  0  0  0  0  0  0  0  0  0
  129.3318  130.4144  158.3092 H   0  0  0  0  0  0  0  0  0  0  0  0
  130.2829  135.6121  158.7178 H   0  0  0  0  0  0  0  0  0  0  0  0
  130.1105  137.0370  160.4625 H   0  0  0  0  0  0  0  0  0  0  0  0
  129.5868  136.5238  162.0844 H   0  0  0  0  0  0  0  0  0  0  0  0
  131.8931  134.5208  160.0487 H   0  0  0  0  0  0  0  0  0  0  0  0
  134.2402  134.1078  160.6630 H   0  0  0  0  0  0  0  0  0  0  0  0
  135.9495  135.7548  163.3829 H   0  0  0  0  0  0  0  0  0  0  0  0
  136.0810  134.6311  162.1407 H   0  0  0  0  0  0  0  0  0  0  0  0
  133.9051  136.9674  163.8256 H   0  0  0  0  0  0  0  0  0  0  0  0
  131.5620  137.3802  163.1965 H   0  0  0  0  0  0  0  0  0  0  0  0
  127.9199  133.3450  161.8387 H   0  0  0  0  0  0  0  0  0  0  0  0
  125.5225  133.5067  162.1766 H   0  0  0  0  0  0  0  0  0  0  0  0
  125.5679  135.2174  161.6761 H   0  0  0  0  0  0  0  0  0  0  0  0
  125.9331  133.0613  159.5974 H   0  0  0  0  0  0  0  0  0  0  0  0
  124.2968  133.4164  160.1917 H   0  0  0  0  0  0  0  0  0  0  0  0
  124.6922  134.7527  158.2342 H   0  0  0  0  0  0  0  0  0  0  0  0
  124.6712  135.8186  159.6460 H   0  0  0  0  0  0  0  0  0  0  0  0
  127.1924  134.7727  158.3241 H   0  0  0  0  0  0  0  0  0  0  0  0
  126.4628  136.3608  158.0020 H   0  0  0  0  0  0  0  0  0  0  0  0
  126.5878  136.6038  160.6519 H   0  0  0  0  0  0  0  0  0  0  0  0
  128.0296  136.9184  159.6511 H   0  0  0  0  0  0  0  0  0  0  0  0
  128.9639  132.5956  154.6593 H   0  0  0  0  0  0  0  0  0  0  0  0
  129.4174  131.4702  152.5192 H   0  0  0  0  0  0  0  0  0  0  0  0
  1  2  1  0
  1 34  1  0
  1 35  1  0
  1 36  1  0
  2  3  1  0
  2 37  1  0
  2 38  1  0
  3 33  2  0
  3  4  1  0
  4  5  2  0
  4 39  1  0
  5  6  1  0
  5 40  1  0
  6  7  1  0
  6 32  2  0
  7 30  1  0
  7  8  2  0
  8  9  1  0
  8 41  1  0
  9 10  1  0
  9 11  1  0
 11 12  1  0
 11 30  2  0
 12 13  1  0
 12 42  1  0
 13 14  1  1
 13 15  1  0
 13 23  1  0
 15 16  1  0
 15 43  1  0
 15 44  1  0
 16 22  1  0
 16 17  2  0
 17 18  1  0
 17 45  1  0
 18 19  2  0
 18 46  1  0
 19 20  1  0
 19 21  1  0
 20 47  1  0
 20 48  1  0
 21 22  2  0
 21 49  1  0
 22 50  1  0
 23 29  1  0
 23 24  2  0
 24 25  1  0
 24 51  1  0
 25 26  1  0
 25 52  1  0
 25 53  1  0
 26 27  1  0
 26 54  1  0
 26 55  1  0
 27 28  1  0
 27 56  1  0
 27 57  1  0
 28 29  1  0
 28 58  1  0
 28 59  1  0
 29 60  1  0
 29 61  1  0
 30 31  1  0
 32 33  1  0
 32 62  1  0
 33 63  1  0
M  CHG  1  30   1
M  END
>  <DOCK_score>  (1) 
-56.121601

>  <SMILES>  (1) 
CCc1ccc(-c2c[nH]c(N[C@@H](Cc3ccc(N)cc3)C3=CCCCCC3)[nH+]2)cc1

$$$$
