Nc1ccc(-c2c[nH]c(Nc3ccc(NC(c4ccccc4)c4ccccc4)cc3)[nH+]2)cc1
     RDKit          3D

 59 63  0  0  1  0  0  0  0  0999 V2000
  130.8454  129.4385  152.3957 N   0  0  0  0  0  0  0  0  0  0  0  0
  130.6797  130.2559  153.5164 C   0  0  0  0  0  0  0  0  0  0  0  0
  130.1790  131.5439  153.3678 C   0  0  0  0  0  0  0  0  0  0  0  0
  130.0145  132.3524  154.4727 C   0  0  0  0  0  0  0  0  0  0  0  0
  130.3504  131.8768  155.7393 C   0  0  0  0  0  0  0  0  0  0  0  0
  130.1744  132.7448  156.9295 C   0  0  0  0  0  0  0  0  0  0  0  0
  129.8988  132.3252  158.1893 C   0  0  0  0  0  0  0  0  0  0  0  0
  129.8242  133.4494  158.9766 N   0  0  0  0  0  0  0  0  0  0  0  0
  129.6430  133.4729  159.9293 H   0  0  0  0  0  0  0  0  0  0  0  0
  130.0482  134.5239  158.1716 C   0  0  0  0  0  0  0  0  0  0  0  0
  130.0567  135.8481  158.5774 N   0  0  0  0  0  0  0  0  0  0  0  0
  129.2585  136.2558  159.6538 C   0  0  0  0  0  0  0  0  0  0  0  0
  129.6665  137.3098  160.4606 C   0  0  0  0  0  0  0  0  0  0  0  0
  128.8772  137.7147  161.5187 C   0  0  0  0  0  0  0  0  0  0  0  0
  127.6805  137.0613  161.7824 C   0  0  0  0  0  0  0  0  0  0  0  0
  126.8832  137.4682  162.8584 N   0  0  0  0  0  0  0  0  0  0  0  0
  127.5034  138.0564  164.0482 C   0  0  0  0  0  0  0  0  0  0  0  0
  126.9720  139.4515  164.2539 C   0  0  0  0  0  0  0  0  0  0  0  0
  127.7635  140.4106  164.8577 C   0  0  0  0  0  0  0  0  0  0  0  0
  127.2778  141.6916  165.0420 C   0  0  0  0  0  0  0  0  0  0  0  0
  125.9967  142.0107  164.6320 C   0  0  0  0  0  0  0  0  0  0  0  0
  125.2033  141.0501  164.0330 C   0  0  0  0  0  0  0  0  0  0  0  0
  125.6910  139.7706  163.8439 C   0  0  0  0  0  0  0  0  0  0  0  0
  127.1784  137.2122  165.2535 C   0  0  0  0  0  0  0  0  0  0  0  0
  128.0691  137.1413  166.3083 C   0  0  0  0  0  0  0  0  0  0  0  0
  127.7688  136.3708  167.4159 C   0  0  0  0  0  0  0  0  0  0  0  0
  126.5825  135.6628  167.4644 C   0  0  0  0  0  0  0  0  0  0  0  0
  125.6941  135.7296  166.4074 C   0  0  0  0  0  0  0  0  0  0  0  0
  125.9920  136.5043  165.3020 C   0  0  0  0  0  0  0  0  0  0  0  0
  127.2751  136.0038  160.9786 C   0  0  0  0  0  0  0  0  0  0  0  0
  128.0618  135.6023  159.9174 C   0  0  0  0  0  0  0  0  0  0  0  0
  130.2601  134.0982  156.9500 N   0  0  0  0  0  0  0  0  0  0  0  0
  130.4487  134.6613  156.1830 H   0  0  0  0  0  0  0  0  0  0  0  0
  130.8574  130.5866  155.8853 C   0  0  0  0  0  0  0  0  0  0  0  0
  131.0154  129.7797  154.7783 C   0  0  0  0  0  0  0  0  0  0  0  0
  130.6112  129.7700  151.5147 H   0  0  0  0  0  0  0  0  0  0  0  0
  131.1949  128.5395  152.4984 H   0  0  0  0  0  0  0  0  0  0  0  0
  129.9189  131.9118  152.3864 H   0  0  0  0  0  0  0  0  0  0  0  0
  129.6254  133.3532  154.3569 H   0  0  0  0  0  0  0  0  0  0  0  0
  129.7674  131.3032  158.5128 H   0  0  0  0  0  0  0  0  0  0  0  0
  130.6124  136.4939  158.1136 H   0  0  0  0  0  0  0  0  0  0  0  0
  130.5993  137.8150  160.2584 H   0  0  0  0  0  0  0  0  0  0  0  0
  129.1926  138.5371  162.1438 H   0  0  0  0  0  0  0  0  0  0  0  0
  125.9202  137.3606  162.8164 H   0  0  0  0  0  0  0  0  0  0  0  0
  128.5843  138.0956  163.9129 H   0  0  0  0  0  0  0  0  0  0  0  0
  128.7627  140.1600  165.1821 H   0  0  0  0  0  0  0  0  0  0  0  0
  127.8975  142.4419  165.5104 H   0  0  0  0  0  0  0  0  0  0  0  0
  125.6156  143.0103  164.7801 H   0  0  0  0  0  0  0  0  0  0  0  0
  124.2024  141.2994  163.7130 H   0  0  0  0  0  0  0  0  0  0  0  0
  125.0710  139.0201  163.3762 H   0  0  0  0  0  0  0  0  0  0  0  0
  128.9980  137.6908  166.2685 H   0  0  0  0  0  0  0  0  0  0  0  0
  128.4631  136.3183  168.2416 H   0  0  0  0  0  0  0  0  0  0  0  0
  126.3499  135.0573  168.3279 H   0  0  0  0  0  0  0  0  0  0  0  0
  124.7674  135.1762  166.4451 H   0  0  0  0  0  0  0  0  0  0  0  0
  125.2981  136.5562  164.4760 H   0  0  0  0  0  0  0  0  0  0  0  0
  126.3446  135.4956  161.1838 H   0  0  0  0  0  0  0  0  0  0  0  0
  127.7466  134.7797  159.2925 H   0  0  0  0  0  0  0  0  0  0  0  0
  131.1229  130.2178  156.8650 H   0  0  0  0  0  0  0  0  0  0  0  0
  131.4043  128.7785  154.8912 H   0  0  0  0  0  0  0  0  0  0  0  0
  1  2  1  0
  1 36  1  0
  1 37  1  0
  2 35  2  0
  2  3  1  0
  3  4  2  0
  3 38  1  0
  4  5  1  0
  4 39  1  0
  5  6  1  0
  5 34  2  0
  6 32  1  0
  6  7  2  0
  7  8  1  0
  7 40  1  0
  8  9  1  0
  8 10  1  0
 10 11  1  0
 10 32  2  0
 11 12  1  0
 11 41  1  0
 12 31  1  0
 12 13  2  0
 13 14  1  0
 13 42  1  0
 14 15  2  0
 14 43  1  0
 15 16  1  0
 15 30  1  0
 16 17  1  0
 16 44  1  0
 17 18  1  0
 17 24  1  0
 17 45  1  0
 18 23  1  0
 18 19  2  0
 19 20  1  0
 19 46  1  0
 20 21  2  0
 20 47  1  0
 21 22  1  0
 21 48  1  0
 22 23  2  0
 22 49  1  0
 23 50  1  0
 24 29  1  0
 24 25  2  0
 25 26  1  0
 25 51  1  0
 26 27  2  0
 26 52  1  0
 27 28  1  0
 27 53  1  0
 28 29  2  0
 28 54  1  0
 29 55  1  0
 30 31  2  0
 30 56  1  0
 31 57  1  0
 32 33  1  0
 34 35  1  0
 34 58  1  0
 35 59  1  0
M  CHG  1  32   1
M  END
>  <DOCK_score>  (1) 
-58.424667

>  <SMILES>  (1) 
Nc1ccc(-c2c[nH]c(Nc3ccc(NC(c4ccccc4)c4ccccc4)cc3)[nH+]2)cc1

$$$$
