O=C1NCC([NH2+]Cc2c[nH]nc2-c2ccc(Nc3ccc(-c4ccccc4)cc3)o2)CN1
     RDKit          3D

 57 61  0  0  0  0  0  0  0  0999 V2000
  130.6189  141.6964  162.1410 O   0  0  0  0  0  0  0  0  0  0  0  0
  130.5669  140.6615  161.5050 C   0  0  0  0  0  0  0  0  0  0  0  0
  131.2630  140.5723  160.3618 N   0  0  0  0  0  0  0  0  0  0  0  0
  131.2324  139.3583  159.5446 C   0  0  0  0  0  0  0  0  0  0  0  0
  130.9879  138.1477  160.4516 C   0  0  0  0  0  0  0  0  0  0  0  0
  130.8410  136.9381  159.6310 N   0  0  0  0  0  0  0  0  0  0  0  0
  131.5077  136.9622  158.8740 H   0  0  0  0  0  0  0  0  0  0  0  0
  129.9058  136.8989  159.2543 H   0  0  0  0  0  0  0  0  0  0  0  0
  131.0848  135.7508  160.4608 C   0  0  0  0  0  0  0  0  0  0  0  0
  130.9341  134.5100  159.6190 C   0  0  0  0  0  0  0  0  0  0  0  0
  131.9141  133.9005  158.9182 C   0  0  0  0  0  0  0  0  0  0  0  0
  131.3783  132.8291  158.2943 N   0  0  0  0  0  0  0  0  0  0  0  0
  131.8539  132.2081  157.7207 H   0  0  0  0  0  0  0  0  0  0  0  0
  130.0170  132.7700  158.6185 N   0  0  0  0  0  0  0  0  0  0  0  0
  129.7424  133.7820  159.4179 C   0  0  0  0  0  0  0  0  0  0  0  0
  128.4215  134.0975  159.9998 C   0  0  0  0  0  0  0  0  0  0  0  0
  127.2771  133.3895  159.8078 C   0  0  0  0  0  0  0  0  0  0  0  0
  126.2668  134.0390  160.5435 C   0  0  0  0  0  0  0  0  0  0  0  0
  126.8424  135.1090  161.1471 C   0  0  0  0  0  0  0  0  0  0  0  0
  126.1950  136.0218  161.9717 N   0  0  0  0  0  0  0  0  0  0  0  0
  126.8989  136.6608  162.9934 C   0  0  0  0  0  0  0  0  0  0  0  0
  126.5333  137.9415  163.3928 C   0  0  0  0  0  0  0  0  0  0  0  0
  127.2243  138.5723  164.4051 C   0  0  0  0  0  0  0  0  0  0  0  0
  128.2974  137.9298  165.0211 C   0  0  0  0  0  0  0  0  0  0  0  0
  129.0465  138.6095  166.1060 C   0  0  0  0  0  0  0  0  0  0  0  0
  129.6425  137.8612  167.1195 C   0  0  0  0  0  0  0  0  0  0  0  0
  130.3415  138.4988  168.1242 C   0  0  0  0  0  0  0  0  0  0  0  0
  130.4435  139.8782  168.1316 C   0  0  0  0  0  0  0  0  0  0  0  0
  129.8499  140.6264  167.1309 C   0  0  0  0  0  0  0  0  0  0  0  0
  129.1521  139.9993  166.1187 C   0  0  0  0  0  0  0  0  0  0  0  0
  128.6658  136.6478  164.6154 C   0  0  0  0  0  0  0  0  0  0  0  0
  127.9687  136.0180  163.6068 C   0  0  0  0  0  0  0  0  0  0  0  0
  128.1454  135.1347  160.8178 O   0  0  0  0  0  0  0  0  0  0  0  0
  129.7034  138.3851  161.2529 C   0  0  0  0  0  0  0  0  0  0  0  0
  129.8159  139.6541  161.9745 N   0  0  0  0  0  0  0  0  0  0  0  0
  131.7978  141.3277  160.0710 H   0  0  0  0  0  0  0  0  0  0  0  0
  132.1864  139.2414  159.0303 H   0  0  0  0  0  0  0  0  0  0  0  0
  130.4297  139.4320  158.8109 H   0  0  0  0  0  0  0  0  0  0  0  0
  131.8283  138.0265  161.1350 H   0  0  0  0  0  0  0  0  0  0  0  0
  130.3646  135.7247  161.2785 H   0  0  0  0  0  0  0  0  0  0  0  0
  132.0952  135.7932  160.8678 H   0  0  0  0  0  0  0  0  0  0  0  0
  132.9461  134.2148  158.8656 H   0  0  0  0  0  0  0  0  0  0  0  0
  127.1642  132.4995  159.2064 H   0  0  0  0  0  0  0  0  0  0  0  0
  125.2309  133.7416  160.6140 H   0  0  0  0  0  0  0  0  0  0  0  0
  125.2539  136.2146  161.8372 H   0  0  0  0  0  0  0  0  0  0  0  0
  125.7048  138.4407  162.9125 H   0  0  0  0  0  0  0  0  0  0  0  0
  126.9373  139.5654  164.7178 H   0  0  0  0  0  0  0  0  0  0  0  0
  129.5604  136.7844  167.1167 H   0  0  0  0  0  0  0  0  0  0  0  0
  130.8070  137.9197  168.9082 H   0  0  0  0  0  0  0  0  0  0  0  0
  130.9882  140.3732  168.9220 H   0  0  0  0  0  0  0  0  0  0  0  0
  129.9323  141.7031  167.1418 H   0  0  0  0  0  0  0  0  0  0  0  0
  128.6884  140.5842  165.3383 H   0  0  0  0  0  0  0  0  0  0  0  0
  129.4966  136.1484  165.0916 H   0  0  0  0  0  0  0  0  0  0  0  0
  128.2538  135.0249  163.2923 H   0  0  0  0  0  0  0  0  0  0  0  0
  128.8527  138.4294  160.5727 H   0  0  0  0  0  0  0  0  0  0  0  0
  129.5612  137.5706  161.9630 H   0  0  0  0  0  0  0  0  0  0  0  0
  129.3385  139.7673  162.8112 H   0  0  0  0  0  0  0  0  0  0  0  0
  1  2  2  0
  2 35  1  0
  2  3  1  0
  3  4  1  0
  3 36  1  0
  4  5  1  0
  4 37  1  0
  4 38  1  0
  5  6  1  0
  5 34  1  0
  5 39  1  0
  6  7  1  0
  6  8  1  0
  6  9  1  0
  9 10  1  0
  9 40  1  0
  9 41  1  0
 10 15  1  0
 10 11  2  0
 11 12  1  0
 11 42  1  0
 12 13  1  0
 12 14  1  0
 14 15  2  0
 15 16  1  0
 16 33  1  0
 16 17  2  0
 17 18  1  0
 17 43  1  0
 18 19  2  0
 18 44  1  0
 19 20  1  0
 19 33  1  0
 20 21  1  0
 20 45  1  0
 21 32  1  0
 21 22  2  0
 22 23  1  0
 22 46  1  0
 23 24  2  0
 23 47  1  0
 24 25  1  0
 24 31  1  0
 25 30  1  0
 25 26  2  0
 26 27  1  0
 26 48  1  0
 27 28  2  0
 27 49  1  0
 28 29  1  0
 28 50  1  0
 29 30  2  0
 29 51  1  0
 30 52  1  0
 31 32  2  0
 31 53  1  0
 32 54  1  0
 34 35  1  0
 34 55  1  0
 34 56  1  0
 35 57  1  0
M  CHG  1   6   1
M  END
>  <DOCK_score>  (1) 
-41.53051

>  <SMILES>  (1) 
O=C1NCC([NH2+]Cc2c[nH]nc2-c2ccc(Nc3ccc(-c4ccccc4)cc3)o2)CN1

$$$$
