CCc1ccc(-c2c[nH]c(N[C@@H](C)Cc3ccc(F)cc3-c3ccc(CC)cc3)[nH+]2)cc1
     RDKit          3D

 63 66  0  0  1  0  0  0  0  0999 V2000
  130.1727  128.5204  151.4450 C   0  0  0  0  0  0  0  0  0  0  0  0
  131.3049  129.5089  151.7303 C   0  0  0  0  0  0  0  0  0  0  0  0
  131.0125  130.2526  153.0081 C   0  0  0  0  0  0  0  0  0  0  0  0
  131.4592  129.7487  154.2160 C   0  0  0  0  0  0  0  0  0  0  0  0
  131.1994  130.4283  155.3888 C   0  0  0  0  0  0  0  0  0  0  0  0
  130.4756  131.6189  155.3553 C   0  0  0  0  0  0  0  0  0  0  0  0
  130.1883  132.3510  156.6131 C   0  0  0  0  0  0  0  0  0  0  0  0
  129.4982  131.8698  157.6766 C   0  0  0  0  0  0  0  0  0  0  0  0
  129.4674  132.8703  158.6174 N   0  0  0  0  0  0  0  0  0  0  0  0
  129.0444  132.8262  159.4893 H   0  0  0  0  0  0  0  0  0  0  0  0
  130.1401  133.9345  158.1008 C   0  0  0  0  0  0  0  0  0  0  0  0
  130.3383  135.1487  158.7357 N   0  0  0  0  0  0  0  0  0  0  0  0
  129.8019  135.3679  160.0811 C   0  0  1  0  0  0  0  0  0  0  0  0
  128.8102  134.9214  160.1542 H   0  0  0  0  0  0  0  0  0  0  0  0
  130.7295  134.7208  161.1116 C   0  0  0  0  0  0  0  0  0  0  0  0
  129.7061  136.8703  160.3536 C   0  0  0  0  0  0  0  0  0  0  0  0
  128.7346  137.1158  161.4791 C   0  0  0  0  0  0  0  0  0  0  0  0
  127.5189  136.4620  161.4976 C   0  0  0  0  0  0  0  0  0  0  0  0
  126.6280  136.6816  162.5319 C   0  0  0  0  0  0  0  0  0  0  0  0
  126.9456  137.5663  163.5500 C   0  0  0  0  0  0  0  0  0  0  0  0
  126.0691  137.7808  164.5555 F   0  0  0  0  0  0  0  0  0  0  0  0
  128.1581  138.2299  163.5375 C   0  0  0  0  0  0  0  0  0  0  0  0
  129.0601  138.0071  162.4994 C   0  0  0  0  0  0  0  0  0  0  0  0
  130.3635  138.7162  162.4807 C   0  0  0  0  0  0  0  0  0  0  0  0
  131.4750  138.1528  163.1042 C   0  0  0  0  0  0  0  0  0  0  0  0
  132.6860  138.8145  163.0796 C   0  0  0  0  0  0  0  0  0  0  0  0
  132.7949  140.0395  162.4466 C   0  0  0  0  0  0  0  0  0  0  0  0
  134.1185  140.7598  162.4276 C   0  0  0  0  0  0  0  0  0  0  0  0
  134.9119  140.3362  161.1899 C   0  0  0  0  0  0  0  0  0  0  0  0
  131.6934  140.6059  161.8306 C   0  0  0  0  0  0  0  0  0  0  0  0
  130.4788  139.9505  161.8446 C   0  0  0  0  0  0  0  0  0  0  0  0
  130.5744  133.6183  156.9052 N   0  0  0  0  0  0  0  0  0  0  0  0
  131.0878  134.1986  156.3216 H   0  0  0  0  0  0  0  0  0  0  0  0
  130.0230  132.1193  154.1358 C   0  0  0  0  0  0  0  0  0  0  0  0
  130.2936  131.4342  152.9687 C   0  0  0  0  0  0  0  0  0  0  0  0
  130.3842  127.9828  150.5207 H   0  0  0  0  0  0  0  0  0  0  0  0
  130.0945  127.8107  152.2685 H   0  0  0  0  0  0  0  0  0  0  0  0
  129.2331  129.0633  151.3427 H   0  0  0  0  0  0  0  0  0  0  0  0
  132.2444  128.9667  151.8322 H   0  0  0  0  0  0  0  0  0  0  0  0
  131.3830  130.2193  150.9065 H   0  0  0  0  0  0  0  0  0  0  0  0
  132.0159  128.8236  154.2411 H   0  0  0  0  0  0  0  0  0  0  0  0
  131.5529  130.0362  156.3309 H   0  0  0  0  0  0  0  0  0  0  0  0
  129.0570  130.8882  157.7667 H   0  0  0  0  0  0  0  0  0  0  0  0
  130.8323  135.8542  158.2897 H   0  0  0  0  0  0  0  0  0  0  0  0
  131.7212  135.1673  161.0387 H   0  0  0  0  0  0  0  0  0  0  0  0
  130.3304  134.8839  162.1127 H   0  0  0  0  0  0  0  0  0  0  0  0
  130.7976  133.6504  160.9177 H   0  0  0  0  0  0  0  0  0  0  0  0
  130.6884  137.2526  160.6316 H   0  0  0  0  0  0  0  0  0  0  0  0
  129.3583  137.3809  159.4556 H   0  0  0  0  0  0  0  0  0  0  0  0
  127.2648  135.7746  160.7043 H   0  0  0  0  0  0  0  0  0  0  0  0
  125.6796  136.1650  162.5441 H   0  0  0  0  0  0  0  0  0  0  0  0
  128.4053  138.9201  164.3306 H   0  0  0  0  0  0  0  0  0  0  0  0
  131.3899  137.1984  163.6025 H   0  0  0  0  0  0  0  0  0  0  0  0
  133.5493  138.3767  163.5586 H   0  0  0  0  0  0  0  0  0  0  0  0
  133.9463  141.8356  162.3982 H   0  0  0  0  0  0  0  0  0  0  0  0
  134.6829  140.5065  163.3251 H   0  0  0  0  0  0  0  0  0  0  0  0
  135.8693  140.8571  161.1761 H   0  0  0  0  0  0  0  0  0  0  0  0
  135.0841  139.2602  161.2193 H   0  0  0  0  0  0  0  0  0  0  0  0
  134.3476  140.5894  160.2923 H   0  0  0  0  0  0  0  0  0  0  0  0
  131.7839  141.5628  161.3382 H   0  0  0  0  0  0  0  0  0  0  0  0
  129.6196  140.3933  161.3630 H   0  0  0  0  0  0  0  0  0  0  0  0
  129.4614  133.0412  154.1041 H   0  0  0  0  0  0  0  0  0  0  0  0
  129.9431  131.8208  152.0230 H   0  0  0  0  0  0  0  0  0  0  0  0
  1  2  1  0
  1 36  1  0
  1 37  1  0
  1 38  1  0
  2  3  1  0
  2 39  1  0
  2 40  1  0
  3 35  2  0
  3  4  1  0
  4  5  2  0
  4 41  1  0
  5  6  1  0
  5 42  1  0
  6  7  1  0
  6 34  2  0
  7 32  1  0
  7  8  2  0
  8  9  1  0
  8 43  1  0
  9 10  1  0
  9 11  1  0
 11 12  1  0
 11 32  2  0
 12 13  1  0
 12 44  1  0
 13 14  1  6
 13 15  1  0
 13 16  1  0
 15 45  1  0
 15 46  1  0
 15 47  1  0
 16 17  1  0
 16 48  1  0
 16 49  1  0
 17 23  1  0
 17 18  2  0
 18 19  1  0
 18 50  1  0
 19 20  2  0
 19 51  1  0
 20 21  1  0
 20 22  1  0
 22 23  2  0
 22 52  1  0
 23 24  1  0
 24 31  1  0
 24 25  2  0
 25 26  1  0
 25 53  1  0
 26 27  2  0
 26 54  1  0
 27 28  1  0
 27 30  1  0
 28 29  1  0
 28 55  1  0
 28 56  1  0
 29 57  1  0
 29 58  1  0
 29 59  1  0
 30 31  2  0
 30 60  1  0
 31 61  1  0
 32 33  1  0
 34 35  1  0
 34 62  1  0
 35 63  1  0
M  CHG  1  32   1
M  END
>  <DOCK_score>  (1) 
-59.732834

>  <SMILES>  (1) 
CCc1ccc(-c2c[nH]c(N[C@@H](C)Cc3ccc(F)cc3-c3ccc(CC)cc3)[nH+]2)cc1

$$$$
