Cc1ccc(O)cc1C[NH+]=C(NCc1ccc(N)cc1)N[C@H]1C[C@@H](O)C1
     RDKit          3D

 53 55  0  0  1  0  0  0  0  0999 V2000
  130.1345  130.8680  158.7825 C   0  0  0  0  0  0  0  0  0  0  0  0
  130.2541  131.5562  157.4473 C   0  0  0  0  0  0  0  0  0  0  0  0
  130.7723  130.8728  156.3625 C   0  0  0  0  0  0  0  0  0  0  0  0
  130.8881  131.5032  155.1388 C   0  0  0  0  0  0  0  0  0  0  0  0
  130.4791  132.8214  154.9974 C   0  0  0  0  0  0  0  0  0  0  0  0
  130.5924  133.4438  153.7947 O   0  0  0  0  0  0  0  0  0  0  0  0
  129.9546  133.5030  156.0857 C   0  0  0  0  0  0  0  0  0  0  0  0
  129.8408  132.8680  157.3075 C   0  0  0  0  0  0  0  0  0  0  0  0
  129.2717  133.6081  158.4905 C   0  0  0  0  0  0  0  0  0  0  0  0
  130.3539  134.2829  159.2112 N   0  0  0  0  0  0  0  0  0  0  0  0
  131.2682  134.2056  158.8964 H   0  0  0  0  0  0  0  0  0  0  0  0
  130.0883  134.9871  160.2753 C   0  0  0  0  0  0  0  0  0  0  0  0
  131.1041  135.6205  160.9517 N   0  0  0  0  0  0  0  0  0  0  0  0
  132.4849  135.5038  160.4764 C   0  0  0  0  0  0  0  0  0  0  0  0
  133.3971  136.2849  161.3867 C   0  0  0  0  0  0  0  0  0  0  0  0
  134.3764  137.0994  160.8485 C   0  0  0  0  0  0  0  0  0  0  0  0
  135.2105  137.8208  161.6798 C   0  0  0  0  0  0  0  0  0  0  0  0
  135.0723  137.7188  163.0582 C   0  0  0  0  0  0  0  0  0  0  0  0
  135.9177  138.4429  163.9021 N   0  0  0  0  0  0  0  0  0  0  0  0
  134.0911  136.8953  163.5956 C   0  0  0  0  0  0  0  0  0  0  0  0
  133.2568  136.1810  162.7585 C   0  0  0  0  0  0  0  0  0  0  0  0
  128.7925  135.0968  160.7213 N   0  0  0  0  0  0  0  0  0  0  0  0
  128.5222  135.2749  162.1501 C   0  0  1  0  0  0  0  0  0  0  0  0
  129.2760  134.8089  162.7848 H   0  0  0  0  0  0  0  0  0  0  0  0
  128.2012  136.7274  162.5399 C   0  0  0  0  0  0  0  0  0  0  0  0
  127.1283  136.1547  163.4813 C   0  0  1  0  0  0  0  0  0  0  0  0
  127.4999  135.9290  164.4807 H   0  0  0  0  0  0  0  0  0  0  0  0
  125.9167  136.9122  163.4963 O   0  0  0  0  0  0  0  0  0  0  0  0
  127.0780  134.9309  162.5514 C   0  0  0  0  0  0  0  0  0  0  0  0
  129.1632  130.3785  158.8534 H   0  0  0  0  0  0  0  0  0  0  0  0
  130.9246  130.1234  158.8796 H   0  0  0  0  0  0  0  0  0  0  0  0
  130.2294  131.6044  159.5806 H   0  0  0  0  0  0  0  0  0  0  0  0
  131.0903  129.8466  156.4729 H   0  0  0  0  0  0  0  0  0  0  0  0
  131.2965  130.9702  154.2929 H   0  0  0  0  0  0  0  0  0  0  0  0
  130.2817  134.3596  153.7948 H   0  0  0  0  0  0  0  0  0  0  0  0
  129.6358  134.5292  155.9782 H   0  0  0  0  0  0  0  0  0  0  0  0
  128.7764  132.9019  159.1568 H   0  0  0  0  0  0  0  0  0  0  0  0
  128.5500  134.3476  158.1434 H   0  0  0  0  0  0  0  0  0  0  0  0
  130.9063  136.1446  161.7437 H   0  0  0  0  0  0  0  0  0  0  0  0
  132.7819  134.4551  160.4770 H   0  0  0  0  0  0  0  0  0  0  0  0
  132.5553  135.9008  159.4637 H   0  0  0  0  0  0  0  0  0  0  0  0
  134.4865  137.1746  159.7767 H   0  0  0  0  0  0  0  0  0  0  0  0
  135.9723  138.4603  161.2588 H   0  0  0  0  0  0  0  0  0  0  0  0
  135.8198  138.3712  164.8644 H   0  0  0  0  0  0  0  0  0  0  0  0
  136.6024  139.0178  163.5255 H   0  0  0  0  0  0  0  0  0  0  0  0
  133.9813  136.8134  164.6669 H   0  0  0  0  0  0  0  0  0  0  0  0
  132.4936  135.5407  163.1757 H   0  0  0  0  0  0  0  0  0  0  0  0
  128.0572  135.0561  160.0900 H   0  0  0  0  0  0  0  0  0  0  0  0
  129.0160  137.2300  163.0610 H   0  0  0  0  0  0  0  0  0  0  0  0
  127.7924  137.3192  161.7207 H   0  0  0  0  0  0  0  0  0  0  0  0
  125.4816  136.9754  162.6350 H   0  0  0  0  0  0  0  0  0  0  0  0
  126.3623  135.0314  161.7355 H   0  0  0  0  0  0  0  0  0  0  0  0
  126.9863  133.9831  163.0819 H   0  0  0  0  0  0  0  0  0  0  0  0
  1  2  1  0
  1 30  1  0
  1 31  1  0
  1 32  1  0
  2  8  2  0
  2  3  1  0
  3  4  2  0
  3 33  1  0
  4  5  1  0
  4 34  1  0
  5  6  1  0
  5  7  2  0
  6 35  1  0
  7  8  1  0
  7 36  1  0
  8  9  1  0
  9 10  1  0
  9 37  1  0
  9 38  1  0
 10 11  1  0
 12 10  2  0
 12 13  1  0
 12 22  1  0
 13 14  1  0
 13 39  1  0
 14 15  1  0
 14 40  1  0
 14 41  1  0
 15 21  1  0
 15 16  2  0
 16 17  1  0
 16 42  1  0
 17 18  2  0
 17 43  1  0
 18 19  1  0
 18 20  1  0
 19 44  1  0
 19 45  1  0
 20 21  2  0
 20 46  1  0
 21 47  1  0
 22 23  1  0
 22 48  1  0
 23 24  1  1
 23 29  1  0
 23 25  1  0
 25 26  1  0
 25 49  1  0
 25 50  1  0
 26 27  1  1
 26 28  1  0
 26 29  1  0
 28 51  1  0
 29 52  1  0
 29 53  1  0
M  CHG  1  10   1
M  END
>  <DOCK_score>  (1) 
-41.087872

>  <SMILES>  (1) 
Cc1ccc(O)cc1C[NH+]=C(NCc1ccc(N)cc1)N[C@H]1C[C@@H](O)C1

$$$$
