CCc1ccc(-c2c[nH]c(NC3CCC(CCN4CCNC4=O)CC3)[nH+]2)cc1
     RDKit          3D

 60 63  0  0  1  0  0  0  0  0999 V2000
  130.3477  128.2711  151.8779 C   0  0  0  0  0  0  0  0  0  0  0  0
  131.3203  129.4450  152.0048 C   0  0  0  0  0  0  0  0  0  0  0  0
  131.0419  130.1923  153.2835 C   0  0  0  0  0  0  0  0  0  0  0  0
  131.6911  129.8285  154.4492 C   0  0  0  0  0  0  0  0  0  0  0  0
  131.4443  130.5127  155.6220 C   0  0  0  0  0  0  0  0  0  0  0  0
  130.5303  131.5650  155.6327 C   0  0  0  0  0  0  0  0  0  0  0  0
  130.2567  132.3007  156.8914 C   0  0  0  0  0  0  0  0  0  0  0  0
  129.7619  131.7675  158.0358 C   0  0  0  0  0  0  0  0  0  0  0  0
  129.6682  132.7928  158.9453 N   0  0  0  0  0  0  0  0  0  0  0  0
  129.3492  132.7231  159.8587 H   0  0  0  0  0  0  0  0  0  0  0  0
  130.1009  133.9251  158.3267 C   0  0  0  0  0  0  0  0  0  0  0  0
  130.1613  135.1841  158.8994 N   0  0  0  0  0  0  0  0  0  0  0  0
  129.7365  135.3782  160.2881 C   0  0  2  0  0  0  0  0  0  0  0  0
  129.1884  136.7963  160.4602 C   0  0  0  0  0  0  0  0  0  0  0  0
  130.2805  137.8106  160.1143 C   0  0  0  0  0  0  0  0  0  0  0  0
  131.4769  137.6096  161.0465 C   0  0  2  0  0  0  0  0  0  0  0  0
  132.5689  138.6239  160.7006 C   0  0  0  0  0  0  0  0  0  0  0  0
  133.7654  138.4229  161.6326 C   0  0  0  0  0  0  0  0  0  0  0  0
  134.8110  139.3941  161.3015 N   0  0  0  0  0  0  0  0  0  0  0  0
  135.4854  139.5096  159.9998 C   0  0  0  0  0  0  0  0  0  0  0  0
  136.4747  140.6743  160.1986 C   0  0  0  0  0  0  0  0  0  0  0  0
  136.2593  141.0853  161.5939 N   0  0  0  0  0  0  0  0  0  0  0  0
  135.3087  140.3143  162.1381 C   0  0  0  0  0  0  0  0  0  0  0  0
  134.9314  140.4387  163.2873 O   0  0  0  0  0  0  0  0  0  0  0  0
  132.0249  136.1915  160.8743 C   0  0  0  0  0  0  0  0  0  0  0  0
  130.9330  135.1773  161.2202 C   0  0  0  0  0  0  0  0  0  0  0  0
  130.4518  133.6271  157.0996 N   0  0  0  0  0  0  0  0  0  0  0  0
  130.7956  134.2546  156.4447 H   0  0  0  0  0  0  0  0  0  0  0  0
  129.8748  131.9238  154.4562 C   0  0  0  0  0  0  0  0  0  0  0  0
  130.1336  131.2361  153.2880 C   0  0  0  0  0  0  0  0  0  0  0  0
  130.5491  127.7307  150.9529 H   0  0  0  0  0  0  0  0  0  0  0  0
  130.4769  127.5993  152.7265 H   0  0  0  0  0  0  0  0  0  0  0  0
  129.3245  128.6463  151.8641 H   0  0  0  0  0  0  0  0  0  0  0  0
  132.3434  129.0702  152.0182 H   0  0  0  0  0  0  0  0  0  0  0  0
  131.1908  130.1173  151.1558 H   0  0  0  0  0  0  0  0  0  0  0  0
  132.3957  129.0101  154.4406 H   0  0  0  0  0  0  0  0  0  0  0  0
  131.9549  130.2305  156.5309 H   0  0  0  0  0  0  0  0  0  0  0  0
  129.4949  130.7342  158.2014 H   0  0  0  0  0  0  0  0  0  0  0  0
  130.4848  135.9377  158.3814 H   0  0  0  0  0  0  0  0  0  0  0  0
  128.9586  134.6557  160.5345 H   0  0  0  0  0  0  0  0  0  0  0  0
  128.3360  136.9395  159.7962 H   0  0  0  0  0  0  0  0  0  0  0  0
  128.8724  136.9407  161.4933 H   0  0  0  0  0  0  0  0  0  0  0  0
  129.8900  138.8209  160.2370 H   0  0  0  0  0  0  0  0  0  0  0  0
  130.5964  137.6661  159.0812 H   0  0  0  0  0  0  0  0  0  0  0  0
  131.1610  137.7541  162.0797 H   0  0  0  0  0  0  0  0  0  0  0  0
  132.8849  138.4794  159.6674 H   0  0  0  0  0  0  0  0  0  0  0  0
  132.1785  139.6342  160.8232 H   0  0  0  0  0  0  0  0  0  0  0  0
  133.4494  138.5674  162.6658 H   0  0  0  0  0  0  0  0  0  0  0  0
  134.1559  137.4126  161.5101 H   0  0  0  0  0  0  0  0  0  0  0  0
  136.0181  138.5889  159.7619 H   0  0  0  0  0  0  0  0  0  0  0  0
  134.7666  139.7502  159.2166 H   0  0  0  0  0  0  0  0  0  0  0  0
  136.2470  141.4950  159.5185 H   0  0  0  0  0  0  0  0  0  0  0  0
  137.4989  140.3301  160.0549 H   0  0  0  0  0  0  0  0  0  0  0  0
  136.7306  141.8011  162.0482 H   0  0  0  0  0  0  0  0  0  0  0  0
  132.8774  136.0483  161.5384 H   0  0  0  0  0  0  0  0  0  0  0  0
  132.3410  136.0471  159.8411 H   0  0  0  0  0  0  0  0  0  0  0  0
  130.6170  135.3217  162.2534 H   0  0  0  0  0  0  0  0  0  0  0  0
  131.3235  134.1669  161.0975 H   0  0  0  0  0  0  0  0  0  0  0  0
  129.1655  132.7381  154.4588 H   0  0  0  0  0  0  0  0  0  0  0  0
  129.6266  131.5135  152.3756 H   0  0  0  0  0  0  0  0  0  0  0  0
  1  2  1  0
  1 31  1  0
  1 32  1  0
  1 33  1  0
  2  3  1  0
  2 34  1  0
  2 35  1  0
  3 30  2  0
  3  4  1  0
  4  5  2  0
  4 36  1  0
  5  6  1  0
  5 37  1  0
  6  7  1  0
  6 29  2  0
  7 27  1  0
  7  8  2  0
  8  9  1  0
  8 38  1  0
  9 10  1  0
  9 11  1  0
 11 12  1  0
 11 27  2  0
 12 13  1  0
 12 39  1  0
 13 26  1  0
 13 14  1  0
 13 40  1  1
 14 15  1  0
 14 41  1  0
 14 42  1  0
 15 16  1  0
 15 43  1  0
 15 44  1  0
 16 17  1  0
 16 25  1  0
 16 45  1  1
 17 18  1  0
 17 46  1  0
 17 47  1  0
 18 19  1  0
 18 48  1  0
 18 49  1  0
 19 23  1  0
 19 20  1  0
 20 21  1  0
 20 50  1  0
 20 51  1  0
 21 22  1  0
 21 52  1  0
 21 53  1  0
 22 23  1  0
 22 54  1  0
 23 24  2  0
 25 26  1  0
 25 55  1  0
 25 56  1  0
 26 57  1  0
 26 58  1  0
 27 28  1  0
 29 30  1  0
 29 59  1  0
 30 60  1  0
M  CHG  1  27   1
M  END
>  <DOCK_score>  (1) 
-56.145084

>  <SMILES>  (1) 
CCc1ccc(-c2c[nH]c(NC3CCC(CCN4CCNC4=O)CC3)[nH+]2)cc1

$$$$
