C[C@@H](C[NH+]=C(NC1CC=CC1)N[C@H]1C[C@@H](O)C1)c1cccc(Cl)c1
     RDKit          3D

 51 53  0  0  1  0  0  0  0  0999 V2000
  130.4961  140.2140  160.0640 C   0  0  0  0  0  0  0  0  0  0  0  0
  131.4024  139.1264  160.6443 C   0  0  1  0  0  0  0  0  0  0  0  0
  131.2087  139.0237  161.7120 H   0  0  0  0  0  0  0  0  0  0  0  0
  131.1162  137.7967  159.9438 C   0  0  0  0  0  0  0  0  0  0  0  0
  129.9131  137.1904  160.5195 N   0  0  0  0  0  0  0  0  0  0  0  0
  129.4376  137.6413  161.2348 H   0  0  0  0  0  0  0  0  0  0  0  0
  129.4817  136.0453  160.0707 C   0  0  0  0  0  0  0  0  0  0  0  0
  130.1556  135.4062  159.0571 N   0  0  0  0  0  0  0  0  0  0  0  0
  129.6706  134.1191  158.5527 C   0  0  0  0  0  0  0  0  0  0  0  0
  129.8296  133.0098  159.6184 C   0  0  0  0  0  0  0  0  0  0  0  0
  130.2213  131.7782  158.8343 C   0  0  0  0  0  0  0  0  0  0  0  0
  130.6297  132.0941  157.6355 C   0  0  0  0  0  0  0  0  0  0  0  0
  130.5796  133.5887  157.4197 C   0  0  0  0  0  0  0  0  0  0  0  0
  128.3527  135.4765  160.6111 N   0  0  0  0  0  0  0  0  0  0  0  0
  128.0075  135.7232  162.0132 C   0  0  1  0  0  0  0  0  0  0  0  0
  128.8822  135.8926  162.6411 H   0  0  0  0  0  0  0  0  0  0  0  0
  126.9013  136.7748  162.2014 C   0  0  0  0  0  0  0  0  0  0  0  0
  126.3426  135.8735  163.3151 C   0  0  1  0  0  0  0  0  0  0  0  0
  126.7624  136.0838  164.2988 H   0  0  0  0  0  0  0  0  0  0  0  0
  124.9159  135.7929  163.3247 O   0  0  0  0  0  0  0  0  0  0  0  0
  127.0212  134.6965  162.5947 C   0  0  0  0  0  0  0  0  0  0  0  0
  132.8448  139.5069  160.4298 C   0  0  0  0  0  0  0  0  0  0  0  0
  133.4992  139.1131  159.2772 C   0  0  0  0  0  0  0  0  0  0  0  0
  134.8207  139.4659  159.0775 C   0  0  0  0  0  0  0  0  0  0  0  0
  135.4917  140.2035  160.0348 C   0  0  0  0  0  0  0  0  0  0  0  0
  134.8390  140.5932  161.1904 C   0  0  0  0  0  0  0  0  0  0  0  0
  135.6809  141.5201  162.3928 Cl  0  0  0  0  0  0  0  0  0  0  0  0
  133.5145  140.2443  161.3875 C   0  0  0  0  0  0  0  0  0  0  0  0
  130.7001  141.1612  160.5630 H   0  0  0  0  0  0  0  0  0  0  0  0
  130.6898  140.3167  158.9963 H   0  0  0  0  0  0  0  0  0  0  0  0
  129.4530  139.9388  160.2193 H   0  0  0  0  0  0  0  0  0  0  0  0
  131.9630  137.1241  160.0807 H   0  0  0  0  0  0  0  0  0  0  0  0
  130.9605  137.9727  158.8795 H   0  0  0  0  0  0  0  0  0  0  0  0
  130.9521  135.8075  158.6759 H   0  0  0  0  0  0  0  0  0  0  0  0
  128.6355  134.1966  158.2201 H   0  0  0  0  0  0  0  0  0  0  0  0
  130.6144  133.2740  160.3273 H   0  0  0  0  0  0  0  0  0  0  0  0
  128.8862  132.8454  160.1389 H   0  0  0  0  0  0  0  0  0  0  0  0
  130.1694  130.7692  159.2160 H   0  0  0  0  0  0  0  0  0  0  0  0
  130.9597  131.3806  156.8948 H   0  0  0  0  0  0  0  0  0  0  0  0
  130.1458  133.8176  156.4464 H   0  0  0  0  0  0  0  0  0  0  0  0
  131.5782  134.0179  157.5018 H   0  0  0  0  0  0  0  0  0  0  0  0
  127.7847  134.9118  160.0638 H   0  0  0  0  0  0  0  0  0  0  0  0
  126.2376  136.8690  161.3419 H   0  0  0  0  0  0  0  0  0  0  0  0
  127.2691  137.7359  162.5609 H   0  0  0  0  0  0  0  0  0  0  0  0
  124.5170  135.7787  162.4439 H   0  0  0  0  0  0  0  0  0  0  0  0
  127.4860  133.9796  163.2718 H   0  0  0  0  0  0  0  0  0  0  0  0
  126.3905  134.2225  161.8428 H   0  0  0  0  0  0  0  0  0  0  0  0
  132.9767  138.5330  158.5310 H   0  0  0  0  0  0  0  0  0  0  0  0
  135.3302  139.1615  158.1751 H   0  0  0  0  0  0  0  0  0  0  0  0
  136.5256  140.4751  159.8806 H   0  0  0  0  0  0  0  0  0  0  0  0
  133.0044  140.5480  162.2896 H   0  0  0  0  0  0  0  0  0  0  0  0
  1  2  1  0
  1 29  1  0
  1 30  1  0
  1 31  1  0
  2  3  1  1
  2  4  1  0
  2 22  1  0
  4  5  1  0
  4 32  1  0
  4 33  1  0
  5  6  1  0
  7  5  2  0
  7  8  1  0
  7 14  1  0
  8  9  1  0
  8 34  1  0
  9 13  1  0
  9 10  1  0
  9 35  1  0
 10 11  1  0
 10 36  1  0
 10 37  1  0
 11 12  2  0
 11 38  1  0
 12 13  1  0
 12 39  1  0
 13 40  1  0
 13 41  1  0
 14 15  1  0
 14 42  1  0
 15 16  1  1
 15 21  1  0
 15 17  1  0
 17 18  1  0
 17 43  1  0
 17 44  1  0
 18 19  1  1
 18 20  1  0
 18 21  1  0
 20 45  1  0
 21 46  1  0
 21 47  1  0
 22 28  1  0
 22 23  2  0
 23 24  1  0
 23 48  1  0
 24 25  2  0
 24 49  1  0
 25 26  1  0
 25 50  1  0
 26 27  1  0
 26 28  2  0
 28 51  1  0
M  CHG  1   5   1
M  END
>  <DOCK_score>  (1) 
-47.003162

>  <SMILES>  (1) 
C[C@@H](C[NH+]=C(NC1CC=CC1)N[C@H]1C[C@@H](O)C1)c1cccc(Cl)c1

$$$$
