[NH3+][C@H](Cc1ccccc1CCc1ccc(O)cc1)C(=O)Nc1cc(O)cc(O)c1
     RDKit          3D

 54 56  0  0  1  0  0  0  0  0999 V2000
  130.7450  133.9966  157.2536 N   0  0  0  0  0  0  0  0  0  0  0  0
  130.0210  134.5210  156.7859 H   0  0  0  0  0  0  0  0  0  0  0  0
  131.6456  134.3920  157.0288 H   0  0  0  0  0  0  0  0  0  0  0  0
  130.7144  133.0352  156.9488 H   0  0  0  0  0  0  0  0  0  0  0  0
  130.5326  134.0566  158.7061 C   0  0  2  0  0  0  0  0  0  0  0  0
  130.5658  135.0951  159.0354 H   0  0  0  0  0  0  0  0  0  0  0  0
  131.6304  133.2612  159.4153 C   0  0  0  0  0  0  0  0  0  0  0  0
  131.4126  133.3228  160.9052 C   0  0  0  0  0  0  0  0  0  0  0  0
  130.6404  132.3619  161.5313 C   0  0  0  0  0  0  0  0  0  0  0  0
  130.4361  132.4216  162.8969 C   0  0  0  0  0  0  0  0  0  0  0  0
  131.0082  133.4392  163.6377 C   0  0  0  0  0  0  0  0  0  0  0  0
  131.7849  134.3965  163.0127 C   0  0  0  0  0  0  0  0  0  0  0  0
  131.9893  134.3368  161.6466 C   0  0  0  0  0  0  0  0  0  0  0  0
  132.8358  135.3807  160.9651 C   0  0  0  0  0  0  0  0  0  0  0  0
  132.4545  136.7672  161.4875 C   0  0  0  0  0  0  0  0  0  0  0  0
  133.3010  137.8112  160.8059 C   0  0  0  0  0  0  0  0  0  0  0  0
  132.8671  138.3899  159.6275 C   0  0  0  0  0  0  0  0  0  0  0  0
  133.6440  139.3430  158.9979 C   0  0  0  0  0  0  0  0  0  0  0  0
  134.8550  139.7277  159.5548 C   0  0  0  0  0  0  0  0  0  0  0  0
  135.6186  140.6688  158.9399 O   0  0  0  0  0  0  0  0  0  0  0  0
  135.2879  139.1459  160.7374 C   0  0  0  0  0  0  0  0  0  0  0  0
  134.5100  138.1890  161.3603 C   0  0  0  0  0  0  0  0  0  0  0  0
  129.1875  133.4656  159.0418 C   0  0  0  0  0  0  0  0  0  0  0  0
  128.7198  132.5887  158.3467 O   0  0  0  0  0  0  0  0  0  0  0  0
  128.5043  133.9118  160.1145 N   0  0  0  0  0  0  0  0  0  0  0  0
  127.2556  133.3633  160.4263 C   0  0  0  0  0  0  0  0  0  0  0  0
  126.2971  134.1375  161.0658 C   0  0  0  0  0  0  0  0  0  0  0  0
  125.0576  133.5952  161.3688 C   0  0  0  0  0  0  0  0  0  0  0  0
  124.1171  134.3548  161.9894 O   0  0  0  0  0  0  0  0  0  0  0  0
  124.7795  132.2757  161.0442 C   0  0  0  0  0  0  0  0  0  0  0  0
  125.7387  131.5000  160.4104 C   0  0  0  0  0  0  0  0  0  0  0  0
  125.4654  130.2072  160.0928 O   0  0  0  0  0  0  0  0  0  0  0  0
  126.9764  132.0429  160.1013 C   0  0  0  0  0  0  0  0  0  0  0  0
  132.6033  133.6884  159.1724 H   0  0  0  0  0  0  0  0  0  0  0  0
  131.5972  132.2227  159.0860 H   0  0  0  0  0  0  0  0  0  0  0  0
  130.1938  131.5669  160.9527 H   0  0  0  0  0  0  0  0  0  0  0  0
  129.8297  131.6731  163.3855 H   0  0  0  0  0  0  0  0  0  0  0  0
  130.8485  133.4858  164.7049 H   0  0  0  0  0  0  0  0  0  0  0  0
  132.2319  135.1913  163.5914 H   0  0  0  0  0  0  0  0  0  0  0  0
  132.6676  135.3390  159.8889 H   0  0  0  0  0  0  0  0  0  0  0  0
  133.8880  135.1897  161.1759 H   0  0  0  0  0  0  0  0  0  0  0  0
  132.6227  136.8090  162.5637 H   0  0  0  0  0  0  0  0  0  0  0  0
  131.4023  136.9583  161.2767 H   0  0  0  0  0  0  0  0  0  0  0  0
  131.9223  138.0934  159.1967 H   0  0  0  0  0  0  0  0  0  0  0  0
  133.3069  139.7914  158.0749 H   0  0  0  0  0  0  0  0  0  0  0  0
  135.2359  141.0122  158.1210 H   0  0  0  0  0  0  0  0  0  0  0  0
  136.2323  139.4404  161.1708 H   0  0  0  0  0  0  0  0  0  0  0  0
  134.8467  137.7356  162.2809 H   0  0  0  0  0  0  0  0  0  0  0  0
  128.8784  134.6132  160.6705 H   0  0  0  0  0  0  0  0  0  0  0  0
  126.5154  135.1634  161.3231 H   0  0  0  0  0  0  0  0  0  0  0  0
  124.4039  135.2586  162.1790 H   0  0  0  0  0  0  0  0  0  0  0  0
  123.8156  131.8523  161.2849 H   0  0  0  0  0  0  0  0  0  0  0  0
  124.5785  129.9186  160.3478 H   0  0  0  0  0  0  0  0  0  0  0  0
  127.7231  131.4388  159.6074 H   0  0  0  0  0  0  0  0  0  0  0  0
  1  2  1  0
  1  3  1  0
  1  4  1  0
  1  5  1  0
  5  6  1  1
  5  7  1  0
  5 23  1  0
  7  8  1  0
  7 34  1  0
  7 35  1  0
  8 13  1  0
  8  9  2  0
  9 10  1  0
  9 36  1  0
 10 11  2  0
 10 37  1  0
 11 12  1  0
 11 38  1  0
 12 13  2  0
 12 39  1  0
 13 14  1  0
 14 15  1  0
 14 40  1  0
 14 41  1  0
 15 16  1  0
 15 42  1  0
 15 43  1  0
 16 22  1  0
 16 17  2  0
 17 18  1  0
 17 44  1  0
 18 19  2  0
 18 45  1  0
 19 20  1  0
 19 21  1  0
 20 46  1  0
 21 22  2  0
 21 47  1  0
 22 48  1  0
 23 24  2  0
 23 25  1  0
 25 26  1  0
 25 49  1  0
 26 33  1  0
 26 27  2  0
 27 28  1  0
 27 50  1  0
 28 29  1  0
 28 30  2  0
 29 51  1  0
 30 31  1  0
 30 52  1  0
 31 32  1  0
 31 33  2  0
 32 53  1  0
 33 54  1  0
M  CHG  1   1   1
M  END
>  <DOCK_score>  (1) 
-49.191708

>  <SMILES>  (1) 
[NH3+][C@H](Cc1ccccc1CCc1ccc(O)cc1)C(=O)Nc1cc(O)cc(O)c1

$$$$
