Nc1ccc(Sc2ccccc2)c(Nc2[nH]cc(-c3ccc(Br)cc3)[nH+]2)c1
     RDKit          3D

 45 48  0  0  1  0  0  0  0  0999 V2000
  127.0921  133.4731  160.7341 N   0  0  0  0  0  0  0  0  0  0  0  0
  128.1231  132.8199  160.0493 C   0  0  0  0  0  0  0  0  0  0  0  0
  127.9298  131.5307  159.5701 C   0  0  0  0  0  0  0  0  0  0  0  0
  128.9458  130.8824  158.8938 C   0  0  0  0  0  0  0  0  0  0  0  0
  130.1621  131.5180  158.6917 C   0  0  0  0  0  0  0  0  0  0  0  0
  131.4571  130.6901  157.8303 S   0  0  0  0  0  0  0  0  0  0  0  0
  131.1686  131.1415  156.1518 C   0  0  0  0  0  0  0  0  0  0  0  0
  130.5830  132.3654  155.8503 C   0  0  0  0  0  0  0  0  0  0  0  0
  130.3588  132.7159  154.5336 C   0  0  0  0  0  0  0  0  0  0  0  0
  130.7161  131.8500  153.5153 C   0  0  0  0  0  0  0  0  0  0  0  0
  131.2940  130.6295  153.8118 C   0  0  0  0  0  0  0  0  0  0  0  0
  131.5264  130.2747  155.1258 C   0  0  0  0  0  0  0  0  0  0  0  0
  130.3609  132.8110  159.1759 C   0  0  0  0  0  0  0  0  0  0  0  0
  131.5894  133.4528  158.9784 N   0  0  0  0  0  0  0  0  0  0  0  0
  132.0413  134.3821  159.9005 C   0  0  0  0  0  0  0  0  0  0  0  0
  131.7698  134.3724  161.2345 N   0  0  0  0  0  0  0  0  0  0  0  0
  131.2293  133.7194  161.7060 H   0  0  0  0  0  0  0  0  0  0  0  0
  132.4022  135.4582  161.7891 C   0  0  0  0  0  0  0  0  0  0  0  0
  133.0413  136.0998  160.7794 C   0  0  0  0  0  0  0  0  0  0  0  0
  133.8582  137.3313  160.9068 C   0  0  0  0  0  0  0  0  0  0  0  0
  133.9470  138.2249  159.8406 C   0  0  0  0  0  0  0  0  0  0  0  0
  134.7040  139.3717  159.9660 C   0  0  0  0  0  0  0  0  0  0  0  0
  135.3837  139.6298  161.1439 C   0  0  0  0  0  0  0  0  0  0  0  0
  136.4256  141.1996  161.3059 Br  0  0  0  0  0  0  0  0  0  0  0  0
  135.3032  138.7432  162.2038 C   0  0  0  0  0  0  0  0  0  0  0  0
  134.5442  137.5963  162.0907 C   0  0  0  0  0  0  0  0  0  0  0  0
  132.8055  135.4131  159.6338 N   0  0  0  0  0  0  0  0  0  0  0  0
  133.1465  135.6485  158.7567 H   0  0  0  0  0  0  0  0  0  0  0  0
  129.3380  133.4613  159.8492 C   0  0  0  0  0  0  0  0  0  0  0  0
  126.2431  133.0255  160.8740 H   0  0  0  0  0  0  0  0  0  0  0  0
  127.2267  134.3735  161.0690 H   0  0  0  0  0  0  0  0  0  0  0  0
  126.9838  131.0337  159.7266 H   0  0  0  0  0  0  0  0  0  0  0  0
  128.7928  129.8798  158.5226 H   0  0  0  0  0  0  0  0  0  0  0  0
  130.3034  133.0413  156.6448 H   0  0  0  0  0  0  0  0  0  0  0  0
  129.9042  133.6668  154.2986 H   0  0  0  0  0  0  0  0  0  0  0  0
  130.5396  132.1274  152.4866 H   0  0  0  0  0  0  0  0  0  0  0  0
  131.5676  129.9545  153.0143 H   0  0  0  0  0  0  0  0  0  0  0  0
  131.9817  129.3228  155.3565 H   0  0  0  0  0  0  0  0  0  0  0  0
  132.1239  133.2467  158.1957 H   0  0  0  0  0  0  0  0  0  0  0  0
  132.3928  135.7457  162.8301 H   0  0  0  0  0  0  0  0  0  0  0  0
  133.4209  138.0218  158.9195 H   0  0  0  0  0  0  0  0  0  0  0  0
  134.7700  140.0669  159.1422 H   0  0  0  0  0  0  0  0  0  0  0  0
  135.8354  138.9492  163.1205 H   0  0  0  0  0  0  0  0  0  0  0  0
  134.4817  136.9052  162.9184 H   0  0  0  0  0  0  0  0  0  0  0  0
  129.4878  134.4637  160.2219 H   0  0  0  0  0  0  0  0  0  0  0  0
  1  2  1  0
  1 30  1  0
  1 31  1  0
  2 29  2  0
  2  3  1  0
  3  4  2  0
  3 32  1  0
  4  5  1  0
  4 33  1  0
  5  6  1  0
  5 13  2  0
  6  7  1  0
  7 12  1  0
  7  8  2  0
  8  9  1  0
  8 34  1  0
  9 10  2  0
  9 35  1  0
 10 11  1  0
 10 36  1  0
 11 12  2  0
 11 37  1  0
 12 38  1  0
 13 14  1  0
 13 29  1  0
 14 39  1  0
 15 14  1  0
 15 27  2  0
 15 16  1  0
 16 17  1  0
 16 18  1  0
 18 19  2  0
 18 40  1  0
 19 20  1  0
 19 27  1  0
 20 26  1  0
 20 21  2  0
 21 22  1  0
 21 41  1  0
 22 23  2  0
 22 42  1  0
 23 24  1  0
 23 25  1  0
 25 26  2  0
 25 43  1  0
 26 44  1  0
 27 28  1  0
 29 45  1  0
M  CHG  1  27   1
M  END
>  <DOCK_score>  (1) 
-61.511364

>  <SMILES>  (1) 
Nc1ccc(Sc2ccccc2)c(Nc2[nH]cc(-c3ccc(Br)cc3)[nH+]2)c1

$$$$
