O=C1CC[C@H]([NH+]=C(NCc2cnn3ccccc23)NC2CC=CC2)CN1
     RDKit          3D

 51 54  0  0  1  0  0  0  0  0999 V2000
  123.6846  133.8501  161.4126 O   0  0  0  0  0  0  0  0  0  0  0  0
  124.8718  134.0209  161.2329 C   0  0  0  0  0  0  0  0  0  0  0  0
  125.6768  132.8833  160.6734 C   0  0  0  0  0  0  0  0  0  0  0  0
  127.1667  133.1254  160.9269 C   0  0  0  0  0  0  0  0  0  0  0  0
  127.5078  134.5536  160.4848 C   0  0  2  0  0  0  0  0  0  0  0  0
  127.1639  134.7120  159.4627 H   0  0  0  0  0  0  0  0  0  0  0  0
  128.9571  134.7564  160.5528 N   0  0  0  0  0  0  0  0  0  0  0  0
  129.3628  135.0870  161.3695 H   0  0  0  0  0  0  0  0  0  0  0  0
  129.7013  134.4925  159.5159 C   0  0  0  0  0  0  0  0  0  0  0  0
  130.8626  135.1979  159.3058 N   0  0  0  0  0  0  0  0  0  0  0  0
  131.2636  136.2460  160.2473 C   0  0  0  0  0  0  0  0  0  0  0  0
  132.1215  135.6461  161.3315 C   0  0  0  0  0  0  0  0  0  0  0  0
  133.1629  134.7505  161.1497 C   0  0  0  0  0  0  0  0  0  0  0  0
  133.6774  134.4484  162.3214 N   0  0  0  0  0  0  0  0  0  0  0  0
  132.9803  135.1452  163.3164 N   0  0  0  0  0  0  0  0  0  0  0  0
  133.1107  135.1869  164.6749 C   0  0  0  0  0  0  0  0  0  0  0  0
  132.2924  135.9577  165.4212 C   0  0  0  0  0  0  0  0  0  0  0  0
  131.2913  136.7314  164.8108 C   0  0  0  0  0  0  0  0  0  0  0  0
  131.1525  136.7042  163.4576 C   0  0  0  0  0  0  0  0  0  0  0  0
  132.0116  135.8904  162.6947 C   0  0  0  0  0  0  0  0  0  0  0  0
  129.3252  133.5087  158.6322 N   0  0  0  0  0  0  0  0  0  0  0  0
  130.3446  132.7534  157.8996 C   0  0  0  0  0  0  0  0  0  0  0  0
  129.7111  131.5774  157.1205 C   0  0  0  0  0  0  0  0  0  0  0  0
  130.7182  130.4556  157.2337 C   0  0  0  0  0  0  0  0  0  0  0  0
  131.5773  130.6897  158.1881 C   0  0  0  0  0  0  0  0  0  0  0  0
  131.2866  132.0057  158.8713 C   0  0  0  0  0  0  0  0  0  0  0  0
  126.8073  135.5399  161.4204 C   0  0  0  0  0  0  0  0  0  0  0  0
  125.3925  135.2087  161.5430 N   0  0  0  0  0  0  0  0  0  0  0  0
  125.4996  132.8076  159.6006 H   0  0  0  0  0  0  0  0  0  0  0  0
  125.3739  131.9538  161.1555 H   0  0  0  0  0  0  0  0  0  0  0  0
  127.7575  132.4124  160.3519 H   0  0  0  0  0  0  0  0  0  0  0  0
  127.3820  133.0089  161.9891 H   0  0  0  0  0  0  0  0  0  0  0  0
  131.4165  135.0014  158.5340 H   0  0  0  0  0  0  0  0  0  0  0  0
  130.3751  136.6933  160.6929 H   0  0  0  0  0  0  0  0  0  0  0  0
  131.8300  137.0125  159.7183 H   0  0  0  0  0  0  0  0  0  0  0  0
  133.4981  134.3632  160.1989 H   0  0  0  0  0  0  0  0  0  0  0  0
  133.8764  134.5972  165.1569 H   0  0  0  0  0  0  0  0  0  0  0  0
  132.4078  135.9800  166.4948 H   0  0  0  0  0  0  0  0  0  0  0  0
  130.6384  137.3472  165.4116 H   0  0  0  0  0  0  0  0  0  0  0  0
  130.3873  137.2941  162.9749 H   0  0  0  0  0  0  0  0  0  0  0  0
  128.3849  133.3148  158.4935 H   0  0  0  0  0  0  0  0  0  0  0  0
  130.9082  133.4061  157.2329 H   0  0  0  0  0  0  0  0  0  0  0  0
  128.7651  131.2856  157.5766 H   0  0  0  0  0  0  0  0  0  0  0  0
  129.5618  131.8506  156.0759 H   0  0  0  0  0  0  0  0  0  0  0  0
  130.7259  129.5763  156.6068 H   0  0  0  0  0  0  0  0  0  0  0  0
  132.3892  130.0292  158.4546 H   0  0  0  0  0  0  0  0  0  0  0  0
  132.2080  132.5698  159.0165 H   0  0  0  0  0  0  0  0  0  0  0  0
  130.7907  131.8377  159.8273 H   0  0  0  0  0  0  0  0  0  0  0  0
  127.2723  135.4946  162.4052 H   0  0  0  0  0  0  0  0  0  0  0  0
  126.9108  136.5494  161.0225 H   0  0  0  0  0  0  0  0  0  0  0  0
  124.7920  135.8974  161.8687 H   0  0  0  0  0  0  0  0  0  0  0  0
  1  2  2  0
  2 28  1  0
  2  3  1  0
  3  4  1  0
  3 29  1  0
  3 30  1  0
  4  5  1  0
  4 31  1  0
  4 32  1  0
  5  6  1  6
  5  7  1  0
  5 27  1  0
  7  8  1  0
  9  7  2  0
  9 10  1  0
  9 21  1  0
 10 11  1  0
 10 33  1  0
 11 12  1  0
 11 34  1  0
 11 35  1  0
 12 20  2  0
 12 13  1  0
 13 14  2  0
 13 36  1  0
 14 15  1  0
 15 20  1  0
 15 16  1  0
 16 17  2  0
 16 37  1  0
 17 18  1  0
 17 38  1  0
 18 19  2  0
 18 39  1  0
 19 20  1  0
 19 40  1  0
 21 22  1  0
 21 41  1  0
 22 26  1  0
 22 23  1  0
 22 42  1  0
 23 24  1  0
 23 43  1  0
 23 44  1  0
 24 25  2  0
 24 45  1  0
 25 26  1  0
 25 46  1  0
 26 47  1  0
 26 48  1  0
 27 28  1  0
 27 49  1  0
 27 50  1  0
 28 51  1  0
M  CHG  1   7   1
M  END
>  <DOCK_score>  (1) 
-44.820415

>  <SMILES>  (1) 
O=C1CC[C@H]([NH+]=C(NCc2cnn3ccccc23)NC2CC=CC2)CN1

$$$$
