Cc1cc(C)c2cc(C[NH2+][C@@H](CC3=CC4C=CC3CC4)c3ccccc3)[nH]c2c1
     RDKit          3D

 60 64  0  0  1  0  0  0  0  0999 V2000
  135.5768  141.1676  159.1336 C   0  0  0  0  0  0  0  0  0  0  0  0
  134.6366  140.3247  159.9561 C   0  0  0  0  0  0  0  0  0  0  0  0
  134.4408  140.6238  161.2976 C   0  0  0  0  0  0  0  0  0  0  0  0
  133.5916  139.8721  162.0595 C   0  0  0  0  0  0  0  0  0  0  0  0
  133.3854  140.2056  163.5146 C   0  0  0  0  0  0  0  0  0  0  0  0
  132.9156  138.7939  161.4851 C   0  0  0  0  0  0  0  0  0  0  0  0
  131.9557  137.8087  161.9893 C   0  0  0  0  0  0  0  0  0  0  0  0
  131.6490  136.9992  160.9633 C   0  0  0  0  0  0  0  0  0  0  0  0
  130.6944  135.8352  161.0350 C   0  0  0  0  0  0  0  0  0  0  0  0
  130.6128  135.1870  159.7194 N   0  0  0  0  0  0  0  0  0  0  0  0
  131.5272  134.8559  159.4503 H   0  0  0  0  0  0  0  0  0  0  0  0
  130.2815  135.8520  159.0367 H   0  0  0  0  0  0  0  0  0  0  0  0
  129.6823  134.0525  159.7894 C   0  0  1  0  0  0  0  0  0  0  0  0
  129.8215  133.5260  160.7336 H   0  0  0  0  0  0  0  0  0  0  0  0
  128.2439  134.5662  159.6994 C   0  0  0  0  0  0  0  0  0  0  0  0
  127.3033  133.5250  160.2489 C   0  0  0  0  0  0  0  0  0  0  0  0
  126.7521  132.5730  159.4983 C   0  0  0  0  0  0  0  0  0  0  0  0
  125.8338  131.6329  160.2749 C   0  0  1  0  0  0  0  0  0  0  0  0
  126.6697  131.0947  161.4334 C   0  0  0  0  0  0  0  0  0  0  0  0
  127.2209  132.0467  162.1841 C   0  0  0  0  0  0  0  0  0  0  0  0
  126.8936  133.4630  161.7182 C   0  0  2  0  0  0  0  0  0  0  0  0
  125.3621  133.5992  161.7570 C   0  0  0  0  0  0  0  0  0  0  0  0
  124.7284  132.5047  160.8940 C   0  0  0  0  0  0  0  0  0  0  0  0
  129.9518  133.1102  158.6445 C   0  0  0  0  0  0  0  0  0  0  0  0
  129.7098  131.7572  158.7915 C   0  0  0  0  0  0  0  0  0  0  0  0
  129.9532  130.8934  157.7401 C   0  0  0  0  0  0  0  0  0  0  0  0
  130.4463  131.3815  156.5444 C   0  0  0  0  0  0  0  0  0  0  0  0
  130.6931  132.7339  156.3992 C   0  0  0  0  0  0  0  0  0  0  0  0
  130.4460  133.5983  157.4494 C   0  0  0  0  0  0  0  0  0  0  0  0
  132.3270  137.3909  159.8412 N   0  0  0  0  0  0  0  0  0  0  0  0
  132.2650  136.9608  158.9740 H   0  0  0  0  0  0  0  0  0  0  0  0
  133.1108  138.4863  160.1264 C   0  0  0  0  0  0  0  0  0  0  0  0
  133.9802  139.2654  159.3694 C   0  0  0  0  0  0  0  0  0  0  0  0
  136.5817  140.7487  159.1875 H   0  0  0  0  0  0  0  0  0  0  0  0
  135.2426  141.1774  158.0962 H   0  0  0  0  0  0  0  0  0  0  0  0
  135.5863  142.1859  159.5221 H   0  0  0  0  0  0  0  0  0  0  0  0
  134.9634  141.4577  161.7424 H   0  0  0  0  0  0  0  0  0  0  0  0
  134.1131  139.6636  164.1184 H   0  0  0  0  0  0  0  0  0  0  0  0
  133.5157  141.2775  163.6637 H   0  0  0  0  0  0  0  0  0  0  0  0
  132.3777  139.9170  163.8141 H   0  0  0  0  0  0  0  0  0  0  0  0
  131.5699  137.7444  162.9960 H   0  0  0  0  0  0  0  0  0  0  0  0
  129.7066  136.1929  161.3258 H   0  0  0  0  0  0  0  0  0  0  0  0
  131.0522  135.1169  161.7725 H   0  0  0  0  0  0  0  0  0  0  0  0
  127.9945  134.7677  158.6575 H   0  0  0  0  0  0  0  0  0  0  0  0
  128.1490  135.4841  160.2798 H   0  0  0  0  0  0  0  0  0  0  0  0
  126.9374  132.4751  158.4388 H   0  0  0  0  0  0  0  0  0  0  0  0
  125.4375  130.8341  159.6480 H   0  0  0  0  0  0  0  0  0  0  0  0
  126.8012  130.0402  161.6266 H   0  0  0  0  0  0  0  0  0  0  0  0
  127.8421  131.8362  163.0423 H   0  0  0  0  0  0  0  0  0  0  0  0
  127.3891  134.2280  162.3159 H   0  0  0  0  0  0  0  0  0  0  0  0
  125.0146  133.4977  162.7851 H   0  0  0  0  0  0  0  0  0  0  0  0
  125.0746  134.5774  161.3717 H   0  0  0  0  0  0  0  0  0  0  0  0
  124.0802  131.8842  161.5127 H   0  0  0  0  0  0  0  0  0  0  0  0
  124.1404  132.9639  160.0993 H   0  0  0  0  0  0  0  0  0  0  0  0
  129.3278  131.3754  159.7268 H   0  0  0  0  0  0  0  0  0  0  0  0
  129.7608  129.8368  157.8536 H   0  0  0  0  0  0  0  0  0  0  0  0
  130.6390  130.7064  155.7238 H   0  0  0  0  0  0  0  0  0  0  0  0
  131.0787  133.1152  155.4653 H   0  0  0  0  0  0  0  0  0  0  0  0
  130.6389  134.6548  157.3359 H   0  0  0  0  0  0  0  0  0  0  0  0
  134.1397  139.0403  158.3253 H   0  0  0  0  0  0  0  0  0  0  0  0
  1  2  1  0
  1 34  1  0
  1 35  1  0
  1 36  1  0
  2 33  1  0
  2  3  2  0
  3  4  1  0
  3 37  1  0
  4  5  1  0
  4  6  2  0
  5 38  1  0
  5 39  1  0
  5 40  1  0
  6 32  1  0
  6  7  1  0
  7  8  2  0
  7 41  1  0
  8  9  1  0
  8 30  1  0
  9 10  1  0
  9 42  1  0
  9 43  1  0
 10 11  1  0
 10 12  1  0
 10 13  1  0
 13 14  1  1
 13 15  1  0
 13 24  1  0
 15 16  1  0
 15 44  1  0
 15 45  1  0
 16 21  1  0
 16 17  2  0
 17 18  1  0
 17 46  1  0
 18 23  1  0
 18 19  1  0
 18 47  1  6
 19 20  2  0
 19 48  1  0
 20 21  1  0
 20 49  1  0
 21 22  1  0
 21 50  1  1
 22 23  1  0
 22 51  1  0
 22 52  1  0
 23 53  1  0
 23 54  1  0
 24 29  1  0
 24 25  2  0
 25 26  1  0
 25 55  1  0
 26 27  2  0
 26 56  1  0
 27 28  1  0
 27 57  1  0
 28 29  2  0
 28 58  1  0
 29 59  1  0
 30 31  1  0
 30 32  1  0
 32 33  2  0
 33 60  1  0
M  CHG  1  10   1
M  END
>  <DOCK_score>  (1) 
-56.086861

>  <SMILES>  (1) 
Cc1cc(C)c2cc(C[NH2+][C@@H](CC3=CC4C=CC3CC4)c3ccccc3)[nH]c2c1

$$$$
