O=C1CC=C(NC(=O)Nc2ccc(Nc3ccc(Nc4[nH]cc(-c5cccnc5)[nH+]4)cc3)cc2)N1
     RDKit          3D

 58 62  0  0  1  0  0  0  0  0999 V2000
  127.6351  140.0588  172.6233 O   0  0  0  0  0  0  0  0  0  0  0  0
  127.8338  140.9596  171.8357 C   0  0  0  0  0  0  0  0  0  0  0  0
  128.2177  142.3893  172.1610 C   0  0  0  0  0  0  0  0  0  0  0  0
  128.3283  143.0497  170.8022 C   0  0  0  0  0  0  0  0  0  0  0  0
  128.0468  142.1144  169.9048 C   0  0  0  0  0  0  0  0  0  0  0  0
  128.0423  142.3343  168.5288 N   0  0  0  0  0  0  0  0  0  0  0  0
  127.7443  141.3256  167.6861 C   0  0  0  0  0  0  0  0  0  0  0  0
  127.4794  140.2236  168.1266 O   0  0  0  0  0  0  0  0  0  0  0  0
  127.7400  141.5382  166.3552 N   0  0  0  0  0  0  0  0  0  0  0  0
  127.4299  140.4892  165.4789 C   0  0  0  0  0  0  0  0  0  0  0  0
  126.8243  140.7598  164.2590 C   0  0  0  0  0  0  0  0  0  0  0  0
  126.5193  139.7268  163.3954 C   0  0  0  0  0  0  0  0  0  0  0  0
  126.8182  138.4166  163.7469 C   0  0  0  0  0  0  0  0  0  0  0  0
  126.5086  137.3701  162.8717 N   0  0  0  0  0  0  0  0  0  0  0  0
  127.4447  136.9559  161.9172 C   0  0  0  0  0  0  0  0  0  0  0  0
  127.1357  135.9196  161.0454 C   0  0  0  0  0  0  0  0  0  0  0  0
  128.0611  135.5075  160.1074 C   0  0  0  0  0  0  0  0  0  0  0  0
  129.2967  136.1367  160.0281 C   0  0  0  0  0  0  0  0  0  0  0  0
  130.2332  135.7225  159.0728 N   0  0  0  0  0  0  0  0  0  0  0  0
  130.2560  134.4032  158.6520 C   0  0  0  0  0  0  0  0  0  0  0  0
  129.8902  133.3260  159.3995 N   0  0  0  0  0  0  0  0  0  0  0  0
  129.5704  133.3439  160.3152 H   0  0  0  0  0  0  0  0  0  0  0  0
  130.0582  132.2090  158.6183 C   0  0  0  0  0  0  0  0  0  0  0  0
  130.5214  132.6349  157.4169 C   0  0  0  0  0  0  0  0  0  0  0  0
  130.8485  131.7754  156.2529 C   0  0  0  0  0  0  0  0  0  0  0  0
  130.7071  132.2607  154.9496 C   0  0  0  0  0  0  0  0  0  0  0  0
  131.0307  131.4210  153.8979 C   0  0  0  0  0  0  0  0  0  0  0  0
  131.4689  130.1370  154.1673 C   0  0  0  0  0  0  0  0  0  0  0  0
  131.5872  129.7051  155.4080 N   0  0  0  0  0  0  0  0  0  0  0  0
  131.2963  130.4694  156.4408 C   0  0  0  0  0  0  0  0  0  0  0  0
  130.6279  133.9862  157.4661 N   0  0  0  0  0  0  0  0  0  0  0  0
  130.9325  134.5532  156.7405 H   0  0  0  0  0  0  0  0  0  0  0  0
  129.6037  137.1764  160.8963 C   0  0  0  0  0  0  0  0  0  0  0  0
  128.6805  137.5848  161.8379 C   0  0  0  0  0  0  0  0  0  0  0  0
  127.4194  138.1458  164.9695 C   0  0  0  0  0  0  0  0  0  0  0  0
  127.7289  139.1796  165.8306 C   0  0  0  0  0  0  0  0  0  0  0  0
  127.7523  140.8965  170.4924 N   0  0  0  0  0  0  0  0  0  0  0  0
  129.1752  142.4199  172.6808 H   0  0  0  0  0  0  0  0  0  0  0  0
  127.4431  142.8698  172.7585 H   0  0  0  0  0  0  0  0  0  0  0  0
  128.5856  144.0796  170.6032 H   0  0  0  0  0  0  0  0  0  0  0  0
  128.2536  143.2134  168.1774 H   0  0  0  0  0  0  0  0  0  0  0  0
  127.9512  142.4173  166.0039 H   0  0  0  0  0  0  0  0  0  0  0  0
  126.5916  141.7785  163.9860 H   0  0  0  0  0  0  0  0  0  0  0  0
  126.0478  139.9373  162.4469 H   0  0  0  0  0  0  0  0  0  0  0  0
  125.6457  136.9303  162.9275 H   0  0  0  0  0  0  0  0  0  0  0  0
  126.1731  135.4331  161.1041 H   0  0  0  0  0  0  0  0  0  0  0  0
  127.8227  134.6988  159.4326 H   0  0  0  0  0  0  0  0  0  0  0  0
  130.8659  136.3597  158.7058 H   0  0  0  0  0  0  0  0  0  0  0  0
  129.8593  131.1871  158.9056 H   0  0  0  0  0  0  0  0  0  0  0  0
  130.3580  133.2663  154.7679 H   0  0  0  0  0  0  0  0  0  0  0  0
  130.9379  131.7632  152.8777 H   0  0  0  0  0  0  0  0  0  0  0  0
  131.7183  129.4778  153.3490 H   0  0  0  0  0  0  0  0  0  0  0  0
  131.4062  130.0802  157.4423 H   0  0  0  0  0  0  0  0  0  0  0  0
  130.5646  137.6657  160.8345 H   0  0  0  0  0  0  0  0  0  0  0  0
  128.9195  138.3931  162.5133 H   0  0  0  0  0  0  0  0  0  0  0  0
  127.6482  137.1268  165.2450 H   0  0  0  0  0  0  0  0  0  0  0  0
  128.1997  138.9694  166.7796 H   0  0  0  0  0  0  0  0  0  0  0  0
  127.5189  140.0954  169.9978 H   0  0  0  0  0  0  0  0  0  0  0  0
  1  2  2  0
  2 37  1  0
  2  3  1  0
  3  4  1  0
  3 38  1  0
  3 39  1  0
  4  5  2  0
  4 40  1  0
  5  6  1  0
  5 37  1  0
  6  7  1  0
  6 41  1  0
  7  8  2  0
  7  9  1  0
  9 10  1  0
  9 42  1  0
 10 36  1  0
 10 11  2  0
 11 12  1  0
 11 43  1  0
 12 13  2  0
 12 44  1  0
 13 14  1  0
 13 35  1  0
 14 15  1  0
 14 45  1  0
 15 34  1  0
 15 16  2  0
 16 17  1  0
 16 46  1  0
 17 18  2  0
 17 47  1  0
 18 19  1  0
 18 33  1  0
 19 48  1  0
 20 19  1  0
 20 31  2  0
 20 21  1  0
 21 22  1  0
 21 23  1  0
 23 24  2  0
 23 49  1  0
 24 25  1  0
 24 31  1  0
 25 30  1  0
 25 26  2  0
 26 27  1  0
 26 50  1  0
 27 28  2  0
 27 51  1  0
 28 29  1  0
 28 52  1  0
 29 30  2  0
 30 53  1  0
 31 32  1  0
 33 34  2  0
 33 54  1  0
 34 55  1  0
 35 36  2  0
 35 56  1  0
 36 57  1  0
 37 58  1  0
M  CHG  1  31   1
M  END
>  <DOCK_score>  (1) 
-51.379711

>  <SMILES>  (1) 
O=C1CC=C(NC(=O)Nc2ccc(Nc3ccc(Nc4[nH]cc(-c5cccnc5)[nH+]4)cc3)cc2)N1

$$$$
