c1ccc(-n2cc(C[NH2+][C@@H](Cc3cnn(-c4ccccc4)c3)Cc3cccc4cccnc34)cn2)cc1
     RDKit          3D

 66 71  0  0  1  0  0  0  0  0999 V2000
  126.7167  130.4943  160.1703 C   0  0  0  0  0  0  0  0  0  0  0  0
  127.8078  129.9559  159.5133 C   0  0  0  0  0  0  0  0  0  0  0  0
  128.9949  130.6592  159.4518 C   0  0  0  0  0  0  0  0  0  0  0  0
  129.0920  131.9081  160.0502 C   0  0  0  0  0  0  0  0  0  0  0  0
  130.2953  132.6245  159.9895 N   0  0  0  0  0  0  0  0  0  0  0  0
  130.5252  133.8420  160.5313 C   0  0  0  0  0  0  0  0  0  0  0  0
  131.8035  134.1838  160.2485 C   0  0  0  0  0  0  0  0  0  0  0  0
  132.4901  135.4624  160.6552 C   0  0  0  0  0  0  0  0  0  0  0  0
  131.5963  136.6002  160.4018 N   0  0  0  0  0  0  0  0  0  0  0  0
  130.7489  136.4881  160.9379 H   0  0  0  0  0  0  0  0  0  0  0  0
  131.3701  136.6379  159.4193 H   0  0  0  0  0  0  0  0  0  0  0  0
  132.2654  137.8463  160.7984 C   0  0  1  0  0  0  0  0  0  0  0  0
  132.8166  137.6839  161.7245 H   0  0  0  0  0  0  0  0  0  0  0  0
  133.2353  138.2775  159.6965 C   0  0  0  0  0  0  0  0  0  0  0  0
  134.2537  139.2300  160.2680 C   0  0  0  0  0  0  0  0  0  0  0  0
  135.3004  139.8355  159.5641 C   0  0  0  0  0  0  0  0  0  0  0  0
  135.9669  140.5960  160.3949 N   0  0  0  0  0  0  0  0  0  0  0  0
  135.3712  140.4912  161.6585 N   0  0  0  0  0  0  0  0  0  0  0  0
  135.7901  141.1462  162.8250 C   0  0  0  0  0  0  0  0  0  0  0  0
  135.1014  140.9557  164.0153 C   0  0  0  0  0  0  0  0  0  0  0  0
  135.5205  141.5972  165.1645 C   0  0  0  0  0  0  0  0  0  0  0  0
  136.6173  142.4384  165.1273 C   0  0  0  0  0  0  0  0  0  0  0  0
  137.3017  142.6349  163.9420 C   0  0  0  0  0  0  0  0  0  0  0  0
  136.8913  141.9910  162.7911 C   0  0  0  0  0  0  0  0  0  0  0  0
  134.3208  139.6460  161.5539 C   0  0  0  0  0  0  0  0  0  0  0  0
  131.2185  138.9412  161.0135 C   0  0  0  0  0  0  0  0  0  0  0  0
  130.2632  138.5166  162.0988 C   0  0  0  0  0  0  0  0  0  0  0  0
  130.5234  138.8278  163.3981 C   0  0  0  0  0  0  0  0  0  0  0  0
  129.6571  138.4398  164.4177 C   0  0  0  0  0  0  0  0  0  0  0  0
  128.5177  137.7474  164.1406 C   0  0  0  0  0  0  0  0  0  0  0  0
  128.2175  137.4088  162.8117 C   0  0  0  0  0  0  0  0  0  0  0  0
  127.0534  136.6881  162.4838 C   0  0  0  0  0  0  0  0  0  0  0  0
  126.8265  136.3940  161.1697 C   0  0  0  0  0  0  0  0  0  0  0  0
  127.7358  136.8060  160.1977 C   0  0  0  0  0  0  0  0  0  0  0  0
  128.8187  137.4770  160.5063 N   0  0  0  0  0  0  0  0  0  0  0  0
  129.1004  137.7973  161.7734 C   0  0  0  0  0  0  0  0  0  0  0  0
  132.3773  133.1384  159.5169 C   0  0  0  0  0  0  0  0  0  0  0  0
  131.4746  132.2036  159.3611 N   0  0  0  0  0  0  0  0  0  0  0  0
  127.9964  132.4437  160.7141 C   0  0  0  0  0  0  0  0  0  0  0  0
  126.8101  131.7383  160.7670 C   0  0  0  0  0  0  0  0  0  0  0  0
  125.7896  129.9424  160.2171 H   0  0  0  0  0  0  0  0  0  0  0  0
  127.7317  128.9844  159.0476 H   0  0  0  0  0  0  0  0  0  0  0  0
  129.8466  130.2382  158.9382 H   0  0  0  0  0  0  0  0  0  0  0  0
  129.8151  134.4359  161.0877 H   0  0  0  0  0  0  0  0  0  0  0  0
  133.4054  135.5833  160.0761 H   0  0  0  0  0  0  0  0  0  0  0  0
  132.7344  135.4216  161.7167 H   0  0  0  0  0  0  0  0  0  0  0  0
  133.7431  137.4000  159.2958 H   0  0  0  0  0  0  0  0  0  0  0  0
  132.6820  138.7729  158.8987 H   0  0  0  0  0  0  0  0  0  0  0  0
  135.5190  139.7007  158.5151 H   0  0  0  0  0  0  0  0  0  0  0  0
  134.2415  140.3029  164.0438 H   0  0  0  0  0  0  0  0  0  0  0  0
  134.9882  141.4454  166.0918 H   0  0  0  0  0  0  0  0  0  0  0  0
  136.9404  142.9426  166.0262 H   0  0  0  0  0  0  0  0  0  0  0  0
  138.1582  143.2923  163.9163 H   0  0  0  0  0  0  0  0  0  0  0  0
  137.4267  142.1444  161.8658 H   0  0  0  0  0  0  0  0  0  0  0  0
  133.6549  139.3556  162.3530 H   0  0  0  0  0  0  0  0  0  0  0  0
  130.6672  139.1038  160.0874 H   0  0  0  0  0  0  0  0  0  0  0  0
  131.7150  139.8659  161.3078 H   0  0  0  0  0  0  0  0  0  0  0  0
  131.4183  139.3805  163.6430 H   0  0  0  0  0  0  0  0  0  0  0  0
  129.8897  138.6955  165.4408 H   0  0  0  0  0  0  0  0  0  0  0  0
  127.8514  137.4560  164.9391 H   0  0  0  0  0  0  0  0  0  0  0  0
  126.3592  136.3767  163.2503 H   0  0  0  0  0  0  0  0  0  0  0  0
  125.9431  135.8422  160.8842 H   0  0  0  0  0  0  0  0  0  0  0  0
  127.5429  136.5666  159.1624 H   0  0  0  0  0  0  0  0  0  0  0  0
  133.3906  133.1080  159.1443 H   0  0  0  0  0  0  0  0  0  0  0  0
  128.0703  133.4131  161.1844 H   0  0  0  0  0  0  0  0  0  0  0  0
  125.9561  132.1566  161.2789 H   0  0  0  0  0  0  0  0  0  0  0  0
  1 40  2  0
  1  2  1  0
  1 41  1  0
  2  3  2  0
  2 42  1  0
  3  4  1  0
  3 43  1  0
  4  5  1  0
  4 39  2  0
  5 38  1  0
  5  6  1  0
  6  7  2  0
  6 44  1  0
  7  8  1  0
  7 37  1  0
  8  9  1  0
  8 45  1  0
  8 46  1  0
  9 10  1  0
  9 11  1  0
  9 12  1  0
 12 13  1  1
 12 14  1  0
 12 26  1  0
 14 15  1  0
 14 47  1  0
 14 48  1  0
 15 25  2  0
 15 16  1  0
 16 17  2  0
 16 49  1  0
 17 18  1  0
 18 19  1  0
 18 25  1  0
 19 24  1  0
 19 20  2  0
 20 21  1  0
 20 50  1  0
 21 22  2  0
 21 51  1  0
 22 23  1  0
 22 52  1  0
 23 24  2  0
 23 53  1  0
 24 54  1  0
 25 55  1  0
 26 27  1  0
 26 56  1  0
 26 57  1  0
 27 36  1  0
 27 28  2  0
 28 29  1  0
 28 58  1  0
 29 30  2  0
 29 59  1  0
 30 31  1  0
 30 60  1  0
 31 36  2  0
 31 32  1  0
 32 33  2  0
 32 61  1  0
 33 34  1  0
 33 62  1  0
 34 35  2  0
 34 63  1  0
 35 36  1  0
 37 38  2  0
 37 64  1  0
 39 40  1  0
 39 65  1  0
 40 66  1  0
M  CHG  1   9   1
M  END
>  <DOCK_score>  (1) 
-57.889793

>  <SMILES>  (1) 
c1ccc(-n2cc(C[NH2+][C@@H](Cc3cnn(-c4ccccc4)c3)Cc3cccc4cccnc34)cn2)cc1

$$$$
