CCc1ccc(-c2c[nH]c(N[C@@H](c3ccc(F)cc3)c3ccc(C(F)(F)F)cc3)[nH+]2)cc1
     RDKit          3D

 54 57  0  0  1  0  0  0  0  0999 V2000
  130.3970  128.5506  152.0494 C   0  0  0  0  0  0  0  0  0  0  0  0
  131.4707  129.5953  152.3600 C   0  0  0  0  0  0  0  0  0  0  0  0
  131.0613  130.3914  153.5724 C   0  0  0  0  0  0  0  0  0  0  0  0
  131.4372  129.9673  154.8338 C   0  0  0  0  0  0  0  0  0  0  0  0
  131.0701  130.6953  155.9474 C   0  0  0  0  0  0  0  0  0  0  0  0
  130.3093  131.8537  155.7997 C   0  0  0  0  0  0  0  0  0  0  0  0
  129.9070  132.6373  156.9931 C   0  0  0  0  0  0  0  0  0  0  0  0
  129.1595  132.1848  158.0302 C   0  0  0  0  0  0  0  0  0  0  0  0
  129.0262  133.2300  158.9115 N   0  0  0  0  0  0  0  0  0  0  0  0
  128.5431  133.2144  159.7524 H   0  0  0  0  0  0  0  0  0  0  0  0
  129.6968  134.2917  158.3867 C   0  0  0  0  0  0  0  0  0  0  0  0
  129.8062  135.5434  158.9678 N   0  0  0  0  0  0  0  0  0  0  0  0
  129.1669  135.8102  160.2587 C   0  0  1  0  0  0  0  0  0  0  0  0
  128.0917  135.6537  160.1708 H   0  0  0  0  0  0  0  0  0  0  0  0
  129.7274  134.8755  161.2995 C   0  0  0  0  0  0  0  0  0  0  0  0
  128.9427  134.4800  162.3668 C   0  0  0  0  0  0  0  0  0  0  0  0
  129.4540  133.6191  163.3193 C   0  0  0  0  0  0  0  0  0  0  0  0
  130.7561  133.1612  163.2100 C   0  0  0  0  0  0  0  0  0  0  0  0
  131.2585  132.3232  164.1431 F   0  0  0  0  0  0  0  0  0  0  0  0
  131.5428  133.5622  162.1435 C   0  0  0  0  0  0  0  0  0  0  0  0
  131.0275  134.4190  161.1893 C   0  0  0  0  0  0  0  0  0  0  0  0
  129.4352  137.2358  160.6670 C   0  0  0  0  0  0  0  0  0  0  0  0
  129.6055  138.2108  159.7020 C   0  0  0  0  0  0  0  0  0  0  0  0
  129.8467  139.5194  160.0766 C   0  0  0  0  0  0  0  0  0  0  0  0
  129.9283  139.8510  161.4160 C   0  0  0  0  0  0  0  0  0  0  0  0
  130.1975  141.2765  161.8243 C   0  0  0  0  0  0  0  0  0  0  0  0
  130.3271  142.0726  160.6812 F   0  0  0  0  0  0  0  0  0  0  0  0
  129.1346  141.7474  162.6024 F   0  0  0  0  0  0  0  0  0  0  0  0
  131.3810  141.3328  162.5683 F   0  0  0  0  0  0  0  0  0  0  0  0
  129.7633  138.8751  162.3811 C   0  0  0  0  0  0  0  0  0  0  0  0
  129.5166  137.5675  162.0065 C   0  0  0  0  0  0  0  0  0  0  0  0
  130.2265  133.9319  157.2431 N   0  0  0  0  0  0  0  0  0  0  0  0
  130.7599  134.5011  156.6665 H   0  0  0  0  0  0  0  0  0  0  0  0
  129.9285  132.2734  154.5263 C   0  0  0  0  0  0  0  0  0  0  0  0
  130.3061  131.5407  153.4194 C   0  0  0  0  0  0  0  0  0  0  0  0
  130.2845  127.8813  152.9023 H   0  0  0  0  0  0  0  0  0  0  0  0
  129.4489  129.0509  151.8526 H   0  0  0  0  0  0  0  0  0  0  0  0
  130.6930  127.9750  151.1724 H   0  0  0  0  0  0  0  0  0  0  0  0
  132.4186  129.0956  152.5563 H   0  0  0  0  0  0  0  0  0  0  0  0
  131.5829  130.2652  151.5066 H   0  0  0  0  0  0  0  0  0  0  0  0
  132.0227  129.0670  154.9474 H   0  0  0  0  0  0  0  0  0  0  0  0
  131.3681  130.3657  156.9317 H   0  0  0  0  0  0  0  0  0  0  0  0
  128.7476  131.1927  158.1417 H   0  0  0  0  0  0  0  0  0  0  0  0
  130.3063  136.2439  158.5203 H   0  0  0  0  0  0  0  0  0  0  0  0
  127.9284  134.8406  162.4540 H   0  0  0  0  0  0  0  0  0  0  0  0
  128.8395  133.3069  164.1508 H   0  0  0  0  0  0  0  0  0  0  0  0
  132.5587  133.2060  162.0575 H   0  0  0  0  0  0  0  0  0  0  0  0
  131.6408  134.7317  160.3572 H   0  0  0  0  0  0  0  0  0  0  0  0
  129.5462  137.9509  158.6554 H   0  0  0  0  0  0  0  0  0  0  0  0
  129.9762  140.2819  159.3226 H   0  0  0  0  0  0  0  0  0  0  0  0
  129.8272  139.1342  163.4276 H   0  0  0  0  0  0  0  0  0  0  0  0
  129.3881  136.8049  162.7604 H   0  0  0  0  0  0  0  0  0  0  0  0
  129.3388  133.1702  154.4060 H   0  0  0  0  0  0  0  0  0  0  0  0
  130.0120  131.8653  152.4323 H   0  0  0  0  0  0  0  0  0  0  0  0
  1  2  1  0
  1 36  1  0
  1 37  1  0
  1 38  1  0
  2  3  1  0
  2 39  1  0
  2 40  1  0
  3 35  2  0
  3  4  1  0
  4  5  2  0
  4 41  1  0
  5  6  1  0
  5 42  1  0
  6  7  1  0
  6 34  2  0
  7 32  1  0
  7  8  2  0
  8  9  1  0
  8 43  1  0
  9 10  1  0
  9 11  1  0
 11 12  1  0
 11 32  2  0
 12 13  1  0
 12 44  1  0
 13 14  1  6
 13 15  1  0
 13 22  1  0
 15 21  1  0
 15 16  2  0
 16 17  1  0
 16 45  1  0
 17 18  2  0
 17 46  1  0
 18 19  1  0
 18 20  1  0
 20 21  2  0
 20 47  1  0
 21 48  1  0
 22 31  1  0
 22 23  2  0
 23 24  1  0
 23 49  1  0
 24 25  2  0
 24 50  1  0
 25 26  1  0
 25 30  1  0
 26 27  1  0
 26 28  1  0
 26 29  1  0
 30 31  2  0
 30 51  1  0
 31 52  1  0
 32 33  1  0
 34 35  1  0
 34 53  1  0
 35 54  1  0
M  CHG  1  32   1
M  END
>  <DOCK_score>  (1) 
-57.006317

>  <SMILES>  (1) 
CCc1ccc(-c2c[nH]c(N[C@@H](c3ccc(F)cc3)c3ccc(C(F)(F)F)cc3)[nH+]2)cc1

$$$$
