Fc1ccc(C[C@@H](Nc2[nH]cc(-c3ccc(-c4ccccc4)cc3)[nH+]2)C(F)F)cc1
     RDKit          3D

 51 54  0  0  1  0  0  0  0  0999 V2000
  125.1544  135.1765  160.9549 F   0  0  0  0  0  0  0  0  0  0  0  0
  126.4372  135.5749  161.0999 C   0  0  0  0  0  0  0  0  0  0  0  0
  127.1363  136.0695  160.0120 C   0  0  0  0  0  0  0  0  0  0  0  0
  128.4485  136.4762  160.1615 C   0  0  0  0  0  0  0  0  0  0  0  0
  129.0634  136.3890  161.3966 C   0  0  0  0  0  0  0  0  0  0  0  0
  130.4946  136.8324  161.5582 C   0  0  0  0  0  0  0  0  0  0  0  0
  131.4281  135.6507  161.2884 C   0  0  1  0  0  0  0  0  0  0  0  0
  131.0050  134.7462  161.7254 H   0  0  0  0  0  0  0  0  0  0  0  0
  131.5809  135.4691  159.8428 N   0  0  0  0  0  0  0  0  0  0  0  0
  131.2037  134.2757  159.2513 C   0  0  0  0  0  0  0  0  0  0  0  0
  130.6813  133.1997  159.9006 N   0  0  0  0  0  0  0  0  0  0  0  0
  130.5075  133.1318  160.8525 H   0  0  0  0  0  0  0  0  0  0  0  0
  130.4456  132.2276  158.9595 C   0  0  0  0  0  0  0  0  0  0  0  0
  130.8260  132.7388  157.7617 C   0  0  0  0  0  0  0  0  0  0  0  0
  130.7492  132.0461  156.4533 C   0  0  0  0  0  0  0  0  0  0  0  0
  129.9765  132.5837  155.4238 C   0  0  0  0  0  0  0  0  0  0  0  0
  129.9095  131.9428  154.2064 C   0  0  0  0  0  0  0  0  0  0  0  0
  130.6056  130.7510  154.0066 C   0  0  0  0  0  0  0  0  0  0  0  0
  130.5287  130.0580  152.6976 C   0  0  0  0  0  0  0  0  0  0  0  0
  130.6527  128.6713  152.6319 C   0  0  0  0  0  0  0  0  0  0  0  0
  130.5756  128.0314  151.4115 C   0  0  0  0  0  0  0  0  0  0  0  0
  130.3860  128.7650  150.2537 C   0  0  0  0  0  0  0  0  0  0  0  0
  130.2677  130.1416  150.3127 C   0  0  0  0  0  0  0  0  0  0  0  0
  130.3379  130.7917  151.5278 C   0  0  0  0  0  0  0  0  0  0  0  0
  131.3735  130.2104  155.0377 C   0  0  0  0  0  0  0  0  0  0  0  0
  131.4450  130.8537  156.2533 C   0  0  0  0  0  0  0  0  0  0  0  0
  131.2916  133.9956  157.9740 N   0  0  0  0  0  0  0  0  0  0  0  0
  131.6312  134.5928  157.2892 H   0  0  0  0  0  0  0  0  0  0  0  0
  132.7961  135.9281  161.9149 C   0  0  0  0  0  0  0  0  0  0  0  0
  133.4874  134.7228  162.0780 F   0  0  0  0  0  0  0  0  0  0  0  0
  133.5289  136.7765  161.0781 F   0  0  0  0  0  0  0  0  0  0  0  0
  128.3682  135.8901  162.4823 C   0  0  0  0  0  0  0  0  0  0  0  0
  127.0538  135.4884  162.3366 C   0  0  0  0  0  0  0  0  0  0  0  0
  126.6563  136.1371  159.0468 H   0  0  0  0  0  0  0  0  0  0  0  0
  128.9940  136.8621  159.3129 H   0  0  0  0  0  0  0  0  0  0  0  0
  130.6504  137.1939  162.5747 H   0  0  0  0  0  0  0  0  0  0  0  0
  130.7088  137.6335  160.8508 H   0  0  0  0  0  0  0  0  0  0  0  0
  131.9463  136.1852  159.2999 H   0  0  0  0  0  0  0  0  0  0  0  0
  130.0329  131.2456  159.1381 H   0  0  0  0  0  0  0  0  0  0  0  0
  129.4342  133.5046  155.5800 H   0  0  0  0  0  0  0  0  0  0  0  0
  129.3148  132.3614  153.4080 H   0  0  0  0  0  0  0  0  0  0  0  0
  130.8047  128.0983  153.5346 H   0  0  0  0  0  0  0  0  0  0  0  0
  130.6672  126.9566  151.3598 H   0  0  0  0  0  0  0  0  0  0  0  0
  130.3306  128.2608  149.3002 H   0  0  0  0  0  0  0  0  0  0  0  0
  130.1203  130.7090  149.4055 H   0  0  0  0  0  0  0  0  0  0  0  0
  130.2455  131.8668  151.5725 H   0  0  0  0  0  0  0  0  0  0  0  0
  131.9119  129.2870  154.8829 H   0  0  0  0  0  0  0  0  0  0  0  0
  132.0399  130.4352  157.0515 H   0  0  0  0  0  0  0  0  0  0  0  0
  132.6611  136.4037  162.8863 H   0  0  0  0  0  0  0  0  0  0  0  0
  128.8509  135.8179  163.4457 H   0  0  0  0  0  0  0  0  0  0  0  0
  126.5097  135.1024  163.1859 H   0  0  0  0  0  0  0  0  0  0  0  0
  1  2  1  0
  2 33  2  0
  2  3  1  0
  3  4  2  0
  3 34  1  0
  4  5  1  0
  4 35  1  0
  5  6  1  0
  5 32  2  0
  6  7  1  0
  6 36  1  0
  6 37  1  0
  7  8  1  1
  7  9  1  0
  7 29  1  0
  9 38  1  0
 10  9  1  0
 10 27  2  0
 10 11  1  0
 11 12  1  0
 11 13  1  0
 13 14  2  0
 13 39  1  0
 14 15  1  0
 14 27  1  0
 15 26  1  0
 15 16  2  0
 16 17  1  0
 16 40  1  0
 17 18  2  0
 17 41  1  0
 18 19  1  0
 18 25  1  0
 19 24  1  0
 19 20  2  0
 20 21  1  0
 20 42  1  0
 21 22  2  0
 21 43  1  0
 22 23  1  0
 22 44  1  0
 23 24  2  0
 23 45  1  0
 24 46  1  0
 25 26  2  0
 25 47  1  0
 26 48  1  0
 27 28  1  0
 29 30  1  0
 29 31  1  0
 29 49  1  0
 32 33  1  0
 32 50  1  0
 33 51  1  0
M  CHG  1  27   1
M  END
>  <DOCK_score>  (1) 
-60.684521

>  <SMILES>  (1) 
Fc1ccc(C[C@@H](Nc2[nH]cc(-c3ccc(-c4ccccc4)cc3)[nH+]2)C(F)F)cc1

$$$$
