Cc1cccnc1C1CCN(Cc2cnn(CCNc3cccc(CCC[NH3+])c3)c2)CC1
     RDKit          3D

 69 72  0  0  1  0  0  0  0  0999 V2000
  136.0215  140.3557  163.4784 C   0  0  0  0  0  0  0  0  0  0  0  0
  135.8127  139.8881  162.0611 C   0  0  0  0  0  0  0  0  0  0  0  0
  136.8031  140.0719  161.1079 C   0  0  0  0  0  0  0  0  0  0  0  0
  136.5652  139.6304  159.8156 C   0  0  0  0  0  0  0  0  0  0  0  0
  135.3592  139.0214  159.5231 C   0  0  0  0  0  0  0  0  0  0  0  0
  134.4420  138.8589  160.4564 N   0  0  0  0  0  0  0  0  0  0  0  0
  134.6339  139.2663  161.6960 C   0  0  0  0  0  0  0  0  0  0  0  0
  133.5527  139.0567  162.7246 C   0  0  0  0  0  0  0  0  0  0  0  0
  132.7495  137.8012  162.3741 C   0  0  0  0  0  0  0  0  0  0  0  0
  131.6156  137.6276  163.3872 C   0  0  0  0  0  0  0  0  0  0  0  0
  130.7462  138.8107  163.3582 N   0  0  0  0  0  0  0  0  0  0  0  0
  129.5698  138.6208  164.2173 C   0  0  0  0  0  0  0  0  0  0  0  0
  128.5458  137.7880  163.4900 C   0  0  0  0  0  0  0  0  0  0  0  0
  127.5244  138.2736  162.6670 C   0  0  0  0  0  0  0  0  0  0  0  0
  126.8422  137.2521  162.2165 N   0  0  0  0  0  0  0  0  0  0  0  0
  127.4118  136.0823  162.7354 N   0  0  0  0  0  0  0  0  0  0  0  0
  126.9565  134.7139  162.4771 C   0  0  0  0  0  0  0  0  0  0  0  0
  126.6766  134.5432  160.9827 C   0  0  0  0  0  0  0  0  0  0  0  0
  126.2213  133.1749  160.7244 N   0  0  0  0  0  0  0  0  0  0  0  0
  127.1494  132.1746  160.4265 C   0  0  0  0  0  0  0  0  0  0  0  0
  126.7376  131.0093  159.7919 C   0  0  0  0  0  0  0  0  0  0  0  0
  127.6585  130.0242  159.4950 C   0  0  0  0  0  0  0  0  0  0  0  0
  128.9879  130.1922  159.8375 C   0  0  0  0  0  0  0  0  0  0  0  0
  129.4004  131.3485  160.4734 C   0  0  0  0  0  0  0  0  0  0  0  0
  130.8499  131.5272  160.8450 C   0  0  0  0  0  0  0  0  0  0  0  0
  131.5930  132.2025  159.6905 C   0  0  0  0  0  0  0  0  0  0  0  0
  130.9661  133.5697  159.4109 C   0  0  0  0  0  0  0  0  0  0  0  0
  131.6796  134.2183  158.3026 N   0  0  0  0  0  0  0  0  0  0  0  0
  131.6127  133.6422  157.4767 H   0  0  0  0  0  0  0  0  0  0  0  0
  131.2662  135.1199  158.1181 H   0  0  0  0  0  0  0  0  0  0  0  0
  132.6501  134.3376  158.5515 H   0  0  0  0  0  0  0  0  0  0  0  0
  128.4852  132.3399  160.7692 C   0  0  0  0  0  0  0  0  0  0  0  0
  128.4523  136.4384  163.5175 C   0  0  0  0  0  0  0  0  0  0  0  0
  131.4848  140.0219  163.7375 C   0  0  0  0  0  0  0  0  0  0  0  0
  132.6147  140.2668  162.7349 C   0  0  0  0  0  0  0  0  0  0  0  0
  136.3831  139.5256  164.0853 H   0  0  0  0  0  0  0  0  0  0  0  0
  136.7554  141.1615  163.4908 H   0  0  0  0  0  0  0  0  0  0  0  0
  135.0770  140.7181  163.8843 H   0  0  0  0  0  0  0  0  0  0  0  0
  137.7362  140.5509  161.3656 H   0  0  0  0  0  0  0  0  0  0  0  0
  137.3125  139.7611  159.0469 H   0  0  0  0  0  0  0  0  0  0  0  0
  135.1663  138.6744  158.5189 H   0  0  0  0  0  0  0  0  0  0  0  0
  134.0041  138.9373  163.7096 H   0  0  0  0  0  0  0  0  0  0  0  0
  133.4034  136.9297  162.4071 H   0  0  0  0  0  0  0  0  0  0  0  0
  132.3306  137.9048  161.3732 H   0  0  0  0  0  0  0  0  0  0  0  0
  132.0359  137.5102  164.3860 H   0  0  0  0  0  0  0  0  0  0  0  0
  131.0331  136.7423  163.1319 H   0  0  0  0  0  0  0  0  0  0  0  0
  129.1399  139.5914  164.4642 H   0  0  0  0  0  0  0  0  0  0  0  0
  129.8677  138.1116  165.1339 H   0  0  0  0  0  0  0  0  0  0  0  0
  127.3324  139.3123  162.4418 H   0  0  0  0  0  0  0  0  0  0  0  0
  127.7294  134.0096  162.7848 H   0  0  0  0  0  0  0  0  0  0  0  0
  126.0443  134.5218  163.0420 H   0  0  0  0  0  0  0  0  0  0  0  0
  125.9037  135.2475  160.6750 H   0  0  0  0  0  0  0  0  0  0  0  0
  127.5887  134.7353  160.4178 H   0  0  0  0  0  0  0  0  0  0  0  0
  125.2753  132.9636  160.7602 H   0  0  0  0  0  0  0  0  0  0  0  0
  125.6989  130.8756  159.5280 H   0  0  0  0  0  0  0  0  0  0  0  0
  127.3395  129.1196  158.9985 H   0  0  0  0  0  0  0  0  0  0  0  0
  129.7055  129.4185  159.6075 H   0  0  0  0  0  0  0  0  0  0  0  0
  130.9223  132.1493  161.7371 H   0  0  0  0  0  0  0  0  0  0  0  0
  131.2966  130.5529  161.0442 H   0  0  0  0  0  0  0  0  0  0  0  0
  132.6414  132.3314  159.9594 H   0  0  0  0  0  0  0  0  0  0  0  0
  131.5207  131.5802  158.7985 H   0  0  0  0  0  0  0  0  0  0  0  0
  129.9177  133.4407  159.1420 H   0  0  0  0  0  0  0  0  0  0  0  0
  131.0384  134.1919  160.3029 H   0  0  0  0  0  0  0  0  0  0  0  0
  128.8081  133.2429  161.2660 H   0  0  0  0  0  0  0  0  0  0  0  0
  129.0976  135.7664  164.0637 H   0  0  0  0  0  0  0  0  0  0  0  0
  130.8073  140.8757  163.7369 H   0  0  0  0  0  0  0  0  0  0  0  0
  131.9057  139.8932  164.7347 H   0  0  0  0  0  0  0  0  0  0  0  0
  133.1724  141.1572  163.0255 H   0  0  0  0  0  0  0  0  0  0  0  0
  132.1935  140.4094  161.7397 H   0  0  0  0  0  0  0  0  0  0  0  0
  1  2  1  0
  1 36  1  0
  1 37  1  0
  1 38  1  0
  2  7  2  0
  2  3  1  0
  3  4  2  0
  3 39  1  0
  4  5  1  0
  4 40  1  0
  5  6  2  0
  5 41  1  0
  6  7  1  0
  7  8  1  0
  8 35  1  0
  8  9  1  0
  8 42  1  0
  9 10  1  0
  9 43  1  0
  9 44  1  0
 10 11  1  0
 10 45  1  0
 10 46  1  0
 11 12  1  0
 11 34  1  0
 12 13  1  0
 12 47  1  0
 12 48  1  0
 13 33  2  0
 13 14  1  0
 14 15  2  0
 14 49  1  0
 15 16  1  0
 16 17  1  0
 16 33  1  0
 17 18  1  0
 17 50  1  0
 17 51  1  0
 18 19  1  0
 18 52  1  0
 18 53  1  0
 19 20  1  0
 19 54  1  0
 20 32  1  0
 20 21  2  0
 21 22  1  0
 21 55  1  0
 22 23  2  0
 22 56  1  0
 23 24  1  0
 23 57  1  0
 24 25  1  0
 24 32  2  0
 25 26  1  0
 25 58  1  0
 25 59  1  0
 26 27  1  0
 26 60  1  0
 26 61  1  0
 27 28  1  0
 27 62  1  0
 27 63  1  0
 28 29  1  0
 28 30  1  0
 28 31  1  0
 32 64  1  0
 33 65  1  0
 34 35  1  0
 34 66  1  0
 34 67  1  0
 35 68  1  0
 35 69  1  0
M  CHG  1  28   1
M  END
>  <DOCK_score>  (1) 
-42.068825

>  <SMILES>  (1) 
Cc1cccnc1C1CCN(Cc2cnn(CCNc3cccc(CCC[NH3+])c3)c2)CC1

$$$$
