CC1(C)C(Nc2ccc(-c3n[nH]cc3C[NH2+]CC3C[C@H]4CC[C@H]4C3)o2)C[C@@H]1O
     RDKit          3D

 61 65  0  0  1  0  0  0  0  0999 V2000
  126.4064  139.9921  163.3330 C   0  0  0  0  0  0  0  0  0  0  0  0
  126.6935  138.6087  163.9198 C   0  0  0  0  0  0  0  0  0  0  0  0
  125.4742  137.9872  164.6040 C   0  0  0  0  0  0  0  0  0  0  0  0
  127.4006  137.6583  162.9392 C   0  0  2  0  0  0  0  0  0  0  0  0
  126.5230  136.6210  162.3914 N   0  0  0  0  0  0  0  0  0  0  0  0
  127.0262  135.6895  161.4906 C   0  0  0  0  0  0  0  0  0  0  0  0
  126.3214  134.6844  160.9137 C   0  0  0  0  0  0  0  0  0  0  0  0
  127.2114  133.9890  160.0715 C   0  0  0  0  0  0  0  0  0  0  0  0
  128.4194  134.6018  160.1835 C   0  0  0  0  0  0  0  0  0  0  0  0
  129.6573  134.2100  159.4785 C   0  0  0  0  0  0  0  0  0  0  0  0
  129.7846  133.2071  158.6322 N   0  0  0  0  0  0  0  0  0  0  0  0
  131.1131  133.1774  158.1898 N   0  0  0  0  0  0  0  0  0  0  0  0
  131.4893  132.5421  157.5606 H   0  0  0  0  0  0  0  0  0  0  0  0
  131.7802  134.1864  158.7908 C   0  0  0  0  0  0  0  0  0  0  0  0
  130.9133  134.8426  159.5913 C   0  0  0  0  0  0  0  0  0  0  0  0
  131.2295  136.0414  160.4481 C   0  0  0  0  0  0  0  0  0  0  0  0
  131.0043  137.2695  159.6740 N   0  0  0  0  0  0  0  0  0  0  0  0
  131.6027  137.2695  158.8616 H   0  0  0  0  0  0  0  0  0  0  0  0
  130.0395  137.3104  159.3812 H   0  0  0  0  0  0  0  0  0  0  0  0
  131.3124  138.4382  160.5091 C   0  0  0  0  0  0  0  0  0  0  0  0
  132.7752  138.3763  160.9532 C   0  0  2  0  0  0  0  0  0  0  0  0
  133.1218  139.6195  161.7837 C   0  0  0  0  0  0  0  0  0  0  0  0
  134.2617  140.3534  161.0511 C   0  0  1  0  0  0  0  0  0  0  0  0
  134.0069  141.3333  160.6477 H   0  0  0  0  0  0  0  0  0  0  0  0
  135.6048  140.2629  161.7980 C   0  0  0  0  0  0  0  0  0  0  0  0
  135.7555  138.8549  161.1981 C   0  0  0  0  0  0  0  0  0  0  0  0
  134.8522  139.3320  160.0526 C   0  0  1  0  0  0  0  0  0  0  0  0
  135.3586  139.7496  159.1824 H   0  0  0  0  0  0  0  0  0  0  0  0
  133.6951  138.3759  159.7232 C   0  0  0  0  0  0  0  0  0  0  0  0
  128.2926  135.6333  161.0447 O   0  0  0  0  0  0  0  0  0  0  0  0
  128.2459  137.1828  164.1326 C   0  0  0  0  0  0  0  0  0  0  0  0
  127.9724  138.5543  164.7720 C   0  0  2  0  0  0  0  0  0  0  0  0
  128.7063  139.3154  164.5070 H   0  0  0  0  0  0  0  0  0  0  0  0
  127.7216  138.4909  166.1774 O   0  0  0  0  0  0  0  0  0  0  0  0
  125.6910  139.8989  162.5158 H   0  0  0  0  0  0  0  0  0  0  0  0
  125.9908  140.6364  164.1078 H   0  0  0  0  0  0  0  0  0  0  0  0
  127.3326  140.4269  162.9572 H   0  0  0  0  0  0  0  0  0  0  0  0
  125.7835  137.1080  165.1692 H   0  0  0  0  0  0  0  0  0  0  0  0
  125.0269  138.7154  165.2807 H   0  0  0  0  0  0  0  0  0  0  0  0
  124.7435  137.6956  163.8496 H   0  0  0  0  0  0  0  0  0  0  0  0
  127.9777  138.1734  162.1713 H   0  0  0  0  0  0  0  0  0  0  0  0
  125.5910  136.5841  162.6573 H   0  0  0  0  0  0  0  0  0  0  0  0
  125.2759  134.4618  161.0677 H   0  0  0  0  0  0  0  0  0  0  0  0
  126.9790  133.1321  159.4566 H   0  0  0  0  0  0  0  0  0  0  0  0
  132.8245  134.4265  158.6547 H   0  0  0  0  0  0  0  0  0  0  0  0
  130.5831  136.0415  161.3257 H   0  0  0  0  0  0  0  0  0  0  0  0
  132.2717  135.9973  160.7643 H   0  0  0  0  0  0  0  0  0  0  0  0
  131.1452  139.3494  159.9348 H   0  0  0  0  0  0  0  0  0  0  0  0
  130.6659  138.4382  161.3867 H   0  0  0  0  0  0  0  0  0  0  0  0
  132.9454  137.4763  161.5440 H   0  0  0  0  0  0  0  0  0  0  0  0
  132.2500  140.2694  161.8592 H   0  0  0  0  0  0  0  0  0  0  0  0
  133.4502  139.3203  162.7791 H   0  0  0  0  0  0  0  0  0  0  0  0
  136.3517  140.9718  161.4404 H   0  0  0  0  0  0  0  0  0  0  0  0
  135.5021  140.2678  162.8832 H   0  0  0  0  0  0  0  0  0  0  0  0
  135.3087  138.0700  161.8086 H   0  0  0  0  0  0  0  0  0  0  0  0
  136.7725  138.6207  160.8838 H   0  0  0  0  0  0  0  0  0  0  0  0
  134.0787  137.3717  159.5427 H   0  0  0  0  0  0  0  0  0  0  0  0
  133.1513  138.7327  158.8486 H   0  0  0  0  0  0  0  0  0  0  0  0
  127.8019  136.3502  164.6782 H   0  0  0  0  0  0  0  0  0  0  0  0
  129.2948  137.0173  163.8863 H   0  0  0  0  0  0  0  0  0  0  0  0
  128.5221  138.4566  166.7186 H   0  0  0  0  0  0  0  0  0  0  0  0
  1  2  1  0
  1 35  1  0
  1 36  1  0
  1 37  1  0
  2 32  1  0
  2  3  1  0
  2  4  1  0
  3 38  1  0
  3 39  1  0
  3 40  1  0
  4  5  1  0
  4 31  1  0
  4 41  1  6
  5  6  1  0
  5 42  1  0
  6 30  1  0
  6  7  2  0
  7  8  1  0
  7 43  1  0
  8  9  2  0
  8 44  1  0
  9 10  1  0
  9 30  1  0
 10 15  1  0
 10 11  2  0
 11 12  1  0
 12 13  1  0
 12 14  1  0
 14 15  2  0
 14 45  1  0
 15 16  1  0
 16 17  1  0
 16 46  1  0
 16 47  1  0
 17 18  1  0
 17 19  1  0
 17 20  1  0
 20 21  1  0
 20 48  1  0
 20 49  1  0
 21 29  1  0
 21 22  1  0
 21 50  1  1
 22 23  1  0
 22 51  1  0
 22 52  1  0
 23 24  1  6
 23 27  1  0
 23 25  1  0
 25 26  1  0
 25 53  1  0
 25 54  1  0
 26 27  1  0
 26 55  1  0
 26 56  1  0
 27 28  1  6
 27 29  1  0
 29 57  1  0
 29 58  1  0
 31 32  1  0
 31 59  1  0
 31 60  1  0
 32 33  1  1
 32 34  1  0
 34 61  1  0
M  CHG  1  17   1
M  END
>  <DOCK_score>  (1) 
-44.36277

>  <SMILES>  (1) 
CC1(C)C(Nc2ccc(-c3n[nH]cc3C[NH2+]CC3C[C@H]4CC[C@H]4C3)o2)C[C@@H]1O

$$$$
