O=C(Nc1ccc(C[NH2+]C(Cc2ccccc2F)Cc2ccccc2F)cc1)c1ccc(F)cc1
     RDKit          3D

 61 64  0  0  0  0  0  0  0  0999 V2000
  126.6965  138.8892  162.7463 O   0  0  0  0  0  0  0  0  0  0  0  0
  127.4869  138.6103  163.6270 C   0  0  0  0  0  0  0  0  0  0  0  0
  128.5608  137.8447  163.3508 N   0  0  0  0  0  0  0  0  0  0  0  0
  128.7632  137.3655  162.0525 C   0  0  0  0  0  0  0  0  0  0  0  0
  130.0524  137.1481  161.5839 C   0  0  0  0  0  0  0  0  0  0  0  0
  130.2486  136.6701  160.3031 C   0  0  0  0  0  0  0  0  0  0  0  0
  129.1635  136.4179  159.4840 C   0  0  0  0  0  0  0  0  0  0  0  0
  129.3814  135.9017  158.0850 C   0  0  0  0  0  0  0  0  0  0  0  0
  130.3825  134.8269  158.1100 N   0  0  0  0  0  0  0  0  0  0  0  0
  130.5284  134.4814  157.1732 H   0  0  0  0  0  0  0  0  0  0  0  0
  131.2520  135.1857  158.4753 H   0  0  0  0  0  0  0  0  0  0  0  0
  129.9056  133.7331  158.9667 C   0  0  0  0  0  0  0  0  0  0  0  0
  128.9064  132.8746  158.1887 C   0  0  0  0  0  0  0  0  0  0  0  0
  129.5802  132.3003  156.9692 C   0  0  0  0  0  0  0  0  0  0  0  0
  130.2148  131.0745  157.0429 C   0  0  0  0  0  0  0  0  0  0  0  0
  130.8326  130.5473  155.9243 C   0  0  0  0  0  0  0  0  0  0  0  0
  130.8168  131.2453  154.7310 C   0  0  0  0  0  0  0  0  0  0  0  0
  130.1835  132.4710  154.6550 C   0  0  0  0  0  0  0  0  0  0  0  0
  129.5590  132.9974  155.7734 C   0  0  0  0  0  0  0  0  0  0  0  0
  128.9342  134.1929  155.6989 F   0  0  0  0  0  0  0  0  0  0  0  0
  131.0922  132.8693  159.3988 C   0  0  0  0  0  0  0  0  0  0  0  0
  131.8110  133.5387  160.5417 C   0  0  0  0  0  0  0  0  0  0  0  0
  131.4417  133.2659  161.8455 C   0  0  0  0  0  0  0  0  0  0  0  0
  132.1011  133.8795  162.8940 C   0  0  0  0  0  0  0  0  0  0  0  0
  133.1304  134.7671  162.6400 C   0  0  0  0  0  0  0  0  0  0  0  0
  133.5009  135.0417  161.3376 C   0  0  0  0  0  0  0  0  0  0  0  0
  132.8452  134.4229  160.2865 C   0  0  0  0  0  0  0  0  0  0  0  0
  133.2106  134.6862  159.0128 F   0  0  0  0  0  0  0  0  0  0  0  0
  127.8787  136.6386  159.9453 C   0  0  0  0  0  0  0  0  0  0  0  0
  127.6755  137.1117  161.2270 C   0  0  0  0  0  0  0  0  0  0  0  0
  127.2702  139.1110  164.9994 C   0  0  0  0  0  0  0  0  0  0  0  0
  127.7762  138.4030  166.0918 C   0  0  0  0  0  0  0  0  0  0  0  0
  127.5759  138.8778  167.3701 C   0  0  0  0  0  0  0  0  0  0  0  0
  126.8637  140.0500  167.5735 C   0  0  0  0  0  0  0  0  0  0  0  0
  126.6651  140.5077  168.8290 F   0  0  0  0  0  0  0  0  0  0  0  0
  126.3542  140.7538  166.4929 C   0  0  0  0  0  0  0  0  0  0  0  0
  126.5535  140.2911  165.2099 C   0  0  0  0  0  0  0  0  0  0  0  0
  129.1916  137.6219  164.0534 H   0  0  0  0  0  0  0  0  0  0  0  0
  130.9004  137.3489  162.2218 H   0  0  0  0  0  0  0  0  0  0  0  0
  131.2508  136.4969  159.9396 H   0  0  0  0  0  0  0  0  0  0  0  0
  128.4422  135.5141  157.6902 H   0  0  0  0  0  0  0  0  0  0  0  0
  129.7354  136.7134  157.4493 H   0  0  0  0  0  0  0  0  0  0  0  0
  129.4183  134.1486  159.8488 H   0  0  0  0  0  0  0  0  0  0  0  0
  128.5524  132.0630  158.8244 H   0  0  0  0  0  0  0  0  0  0  0  0
  128.0610  133.4901  157.8807 H   0  0  0  0  0  0  0  0  0  0  0  0
  130.2283  130.5287  157.9746 H   0  0  0  0  0  0  0  0  0  0  0  0
  131.3281  129.5894  155.9828 H   0  0  0  0  0  0  0  0  0  0  0  0
  131.3002  130.8325  153.8578 H   0  0  0  0  0  0  0  0  0  0  0  0
  130.1717  133.0162  153.7229 H   0  0  0  0  0  0  0  0  0  0  0  0
  130.7323  131.8914  159.7189 H   0  0  0  0  0  0  0  0  0  0  0  0
  131.7775  132.7476  158.5601 H   0  0  0  0  0  0  0  0  0  0  0  0
  130.6374  132.5733  162.0450 H   0  0  0  0  0  0  0  0  0  0  0  0
  131.8118  133.6656  163.9123 H   0  0  0  0  0  0  0  0  0  0  0  0
  133.6446  135.2461  163.4601 H   0  0  0  0  0  0  0  0  0  0  0  0
  134.3047  135.7353  161.1395 H   0  0  0  0  0  0  0  0  0  0  0  0
  127.0334  136.4413  159.3029 H   0  0  0  0  0  0  0  0  0  0  0  0
  126.6719  137.2842  161.5866 H   0  0  0  0  0  0  0  0  0  0  0  0
  128.3270  137.4874  165.9348 H   0  0  0  0  0  0  0  0  0  0  0  0
  127.9703  138.3333  168.2154 H   0  0  0  0  0  0  0  0  0  0  0  0
  125.7998  141.6661  166.6569 H   0  0  0  0  0  0  0  0  0  0  0  0
  126.1559  140.8400  164.3690 H   0  0  0  0  0  0  0  0  0  0  0  0
  1  2  2  0
  2  3  1  0
  2 31  1  0
  3  4  1  0
  3 38  1  0
  4 30  1  0
  4  5  2  0
  5  6  1  0
  5 39  1  0
  6  7  2  0
  6 40  1  0
  7  8  1  0
  7 29  1  0
  8  9  1  0
  8 41  1  0
  8 42  1  0
  9 10  1  0
  9 11  1  0
  9 12  1  0
 12 13  1  0
 12 21  1  0
 12 43  1  0
 13 14  1  0
 13 44  1  0
 13 45  1  0
 14 19  1  0
 14 15  2  0
 15 16  1  0
 15 46  1  0
 16 17  2  0
 16 47  1  0
 17 18  1  0
 17 48  1  0
 18 19  2  0
 18 49  1  0
 19 20  1  0
 21 22  1  0
 21 50  1  0
 21 51  1  0
 22 27  1  0
 22 23  2  0
 23 24  1  0
 23 52  1  0
 24 25  2  0
 24 53  1  0
 25 26  1  0
 25 54  1  0
 26 27  2  0
 26 55  1  0
 27 28  1  0
 29 30  2  0
 29 56  1  0
 30 57  1  0
 31 37  1  0
 31 32  2  0
 32 33  1  0
 32 58  1  0
 33 34  2  0
 33 59  1  0
 34 35  1  0
 34 36  1  0
 36 37  2  0
 36 60  1  0
 37 61  1  0
M  CHG  1   9   1
M  END
>  <DOCK_score>  (1) 
-45.662067

>  <SMILES>  (1) 
O=C(Nc1ccc(C[NH2+]C(Cc2ccccc2F)Cc2ccccc2F)cc1)c1ccc(F)cc1

$$$$
