Nc1ccc(-c2c[nH]c(Nc3ccc(O)c(CCO)c3)[nH+]2)cc1
     RDKit          3D

 42 44  0  0  1  0  0  0  0  0999 V2000
  131.0302  129.4079  152.1229 N   0  0  0  0  0  0  0  0  0  0  0  0
  130.8115  130.1013  153.3158 C   0  0  0  0  0  0  0  0  0  0  0  0
  129.9542  131.1956  153.3352 C   0  0  0  0  0  0  0  0  0  0  0  0
  129.7366  131.8812  154.5117 C   0  0  0  0  0  0  0  0  0  0  0  0
  130.3769  131.4762  155.6819 C   0  0  0  0  0  0  0  0  0  0  0  0
  130.1448  132.2124  156.9487 C   0  0  0  0  0  0  0  0  0  0  0  0
  129.6261  131.6940  158.0895 C   0  0  0  0  0  0  0  0  0  0  0  0
  129.5852  132.7148  159.0089 N   0  0  0  0  0  0  0  0  0  0  0  0
  129.2629  132.6535  159.9216 H   0  0  0  0  0  0  0  0  0  0  0  0
  130.0806  133.8276  158.4016 C   0  0  0  0  0  0  0  0  0  0  0  0
  130.2112  135.0759  158.9875 N   0  0  0  0  0  0  0  0  0  0  0  0
  129.3202  135.4749  159.9910 C   0  0  0  0  0  0  0  0  0  0  0  0
  129.7374  136.3557  160.9808 C   0  0  0  0  0  0  0  0  0  0  0  0
  128.8596  136.7444  161.9730 C   0  0  0  0  0  0  0  0  0  0  0  0
  127.5581  136.2639  161.9757 C   0  0  0  0  0  0  0  0  0  0  0  0
  126.6926  136.6518  162.9503 O   0  0  0  0  0  0  0  0  0  0  0  0
  127.1392  135.3885  160.9850 C   0  0  0  0  0  0  0  0  0  0  0  0
  125.7255  134.8667  160.9893 C   0  0  0  0  0  0  0  0  0  0  0  0
  125.6619  133.5724  161.8028 C   0  0  0  0  0  0  0  0  0  0  0  0
  124.3213  133.0778  161.8068 O   0  0  0  0  0  0  0  0  0  0  0  0
  128.0175  134.9944  159.9946 C   0  0  0  0  0  0  0  0  0  0  0  0
  130.4086  133.5244  157.1690 N   0  0  0  0  0  0  0  0  0  0  0  0
  130.7820  134.1398  156.5190 H   0  0  0  0  0  0  0  0  0  0  0  0
  131.2402  130.3819  155.6586 C   0  0  0  0  0  0  0  0  0  0  0  0
  131.4508  129.6961  154.4810 C   0  0  0  0  0  0  0  0  0  0  0  0
  130.5839  129.6907  151.3089 H   0  0  0  0  0  0  0  0  0  0  0  0
  131.6280  128.6449  152.1080 H   0  0  0  0  0  0  0  0  0  0  0  0
  129.4586  131.5093  152.4284 H   0  0  0  0  0  0  0  0  0  0  0  0
  129.0703  132.7309  154.5267 H   0  0  0  0  0  0  0  0  0  0  0  0
  129.3062  130.6742  158.2455 H   0  0  0  0  0  0  0  0  0  0  0  0
  130.9201  135.6736  158.7026 H   0  0  0  0  0  0  0  0  0  0  0  0
  130.7493  136.7330  160.9764 H   0  0  0  0  0  0  0  0  0  0  0  0
  129.1849  137.4264  162.7448 H   0  0  0  0  0  0  0  0  0  0  0  0
  127.0747  137.2624  163.5953 H   0  0  0  0  0  0  0  0  0  0  0  0
  125.0652  135.6099  161.4366 H   0  0  0  0  0  0  0  0  0  0  0  0
  125.4081  134.6684  159.9655 H   0  0  0  0  0  0  0  0  0  0  0  0
  126.3221  132.8293  161.3553 H   0  0  0  0  0  0  0  0  0  0  0  0
  125.9792  133.7710  162.8265 H   0  0  0  0  0  0  0  0  0  0  0  0
  124.2064  132.2571  162.3053 H   0  0  0  0  0  0  0  0  0  0  0  0
  127.6913  134.3125  159.2233 H   0  0  0  0  0  0  0  0  0  0  0  0
  131.7408  130.0692  156.5631 H   0  0  0  0  0  0  0  0  0  0  0  0
  132.1162  128.8456  154.4635 H   0  0  0  0  0  0  0  0  0  0  0  0
  1  2  1  0
  1 26  1  0
  1 27  1  0
  2 25  2  0
  2  3  1  0
  3  4  2  0
  3 28  1  0
  4  5  1  0
  4 29  1  0
  5  6  1  0
  5 24  2  0
  6 22  1  0
  6  7  2  0
  7  8  1  0
  7 30  1  0
  8  9  1  0
  8 10  1  0
 10 11  1  0
 10 22  2  0
 11 12  1  0
 11 31  1  0
 12 21  1  0
 12 13  2  0
 13 14  1  0
 13 32  1  0
 14 15  2  0
 14 33  1  0
 15 16  1  0
 15 17  1  0
 16 34  1  0
 17 18  1  0
 17 21  2  0
 18 19  1  0
 18 35  1  0
 18 36  1  0
 19 20  1  0
 19 37  1  0
 19 38  1  0
 20 39  1  0
 21 40  1  0
 22 23  1  0
 24 25  1  0
 24 41  1  0
 25 42  1  0
M  CHG  1  22   1
M  END
>  <DOCK_score>  (1) 
-50.611973

>  <SMILES>  (1) 
Nc1ccc(-c2c[nH]c(Nc3ccc(O)c(CCO)c3)[nH+]2)cc1

$$$$
