CCc1ccc(-c2c[nH]c(N[C@@H](Cc3ccc(N)cc3)c3ncccc3C3CC3)[nH+]2)cc1
     RDKit          3D

 62 66  0  0  1  0  0  0  0  0999 V2000
  130.5752  128.4252  151.6387 C   0  0  0  0  0  0  0  0  0  0  0  0
  131.6682  129.4303  152.0067 C   0  0  0  0  0  0  0  0  0  0  0  0
  131.2798  130.1550  153.2697 C   0  0  0  0  0  0  0  0  0  0  0  0
  131.6559  129.6462  154.4993 C   0  0  0  0  0  0  0  0  0  0  0  0
  131.3071  130.3081  155.6590 C   0  0  0  0  0  0  0  0  0  0  0  0
  130.5653  131.4860  155.5898 C   0  0  0  0  0  0  0  0  0  0  0  0
  130.1830  132.1992  156.8329 C   0  0  0  0  0  0  0  0  0  0  0  0
  129.4340  131.6944  157.8444 C   0  0  0  0  0  0  0  0  0  0  0  0
  129.3241  132.6837  158.7911 N   0  0  0  0  0  0  0  0  0  0  0  0
  128.8457  132.6228  159.6328 H   0  0  0  0  0  0  0  0  0  0  0  0
  130.0098  133.7651  158.3301 C   0  0  0  0  0  0  0  0  0  0  0  0
  130.1440  134.9755  158.9884 N   0  0  0  0  0  0  0  0  0  0  0  0
  129.0841  135.4428  159.8853 C   0  0  1  0  0  0  0  0  0  0  0  0
  128.9432  134.7202  160.6891 H   0  0  0  0  0  0  0  0  0  0  0  0
  129.4791  136.7962  160.4799 C   0  0  0  0  0  0  0  0  0  0  0  0
  130.7636  136.6490  161.2541 C   0  0  0  0  0  0  0  0  0  0  0  0
  131.0671  135.4459  161.8643 C   0  0  0  0  0  0  0  0  0  0  0  0
  132.2461  135.3058  162.5700 C   0  0  0  0  0  0  0  0  0  0  0  0
  133.1222  136.3785  162.6753 C   0  0  0  0  0  0  0  0  0  0  0  0
  134.3128  136.2426  163.3929 N   0  0  0  0  0  0  0  0  0  0  0  0
  132.8112  137.5877  162.0661 C   0  0  0  0  0  0  0  0  0  0  0  0
  131.6333  137.7191  161.3574 C   0  0  0  0  0  0  0  0  0  0  0  0
  127.7995  135.5899  159.1112 C   0  0  0  0  0  0  0  0  0  0  0  0
  127.8426  135.8951  157.8289 N   0  0  0  0  0  0  0  0  0  0  0  0
  126.7449  136.0284  157.1106 C   0  0  0  0  0  0  0  0  0  0  0  0
  125.4990  135.8624  157.6859 C   0  0  0  0  0  0  0  0  0  0  0  0
  125.4137  135.5467  159.0331 C   0  0  0  0  0  0  0  0  0  0  0  0
  126.5900  135.4091  159.7544 C   0  0  0  0  0  0  0  0  0  0  0  0
  126.5498  135.0662  161.2214 C   0  0  0  0  0  0  0  0  0  0  0  0
  126.7675  133.6028  161.6110 C   0  0  0  0  0  0  0  0  0  0  0  0
  125.3732  134.2235  161.7179 C   0  0  0  0  0  0  0  0  0  0  0  0
  130.5259  133.4700  157.1620 N   0  0  0  0  0  0  0  0  0  0  0  0
  131.0653  134.0657  156.6187 H   0  0  0  0  0  0  0  0  0  0  0  0
  130.1844  131.9915  154.3481 C   0  0  0  0  0  0  0  0  0  0  0  0
  130.5433  131.3240  153.1947 C   0  0  0  0  0  0  0  0  0  0  0  0
  130.4564  127.7054  152.4486 H   0  0  0  0  0  0  0  0  0  0  0  0
  129.6346  128.9525  151.4804 H   0  0  0  0  0  0  0  0  0  0  0  0
  130.8562  127.9011  150.7252 H   0  0  0  0  0  0  0  0  0  0  0  0
  132.6088  128.9035  152.1647 H   0  0  0  0  0  0  0  0  0  0  0  0
  131.7869  130.1507  151.1965 H   0  0  0  0  0  0  0  0  0  0  0  0
  132.2271  128.7310  154.5520 H   0  0  0  0  0  0  0  0  0  0  0  0
  131.6054  129.9122  156.6186 H   0  0  0  0  0  0  0  0  0  0  0  0
  129.0055  130.7044  157.8956 H   0  0  0  0  0  0  0  0  0  0  0  0
  130.9397  135.5141  158.8559 H   0  0  0  0  0  0  0  0  0  0  0  0
  129.6200  137.5189  159.6762 H   0  0  0  0  0  0  0  0  0  0  0  0
  128.6904  137.1440  161.1470 H   0  0  0  0  0  0  0  0  0  0  0  0
  130.3835  134.6136  161.7858 H   0  0  0  0  0  0  0  0  0  0  0  0
  132.4846  134.3646  163.0427 H   0  0  0  0  0  0  0  0  0  0  0  0
  134.9237  136.9919  163.4659 H   0  0  0  0  0  0  0  0  0  0  0  0
  134.5286  135.3974  163.8181 H   0  0  0  0  0  0  0  0  0  0  0  0
  133.4899  138.4240  162.1468 H   0  0  0  0  0  0  0  0  0  0  0  0
  131.3910  138.6589  160.8836 H   0  0  0  0  0  0  0  0  0  0  0  0
  126.8200  136.2740  156.0616 H   0  0  0  0  0  0  0  0  0  0  0  0
  124.6034  135.9776  157.0934 H   0  0  0  0  0  0  0  0  0  0  0  0
  124.4540  135.4114  159.5095 H   0  0  0  0  0  0  0  0  0  0  0  0
  126.9409  135.8299  161.8935 H   0  0  0  0  0  0  0  0  0  0  0  0
  126.9398  132.8880  160.8064 H   0  0  0  0  0  0  0  0  0  0  0  0
  127.3021  133.4034  162.5398 H   0  0  0  0  0  0  0  0  0  0  0  0
  124.9906  134.4326  162.7170 H   0  0  0  0  0  0  0  0  0  0  0  0
  124.6283  133.9171  160.9835 H   0  0  0  0  0  0  0  0  0  0  0  0
  129.6092  132.9037  154.2885 H   0  0  0  0  0  0  0  0  0  0  0  0
  130.2484  131.7146  152.2319 H   0  0  0  0  0  0  0  0  0  0  0  0
  1  2  1  0
  1 36  1  0
  1 37  1  0
  1 38  1  0
  2  3  1  0
  2 39  1  0
  2 40  1  0
  3 35  2  0
  3  4  1  0
  4  5  2  0
  4 41  1  0
  5  6  1  0
  5 42  1  0
  6  7  1  0
  6 34  2  0
  7 32  1  0
  7  8  2  0
  8  9  1  0
  8 43  1  0
  9 10  1  0
  9 11  1  0
 11 12  1  0
 11 32  2  0
 12 13  1  0
 12 44  1  0
 13 14  1  1
 13 15  1  0
 13 23  1  0
 15 16  1  0
 15 45  1  0
 15 46  1  0
 16 22  1  0
 16 17  2  0
 17 18  1  0
 17 47  1  0
 18 19  2  0
 18 48  1  0
 19 20  1  0
 19 21  1  0
 20 49  1  0
 20 50  1  0
 21 22  2  0
 21 51  1  0
 22 52  1  0
 23 28  1  0
 23 24  2  0
 24 25  1  0
 25 26  2  0
 25 53  1  0
 26 27  1  0
 26 54  1  0
 27 28  2  0
 27 55  1  0
 28 29  1  0
 29 31  1  0
 29 30  1  0
 29 56  1  0
 30 31  1  0
 30 57  1  0
 30 58  1  0
 31 59  1  0
 31 60  1  0
 32 33  1  0
 34 35  1  0
 34 61  1  0
 35 62  1  0
M  CHG  1  32   1
M  END
>  <DOCK_score>  (1) 
-61.094585

>  <SMILES>  (1) 
CCc1ccc(-c2c[nH]c(N[C@@H](Cc3ccc(N)cc3)c3ncccc3C3CC3)[nH+]2)cc1

$$$$
