Nc1ccc(Nc2[nH]cc(-c3ccc(N)cc3)[nH+]2)cc1
     RDKit          3D

 36 38  0  0  1  0  0  0  0  0999 V2000
  126.5172  136.4126  162.7912 N   0  0  0  0  0  0  0  0  0  0  0  0
  127.4300  136.0713  161.7866 C   0  0  0  0  0  0  0  0  0  0  0  0
  128.6389  135.4747  162.1202 C   0  0  0  0  0  0  0  0  0  0  0  0
  129.5419  135.1434  161.1297 C   0  0  0  0  0  0  0  0  0  0  0  0
  129.2365  135.3967  159.7988 C   0  0  0  0  0  0  0  0  0  0  0  0
  130.1499  135.0549  158.7935 N   0  0  0  0  0  0  0  0  0  0  0  0
  130.0962  133.8019  158.2059 C   0  0  0  0  0  0  0  0  0  0  0  0
  129.6767  132.6586  158.8137 N   0  0  0  0  0  0  0  0  0  0  0  0
  129.3648  132.5751  159.7283 H   0  0  0  0  0  0  0  0  0  0  0  0
  129.7743  131.6446  157.8909 C   0  0  0  0  0  0  0  0  0  0  0  0
  130.2587  132.1959  156.7505 C   0  0  0  0  0  0  0  0  0  0  0  0
  130.5342  131.4773  155.4821 C   0  0  0  0  0  0  0  0  0  0  0  0
  129.8692  131.8444  154.3132 C   0  0  0  0  0  0  0  0  0  0  0  0
  130.1311  131.1789  153.1343 C   0  0  0  0  0  0  0  0  0  0  0  0
  131.0487  130.1355  153.1131 C   0  0  0  0  0  0  0  0  0  0  0  0
  131.3079  129.4591  151.9187 N   0  0  0  0  0  0  0  0  0  0  0  0
  131.7090  129.7640  154.2786 C   0  0  0  0  0  0  0  0  0  0  0  0
  131.4545  130.4305  155.4586 C   0  0  0  0  0  0  0  0  0  0  0  0
  130.4463  133.5203  156.9743 N   0  0  0  0  0  0  0  0  0  0  0  0
  130.7860  134.1575  156.3266 H   0  0  0  0  0  0  0  0  0  0  0  0
  128.0279  135.9938  159.4651 C   0  0  0  0  0  0  0  0  0  0  0  0
  127.1273  136.3300  160.4562 C   0  0  0  0  0  0  0  0  0  0  0  0
  126.7289  136.2323  163.7205 H   0  0  0  0  0  0  0  0  0  0  0  0
  125.6729  136.8294  162.5580 H   0  0  0  0  0  0  0  0  0  0  0  0
  128.8745  135.2740  163.1550 H   0  0  0  0  0  0  0  0  0  0  0  0
  130.4836  134.6831  161.3895 H   0  0  0  0  0  0  0  0  0  0  0  0
  130.8201  135.6959  158.5088 H   0  0  0  0  0  0  0  0  0  0  0  0
  129.5186  130.6069  158.0457 H   0  0  0  0  0  0  0  0  0  0  0  0
  129.1523  132.6519  154.3302 H   0  0  0  0  0  0  0  0  0  0  0  0
  129.6193  131.4657  152.2276 H   0  0  0  0  0  0  0  0  0  0  0  0
  131.9482  128.7299  151.9036 H   0  0  0  0  0  0  0  0  0  0  0  0
  130.8473  129.7166  151.1054 H   0  0  0  0  0  0  0  0  0  0  0  0
  132.4219  128.9530  154.2600 H   0  0  0  0  0  0  0  0  0  0  0  0
  131.9678  130.1418  156.3639 H   0  0  0  0  0  0  0  0  0  0  0  0
  127.7925  136.1949  158.4305 H   0  0  0  0  0  0  0  0  0  0  0  0
  126.1873  136.7944  160.1966 H   0  0  0  0  0  0  0  0  0  0  0  0
  1  2  1  0
  1 23  1  0
  1 24  1  0
  2 22  2  0
  2  3  1  0
  3  4  2  0
  3 25  1  0
  4  5  1  0
  4 26  1  0
  5  6  1  0
  5 21  2  0
  6 27  1  0
  7  6  1  0
  7 19  2  0
  7  8  1  0
  8  9  1  0
  8 10  1  0
 10 11  2  0
 10 28  1  0
 11 12  1  0
 11 19  1  0
 12 18  1  0
 12 13  2  0
 13 14  1  0
 13 29  1  0
 14 15  2  0
 14 30  1  0
 15 16  1  0
 15 17  1  0
 16 31  1  0
 16 32  1  0
 17 18  2  0
 17 33  1  0
 18 34  1  0
 19 20  1  0
 21 22  1  0
 21 35  1  0
 22 36  1  0
M  CHG  1  19   1
M  END
>  <DOCK_score>  (1) 
-50.345367

>  <SMILES>  (1) 
Nc1ccc(Nc2[nH]cc(-c3ccc(N)cc3)[nH+]2)cc1

$$$$
