C[C@](C[NH2+]C1C=C2CCCCC2C1)(NCc1cccc2c1NC(=O)CO2)c1ccccc1
     RDKit          3D

 66 70  0  0  1  0  0  0  0  0999 V2000
  128.5394  136.5347  160.0115 C   0  0  0  0  0  0  0  0  0  0  0  0
  129.6750  135.5471  160.2870 C   0  0  2  0  0  0  0  0  0  0  0  0
  130.8259  136.2748  160.9845 C   0  0  0  0  0  0  0  0  0  0  0  0
  131.6186  137.0064  159.9874 N   0  0  0  0  0  0  0  0  0  0  0  0
  131.0309  137.6789  159.5180 H   0  0  0  0  0  0  0  0  0  0  0  0
  131.9918  136.3564  159.3119 H   0  0  0  0  0  0  0  0  0  0  0  0
  132.7238  137.7050  160.6571 C   0  0  1  0  0  0  0  0  0  0  0  0
  133.7681  138.1299  159.6460 C   0  0  0  0  0  0  0  0  0  0  0  0
  134.1486  139.3462  159.8459 C   0  0  0  0  0  0  0  0  0  0  0  0
  135.2844  140.1222  159.2038 C   0  0  0  0  0  0  0  0  0  0  0  0
  136.1424  140.6319  160.3775 C   0  0  0  0  0  0  0  0  0  0  0  0
  135.2827  141.3787  161.3923 C   0  0  0  0  0  0  0  0  0  0  0  0
  134.2036  140.4764  162.0057 C   0  0  0  0  0  0  0  0  0  0  0  0
  133.2700  140.0344  160.8833 C   0  0  2  0  0  0  0  0  0  0  0  0
  132.2162  139.0142  161.3012 C   0  0  0  0  0  0  0  0  0  0  0  0
  130.1509  134.9816  159.0175 N   0  0  0  0  0  0  0  0  0  0  0  0
  129.0701  134.2738  158.3185 C   0  0  0  0  0  0  0  0  0  0  0  0
  129.6624  133.3170  157.3160 C   0  0  0  0  0  0  0  0  0  0  0  0
  129.9064  133.7337  156.0196 C   0  0  0  0  0  0  0  0  0  0  0  0
  130.4534  132.8591  155.0995 C   0  0  0  0  0  0  0  0  0  0  0  0
  130.7518  131.5587  155.4655 C   0  0  0  0  0  0  0  0  0  0  0  0
  130.5061  131.1332  156.7588 C   0  0  0  0  0  0  0  0  0  0  0  0
  129.9586  132.0168  157.6884 C   0  0  0  0  0  0  0  0  0  0  0  0
  129.7141  131.5720  158.9953 N   0  0  0  0  0  0  0  0  0  0  0  0
  130.2901  130.4244  159.4149 C   0  0  0  0  0  0  0  0  0  0  0  0
  130.0679  130.0042  160.5309 O   0  0  0  0  0  0  0  0  0  0  0  0
  131.2099  129.6678  158.4908 C   0  0  0  0  0  0  0  0  0  0  0  0
  130.7937  129.8588  157.1360 O   0  0  0  0  0  0  0  0  0  0  0  0
  129.1715  134.4374  161.1737 C   0  0  0  0  0  0  0  0  0  0  0  0
  127.8567  134.4365  161.6007 C   0  0  0  0  0  0  0  0  0  0  0  0
  127.3936  133.4160  162.4102 C   0  0  0  0  0  0  0  0  0  0  0  0
  128.2480  132.4021  162.8011 C   0  0  0  0  0  0  0  0  0  0  0  0
  129.5641  132.4059  162.3783 C   0  0  0  0  0  0  0  0  0  0  0  0
  130.0259  133.4235  161.5647 C   0  0  0  0  0  0  0  0  0  0  0  0
  128.9035  137.3374  159.3702 H   0  0  0  0  0  0  0  0  0  0  0  0
  127.7194  136.0163  159.5146 H   0  0  0  0  0  0  0  0  0  0  0  0
  128.1862  136.9544  160.9535 H   0  0  0  0  0  0  0  0  0  0  0  0
  131.4609  135.5484  161.4917 H   0  0  0  0  0  0  0  0  0  0  0  0
  130.4226  136.9770  161.7142 H   0  0  0  0  0  0  0  0  0  0  0  0
  133.1723  137.0616  161.4140 H   0  0  0  0  0  0  0  0  0  0  0  0
  134.1461  137.4957  158.8578 H   0  0  0  0  0  0  0  0  0  0  0  0
  134.8916  140.9620  158.6304 H   0  0  0  0  0  0  0  0  0  0  0  0
  135.8736  139.4673  158.5616 H   0  0  0  0  0  0  0  0  0  0  0  0
  136.9109  141.3035  159.9949 H   0  0  0  0  0  0  0  0  0  0  0  0
  136.6203  139.7834  160.8674 H   0  0  0  0  0  0  0  0  0  0  0  0
  134.8007  142.2213  160.8966 H   0  0  0  0  0  0  0  0  0  0  0  0
  135.9232  141.7573  162.1890 H   0  0  0  0  0  0  0  0  0  0  0  0
  134.6689  139.6036  162.4639 H   0  0  0  0  0  0  0  0  0  0  0  0
  133.6413  141.0316  162.7565 H   0  0  0  0  0  0  0  0  0  0  0  0
  132.7881  140.9055  160.4395 H   0  0  0  0  0  0  0  0  0  0  0  0
  132.1797  138.9205  162.3866 H   0  0  0  0  0  0  0  0  0  0  0  0
  131.2383  139.2852  160.9036 H   0  0  0  0  0  0  0  0  0  0  0  0
  130.5529  135.6976  158.4310 H   0  0  0  0  0  0  0  0  0  0  0  0
  128.4723  133.7186  159.0414 H   0  0  0  0  0  0  0  0  0  0  0  0
  128.4376  134.9956  157.8018 H   0  0  0  0  0  0  0  0  0  0  0  0
  129.6722  134.7465  155.7266 H   0  0  0  0  0  0  0  0  0  0  0  0
  130.6448  133.1912  154.0897 H   0  0  0  0  0  0  0  0  0  0  0  0
  131.1760  130.8771  154.7431 H   0  0  0  0  0  0  0  0  0  0  0  0
  129.1402  132.0808  159.5893 H   0  0  0  0  0  0  0  0  0  0  0  0
  132.2289  130.0350  158.6125 H   0  0  0  0  0  0  0  0  0  0  0  0
  131.1759  128.6060  158.7344 H   0  0  0  0  0  0  0  0  0  0  0  0
  127.1903  135.2310  161.2989 H   0  0  0  0  0  0  0  0  0  0  0  0
  126.3654  133.4134  162.7406 H   0  0  0  0  0  0  0  0  0  0  0  0
  127.8874  131.6073  163.4371 H   0  0  0  0  0  0  0  0  0  0  0  0
  130.2317  131.6140  162.6841 H   0  0  0  0  0  0  0  0  0  0  0  0
  131.0542  133.4266  161.2347 H   0  0  0  0  0  0  0  0  0  0  0  0
  1 35  1  0
  1 36  1  0
  1 37  1  0
  2  1  1  0
  2  3  1  0
  2 16  1  6
  2 29  1  0
  3  4  1  0
  3 38  1  0
  3 39  1  0
  4  5  1  0
  4  6  1  0
  4  7  1  0
  7 15  1  0
  7  8  1  0
  7 40  1  1
  8  9  2  0
  8 41  1  0
  9 14  1  0
  9 10  1  0
 10 11  1  0
 10 42  1  0
 10 43  1  0
 11 12  1  0
 11 44  1  0
 11 45  1  0
 12 13  1  0
 12 46  1  0
 12 47  1  0
 13 14  1  0
 13 48  1  0
 13 49  1  0
 14 15  1  0
 14 50  1  6
 15 51  1  0
 15 52  1  0
 16 17  1  0
 16 53  1  0
 17 18  1  0
 17 54  1  0
 17 55  1  0
 18 23  1  0
 18 19  2  0
 19 20  1  0
 19 56  1  0
 20 21  2  0
 20 57  1  0
 21 22  1  0
 21 58  1  0
 22 28  1  0
 22 23  2  0
 23 24  1  0
 24 25  1  0
 24 59  1  0
 25 26  2  0
 25 27  1  0
 27 28  1  0
 27 60  1  0
 27 61  1  0
 29 34  1  0
 29 30  2  0
 30 31  1  0
 30 62  1  0
 31 32  2  0
 31 63  1  0
 32 33  1  0
 32 64  1  0
 33 34  2  0
 33 65  1  0
 34 66  1  0
M  CHG  1   4   1
M  END
>  <DOCK_score>  (1) 
-61.268051

>  <SMILES>  (1) 
C[C@](C[NH2+]C1C=C2CCCCC2C1)(NCc1cccc2c1NC(=O)CO2)c1ccccc1

$$$$
