Cc1cccc(N2CC[NH+](C(c3ccccc3)c3ccccc3)CC2)c1COCc1ccc(F)cc1
     RDKit          3D

 70 74  0  0  0  0  0  0  0  0999 V2000
  136.0535  141.0937  162.5051 C   0  0  0  0  0  0  0  0  0  0  0  0
  135.4068  140.3653  161.3553 C   0  0  0  0  0  0  0  0  0  0  0  0
  135.7910  140.6455  160.0565 C   0  0  0  0  0  0  0  0  0  0  0  0
  135.2045  139.9752  158.9989 C   0  0  0  0  0  0  0  0  0  0  0  0
  134.2284  139.0271  159.2361 C   0  0  0  0  0  0  0  0  0  0  0  0
  133.8361  138.7475  160.5387 C   0  0  0  0  0  0  0  0  0  0  0  0
  132.8490  137.7897  160.7822 N   0  0  0  0  0  0  0  0  0  0  0  0
  133.2908  136.4564  160.3496 C   0  0  0  0  0  0  0  0  0  0  0  0
  132.2081  135.4291  160.6872 C   0  0  0  0  0  0  0  0  0  0  0  0
  130.9579  135.7939  160.0079 N   0  0  0  0  0  0  0  0  0  0  0  0
  131.1121  135.8192  159.0111 H   0  0  0  0  0  0  0  0  0  0  0  0
  129.9238  134.7977  160.3178 C   0  0  0  0  0  0  0  0  0  0  0  0
  128.6410  135.1718  159.6210 C   0  0  0  0  0  0  0  0  0  0  0  0
  127.4249  134.8223  160.1776 C   0  0  0  0  0  0  0  0  0  0  0  0
  126.2480  135.1696  159.5408 C   0  0  0  0  0  0  0  0  0  0  0  0
  126.2876  135.8573  158.3423 C   0  0  0  0  0  0  0  0  0  0  0  0
  127.5038  136.2021  157.7831 C   0  0  0  0  0  0  0  0  0  0  0  0
  128.6805  135.8594  158.4225 C   0  0  0  0  0  0  0  0  0  0  0  0
  130.3757  133.4404  159.8438 C   0  0  0  0  0  0  0  0  0  0  0  0
  129.9597  132.3021  160.5087 C   0  0  0  0  0  0  0  0  0  0  0  0
  130.3704  131.0570  160.0709 C   0  0  0  0  0  0  0  0  0  0  0  0
  131.2056  130.9506  158.9746 C   0  0  0  0  0  0  0  0  0  0  0  0
  131.6259  132.0892  158.3128 C   0  0  0  0  0  0  0  0  0  0  0  0
  131.2110  133.3340  158.7473 C   0  0  0  0  0  0  0  0  0  0  0  0
  130.5164  137.1169  160.4685 C   0  0  0  0  0  0  0  0  0  0  0  0
  131.5851  138.1582  160.1290 C   0  0  0  0  0  0  0  0  0  0  0  0
  134.4275  139.4229  161.5991 C   0  0  0  0  0  0  0  0  0  0  0  0
  134.0051  139.1227  163.0143 C   0  0  0  0  0  0  0  0  0  0  0  0
  134.8142  138.0685  163.5394 O   0  0  0  0  0  0  0  0  0  0  0  0
  134.8265  138.0010  164.9668 C   0  0  0  0  0  0  0  0  0  0  0  0
  136.0359  137.2263  165.4228 C   0  0  0  0  0  0  0  0  0  0  0  0
  135.9902  136.5050  166.6012 C   0  0  0  0  0  0  0  0  0  0  0  0
  137.0970  135.7898  167.0175 C   0  0  0  0  0  0  0  0  0  0  0  0
  138.2558  135.8052  166.2598 C   0  0  0  0  0  0  0  0  0  0  0  0
  139.3404  135.1115  166.6690 F   0  0  0  0  0  0  0  0  0  0  0  0
  138.3022  136.5325  165.0825 C   0  0  0  0  0  0  0  0  0  0  0  0
  137.1922  137.2423  164.6652 C   0  0  0  0  0  0  0  0  0  0  0  0
  135.4878  141.9987  162.7263 H   0  0  0  0  0  0  0  0  0  0  0  0
  136.0646  140.4485  163.3837 H   0  0  0  0  0  0  0  0  0  0  0  0
  137.0759  141.3605  162.2374 H   0  0  0  0  0  0  0  0  0  0  0  0
  136.5540  141.3862  159.8683 H   0  0  0  0  0  0  0  0  0  0  0  0
  135.5098  140.1934  157.9862 H   0  0  0  0  0  0  0  0  0  0  0  0
  133.7711  138.5037  158.4096 H   0  0  0  0  0  0  0  0  0  0  0  0
  133.4639  136.4619  159.2734 H   0  0  0  0  0  0  0  0  0  0  0  0
  134.2145  136.1941  160.8655 H   0  0  0  0  0  0  0  0  0  0  0  0
  132.0449  135.4141  161.7649 H   0  0  0  0  0  0  0  0  0  0  0  0
  132.5277  134.4416  160.3544 H   0  0  0  0  0  0  0  0  0  0  0  0
  129.7575  134.7695  161.3947 H   0  0  0  0  0  0  0  0  0  0  0  0
  127.3940  134.2812  161.1116 H   0  0  0  0  0  0  0  0  0  0  0  0
  125.2978  134.8998  159.9775 H   0  0  0  0  0  0  0  0  0  0  0  0
  125.3683  136.1247  157.8425 H   0  0  0  0  0  0  0  0  0  0  0  0
  127.5347  136.7390  156.8465 H   0  0  0  0  0  0  0  0  0  0  0  0
  129.6308  136.1285  157.9854 H   0  0  0  0  0  0  0  0  0  0  0  0
  129.3108  132.3855  161.3680 H   0  0  0  0  0  0  0  0  0  0  0  0
  130.0424  130.1674  160.5883 H   0  0  0  0  0  0  0  0  0  0  0  0
  131.5301  129.9779  158.6353 H   0  0  0  0  0  0  0  0  0  0  0  0
  132.2787  132.0060  157.4565 H   0  0  0  0  0  0  0  0  0  0  0  0
  131.5396  134.2235  158.2306 H   0  0  0  0  0  0  0  0  0  0  0  0
  130.3619  137.0932  161.5472 H   0  0  0  0  0  0  0  0  0  0  0  0
  129.5818  137.3808  159.9733 H   0  0  0  0  0  0  0  0  0  0  0  0
  131.2643  139.1376  160.4839 H   0  0  0  0  0  0  0  0  0  0  0  0
  131.7301  138.1918  159.0492 H   0  0  0  0  0  0  0  0  0  0  0  0
  134.1286  140.0154  163.6274 H   0  0  0  0  0  0  0  0  0  0  0  0
  132.9588  138.8170  163.0240 H   0  0  0  0  0  0  0  0  0  0  0  0
  134.8648  139.0098  165.3779 H   0  0  0  0  0  0  0  0  0  0  0  0
  133.9224  137.5012  165.3147 H   0  0  0  0  0  0  0  0  0  0  0  0
  135.0879  136.4973  167.1948 H   0  0  0  0  0  0  0  0  0  0  0  0
  137.0598  135.2229  167.9360 H   0  0  0  0  0  0  0  0  0  0  0  0
  139.2057  136.5457  164.4909 H   0  0  0  0  0  0  0  0  0  0  0  0
  137.2282  137.8097  163.7470 H   0  0  0  0  0  0  0  0  0  0  0  0
  1  2  1  0
  1 38  1  0
  1 39  1  0
  1 40  1  0
  2 27  2  0
  2  3  1  0
  3  4  2  0
  3 41  1  0
  4  5  1  0
  4 42  1  0
  5  6  2  0
  5 43  1  0
  6  7  1  0
  6 27  1  0
  7 26  1  0
  7  8  1  0
  8  9  1  0
  8 44  1  0
  8 45  1  0
  9 10  1  0
  9 46  1  0
  9 47  1  0
 10 11  1  0
 10 12  1  0
 10 25  1  0
 12 13  1  0
 12 19  1  0
 12 48  1  0
 13 18  1  0
 13 14  2  0
 14 15  1  0
 14 49  1  0
 15 16  2  0
 15 50  1  0
 16 17  1  0
 16 51  1  0
 17 18  2  0
 17 52  1  0
 18 53  1  0
 19 24  1  0
 19 20  2  0
 20 21  1  0
 20 54  1  0
 21 22  2  0
 21 55  1  0
 22 23  1  0
 22 56  1  0
 23 24  2  0
 23 57  1  0
 24 58  1  0
 25 26  1  0
 25 59  1  0
 25 60  1  0
 26 61  1  0
 26 62  1  0
 27 28  1  0
 28 29  1  0
 28 63  1  0
 28 64  1  0
 29 30  1  0
 30 31  1  0
 30 65  1  0
 30 66  1  0
 31 37  1  0
 31 32  2  0
 32 33  1  0
 32 67  1  0
 33 34  2  0
 33 68  1  0
 34 35  1  0
 34 36  1  0
 36 37  2  0
 36 69  1  0
 37 70  1  0
M  CHG  1  10   1
M  END
>  <DOCK_score>  (1) 
-59.396347

>  <SMILES>  (1) 
Cc1cccc(N2CC[NH+](C(c3ccccc3)c3ccccc3)CC2)c1COCc1ccc(F)cc1

$$$$
