CCc1ccc(-c2c[nH]c(N[C@@H](CCCc3cccc4ccccc34)c3ncccc3COC)[nH+]2)cc1
     RDKit          3D

 72 76  0  0  1  0  0  0  0  0999 V2000
  129.9893  129.2069  151.4221 C   0  0  0  0  0  0  0  0  0  0  0  0
  131.3239  129.6799  152.0017 C   0  0  0  0  0  0  0  0  0  0  0  0
  131.0776  130.4188  153.2919 C   0  0  0  0  0  0  0  0  0  0  0  0
  131.0654  129.7277  154.4901 C   0  0  0  0  0  0  0  0  0  0  0  0
  130.8460  130.4001  155.6752 C   0  0  0  0  0  0  0  0  0  0  0  0
  130.6252  131.7761  155.6620 C   0  0  0  0  0  0  0  0  0  0  0  0
  130.3833  132.5035  156.9319 C   0  0  0  0  0  0  0  0  0  0  0  0
  129.8040  131.9925  158.0465 C   0  0  0  0  0  0  0  0  0  0  0  0
  129.7775  133.0003  158.9797 N   0  0  0  0  0  0  0  0  0  0  0  0
  129.4218  132.9402  159.8801 H   0  0  0  0  0  0  0  0  0  0  0  0
  130.3419  134.0986  158.4076 C   0  0  0  0  0  0  0  0  0  0  0  0
  130.5075  135.3303  159.0174 N   0  0  0  0  0  0  0  0  0  0  0  0
  130.0565  135.5312  160.3967 C   0  0  1  0  0  0  0  0  0  0  0  0
  130.5812  134.8389  161.0550 H   0  0  0  0  0  0  0  0  0  0  0  0
  130.3550  136.9690  160.8264 C   0  0  0  0  0  0  0  0  0  0  0  0
  131.8286  137.0880  161.2207 C   0  0  0  0  0  0  0  0  0  0  0  0
  132.1272  138.5257  161.6503 C   0  0  0  0  0  0  0  0  0  0  0  0
  133.5785  138.6428  162.0386 C   0  0  0  0  0  0  0  0  0  0  0  0
  133.9617  138.4266  163.3268 C   0  0  0  0  0  0  0  0  0  0  0  0
  135.2995  138.5257  163.7037 C   0  0  0  0  0  0  0  0  0  0  0  0
  136.2608  138.8512  162.7966 C   0  0  0  0  0  0  0  0  0  0  0  0
  135.9028  139.0867  161.4585 C   0  0  0  0  0  0  0  0  0  0  0  0
  136.8672  139.4245  160.4936 C   0  0  0  0  0  0  0  0  0  0  0  0
  136.4836  139.6452  159.2067 C   0  0  0  0  0  0  0  0  0  0  0  0
  135.1460  139.5421  158.8287 C   0  0  0  0  0  0  0  0  0  0  0  0
  134.1847  139.2167  159.7356 C   0  0  0  0  0  0  0  0  0  0  0  0
  134.5424  138.9815  161.0741 C   0  0  0  0  0  0  0  0  0  0  0  0
  128.5731  135.2793  160.4819 C   0  0  0  0  0  0  0  0  0  0  0  0
  127.8099  135.5199  159.4337 N   0  0  0  0  0  0  0  0  0  0  0  0
  126.5085  135.3091  159.4605 C   0  0  0  0  0  0  0  0  0  0  0  0
  125.8927  134.8346  160.6034 C   0  0  0  0  0  0  0  0  0  0  0  0
  126.6618  134.5755  161.7273 C   0  0  0  0  0  0  0  0  0  0  0  0
  128.0277  134.8039  161.6592 C   0  0  0  0  0  0  0  0  0  0  0  0
  128.9063  134.5379  162.8543 C   0  0  0  0  0  0  0  0  0  0  0  0
  129.8110  135.6296  163.0331 O   0  0  0  0  0  0  0  0  0  0  0  0
  130.3656  135.7156  164.3473 C   0  0  0  0  0  0  0  0  0  0  0  0
  130.7079  133.7961  157.1859 N   0  0  0  0  0  0  0  0  0  0  0  0
  131.1397  134.4007  156.5622 H   0  0  0  0  0  0  0  0  0  0  0  0
  130.6330  132.4663  154.4511 C   0  0  0  0  0  0  0  0  0  0  0  0
  130.8591  131.7845  153.2727 C   0  0  0  0  0  0  0  0  0  0  0  0
  129.3503  130.0689  151.2308 H   0  0  0  0  0  0  0  0  0  0  0  0
  130.1675  128.6724  150.4890 H   0  0  0  0  0  0  0  0  0  0  0  0
  129.4993  128.5422  152.1337 H   0  0  0  0  0  0  0  0  0  0  0  0
  131.9629  128.8178  152.1930 H   0  0  0  0  0  0  0  0  0  0  0  0
  131.8139  130.3445  151.2901 H   0  0  0  0  0  0  0  0  0  0  0  0
  131.2319  128.6607  154.4986 H   0  0  0  0  0  0  0  0  0  0  0  0
  130.8413  129.8603  156.6107 H   0  0  0  0  0  0  0  0  0  0  0  0
  129.4340  130.9861  158.1756 H   0  0  0  0  0  0  0  0  0  0  0  0
  130.9223  136.0602  158.5315 H   0  0  0  0  0  0  0  0  0  0  0  0
  130.1443  137.6467  159.9993 H   0  0  0  0  0  0  0  0  0  0  0  0
  129.7285  137.2308  161.6793 H   0  0  0  0  0  0  0  0  0  0  0  0
  132.0392  136.4103  162.0479 H   0  0  0  0  0  0  0  0  0  0  0  0
  132.4549  136.8261  160.3679 H   0  0  0  0  0  0  0  0  0  0  0  0
  131.9164  139.2034  160.8231 H   0  0  0  0  0  0  0  0  0  0  0  0
  131.5006  138.7876  162.5030 H   0  0  0  0  0  0  0  0  0  0  0  0
  133.2182  138.1708  164.0671 H   0  0  0  0  0  0  0  0  0  0  0  0
  135.5772  138.3455  164.7317 H   0  0  0  0  0  0  0  0  0  0  0  0
  137.2934  138.9276  163.1037 H   0  0  0  0  0  0  0  0  0  0  0  0
  137.9073  139.5088  160.7721 H   0  0  0  0  0  0  0  0  0  0  0  0
  137.2268  139.9046  158.4672 H   0  0  0  0  0  0  0  0  0  0  0  0
  134.8683  139.7228  157.8009 H   0  0  0  0  0  0  0  0  0  0  0  0
  133.1522  139.1397  159.4280 H   0  0  0  0  0  0  0  0  0  0  0  0
  125.9164  135.5140  158.5809 H   0  0  0  0  0  0  0  0  0  0  0  0
  124.8256  134.6684  160.6207 H   0  0  0  0  0  0  0  0  0  0  0  0
  126.2078  134.2037  162.6341 H   0  0  0  0  0  0  0  0  0  0  0  0
  128.2862  134.4304  163.7443 H   0  0  0  0  0  0  0  0  0  0  0  0
  129.4718  133.6201  162.6925 H   0  0  0  0  0  0  0  0  0  0  0  0
  131.0411  136.5693  164.4013 H   0  0  0  0  0  0  0  0  0  0  0  0
  129.5622  135.8417  165.0731 H   0  0  0  0  0  0  0  0  0  0  0  0
  130.9163  134.8018  164.5699 H   0  0  0  0  0  0  0  0  0  0  0  0
  130.4622  133.5327  154.4350 H   0  0  0  0  0  0  0  0  0  0  0  0
  130.8651  132.3183  152.3338 H   0  0  0  0  0  0  0  0  0  0  0  0
  1  2  1  0
  1 41  1  0
  1 42  1  0
  1 43  1  0
  2  3  1  0
  2 44  1  0
  2 45  1  0
  3 40  2  0
  3  4  1  0
  4  5  2  0
  4 46  1  0
  5  6  1  0
  5 47  1  0
  6  7  1  0
  6 39  2  0
  7 37  1  0
  7  8  2  0
  8  9  1  0
  8 48  1  0
  9 10  1  0
  9 11  1  0
 11 12  1  0
 11 37  2  0
 12 13  1  0
 12 49  1  0
 13 14  1  1
 13 15  1  0
 13 28  1  0
 15 16  1  0
 15 50  1  0
 15 51  1  0
 16 17  1  0
 16 52  1  0
 16 53  1  0
 17 18  1  0
 17 54  1  0
 17 55  1  0
 18 27  1  0
 18 19  2  0
 19 20  1  0
 19 56  1  0
 20 21  2  0
 20 57  1  0
 21 22  1  0
 21 58  1  0
 22 27  2  0
 22 23  1  0
 23 24  2  0
 23 59  1  0
 24 25  1  0
 24 60  1  0
 25 26  2  0
 25 61  1  0
 26 27  1  0
 26 62  1  0
 28 33  1  0
 28 29  2  0
 29 30  1  0
 30 31  2  0
 30 63  1  0
 31 32  1  0
 31 64  1  0
 32 33  2  0
 32 65  1  0
 33 34  1  0
 34 35  1  0
 34 66  1  0
 34 67  1  0
 35 36  1  0
 36 68  1  0
 36 69  1  0
 36 70  1  0
 37 38  1  0
 39 40  1  0
 39 71  1  0
 40 72  1  0
M  CHG  1  37   1
M  END
>  <DOCK_score>  (1) 
-66.155449

>  <SMILES>  (1) 
CCc1ccc(-c2c[nH]c(N[C@@H](CCCc3cccc4ccccc34)c3ncccc3COC)[nH+]2)cc1

$$$$
