CCc1ccc(-c2c[nH]c(N[C@H](c3cccc(C)c3CCl)C3CCCC3O)[nH+]2)cc1
     RDKit          3D

 61 64  0  0  1  0  0  0  0  0999 V2000
  130.6106  128.9896  151.7441 C   0  0  0  0  0  0  0  0  0  0  0  0
  131.8862  129.6124  152.3155 C   0  0  0  0  0  0  0  0  0  0  0  0
  131.5634  130.3269  153.6025 C   0  0  0  0  0  0  0  0  0  0  0  0
  131.6326  129.6457  154.8047 C   0  0  0  0  0  0  0  0  0  0  0  0
  131.3381  130.2948  155.9865 C   0  0  0  0  0  0  0  0  0  0  0  0
  130.9708  131.6392  155.9671 C   0  0  0  0  0  0  0  0  0  0  0  0
  130.6531  132.3424  157.2339 C   0  0  0  0  0  0  0  0  0  0  0  0
  130.1272  131.7785  158.3494 C   0  0  0  0  0  0  0  0  0  0  0  0
  130.0002  132.7805  159.2806 N   0  0  0  0  0  0  0  0  0  0  0  0
  129.6552  132.6865  160.1823 H   0  0  0  0  0  0  0  0  0  0  0  0
  130.4452  133.9300  158.7036 C   0  0  0  0  0  0  0  0  0  0  0  0
  130.4830  135.1741  159.3094 N   0  0  0  0  0  0  0  0  0  0  0  0
  130.0176  135.3313  160.6896 C   0  0  2  0  0  0  0  0  0  0  0  0
  130.3430  134.4763  161.2823 H   0  0  0  0  0  0  0  0  0  0  0  0
  128.5129  135.4107  160.7064 C   0  0  0  0  0  0  0  0  0  0  0  0
  127.8366  135.9434  159.6245 C   0  0  0  0  0  0  0  0  0  0  0  0
  126.4568  136.0212  159.6422 C   0  0  0  0  0  0  0  0  0  0  0  0
  125.7522  135.5567  160.7373 C   0  0  0  0  0  0  0  0  0  0  0  0
  126.4282  135.0237  161.8186 C   0  0  0  0  0  0  0  0  0  0  0  0
  125.6604  134.5218  163.0143 C   0  0  0  0  0  0  0  0  0  0  0  0
  127.8087  134.9504  161.8030 C   0  0  0  0  0  0  0  0  0  0  0  0
  128.5459  134.3692  162.9820 C   0  0  0  0  0  0  0  0  0  0  0  0
  128.7506  132.5934  162.7469 Cl  0  0  0  0  0  0  0  0  0  0  0  0
  130.6028  136.6149  161.2820 C   0  0  2  0  0  0  0  0  0  0  0  0
  130.2086  137.8261  160.4117 C   0  0  0  0  0  0  0  0  0  0  0  0
  131.4601  138.7383  160.4412 C   0  0  0  0  0  0  0  0  0  0  0  0
  132.6263  137.7201  160.3948 C   0  0  0  0  0  0  0  0  0  0  0  0
  132.1399  136.5475  161.2712 C   0  0  2  0  0  0  0  0  0  0  0  0
  132.5715  135.3052  160.7121 O   0  0  0  0  0  0  0  0  0  0  0  0
  130.8373  133.6636  157.4816 N   0  0  0  0  0  0  0  0  0  0  0  0
  131.2012  134.3081  156.8546 H   0  0  0  0  0  0  0  0  0  0  0  0
  130.8977  132.3188  154.7525 C   0  0  0  0  0  0  0  0  0  0  0  0
  131.1994  131.6609  153.5775 C   0  0  0  0  0  0  0  0  0  0  0  0
  130.2004  128.2787  152.4612 H   0  0  0  0  0  0  0  0  0  0  0  0
  129.8788  129.7739  151.5506 H   0  0  0  0  0  0  0  0  0  0  0  0
  130.8441  128.4729  150.8132 H   0  0  0  0  0  0  0  0  0  0  0  0
  132.2964  130.3230  151.5984 H   0  0  0  0  0  0  0  0  0  0  0  0
  132.6181  128.8279  152.5090 H   0  0  0  0  0  0  0  0  0  0  0  0
  131.9173  128.6039  154.8185 H   0  0  0  0  0  0  0  0  0  0  0  0
  131.3924  129.7622  156.9243 H   0  0  0  0  0  0  0  0  0  0  0  0
  129.8622  130.7400  158.4817 H   0  0  0  0  0  0  0  0  0  0  0  0
  130.8178  135.9419  158.8200 H   0  0  0  0  0  0  0  0  0  0  0  0
  128.3867  136.3031  158.7676 H   0  0  0  0  0  0  0  0  0  0  0  0
  125.9288  136.4414  158.7990 H   0  0  0  0  0  0  0  0  0  0  0  0
  124.6737  135.6136  160.7493 H   0  0  0  0  0  0  0  0  0  0  0  0
  125.5297  135.3341  163.7292 H   0  0  0  0  0  0  0  0  0  0  0  0
  124.6839  134.1597  162.6932 H   0  0  0  0  0  0  0  0  0  0  0  0
  126.2125  133.7086  163.4854 H   0  0  0  0  0  0  0  0  0  0  0  0
  129.5253  134.8400  163.0661 H   0  0  0  0  0  0  0  0  0  0  0  0
  127.9756  134.5519  163.8928 H   0  0  0  0  0  0  0  0  0  0  0  0
  130.2422  136.7535  162.3014 H   0  0  0  0  0  0  0  0  0  0  0  0
  129.9920  137.5085  159.3917 H   0  0  0  0  0  0  0  0  0  0  0  0
  129.3503  138.3420  160.8421 H   0  0  0  0  0  0  0  0  0  0  0  0
  131.4921  139.3206  161.3621 H   0  0  0  0  0  0  0  0  0  0  0  0
  131.4846  139.3936  159.5706 H   0  0  0  0  0  0  0  0  0  0  0  0
  133.5326  138.1585  160.8129 H   0  0  0  0  0  0  0  0  0  0  0  0
  132.8024  137.3849  159.3726 H   0  0  0  0  0  0  0  0  0  0  0  0
  132.5256  136.6543  162.2852 H   0  0  0  0  0  0  0  0  0  0  0  0
  132.2177  135.1270  159.8300 H   0  0  0  0  0  0  0  0  0  0  0  0
  130.6089  133.3593  154.7312 H   0  0  0  0  0  0  0  0  0  0  0  0
  131.1470  132.1876  152.6360 H   0  0  0  0  0  0  0  0  0  0  0  0
  1  2  1  0
  1 34  1  0
  1 35  1  0
  1 36  1  0
  2  3  1  0
  2 37  1  0
  2 38  1  0
  3 33  2  0
  3  4  1  0
  4  5  2  0
  4 39  1  0
  5  6  1  0
  5 40  1  0
  6  7  1  0
  6 32  2  0
  7 30  1  0
  7  8  2  0
  8  9  1  0
  8 41  1  0
  9 10  1  0
  9 11  1  0
 11 12  1  0
 11 30  2  0
 12 13  1  0
 12 42  1  0
 13 14  1  1
 13 15  1  0
 13 24  1  0
 15 21  1  0
 15 16  2  0
 16 17  1  0
 16 43  1  0
 17 18  2  0
 17 44  1  0
 18 19  1  0
 18 45  1  0
 19 20  1  0
 19 21  2  0
 20 46  1  0
 20 47  1  0
 20 48  1  0
 21 22  1  0
 22 23  1  0
 22 49  1  0
 22 50  1  0
 24 28  1  0
 24 25  1  0
 24 51  1  1
 25 26  1  0
 25 52  1  0
 25 53  1  0
 26 27  1  0
 26 54  1  0
 26 55  1  0
 27 28  1  0
 27 56  1  0
 27 57  1  0
 28 29  1  0
 28 58  1  1
 29 59  1  0
 30 31  1  0
 32 33  1  0
 32 60  1  0
 33 61  1  0
M  CHG  1  30   1
M  END
>  <DOCK_score>  (1) 
-60.217651

>  <SMILES>  (1) 
CCc1ccc(-c2c[nH]c(N[C@H](c3cccc(C)c3CCl)C3CCCC3O)[nH+]2)cc1

$$$$
