CCc1ccc(-c2c[nH]c(NCc3c[nH]nc3-c3ccc(C4=CCC4)cc3)[nH+]2)cc1
     RDKit          3D

 56 60  0  0  1  0  0  0  0  0999 V2000
  130.4747  129.8563  151.8187 C   0  0  0  0  0  0  0  0  0  0  0  0
  131.5926  129.6303  152.8373 C   0  0  0  0  0  0  0  0  0  0  0  0
  131.2596  130.3521  154.1176 C   0  0  0  0  0  0  0  0  0  0  0  0
  130.5041  131.5095  154.0794 C   0  0  0  0  0  0  0  0  0  0  0  0
  130.1919  132.1721  155.2491 C   0  0  0  0  0  0  0  0  0  0  0  0
  130.6482  131.6781  156.4698 C   0  0  0  0  0  0  0  0  0  0  0  0
  130.3199  132.3883  157.7300 C   0  0  0  0  0  0  0  0  0  0  0  0
  129.6252  131.8773  158.7765 C   0  0  0  0  0  0  0  0  0  0  0  0
  129.5537  132.8654  159.7281 N   0  0  0  0  0  0  0  0  0  0  0  0
  129.1199  132.7995  160.5932 H   0  0  0  0  0  0  0  0  0  0  0  0
  130.2000  133.9552  159.2313 C   0  0  0  0  0  0  0  0  0  0  0  0
  130.3499  135.1689  159.8801 N   0  0  0  0  0  0  0  0  0  0  0  0
  129.7865  135.3584  161.2191 C   0  0  0  0  0  0  0  0  0  0  0  0
  128.3781  135.8815  161.1020 C   0  0  0  0  0  0  0  0  0  0  0  0
  127.7213  136.1471  159.9520 C   0  0  0  0  0  0  0  0  0  0  0  0
  126.4869  136.5933  160.2701 N   0  0  0  0  0  0  0  0  0  0  0  0
  125.7977  136.8578  159.6408 H   0  0  0  0  0  0  0  0  0  0  0  0
  126.3770  136.6142  161.6662 N   0  0  0  0  0  0  0  0  0  0  0  0
  127.5144  136.1859  162.1726 C   0  0  0  0  0  0  0  0  0  0  0  0
  127.8305  136.0480  163.6152 C   0  0  0  0  0  0  0  0  0  0  0  0
  127.0603  135.2088  164.4202 C   0  0  0  0  0  0  0  0  0  0  0  0
  127.3559  135.0763  165.7586 C   0  0  0  0  0  0  0  0  0  0  0  0
  128.4206  135.7907  166.3121 C   0  0  0  0  0  0  0  0  0  0  0  0
  128.7346  135.6539  167.7489 C   0  0  0  0  0  0  0  0  0  0  0  0
  129.6507  136.1952  168.5229 C   0  0  0  0  0  0  0  0  0  0  0  0
  129.1861  135.4752  169.7526 C   0  0  0  0  0  0  0  0  0  0  0  0
  128.1218  134.8532  168.8579 C   0  0  0  0  0  0  0  0  0  0  0  0
  129.1878  136.6347  165.5064 C   0  0  0  0  0  0  0  0  0  0  0  0
  128.8939  136.7618  164.1671 C   0  0  0  0  0  0  0  0  0  0  0  0
  130.6566  133.6662  158.0372 N   0  0  0  0  0  0  0  0  0  0  0  0
  131.1550  134.2698  157.4644 H   0  0  0  0  0  0  0  0  0  0  0  0
  131.4138  130.5139  156.5022 C   0  0  0  0  0  0  0  0  0  0  0  0
  131.7159  129.8569  155.3267 C   0  0  0  0  0  0  0  0  0  0  0  0
  129.5358  129.4730  152.2181 H   0  0  0  0  0  0  0  0  0  0  0  0
  130.3759  130.9233  151.6190 H   0  0  0  0  0  0  0  0  0  0  0  0
  130.7157  129.3341  150.8927 H   0  0  0  0  0  0  0  0  0  0  0  0
  131.6919  128.5626  153.0375 H   0  0  0  0  0  0  0  0  0  0  0  0
  132.5320  130.0130  152.4383 H   0  0  0  0  0  0  0  0  0  0  0  0
  130.1541  131.8934  153.1326 H   0  0  0  0  0  0  0  0  0  0  0  0
  129.5979  133.0736  155.2182 H   0  0  0  0  0  0  0  0  0  0  0  0
  129.2099  130.8830  158.8489 H   0  0  0  0  0  0  0  0  0  0  0  0
  130.8280  135.8940  159.4479 H   0  0  0  0  0  0  0  0  0  0  0  0
  129.7773  134.4052  161.7476 H   0  0  0  0  0  0  0  0  0  0  0  0
  130.3952  136.0742  161.7714 H   0  0  0  0  0  0  0  0  0  0  0  0
  128.1135  136.0222  158.9535 H   0  0  0  0  0  0  0  0  0  0  0  0
  126.2344  134.6596  163.9928 H   0  0  0  0  0  0  0  0  0  0  0  0
  126.7617  134.4236  166.3810 H   0  0  0  0  0  0  0  0  0  0  0  0
  130.4469  136.9013  168.3392 H   0  0  0  0  0  0  0  0  0  0  0  0
  129.9101  134.7600  170.1431 H   0  0  0  0  0  0  0  0  0  0  0  0
  128.7815  136.1337  170.5213 H   0  0  0  0  0  0  0  0  0  0  0  0
  127.1052  135.1559  169.1088 H   0  0  0  0  0  0  0  0  0  0  0  0
  128.2277  133.7756  168.7325 H   0  0  0  0  0  0  0  0  0  0  0  0
  130.0110  137.1879  165.9335 H   0  0  0  0  0  0  0  0  0  0  0  0
  129.4873  137.4142  163.5437 H   0  0  0  0  0  0  0  0  0  0  0  0
  131.7704  130.1268  157.4454 H   0  0  0  0  0  0  0  0  0  0  0  0
  132.3090  128.9547  155.3506 H   0  0  0  0  0  0  0  0  0  0  0  0
  1  2  1  0
  1 34  1  0
  1 35  1  0
  1 36  1  0
  2  3  1  0
  2 37  1  0
  2 38  1  0
  3 33  2  0
  3  4  1  0
  4  5  2  0
  4 39  1  0
  5  6  1  0
  5 40  1  0
  6  7  1  0
  6 32  2  0
  7 30  1  0
  7  8  2  0
  8  9  1  0
  8 41  1  0
  9 10  1  0
  9 11  1  0
 11 12  1  0
 11 30  2  0
 12 13  1  0
 12 42  1  0
 13 14  1  0
 13 43  1  0
 13 44  1  0
 14 19  1  0
 14 15  2  0
 15 16  1  0
 15 45  1  0
 16 17  1  0
 16 18  1  0
 18 19  2  0
 19 20  1  0
 20 29  1  0
 20 21  2  0
 21 22  1  0
 21 46  1  0
 22 23  2  0
 22 47  1  0
 23 24  1  0
 23 28  1  0
 24 27  1  0
 24 25  2  0
 25 26  1  0
 25 48  1  0
 26 27  1  0
 26 49  1  0
 26 50  1  0
 27 51  1  0
 27 52  1  0
 28 29  2  0
 28 53  1  0
 29 54  1  0
 30 31  1  0
 32 33  1  0
 32 55  1  0
 33 56  1  0
M  CHG  1  30   1
M  END
>  <DOCK_score>  (1) 
-47.727821

>  <SMILES>  (1) 
CCc1ccc(-c2c[nH]c(NCc3c[nH]nc3-c3ccc(C4=CCC4)cc3)[nH+]2)cc1

$$$$
