Nc1ccc(-c2c[nH]c(N[C@@H](C=Cc3ccc(F)cc3)CC3CCC3)[nH+]2)cc1
     RDKit          3D

 54 57  0  0  1  0  0  0  0  0999 V2000
  130.8914  129.5638  152.0232 N   0  0  0  0  0  0  0  0  0  0  0  0
  130.7556  130.2397  153.2381 C   0  0  0  0  0  0  0  0  0  0  0  0
  130.0080  131.4103  153.3004 C   0  0  0  0  0  0  0  0  0  0  0  0
  129.8725  132.0799  154.4982 C   0  0  0  0  0  0  0  0  0  0  0  0
  130.4857  131.5822  155.6470 C   0  0  0  0  0  0  0  0  0  0  0  0
  130.3419  132.3011  156.9366 C   0  0  0  0  0  0  0  0  0  0  0  0
  129.7902  131.8030  158.0707 C   0  0  0  0  0  0  0  0  0  0  0  0
  129.8600  132.7970  159.0179 N   0  0  0  0  0  0  0  0  0  0  0  0
  129.5449  132.7412  159.9336 H   0  0  0  0  0  0  0  0  0  0  0  0
  130.4527  133.8734  158.4334 C   0  0  0  0  0  0  0  0  0  0  0  0
  130.7107  135.0856  159.0504 N   0  0  0  0  0  0  0  0  0  0  0  0
  130.3367  135.2883  160.4522 C   0  0  1  0  0  0  0  0  0  0  0  0
  130.5507  134.3828  161.0199 H   0  0  0  0  0  0  0  0  0  0  0  0
  131.1281  136.4372  161.0222 C   0  0  0  0  0  0  0  0  0  0  0  0
  132.3422  136.7000  160.5594 C   0  0  0  0  0  0  0  0  0  0  0  0
  133.1184  137.8267  161.1183 C   0  0  0  0  0  0  0  0  0  0  0  0
  132.7929  138.3477  162.3714 C   0  0  0  0  0  0  0  0  0  0  0  0
  133.5229  139.3968  162.8901 C   0  0  0  0  0  0  0  0  0  0  0  0
  134.5720  139.9395  162.1652 C   0  0  0  0  0  0  0  0  0  0  0  0
  135.2808  140.9701  162.6758 F   0  0  0  0  0  0  0  0  0  0  0  0
  134.8962  139.4290  160.9184 C   0  0  0  0  0  0  0  0  0  0  0  0
  134.1755  138.3772  160.3924 C   0  0  0  0  0  0  0  0  0  0  0  0
  128.8425  135.6047  160.5407 C   0  0  0  0  0  0  0  0  0  0  0  0
  128.3461  135.3286  161.9615 C   0  0  0  0  0  0  0  0  0  0  0  0
  126.8627  135.6741  162.1738 C   0  0  0  0  0  0  0  0  0  0  0  0
  127.2695  136.2265  163.5500 C   0  0  0  0  0  0  0  0  0  0  0  0
  128.6697  136.4553  162.9569 C   0  0  0  0  0  0  0  0  0  0  0  0
  130.7340  133.5752  157.1884 N   0  0  0  0  0  0  0  0  0  0  0  0
  131.1571  134.1700  156.5495 H   0  0  0  0  0  0  0  0  0  0  0  0
  131.2388  130.4110  155.5807 C   0  0  0  0  0  0  0  0  0  0  0  0
  131.3671  129.7420  154.3819 C   0  0  0  0  0  0  0  0  0  0  0  0
  130.4644  129.9107  151.2243 H   0  0  0  0  0  0  0  0  0  0  0  0
  131.4129  128.7471  151.9785 H   0  0  0  0  0  0  0  0  0  0  0  0
  129.5331  131.7956  152.4102 H   0  0  0  0  0  0  0  0  0  0  0  0
  129.2917  132.9892  154.5465 H   0  0  0  0  0  0  0  0  0  0  0  0
  129.3750  130.8150  158.2040 H   0  0  0  0  0  0  0  0  0  0  0  0
  131.1391  135.8007  158.5543 H   0  0  0  0  0  0  0  0  0  0  0  0
  130.7060  137.0466  161.8077 H   0  0  0  0  0  0  0  0  0  0  0  0
  132.7643  136.0905  159.7739 H   0  0  0  0  0  0  0  0  0  0  0  0
  131.9731  137.9280  162.9354 H   0  0  0  0  0  0  0  0  0  0  0  0
  133.2737  139.7988  163.8610 H   0  0  0  0  0  0  0  0  0  0  0  0
  135.7145  139.8557  160.3575 H   0  0  0  0  0  0  0  0  0  0  0  0
  134.4286  137.9805  159.4204 H   0  0  0  0  0  0  0  0  0  0  0  0
  128.2959  134.9775  159.8366 H   0  0  0  0  0  0  0  0  0  0  0  0
  128.6781  136.6540  160.2960 H   0  0  0  0  0  0  0  0  0  0  0  0
  128.6205  134.3367  162.3205 H   0  0  0  0  0  0  0  0  0  0  0  0
  126.4898  136.4366  161.4900 H   0  0  0  0  0  0  0  0  0  0  0  0
  126.2143  134.7997  162.2285 H   0  0  0  0  0  0  0  0  0  0  0  0
  127.2482  135.4799  164.3439 H   0  0  0  0  0  0  0  0  0  0  0  0
  126.7539  137.1480  163.8203 H   0  0  0  0  0  0  0  0  0  0  0  0
  129.4800  136.2116  163.6439 H   0  0  0  0  0  0  0  0  0  0  0  0
  128.7921  137.4312  162.4869 H   0  0  0  0  0  0  0  0  0  0  0  0
  131.7182  130.0259  156.4686 H   0  0  0  0  0  0  0  0  0  0  0  0
  131.9471  128.8323  154.3311 H   0  0  0  0  0  0  0  0  0  0  0  0
  1  2  1  0
  1 32  1  0
  1 33  1  0
  2 31  2  0
  2  3  1  0
  3  4  2  0
  3 34  1  0
  4  5  1  0
  4 35  1  0
  5  6  1  0
  5 30  2  0
  6 28  1  0
  6  7  2  0
  7  8  1  0
  7 36  1  0
  8  9  1  0
  8 10  1  0
 10 11  1  0
 10 28  2  0
 11 12  1  0
 11 37  1  0
 12 13  1  1
 12 14  1  0
 12 23  1  0
 14 15  2  0
 14 38  1  0
 15 16  1  0
 15 39  1  0
 16 22  1  0
 16 17  2  0
 17 18  1  0
 17 40  1  0
 18 19  2  0
 18 41  1  0
 19 20  1  0
 19 21  1  0
 21 22  2  0
 21 42  1  0
 22 43  1  0
 23 24  1  0
 23 44  1  0
 23 45  1  0
 24 27  1  0
 24 25  1  0
 24 46  1  0
 25 26  1  0
 25 47  1  0
 25 48  1  0
 26 27  1  0
 26 49  1  0
 26 50  1  0
 27 51  1  0
 27 52  1  0
 28 29  1  0
 30 31  1  0
 30 53  1  0
 31 54  1  0
M  CHG  1  28   1
M  END
>  <DOCK_score>  (1) 
-56.220455

>  <SMILES>  (1) 
Nc1ccc(-c2c[nH]c(N[C@@H](C=Cc3ccc(F)cc3)CC3CCC3)[nH+]2)cc1

$$$$
