ClCC(c1ccccc1-c1cccc2ccccc12)[N@@H+]1CC=C(c2cccc3ccccc23)CC1
     RDKit          3D

 64 69  0  0  1  0  0  0  0  0999 V2000
  127.6869  136.4080  158.4622 Cl  0  0  0  0  0  0  0  0  0  0  0  0
  128.8420  135.0460  158.2136 C   0  0  0  0  0  0  0  0  0  0  0  0
  129.7055  134.8750  159.4650 C   0  0  1  0  0  0  0  0  0  0  0  0
  130.3035  133.4918  159.4773 C   0  0  0  0  0  0  0  0  0  0  0  0
  131.1267  133.0850  158.4471 C   0  0  0  0  0  0  0  0  0  0  0  0
  131.6759  131.8156  158.4569 C   0  0  0  0  0  0  0  0  0  0  0  0
  131.4040  130.9461  159.4982 C   0  0  0  0  0  0  0  0  0  0  0  0
  130.5830  131.3413  160.5342 C   0  0  0  0  0  0  0  0  0  0  0  0
  130.0263  132.6200  160.5299 C   0  0  0  0  0  0  0  0  0  0  0  0
  129.1442  133.0508  161.6394 C   0  0  0  0  0  0  0  0  0  0  0  0
  129.6766  133.6739  162.7542 C   0  0  0  0  0  0  0  0  0  0  0  0
  128.8555  134.0815  163.7995 C   0  0  0  0  0  0  0  0  0  0  0  0
  127.5090  133.8794  163.7573 C   0  0  0  0  0  0  0  0  0  0  0  0
  126.9261  133.2502  162.6442 C   0  0  0  0  0  0  0  0  0  0  0  0
  125.5393  133.0299  162.5763 C   0  0  0  0  0  0  0  0  0  0  0  0
  125.0073  132.4171  161.4834 C   0  0  0  0  0  0  0  0  0  0  0  0
  125.8177  132.0038  160.4281 C   0  0  0  0  0  0  0  0  0  0  0  0
  127.1650  132.2012  160.4604 C   0  0  0  0  0  0  0  0  0  0  0  0
  127.7476  132.8344  161.5679 C   0  0  0  0  0  0  0  0  0  0  0  0
  130.7824  135.8739  159.4571 N   0  0  2  0  0  0  0  0  0  0  0  0
  131.1429  135.9744  158.5201 H   0  0  0  0  0  0  0  0  0  0  0  0
  131.8593  135.4422  160.3559 C   0  0  0  0  0  0  0  0  0  0  0  0
  132.8842  136.5296  160.5047 C   0  0  0  0  0  0  0  0  0  0  0  0
  132.6426  137.7883  160.1983 C   0  0  0  0  0  0  0  0  0  0  0  0
  133.7142  138.7844  160.3859 C   0  0  0  0  0  0  0  0  0  0  0  0
  134.6072  139.0546  159.3608 C   0  0  0  0  0  0  0  0  0  0  0  0
  135.6154  139.9959  159.5291 C   0  0  0  0  0  0  0  0  0  0  0  0
  135.7626  140.6690  160.7046 C   0  0  0  0  0  0  0  0  0  0  0  0
  134.8835  140.4226  161.7730 C   0  0  0  0  0  0  0  0  0  0  0  0
  135.0144  141.1045  162.9954 C   0  0  0  0  0  0  0  0  0  0  0  0
  134.1454  140.8421  164.0097 C   0  0  0  0  0  0  0  0  0  0  0  0
  133.1256  139.9055  163.8553 C   0  0  0  0  0  0  0  0  0  0  0  0
  132.9691  139.2272  162.6842 C   0  0  0  0  0  0  0  0  0  0  0  0
  133.8459  139.4713  161.6180 C   0  0  0  0  0  0  0  0  0  0  0  0
  131.3131  138.2450  159.6636 C   0  0  0  0  0  0  0  0  0  0  0  0
  130.2580  137.1670  159.9242 C   0  0  0  0  0  0  0  0  0  0  0  0
  129.4812  135.2634  157.3580 H   0  0  0  0  0  0  0  0  0  0  0  0
  128.2858  134.1274  158.0276 H   0  0  0  0  0  0  0  0  0  0  0  0
  129.0891  135.0122  160.3533 H   0  0  0  0  0  0  0  0  0  0  0  0
  131.3428  133.7594  157.6317 H   0  0  0  0  0  0  0  0  0  0  0  0
  132.3231  131.5035  157.6506 H   0  0  0  0  0  0  0  0  0  0  0  0
  131.8358  129.9562  159.5004 H   0  0  0  0  0  0  0  0  0  0  0  0
  130.3722  130.6620  161.3468 H   0  0  0  0  0  0  0  0  0  0  0  0
  130.7412  133.8459  162.8129 H   0  0  0  0  0  0  0  0  0  0  0  0
  129.2927  134.5663  164.6598 H   0  0  0  0  0  0  0  0  0  0  0  0
  126.8890  134.2034  164.5802 H   0  0  0  0  0  0  0  0  0  0  0  0
  124.8993  133.3447  163.3872 H   0  0  0  0  0  0  0  0  0  0  0  0
  123.9418  132.2487  161.4337 H   0  0  0  0  0  0  0  0  0  0  0  0
  125.3712  131.5196  159.5721 H   0  0  0  0  0  0  0  0  0  0  0  0
  127.7811  131.8758  159.6353 H   0  0  0  0  0  0  0  0  0  0  0  0
  131.4397  135.2056  161.3337 H   0  0  0  0  0  0  0  0  0  0  0  0
  132.3356  134.5517  159.9460 H   0  0  0  0  0  0  0  0  0  0  0  0
  133.8625  136.2685  160.8802 H   0  0  0  0  0  0  0  0  0  0  0  0
  134.5157  138.5316  158.4203 H   0  0  0  0  0  0  0  0  0  0  0  0
  136.2975  140.1937  158.7155 H   0  0  0  0  0  0  0  0  0  0  0  0
  136.5565  141.3927  160.8156 H   0  0  0  0  0  0  0  0  0  0  0  0
  135.8004  141.8332  163.1290 H   0  0  0  0  0  0  0  0  0  0  0  0
  134.2480  141.3671  164.9477 H   0  0  0  0  0  0  0  0  0  0  0  0
  132.4491  139.7150  164.6752 H   0  0  0  0  0  0  0  0  0  0  0  0
  132.1740  138.5040  162.5781 H   0  0  0  0  0  0  0  0  0  0  0  0
  131.3945  138.4216  158.5910 H   0  0  0  0  0  0  0  0  0  0  0  0
  131.0193  139.1687  160.1621 H   0  0  0  0  0  0  0  0  0  0  0  0
  129.3451  137.4095  159.3804 H   0  0  0  0  0  0  0  0  0  0  0  0
  130.0443  137.1110  160.9916 H   0  0  0  0  0  0  0  0  0  0  0  0
  1  2  1  0
  2  3  1  0
  2 37  1  0
  2 38  1  0
  3  4  1  0
  3 20  1  0
  3 39  1  1
  4  9  1  0
  4  5  2  0
  5  6  1  0
  5 40  1  0
  6  7  2  0
  6 41  1  0
  7  8  1  0
  7 42  1  0
  8  9  2  0
  8 43  1  0
  9 10  1  0
 10 19  1  0
 10 11  2  0
 11 12  1  0
 11 44  1  0
 12 13  2  0
 12 45  1  0
 13 14  1  0
 13 46  1  0
 14 19  2  0
 14 15  1  0
 15 16  2  0
 15 47  1  0
 16 17  1  0
 16 48  1  0
 17 18  2  0
 17 49  1  0
 18 19  1  0
 18 50  1  0
 20 21  1  6
 20 36  1  0
 20 22  1  0
 22 23  1  0
 22 51  1  0
 22 52  1  0
 23 24  2  0
 23 53  1  0
 24 25  1  0
 24 35  1  0
 25 34  1  0
 25 26  2  0
 26 27  1  0
 26 54  1  0
 27 28  2  0
 27 55  1  0
 28 29  1  0
 28 56  1  0
 29 34  2  0
 29 30  1  0
 30 31  2  0
 30 57  1  0
 31 32  1  0
 31 58  1  0
 32 33  2  0
 32 59  1  0
 33 34  1  0
 33 60  1  0
 35 36  1  0
 35 61  1  0
 35 62  1  0
 36 63  1  0
 36 64  1  0
M  CHG  1  20   1
M  END
>  <DOCK_score>  (1) 
-57.473816

>  <SMILES>  (1) 
ClCC(c1ccccc1-c1cccc2ccccc12)[N@@H+]1CC=C(c2cccc3ccccc23)CC1

$$$$
