O=C1CC[C@H](NC(NC2COc3ncccc3C2)=[NH+]C2COc3cc(Cl)ccc3C2)CN1
     RDKit          3D

 59 63  0  0  1  0  0  0  0  0999 V2000
  124.0811  134.1618  161.5576 O   0  0  0  0  0  0  0  0  0  0  0  0
  125.2850  134.2597  161.4483 C   0  0  0  0  0  0  0  0  0  0  0  0
  126.0413  133.1039  160.8588 C   0  0  0  0  0  0  0  0  0  0  0  0
  127.5285  133.2259  161.2009 C   0  0  0  0  0  0  0  0  0  0  0  0
  127.9870  134.6505  160.8670 C   0  0  2  0  0  0  0  0  0  0  0  0
  127.7095  134.8958  159.8419 H   0  0  0  0  0  0  0  0  0  0  0  0
  129.4408  134.7473  161.0192 N   0  0  0  0  0  0  0  0  0  0  0  0
  130.2633  134.4803  159.9504 C   0  0  0  0  0  0  0  0  0  0  0  0
  129.7214  134.1226  158.7386 N   0  0  0  0  0  0  0  0  0  0  0  0
  130.4646  133.2400  157.8359 C   0  0  1  0  0  0  0  0  0  0  0  0
  130.7066  131.8873  158.5181 C   0  0  0  0  0  0  0  0  0  0  0  0
  131.5192  131.0867  157.6587 O   0  0  0  0  0  0  0  0  0  0  0  0
  131.1488  130.9754  156.3578 C   0  0  0  0  0  0  0  0  0  0  0  0
  131.6625  129.9838  155.6388 N   0  0  0  0  0  0  0  0  0  0  0  0
  131.3564  129.8105  154.3694 C   0  0  0  0  0  0  0  0  0  0  0  0
  130.4789  130.6639  153.7300 C   0  0  0  0  0  0  0  0  0  0  0  0
  129.9178  131.7123  154.4441 C   0  0  0  0  0  0  0  0  0  0  0  0
  130.2596  131.8656  155.7786 C   0  0  0  0  0  0  0  0  0  0  0  0
  129.6484  132.9970  156.5634 C   0  0  0  0  0  0  0  0  0  0  0  0
  131.5568  134.5664  160.0858 N   0  0  0  0  0  0  0  0  0  0  0  0
  132.1389  134.0033  159.5520 H   0  0  0  0  0  0  0  0  0  0  0  0
  132.1314  135.5140  161.0441 C   0  0  1  0  0  0  0  0  0  0  0  0
  133.6628  135.4401  160.9906 C   0  0  0  0  0  0  0  0  0  0  0  0
  134.1905  136.2959  162.0050 O   0  0  0  0  0  0  0  0  0  0  0  0
  133.7086  137.5639  162.0796 C   0  0  0  0  0  0  0  0  0  0  0  0
  134.4370  138.5095  162.7945 C   0  0  0  0  0  0  0  0  0  0  0  0
  133.9793  139.8084  162.8947 C   0  0  0  0  0  0  0  0  0  0  0  0
  134.8942  140.9860  163.7834 Cl  0  0  0  0  0  0  0  0  0  0  0  0
  132.7876  140.1692  162.2902 C   0  0  0  0  0  0  0  0  0  0  0  0
  132.0644  139.2331  161.5778 C   0  0  0  0  0  0  0  0  0  0  0  0
  132.5216  137.9301  161.4699 C   0  0  0  0  0  0  0  0  0  0  0  0
  131.7059  136.9383  160.6797 C   0  0  0  0  0  0  0  0  0  0  0  0
  127.3045  135.6229  161.8299 C   0  0  0  0  0  0  0  0  0  0  0  0
  125.8664  135.3875  161.8584 N   0  0  0  0  0  0  0  0  0  0  0  0
  125.6515  132.1708  161.2656 H   0  0  0  0  0  0  0  0  0  0  0  0
  125.9189  133.1058  159.7757 H   0  0  0  0  0  0  0  0  0  0  0  0
  128.1004  132.5087  160.6121 H   0  0  0  0  0  0  0  0  0  0  0  0
  127.6781  133.0317  162.2630 H   0  0  0  0  0  0  0  0  0  0  0  0
  129.8233  134.9997  161.8742 H   0  0  0  0  0  0  0  0  0  0  0  0
  128.8471  134.4545  158.4812 H   0  0  0  0  0  0  0  0  0  0  0  0
  131.4198  133.6977  157.5782 H   0  0  0  0  0  0  0  0  0  0  0  0
  131.2194  132.0422  159.4674 H   0  0  0  0  0  0  0  0  0  0  0  0
  129.7531  131.3882  158.6905 H   0  0  0  0  0  0  0  0  0  0  0  0
  131.7969  128.9905  153.8218 H   0  0  0  0  0  0  0  0  0  0  0  0
  130.2327  130.5169  152.6888 H   0  0  0  0  0  0  0  0  0  0  0  0
  129.2288  132.3956  153.9698 H   0  0  0  0  0  0  0  0  0  0  0  0
  128.6243  132.7393  156.8330 H   0  0  0  0  0  0  0  0  0  0  0  0
  129.6464  133.9017  155.9554 H   0  0  0  0  0  0  0  0  0  0  0  0
  131.7870  135.2736  162.0499 H   0  0  0  0  0  0  0  0  0  0  0  0
  133.9874  134.4151  161.1696 H   0  0  0  0  0  0  0  0  0  0  0  0
  134.0122  135.7710  160.0126 H   0  0  0  0  0  0  0  0  0  0  0  0
  135.3651  138.2277  163.2694 H   0  0  0  0  0  0  0  0  0  0  0  0
  132.4259  141.1835  162.3718 H   0  0  0  0  0  0  0  0  0  0  0  0
  131.1375  139.5184  161.1027 H   0  0  0  0  0  0  0  0  0  0  0  0
  130.6490  137.0717  160.9113 H   0  0  0  0  0  0  0  0  0  0  0  0
  131.8666  137.1036  159.6142 H   0  0  0  0  0  0  0  0  0  0  0  0
  127.7122  135.4842  162.8311 H   0  0  0  0  0  0  0  0  0  0  0  0
  127.4927  136.6455  161.5027 H   0  0  0  0  0  0  0  0  0  0  0  0
  125.2964  136.0958  162.1966 H   0  0  0  0  0  0  0  0  0  0  0  0
  1  2  2  0
  2 34  1  0
  2  3  1  0
  3  4  1  0
  3 35  1  0
  3 36  1  0
  4  5  1  0
  4 37  1  0
  4 38  1  0
  5  6  1  6
  5  7  1  0
  5 33  1  0
  7 39  1  0
  8  7  1  0
  8  9  1  0
  8 20  2  0
  9 10  1  0
  9 40  1  0
 10 19  1  0
 10 11  1  0
 10 41  1  6
 11 12  1  0
 11 42  1  0
 11 43  1  0
 12 13  1  0
 13 18  2  0
 13 14  1  0
 14 15  2  0
 15 16  1  0
 15 44  1  0
 16 17  2  0
 16 45  1  0
 17 18  1  0
 17 46  1  0
 18 19  1  0
 19 47  1  0
 19 48  1  0
 20 21  1  0
 20 22  1  0
 22 32  1  0
 22 23  1  0
 22 49  1  1
 23 24  1  0
 23 50  1  0
 23 51  1  0
 24 25  1  0
 25 31  2  0
 25 26  1  0
 26 27  2  0
 26 52  1  0
 27 28  1  0
 27 29  1  0
 29 30  2  0
 29 53  1  0
 30 31  1  0
 30 54  1  0
 31 32  1  0
 32 55  1  0
 32 56  1  0
 33 34  1  0
 33 57  1  0
 33 58  1  0
 34 59  1  0
M  CHG  1  20   1
M  END
>  <DOCK_score>  (1) 
-43.921581

>  <SMILES>  (1) 
O=C1CC[C@H](NC(NC2COc3ncccc3C2)=[NH+]C2COc3cc(Cl)ccc3C2)CN1

$$$$
