CC=CNC(N[C@@H]1CCNC(=O)CC1)=[NH+]C1CC1
     RDKit          3D

 41 42  0  0  1  0  0  0  0  0999 V2000
  130.5423  130.7634  153.3992 C   0  0  0  0  0  0  0  0  0  0  0  0
  130.8288  132.0337  154.1578 C   0  0  0  0  0  0  0  0  0  0  0  0
  130.3661  132.1886  155.3836 C   0  0  0  0  0  0  0  0  0  0  0  0
  130.6258  133.3640  156.0819 N   0  0  0  0  0  0  0  0  0  0  0  0
  130.1429  133.5257  157.3611 C   0  0  0  0  0  0  0  0  0  0  0  0
  129.8337  134.7825  157.8255 N   0  0  0  0  0  0  0  0  0  0  0  0
  129.3199  134.9546  159.1866 C   0  0  2  0  0  0  0  0  0  0  0  0
  129.7322  134.1655  159.8156 H   0  0  0  0  0  0  0  0  0  0  0  0
  127.8094  134.8103  159.1561 C   0  0  0  0  0  0  0  0  0  0  0  0
  127.2356  134.7806  160.5740 C   0  0  0  0  0  0  0  0  0  0  0  0
  127.0062  136.1649  161.0185 N   0  0  0  0  0  0  0  0  0  0  0  0
  128.0361  136.9564  161.3213 C   0  0  0  0  0  0  0  0  0  0  0  0
  127.8358  138.0937  161.6919 O   0  0  0  0  0  0  0  0  0  0  0  0
  129.4547  136.4400  161.2036 C   0  0  0  0  0  0  0  0  0  0  0  0
  129.7970  136.2937  159.7189 C   0  0  0  0  0  0  0  0  0  0  0  0
  129.9787  132.4875  158.1318 N   0  0  0  0  0  0  0  0  0  0  0  0
  129.2834  132.4906  158.8081 H   0  0  0  0  0  0  0  0  0  0  0  0
  130.8449  131.3161  157.9770 C   0  0  0  0  0  0  0  0  0  0  0  0
  130.2015  129.9366  158.1320 C   0  0  0  0  0  0  0  0  0  0  0  0
  131.1268  130.4763  159.2243 C   0  0  0  0  0  0  0  0  0  0  0  0
  130.9529  129.9139  153.9450 H   0  0  0  0  0  0  0  0  0  0  0  0
  129.4648  130.6397  153.2914 H   0  0  0  0  0  0  0  0  0  0  0  0
  131.0022  130.8179  152.4125 H   0  0  0  0  0  0  0  0  0  0  0  0
  131.4129  132.8171  153.6979 H   0  0  0  0  0  0  0  0  0  0  0  0
  129.7820  131.4052  155.8434 H   0  0  0  0  0  0  0  0  0  0  0  0
  131.1469  134.0693  155.6675 H   0  0  0  0  0  0  0  0  0  0  0  0
  129.9559  135.5551  157.2520 H   0  0  0  0  0  0  0  0  0  0  0  0
  127.3798  135.6522  158.6133 H   0  0  0  0  0  0  0  0  0  0  0  0
  127.5481  133.8841  158.6443 H   0  0  0  0  0  0  0  0  0  0  0  0
  126.2920  134.2349  160.5754 H   0  0  0  0  0  0  0  0  0  0  0  0
  127.9421  134.2910  161.2443 H   0  0  0  0  0  0  0  0  0  0  0  0
  126.1003  136.5036  161.0919 H   0  0  0  0  0  0  0  0  0  0  0  0
  130.1415  137.1463  161.6700 H   0  0  0  0  0  0  0  0  0  0  0  0
  129.5340  135.4715  161.6976 H   0  0  0  0  0  0  0  0  0  0  0  0
  130.8769  136.3668  159.5908 H   0  0  0  0  0  0  0  0  0  0  0  0
  129.3147  137.0949  159.1590 H   0  0  0  0  0  0  0  0  0  0  0  0
  131.6476  131.4182  157.2469 H   0  0  0  0  0  0  0  0  0  0  0  0
  129.1340  129.9007  158.3491 H   0  0  0  0  0  0  0  0  0  0  0  0
  130.5810  129.1309  157.5036 H   0  0  0  0  0  0  0  0  0  0  0  0
  132.1152  130.0255  159.3147 H   0  0  0  0  0  0  0  0  0  0  0  0
  130.6681  130.7953  160.1603 H   0  0  0  0  0  0  0  0  0  0  0  0
  1  2  1  0
  1 21  1  0
  1 22  1  0
  1 23  1  0
  2  3  2  0
  2 24  1  0
  3  4  1  0
  3 25  1  0
  4 26  1  0
  5  4  1  0
  5  6  1  0
  5 16  2  0
  6  7  1  0
  6 27  1  0
  7  8  1  1
  7 15  1  0
  7  9  1  0
  9 10  1  0
  9 28  1  0
  9 29  1  0
 10 11  1  0
 10 30  1  0
 10 31  1  0
 11 12  1  0
 11 32  1  0
 12 13  2  0
 12 14  1  0
 14 15  1  0
 14 33  1  0
 14 34  1  0
 15 35  1  0
 15 36  1  0
 16 17  1  0
 16 18  1  0
 18 20  1  0
 18 19  1  0
 18 37  1  0
 19 20  1  0
 19 38  1  0
 19 39  1  0
 20 40  1  0
 20 41  1  0
M  CHG  1  16   1
M  END
>  <DOCK_score>  (1) 
-43.379829

>  <SMILES>  (1) 
CC=CNC(N[C@@H]1CCNC(=O)CC1)=[NH+]C1CC1

$$$$
