Nc1ccc(-c2c[nH]c(N[C@@H](CC3=CCC=CC3)c3cccc4ccccc34)[nH+]2)cc1
     RDKit          3D

 58 62  0  0  1  0  0  0  0  0999 V2000
  130.7622  129.7502  152.1486 N   0  0  0  0  0  0  0  0  0  0  0  0
  130.6880  130.4344  153.3642 C   0  0  0  0  0  0  0  0  0  0  0  0
  130.2728  131.7606  153.3898 C   0  0  0  0  0  0  0  0  0  0  0  0
  130.1989  132.4379  154.5886 C   0  0  0  0  0  0  0  0  0  0  0  0
  130.5408  131.7915  155.7755 C   0  0  0  0  0  0  0  0  0  0  0  0
  130.4620  132.5182  157.0665 C   0  0  0  0  0  0  0  0  0  0  0  0
  130.1934  131.9686  158.2764 C   0  0  0  0  0  0  0  0  0  0  0  0
  130.2185  132.9922  159.1938 N   0  0  0  0  0  0  0  0  0  0  0  0
  130.0631  132.9126  160.1480 H   0  0  0  0  0  0  0  0  0  0  0  0
  130.5020  134.1375  158.5159 C   0  0  0  0  0  0  0  0  0  0  0  0
  130.6184  135.3982  159.0760 N   0  0  0  0  0  0  0  0  0  0  0  0
  129.8447  135.7430  160.2714 C   0  0  1  0  0  0  0  0  0  0  0  0
  130.1121  135.0679  161.0844 H   0  0  0  0  0  0  0  0  0  0  0  0
  130.1553  137.1838  160.6819 C   0  0  0  0  0  0  0  0  0  0  0  0
  131.6266  137.3150  160.9805 C   0  0  0  0  0  0  0  0  0  0  0  0
  132.3299  138.1530  160.2815 C   0  0  0  0  0  0  0  0  0  0  0  0
  133.7977  138.3643  160.5017 C   0  0  0  0  0  0  0  0  0  0  0  0
  134.4070  137.2042  161.2301 C   0  0  0  0  0  0  0  0  0  0  0  0
  133.7047  136.3623  161.9256 C   0  0  0  0  0  0  0  0  0  0  0  0
  132.2161  136.4679  162.0678 C   0  0  0  0  0  0  0  0  0  0  0  0
  128.3736  135.6116  159.9727 C   0  0  0  0  0  0  0  0  0  0  0  0
  127.9093  135.8287  158.7116 C   0  0  0  0  0  0  0  0  0  0  0  0
  126.5526  135.7116  158.4164 C   0  0  0  0  0  0  0  0  0  0  0  0
  125.6519  135.3771  159.3807 C   0  0  0  0  0  0  0  0  0  0  0  0
  126.0936  135.1457  160.6943 C   0  0  0  0  0  0  0  0  0  0  0  0
  125.1937  134.7973  161.7161 C   0  0  0  0  0  0  0  0  0  0  0  0
  125.6579  134.5795  162.9768 C   0  0  0  0  0  0  0  0  0  0  0  0
  127.0150  134.6969  163.2720 C   0  0  0  0  0  0  0  0  0  0  0  0
  127.9155  135.0320  162.3083 C   0  0  0  0  0  0  0  0  0  0  0  0
  127.4738  135.2642  160.9944 C   0  0  0  0  0  0  0  0  0  0  0  0
  130.6412  133.8512  157.2443 N   0  0  0  0  0  0  0  0  0  0  0  0
  130.8425  134.4901  156.5429 H   0  0  0  0  0  0  0  0  0  0  0  0
  130.9624  130.4631  155.7467 C   0  0  0  0  0  0  0  0  0  0  0  0
  131.0289  129.7878  154.5463 C   0  0  0  0  0  0  0  0  0  0  0  0
  130.5238  130.2007  151.3232 H   0  0  0  0  0  0  0  0  0  0  0  0
  131.0516  128.8245  152.1298 H   0  0  0  0  0  0  0  0  0  0  0  0
  130.0083  132.2610  152.4701 H   0  0  0  0  0  0  0  0  0  0  0  0
  129.8760  133.4684  154.6080 H   0  0  0  0  0  0  0  0  0  0  0  0
  129.9970  130.9263  158.4803 H   0  0  0  0  0  0  0  0  0  0  0  0
  131.2121  136.0532  158.6769 H   0  0  0  0  0  0  0  0  0  0  0  0
  129.8880  137.8588  159.8689 H   0  0  0  0  0  0  0  0  0  0  0  0
  129.5797  137.4403  161.5712 H   0  0  0  0  0  0  0  0  0  0  0  0
  131.8352  138.7261  159.5112 H   0  0  0  0  0  0  0  0  0  0  0  0
  133.9483  139.2720  161.0862 H   0  0  0  0  0  0  0  0  0  0  0  0
  134.2881  138.4765  159.5349 H   0  0  0  0  0  0  0  0  0  0  0  0
  135.4762  137.0629  161.1741 H   0  0  0  0  0  0  0  0  0  0  0  0
  134.2151  135.5511  162.4234 H   0  0  0  0  0  0  0  0  0  0  0  0
  131.9801  136.9123  163.0347 H   0  0  0  0  0  0  0  0  0  0  0  0
  131.7816  135.4694  162.0180 H   0  0  0  0  0  0  0  0  0  0  0  0
  128.6031  136.0952  157.9280 H   0  0  0  0  0  0  0  0  0  0  0  0
  126.2106  135.8891  157.4076 H   0  0  0  0  0  0  0  0  0  0  0  0
  124.6027  135.2948  159.1384 H   0  0  0  0  0  0  0  0  0  0  0  0
  124.1393  134.7033  161.5022 H   0  0  0  0  0  0  0  0  0  0  0  0
  124.9643  134.3120  163.7602 H   0  0  0  0  0  0  0  0  0  0  0  0
  127.3571  134.5189  164.2809 H   0  0  0  0  0  0  0  0  0  0  0  0
  128.9641  135.1194  162.5518 H   0  0  0  0  0  0  0  0  0  0  0  0
  131.2320  129.9617  156.6644 H   0  0  0  0  0  0  0  0  0  0  0  0
  131.3505  128.7571  154.5240 H   0  0  0  0  0  0  0  0  0  0  0  0
  1  2  1  0
  1 35  1  0
  1 36  1  0
  2 34  2  0
  2  3  1  0
  3  4  2  0
  3 37  1  0
  4  5  1  0
  4 38  1  0
  5  6  1  0
  5 33  2  0
  6 31  1  0
  6  7  2  0
  7  8  1  0
  7 39  1  0
  8  9  1  0
  8 10  1  0
 10 11  1  0
 10 31  2  0
 11 12  1  0
 11 40  1  0
 12 13  1  1
 12 14  1  0
 12 21  1  0
 14 15  1  0
 14 41  1  0
 14 42  1  0
 15 20  1  0
 15 16  2  0
 16 17  1  0
 16 43  1  0
 17 18  1  0
 17 44  1  0
 17 45  1  0
 18 19  2  0
 18 46  1  0
 19 20  1  0
 19 47  1  0
 20 48  1  0
 20 49  1  0
 21 30  1  0
 21 22  2  0
 22 23  1  0
 22 50  1  0
 23 24  2  0
 23 51  1  0
 24 25  1  0
 24 52  1  0
 25 30  2  0
 25 26  1  0
 26 27  2  0
 26 53  1  0
 27 28  1  0
 27 54  1  0
 28 29  2  0
 28 55  1  0
 29 30  1  0
 29 56  1  0
 31 32  1  0
 33 34  1  0
 33 57  1  0
 34 58  1  0
M  CHG  1  31   1
M  END
>  <DOCK_score>  (1) 
-62.31242

>  <SMILES>  (1) 
Nc1ccc(-c2c[nH]c(N[C@@H](CC3=CCC=CC3)c3cccc4ccccc34)[nH+]2)cc1

$$$$
