Cc1c(NC/C=C/c2ccc(F)cc2)cccc1N1CC[NH+](C(c2ccccc2)c2ccccc2)CC1
     RDKit          3D

 72 76  0  0  1  0  0  0  0  0999 V2000
  134.0070  135.4632  163.4526 C   0  0  0  0  0  0  0  0  0  0  0  0
  134.3513  136.4772  162.3920 C   0  0  0  0  0  0  0  0  0  0  0  0
  135.3252  137.4354  162.6360 C   0  0  0  0  0  0  0  0  0  0  0  0
  135.9887  137.4608  163.8647 N   0  0  0  0  0  0  0  0  0  0  0  0
  137.0167  138.4726  164.1213 C   0  0  0  0  0  0  0  0  0  0  0  0
  137.5730  138.2827  165.5089 C   0  0  0  0  0  0  0  0  0  0  0  0
  138.1594  137.1400  165.8373 C   0  0  0  0  0  0  0  0  0  0  0  0
  138.7050  136.9538  167.1984 C   0  0  0  0  0  0  0  0  0  0  0  0
  138.9894  138.0626  167.9964 C   0  0  0  0  0  0  0  0  0  0  0  0
  139.4935  137.8829  169.2677 C   0  0  0  0  0  0  0  0  0  0  0  0
  139.7278  136.6047  169.7487 C   0  0  0  0  0  0  0  0  0  0  0  0
  140.2264  136.4344  170.9926 F   0  0  0  0  0  0  0  0  0  0  0  0
  139.4521  135.5004  168.9583 C   0  0  0  0  0  0  0  0  0  0  0  0
  138.9428  135.6686  167.6875 C   0  0  0  0  0  0  0  0  0  0  0  0
  135.6401  138.3688  161.6560 C   0  0  0  0  0  0  0  0  0  0  0  0
  134.9845  138.3441  160.4400 C   0  0  0  0  0  0  0  0  0  0  0  0
  134.0140  137.3923  160.1943 C   0  0  0  0  0  0  0  0  0  0  0  0
  133.6945  136.4555  161.1700 C   0  0  0  0  0  0  0  0  0  0  0  0
  132.7137  135.4929  160.9204 N   0  0  0  0  0  0  0  0  0  0  0  0
  133.1168  134.6026  159.8227 C   0  0  0  0  0  0  0  0  0  0  0  0
  132.0452  133.5289  159.6211 C   0  0  0  0  0  0  0  0  0  0  0  0
  130.7617  134.1707  159.3077 N   0  0  0  0  0  0  0  0  0  0  0  0
  130.8585  134.7245  158.4699 H   0  0  0  0  0  0  0  0  0  0  0  0
  129.7374  133.1392  159.0965 C   0  0  0  0  0  0  0  0  0  0  0  0
  128.4203  133.7974  158.7750 C   0  0  0  0  0  0  0  0  0  0  0  0
  127.2348  133.1788  159.1254 C   0  0  0  0  0  0  0  0  0  0  0  0
  126.0268  133.7849  158.8348 C   0  0  0  0  0  0  0  0  0  0  0  0
  126.0042  135.0044  158.1844 C   0  0  0  0  0  0  0  0  0  0  0  0
  127.1897  135.6204  157.8292 C   0  0  0  0  0  0  0  0  0  0  0  0
  128.3977  135.0169  158.1246 C   0  0  0  0  0  0  0  0  0  0  0  0
  130.1479  132.2509  157.9505 C   0  0  0  0  0  0  0  0  0  0  0  0
  129.7609  132.5634  156.6607 C   0  0  0  0  0  0  0  0  0  0  0  0
  130.1416  131.7513  155.6089 C   0  0  0  0  0  0  0  0  0  0  0  0
  130.9003  130.6208  155.8481 C   0  0  0  0  0  0  0  0  0  0  0  0
  131.2829  130.3053  157.1385 C   0  0  0  0  0  0  0  0  0  0  0  0
  130.9066  131.1204  158.1896 C   0  0  0  0  0  0  0  0  0  0  0  0
  130.3603  135.0376  160.4236 C   0  0  0  0  0  0  0  0  0  0  0  0
  131.4180  136.1236  160.6319 C   0  0  0  0  0  0  0  0  0  0  0  0
  134.6409  134.5844  163.3342 H   0  0  0  0  0  0  0  0  0  0  0  0
  134.1702  135.8990  164.4383 H   0  0  0  0  0  0  0  0  0  0  0  0
  132.9612  135.1731  163.3521 H   0  0  0  0  0  0  0  0  0  0  0  0
  135.7689  136.8085  164.5481 H   0  0  0  0  0  0  0  0  0  0  0  0
  137.8190  138.3689  163.3908 H   0  0  0  0  0  0  0  0  0  0  0  0
  136.5768  139.4665  164.0391 H   0  0  0  0  0  0  0  0  0  0  0  0
  137.4940  139.0776  166.2358 H   0  0  0  0  0  0  0  0  0  0  0  0
  138.2383  136.3451  165.1105 H   0  0  0  0  0  0  0  0  0  0  0  0
  138.8114  139.0593  167.6209 H   0  0  0  0  0  0  0  0  0  0  0  0
  139.7101  138.7403  169.8878 H   0  0  0  0  0  0  0  0  0  0  0  0
  139.6364  134.5062  169.3378 H   0  0  0  0  0  0  0  0  0  0  0  0
  138.7283  134.8073  167.0722 H   0  0  0  0  0  0  0  0  0  0  0  0
  136.4014  139.1118  161.8435 H   0  0  0  0  0  0  0  0  0  0  0  0
  135.2312  139.0708  159.6800 H   0  0  0  0  0  0  0  0  0  0  0  0
  133.5032  137.3760  159.2428 H   0  0  0  0  0  0  0  0  0  0  0  0
  133.2277  135.1822  158.9063 H   0  0  0  0  0  0  0  0  0  0  0  0
  134.0659  134.1271  160.0699 H   0  0  0  0  0  0  0  0  0  0  0  0
  131.9441  132.9406  160.5331 H   0  0  0  0  0  0  0  0  0  0  0  0
  132.3354  132.8760  158.7980 H   0  0  0  0  0  0  0  0  0  0  0  0
  129.6329  132.5403  160.0012 H   0  0  0  0  0  0  0  0  0  0  0  0
  127.2525  132.2240  159.6296 H   0  0  0  0  0  0  0  0  0  0  0  0
  125.1007  133.3034  159.1121 H   0  0  0  0  0  0  0  0  0  0  0  0
  125.0603  135.4758  157.9534 H   0  0  0  0  0  0  0  0  0  0  0  0
  127.1718  136.5730  157.3207 H   0  0  0  0  0  0  0  0  0  0  0  0
  129.3239  135.4980  157.8468 H   0  0  0  0  0  0  0  0  0  0  0  0
  129.1644  133.4442  156.4744 H   0  0  0  0  0  0  0  0  0  0  0  0
  129.8425  131.9975  154.6008 H   0  0  0  0  0  0  0  0  0  0  0  0
  131.1940  129.9838  155.0269 H   0  0  0  0  0  0  0  0  0  0  0  0
  131.8754  129.4219  157.3254 H   0  0  0  0  0  0  0  0  0  0  0  0
  131.2052  130.8737  159.1979 H   0  0  0  0  0  0  0  0  0  0  0  0
  130.2679  134.4416  161.3315 H   0  0  0  0  0  0  0  0  0  0  0  0
  129.4014  135.5031  160.1954 H   0  0  0  0  0  0  0  0  0  0  0  0
  131.1277  136.7581  161.4694 H   0  0  0  0  0  0  0  0  0  0  0  0
  131.5010  136.7285  159.7289 H   0  0  0  0  0  0  0  0  0  0  0  0
  1  2  1  0
  1 39  1  0
  1 40  1  0
  1 41  1  0
  2 18  2  0
  2  3  1  0
  3  4  1  0
  3 15  2  0
  4  5  1  0
  4 42  1  0
  5  6  1  0
  5 43  1  0
  5 44  1  0
  6  7  2  0
  6 45  1  0
  7  8  1  0
  7 46  1  0
  8 14  1  0
  8  9  2  0
  9 10  1  0
  9 47  1  0
 10 11  2  0
 10 48  1  0
 11 12  1  0
 11 13  1  0
 13 14  2  0
 13 49  1  0
 14 50  1  0
 15 16  1  0
 15 51  1  0
 16 17  2  0
 16 52  1  0
 17 18  1  0
 17 53  1  0
 18 19  1  0
 19 38  1  0
 19 20  1  0
 20 21  1  0
 20 54  1  0
 20 55  1  0
 21 22  1  0
 21 56  1  0
 21 57  1  0
 22 23  1  0
 22 24  1  0
 22 37  1  0
 24 25  1  0
 24 31  1  0
 24 58  1  0
 25 30  1  0
 25 26  2  0
 26 27  1  0
 26 59  1  0
 27 28  2  0
 27 60  1  0
 28 29  1  0
 28 61  1  0
 29 30  2  0
 29 62  1  0
 30 63  1  0
 31 36  1  0
 31 32  2  0
 32 33  1  0
 32 64  1  0
 33 34  2  0
 33 65  1  0
 34 35  1  0
 34 66  1  0
 35 36  2  0
 35 67  1  0
 36 68  1  0
 37 38  1  0
 37 69  1  0
 37 70  1  0
 38 71  1  0
 38 72  1  0
M  CHG  1  22   1
M  END
>  <DOCK_score>  (1) 
-58.572308

>  <SMILES>  (1) 
Cc1c(NC/C=C/c2ccc(F)cc2)cccc1N1CC[NH+](C(c2ccccc2)c2ccccc2)CC1

$$$$
