CCc1ccc(-c2c[nH]c(N[C@@H](Cc3ccc(F)cc3F)c3ccc(C)cc3)[nH+]2)cc1
     RDKit          3D

 57 60  0  0  1  0  0  0  0  0999 V2000
  130.0157  130.4475  151.8947 C   0  0  0  0  0  0  0  0  0  0  0  0
  131.0142  129.8742  152.9011 C   0  0  0  0  0  0  0  0  0  0  0  0
  130.9425  130.6610  154.1844 C   0  0  0  0  0  0  0  0  0  0  0  0
  130.5945  131.9995  154.1535 C   0  0  0  0  0  0  0  0  0  0  0  0
  130.5218  132.7235  155.3261 C   0  0  0  0  0  0  0  0  0  0  0  0
  130.8108  132.1066  156.5419 C   0  0  0  0  0  0  0  0  0  0  0  0
  130.7397  132.8808  157.8052 C   0  0  0  0  0  0  0  0  0  0  0  0
  130.4338  132.3843  159.0295 C   0  0  0  0  0  0  0  0  0  0  0  0
  130.4819  133.4375  159.9101 N   0  0  0  0  0  0  0  0  0  0  0  0
  130.3092  133.3972  160.8638 H   0  0  0  0  0  0  0  0  0  0  0  0
  130.8162  134.5478  159.1976 C   0  0  0  0  0  0  0  0  0  0  0  0
  130.9691  135.8224  159.7155 N   0  0  0  0  0  0  0  0  0  0  0  0
  130.7669  136.0607  161.1469 C   0  0  1  0  0  0  0  0  0  0  0  0
  131.4723  135.4579  161.7186 H   0  0  0  0  0  0  0  0  0  0  0  0
  130.9952  137.5420  161.4545 C   0  0  0  0  0  0  0  0  0  0  0  0
  132.4035  137.9225  161.0759 C   0  0  0  0  0  0  0  0  0  0  0  0
  132.6746  138.3884  159.8031 C   0  0  0  0  0  0  0  0  0  0  0  0
  133.9653  138.7386  159.4547 C   0  0  0  0  0  0  0  0  0  0  0  0
  134.9888  138.6222  160.3813 C   0  0  0  0  0  0  0  0  0  0  0  0
  136.2504  138.9641  160.0397 F   0  0  0  0  0  0  0  0  0  0  0  0
  134.7183  138.1553  161.6551 C   0  0  0  0  0  0  0  0  0  0  0  0
  133.4239  137.8105  162.0048 C   0  0  0  0  0  0  0  0  0  0  0  0
  133.1577  137.3597  163.2501 F   0  0  0  0  0  0  0  0  0  0  0  0
  129.3586  135.6804  161.5253 C   0  0  0  0  0  0  0  0  0  0  0  0
  128.3396  135.7922  160.5981 C   0  0  0  0  0  0  0  0  0  0  0  0
  127.0485  135.4391  160.9439 C   0  0  0  0  0  0  0  0  0  0  0  0
  126.7751  134.9828  162.2199 C   0  0  0  0  0  0  0  0  0  0  0  0
  125.3671  134.6014  162.5981 C   0  0  0  0  0  0  0  0  0  0  0  0
  127.7932  134.8760  163.1487 C   0  0  0  0  0  0  0  0  0  0  0  0
  129.0850  135.2250  162.8015 C   0  0  0  0  0  0  0  0  0  0  0  0
  130.9751  134.2101  157.9412 N   0  0  0  0  0  0  0  0  0  0  0  0
  131.2196  134.8144  157.2229 H   0  0  0  0  0  0  0  0  0  0  0  0
  131.1662  130.7590  156.5666 C   0  0  0  0  0  0  0  0  0  0  0  0
  131.2303  130.0434  155.3883 C   0  0  0  0  0  0  0  0  0  0  0  0
  129.0080  130.3820  152.3051 H   0  0  0  0  0  0  0  0  0  0  0  0
  130.2596  131.4908  151.6952 H   0  0  0  0  0  0  0  0  0  0  0  0
  130.0669  129.8790  150.9664 H   0  0  0  0  0  0  0  0  0  0  0  0
  130.7706  128.8302  153.1011 H   0  0  0  0  0  0  0  0  0  0  0  0
  132.0223  129.9390  152.4911 H   0  0  0  0  0  0  0  0  0  0  0  0
  130.3754  132.4777  153.2102 H   0  0  0  0  0  0  0  0  0  0  0  0
  130.2454  133.7673  155.3013 H   0  0  0  0  0  0  0  0  0  0  0  0
  130.1972  131.3576  159.2666 H   0  0  0  0  0  0  0  0  0  0  0  0
  131.2102  136.5579  159.1307 H   0  0  0  0  0  0  0  0  0  0  0  0
  130.2898  138.1448  160.8827 H   0  0  0  0  0  0  0  0  0  0  0  0
  130.8448  137.7192  162.5195 H   0  0  0  0  0  0  0  0  0  0  0  0
  131.8771  138.4794  159.0804 H   0  0  0  0  0  0  0  0  0  0  0  0
  134.1759  139.1032  158.4603 H   0  0  0  0  0  0  0  0  0  0  0  0
  135.5158  138.0644  162.3777 H   0  0  0  0  0  0  0  0  0  0  0  0
  128.5525  136.1522  159.6023 H   0  0  0  0  0  0  0  0  0  0  0  0
  126.2531  135.5222  160.2181 H   0  0  0  0  0  0  0  0  0  0  0  0
  124.8488  135.4739  162.9960 H   0  0  0  0  0  0  0  0  0  0  0  0
  124.8401  134.2368  161.7162 H   0  0  0  0  0  0  0  0  0  0  0  0
  125.3938  133.8179  163.3553 H   0  0  0  0  0  0  0  0  0  0  0  0
  127.5796  134.5196  164.1456 H   0  0  0  0  0  0  0  0  0  0  0  0
  129.8804  135.1416  163.5272 H   0  0  0  0  0  0  0  0  0  0  0  0
  131.3915  130.2760  157.5059 H   0  0  0  0  0  0  0  0  0  0  0  0
  131.5059  128.9994  155.4061 H   0  0  0  0  0  0  0  0  0  0  0  0
  1  2  1  0
  1 35  1  0
  1 36  1  0
  1 37  1  0
  2  3  1  0
  2 38  1  0
  2 39  1  0
  3 34  2  0
  3  4  1  0
  4  5  2  0
  4 40  1  0
  5  6  1  0
  5 41  1  0
  6  7  1  0
  6 33  2  0
  7 31  1  0
  7  8  2  0
  8  9  1  0
  8 42  1  0
  9 10  1  0
  9 11  1  0
 11 12  1  0
 11 31  2  0
 12 13  1  0
 12 43  1  0
 13 14  1  1
 13 15  1  0
 13 24  1  0
 15 16  1  0
 15 44  1  0
 15 45  1  0
 16 22  1  0
 16 17  2  0
 17 18  1  0
 17 46  1  0
 18 19  2  0
 18 47  1  0
 19 20  1  0
 19 21  1  0
 21 22  2  0
 21 48  1  0
 22 23  1  0
 24 30  1  0
 24 25  2  0
 25 26  1  0
 25 49  1  0
 26 27  2  0
 26 50  1  0
 27 28  1  0
 27 29  1  0
 28 51  1  0
 28 52  1  0
 28 53  1  0
 29 30  2  0
 29 54  1  0
 30 55  1  0
 31 32  1  0
 33 34  1  0
 33 56  1  0
 34 57  1  0
M  CHG  1  31   1
M  END
>  <DOCK_score>  (1) 
-57.204807

>  <SMILES>  (1) 
CCc1ccc(-c2c[nH]c(N[C@@H](Cc3ccc(F)cc3F)c3ccc(C)cc3)[nH+]2)cc1

$$$$
