C(=Cc1c[nH]c(NC(Cc2ccccc2)Cc2ccccc2)[nH+]1)c1ccccc1
     RDKit          3D

 55 58  0  0  1  0  0  0  0  0999 V2000
  130.6894  131.8083  155.1219 C   0  0  0  0  0  0  0  0  0  0  0  0
  130.5457  131.2366  156.3291 C   0  0  0  0  0  0  0  0  0  0  0  0
  130.3098  132.0742  157.5172 C   0  0  0  0  0  0  0  0  0  0  0  0
  129.6096  131.7132  158.6274 C   0  0  0  0  0  0  0  0  0  0  0  0
  129.6428  132.7845  159.4838 N   0  0  0  0  0  0  0  0  0  0  0  0
  129.2333  132.8302  160.3619 H   0  0  0  0  0  0  0  0  0  0  0  0
  130.3529  133.7732  158.8736 C   0  0  0  0  0  0  0  0  0  0  0  0
  130.6147  135.0231  159.4071 N   0  0  0  0  0  0  0  0  0  0  0  0
  130.1114  135.3716  160.7380 C   0  0  0  0  0  0  0  0  0  0  0  0
  131.2879  135.7071  161.6565 C   0  0  0  0  0  0  0  0  0  0  0  0
  132.0527  136.8742  161.0873 C   0  0  0  0  0  0  0  0  0  0  0  0
  133.1028  136.6533  160.2156 C   0  0  0  0  0  0  0  0  0  0  0  0
  133.8011  137.7240  159.6896 C   0  0  0  0  0  0  0  0  0  0  0  0
  133.4564  139.0151  160.0434 C   0  0  0  0  0  0  0  0  0  0  0  0
  132.4099  139.2357  160.9192 C   0  0  0  0  0  0  0  0  0  0  0  0
  131.7080  138.1652  161.4411 C   0  0  0  0  0  0  0  0  0  0  0  0
  129.1853  136.5848  160.6316 C   0  0  0  0  0  0  0  0  0  0  0  0
  128.0263  136.2543  159.7268 C   0  0  0  0  0  0  0  0  0  0  0  0
  128.1165  136.5014  158.3698 C   0  0  0  0  0  0  0  0  0  0  0  0
  127.0551  136.1938  157.5391 C   0  0  0  0  0  0  0  0  0  0  0  0
  125.8997  135.6487  158.0672 C   0  0  0  0  0  0  0  0  0  0  0  0
  125.8075  135.4065  159.4250 C   0  0  0  0  0  0  0  0  0  0  0  0
  126.8709  135.7093  160.2548 C   0  0  0  0  0  0  0  0  0  0  0  0
  130.7528  133.3459  157.7014 N   0  0  0  0  0  0  0  0  0  0  0  0
  131.2806  133.8555  157.0668 H   0  0  0  0  0  0  0  0  0  0  0  0
  130.9254  130.9701  153.9332 C   0  0  0  0  0  0  0  0  0  0  0  0
  131.4104  129.6673  154.0775 C   0  0  0  0  0  0  0  0  0  0  0  0
  131.6237  128.8870  152.9606 C   0  0  0  0  0  0  0  0  0  0  0  0
  131.3690  129.3947  151.6987 C   0  0  0  0  0  0  0  0  0  0  0  0
  130.8941  130.6857  151.5475 C   0  0  0  0  0  0  0  0  0  0  0  0
  130.6708  131.4761  152.6554 C   0  0  0  0  0  0  0  0  0  0  0  0
  130.6319  132.8822  155.0227 H   0  0  0  0  0  0  0  0  0  0  0  0
  130.6031  130.1627  156.4284 H   0  0  0  0  0  0  0  0  0  0  0  0
  129.1247  130.7641  158.8022 H   0  0  0  0  0  0  0  0  0  0  0  0
  131.1314  135.6684  158.8997 H   0  0  0  0  0  0  0  0  0  0  0  0
  129.5582  134.5274  161.1498 H   0  0  0  0  0  0  0  0  0  0  0  0
  130.9134  135.9664  162.6468 H   0  0  0  0  0  0  0  0  0  0  0  0
  131.9476  134.8427  161.7326 H   0  0  0  0  0  0  0  0  0  0  0  0
  133.3750  135.6445  159.9426 H   0  0  0  0  0  0  0  0  0  0  0  0
  134.6191  137.5517  159.0058 H   0  0  0  0  0  0  0  0  0  0  0  0
  134.0050  139.8514  159.6360 H   0  0  0  0  0  0  0  0  0  0  0  0
  132.1406  140.2443  161.1959 H   0  0  0  0  0  0  0  0  0  0  0  0
  130.8906  138.3375  162.1255 H   0  0  0  0  0  0  0  0  0  0  0  0
  128.8108  136.8440  161.6219 H   0  0  0  0  0  0  0  0  0  0  0  0
  129.7383  137.4290  160.2198 H   0  0  0  0  0  0  0  0  0  0  0  0
  129.0175  136.9314  157.9578 H   0  0  0  0  0  0  0  0  0  0  0  0
  127.1271  136.3833  156.4784 H   0  0  0  0  0  0  0  0  0  0  0  0
  125.0689  135.4124  157.4188 H   0  0  0  0  0  0  0  0  0  0  0  0
  124.9047  134.9810  159.8375 H   0  0  0  0  0  0  0  0  0  0  0  0
  126.7987  135.5203  161.3157 H   0  0  0  0  0  0  0  0  0  0  0  0
  131.6138  129.2714  155.0615 H   0  0  0  0  0  0  0  0  0  0  0  0
  131.9945  127.8786  153.0707 H   0  0  0  0  0  0  0  0  0  0  0  0
  131.5419  128.7803  150.8274 H   0  0  0  0  0  0  0  0  0  0  0  0
  130.6982  131.0754  150.5596 H   0  0  0  0  0  0  0  0  0  0  0  0
  130.3006  132.4836  152.5360 H   0  0  0  0  0  0  0  0  0  0  0  0
  1  2  2  0
  1 26  1  0
  1 32  1  0
  2  3  1  0
  2 33  1  0
  3 24  1  0
  3  4  2  0
  4  5  1  0
  4 34  1  0
  5  6  1  0
  5  7  1  0
  7  8  1  0
  7 24  2  0
  8  9  1  0
  8 35  1  0
  9 10  1  0
  9 17  1  0
  9 36  1  0
 10 11  1  0
 10 37  1  0
 10 38  1  0
 11 16  1  0
 11 12  2  0
 12 13  1  0
 12 39  1  0
 13 14  2  0
 13 40  1  0
 14 15  1  0
 14 41  1  0
 15 16  2  0
 15 42  1  0
 16 43  1  0
 17 18  1  0
 17 44  1  0
 17 45  1  0
 18 23  1  0
 18 19  2  0
 19 20  1  0
 19 46  1  0
 20 21  2  0
 20 47  1  0
 21 22  1  0
 21 48  1  0
 22 23  2  0
 22 49  1  0
 23 50  1  0
 24 25  1  0
 26 31  1  0
 26 27  2  0
 27 28  1  0
 27 51  1  0
 28 29  2  0
 28 52  1  0
 29 30  1  0
 29 53  1  0
 30 31  2  0
 30 54  1  0
 31 55  1  0
M  CHG  1  24   1
M  END
>  <DOCK_score>  (1) 
-66.96656

>  <SMILES>  (1) 
C(=Cc1c[nH]c(NC(Cc2ccccc2)Cc2ccccc2)[nH+]1)c1ccccc1

$$$$
