C1=C[C@@H](Nc2ccc(-c3n[nH]cc3C[NH2+]CC3=CCCC3)o2)CCCC1
     RDKit          3D

 55 58  0  0  1  0  0  0  0  0999 V2000
  133.3221  140.8860  161.9118 C   0  0  0  0  0  0  0  0  0  0  0  0
  132.7816  140.1555  160.9888 C   0  0  0  0  0  0  0  0  0  0  0  0
  133.0105  138.6593  160.9652 C   0  0  1  0  0  0  0  0  0  0  0  0
  132.8466  138.2484  161.9613 H   0  0  0  0  0  0  0  0  0  0  0  0
  132.0872  138.0355  160.0140 N   0  0  0  0  0  0  0  0  0  0  0  0
  130.8375  137.6016  160.4412 C   0  0  0  0  0  0  0  0  0  0  0  0
  130.1124  138.1453  161.4503 C   0  0  0  0  0  0  0  0  0  0  0  0
  128.9187  137.4031  161.5448 C   0  0  0  0  0  0  0  0  0  0  0  0
  128.9759  136.4417  160.5860 C   0  0  0  0  0  0  0  0  0  0  0  0
  127.9370  135.4267  160.3149 C   0  0  0  0  0  0  0  0  0  0  0  0
  126.6412  135.5700  160.5127 N   0  0  0  0  0  0  0  0  0  0  0  0
  126.0086  134.3814  160.1270 N   0  0  0  0  0  0  0  0  0  0  0  0
  125.0550  134.2071  160.1624 H   0  0  0  0  0  0  0  0  0  0  0  0
  126.9563  133.5181  159.7017 C   0  0  0  0  0  0  0  0  0  0  0  0
  128.1556  134.1299  159.8041 C   0  0  0  0  0  0  0  0  0  0  0  0
  129.4904  133.5334  159.4384 C   0  0  0  0  0  0  0  0  0  0  0  0
  129.7873  133.8248  158.0294 N   0  0  0  0  0  0  0  0  0  0  0  0
  129.0686  133.4251  157.4447 H   0  0  0  0  0  0  0  0  0  0  0  0
  129.8163  134.8238  157.8915 H   0  0  0  0  0  0  0  0  0  0  0  0
  131.0883  133.2433  157.6730 C   0  0  0  0  0  0  0  0  0  0  0  0
  131.0450  131.7511  157.8791 C   0  0  0  0  0  0  0  0  0  0  0  0
  131.8259  131.0952  158.6937 C   0  0  0  0  0  0  0  0  0  0  0  0
  131.5219  129.6153  158.6658 C   0  0  0  0  0  0  0  0  0  0  0  0
  130.1341  129.5106  157.9917 C   0  0  0  0  0  0  0  0  0  0  0  0
  130.0962  130.8167  157.1649 C   0  0  0  0  0  0  0  0  0  0  0  0
  130.1421  136.5767  159.9200 O   0  0  0  0  0  0  0  0  0  0  0  0
  134.4534  138.3926  160.5306 C   0  0  0  0  0  0  0  0  0  0  0  0
  135.3928  138.4451  161.7225 C   0  0  0  0  0  0  0  0  0  0  0  0
  135.5138  139.8261  162.3420 C   0  0  0  0  0  0  0  0  0  0  0  0
  134.1898  140.2529  162.9784 C   0  0  0  0  0  0  0  0  0  0  0  0
  133.1529  141.9527  161.9203 H   0  0  0  0  0  0  0  0  0  0  0  0
  132.1647  140.6164  160.2316 H   0  0  0  0  0  0  0  0  0  0  0  0
  132.3478  137.9255  159.0863 H   0  0  0  0  0  0  0  0  0  0  0  0
  130.3964  138.9870  162.0646 H   0  0  0  0  0  0  0  0  0  0  0  0
  128.1128  137.5666  162.2451 H   0  0  0  0  0  0  0  0  0  0  0  0
  126.7848  132.5143  159.3419 H   0  0  0  0  0  0  0  0  0  0  0  0
  130.2666  133.9653  160.0702 H   0  0  0  0  0  0  0  0  0  0  0  0
  129.4592  132.4541  159.5875 H   0  0  0  0  0  0  0  0  0  0  0  0
  131.3088  133.4593  156.6275 H   0  0  0  0  0  0  0  0  0  0  0  0
  131.8647  133.6749  158.3046 H   0  0  0  0  0  0  0  0  0  0  0  0
  132.5880  131.5508  159.3087 H   0  0  0  0  0  0  0  0  0  0  0  0
  131.4834  129.2139  159.6783 H   0  0  0  0  0  0  0  0  0  0  0  0
  132.2711  129.0866  158.0766 H   0  0  0  0  0  0  0  0  0  0  0  0
  129.3378  129.4952  158.7359 H   0  0  0  0  0  0  0  0  0  0  0  0
  130.0788  128.6357  157.3438 H   0  0  0  0  0  0  0  0  0  0  0  0
  129.0884  131.2321  157.1570 H   0  0  0  0  0  0  0  0  0  0  0  0
  130.4385  130.6335  156.1464 H   0  0  0  0  0  0  0  0  0  0  0  0
  134.7543  139.1466  159.8032 H   0  0  0  0  0  0  0  0  0  0  0  0
  134.5130  137.4066  160.0698 H   0  0  0  0  0  0  0  0  0  0  0  0
  135.0306  137.7526  162.4825 H   0  0  0  0  0  0  0  0  0  0  0  0
  136.3821  138.1191  161.4014 H   0  0  0  0  0  0  0  0  0  0  0  0
  136.2906  139.8096  163.1065 H   0  0  0  0  0  0  0  0  0  0  0  0
  135.7878  140.5435  161.5685 H   0  0  0  0  0  0  0  0  0  0  0  0
  134.3813  140.9761  163.7710 H   0  0  0  0  0  0  0  0  0  0  0  0
  133.6826  139.3816  163.3930 H   0  0  0  0  0  0  0  0  0  0  0  0
  1 30  1  0
  1  2  2  0
  1 31  1  0
  2  3  1  0
  2 32  1  0
  3  4  1  1
  3  5  1  0
  3 27  1  0
  5  6  1  0
  5 33  1  0
  6 26  1  0
  6  7  2  0
  7  8  1  0
  7 34  1  0
  8  9  2  0
  8 35  1  0
  9 10  1  0
  9 26  1  0
 10 15  1  0
 10 11  2  0
 11 12  1  0
 12 13  1  0
 12 14  1  0
 14 15  2  0
 14 36  1  0
 15 16  1  0
 16 17  1  0
 16 37  1  0
 16 38  1  0
 17 18  1  0
 17 19  1  0
 17 20  1  0
 20 21  1  0
 20 39  1  0
 20 40  1  0
 21 25  1  0
 21 22  2  0
 22 23  1  0
 22 41  1  0
 23 24  1  0
 23 42  1  0
 23 43  1  0
 24 25  1  0
 24 44  1  0
 24 45  1  0
 25 46  1  0
 25 47  1  0
 27 28  1  0
 27 48  1  0
 27 49  1  0
 28 29  1  0
 28 50  1  0
 28 51  1  0
 29 30  1  0
 29 52  1  0
 29 53  1  0
 30 54  1  0
 30 55  1  0
M  CHG  1  17   1
M  END
>  <DOCK_score>  (1) 
-45.257454

>  <SMILES>  (1) 
C1=C[C@@H](Nc2ccc(-c3n[nH]cc3C[NH2+]CC3=CCCC3)o2)CCCC1

$$$$
