CCc1ccc(-c2c[nH]c(N[C@H](C(F)F)C3CCCC3)[nH+]2)cc1
     RDKit          3D

 47 49  0  0  1  0  0  0  0  0999 V2000
  129.9626  128.8881  151.3923 C   0  0  0  0  0  0  0  0  0  0  0  0
  131.1670  129.7603  151.7517 C   0  0  0  0  0  0  0  0  0  0  0  0
  130.9067  130.4618  153.0599 C   0  0  0  0  0  0  0  0  0  0  0  0
  131.2787  129.8621  154.2491 C   0  0  0  0  0  0  0  0  0  0  0  0
  131.0472  130.5020  155.4498 C   0  0  0  0  0  0  0  0  0  0  0  0
  130.4277  131.7504  155.4630 C   0  0  0  0  0  0  0  0  0  0  0  0
  130.1716  132.4408  156.7506 C   0  0  0  0  0  0  0  0  0  0  0  0
  129.4167  131.9681  157.7732 C   0  0  0  0  0  0  0  0  0  0  0  0
  129.4475  132.9191  158.7641 N   0  0  0  0  0  0  0  0  0  0  0  0
  129.0001  132.8682  159.6233 H   0  0  0  0  0  0  0  0  0  0  0  0
  130.2210  133.9460  158.3176 C   0  0  0  0  0  0  0  0  0  0  0  0
  130.5053  135.1053  159.0187 N   0  0  0  0  0  0  0  0  0  0  0  0
  129.9551  135.3025  160.3621 C   0  0  2  0  0  0  0  0  0  0  0  0
  129.9951  134.3625  160.9127 H   0  0  0  0  0  0  0  0  0  0  0  0
  128.5019  135.7692  160.2547 C   0  0  0  0  0  0  0  0  0  0  0  0
  128.4507  136.9756  159.5482 F   0  0  0  0  0  0  0  0  0  0  0  0
  127.7499  134.8014  159.5802 F   0  0  0  0  0  0  0  0  0  0  0  0
  130.7776  136.3610  161.0998 C   0  0  0  0  0  0  0  0  0  0  0  0
  130.7883  137.6772  160.2951 C   0  0  0  0  0  0  0  0  0  0  0  0
  132.2176  138.2371  160.5017 C   0  0  0  0  0  0  0  0  0  0  0  0
  133.0922  136.9590  160.4765 C   0  0  0  0  0  0  0  0  0  0  0  0
  132.2425  135.9044  161.2151 C   0  0  0  0  0  0  0  0  0  0  0  0
  130.6560  133.6542  157.1161 N   0  0  0  0  0  0  0  0  0  0  0  0
  131.2310  134.2169  156.5741 H   0  0  0  0  0  0  0  0  0  0  0  0
  130.0503  132.3479  154.2618 C   0  0  0  0  0  0  0  0  0  0  0  0
  130.2915  131.7012  153.0667 C   0  0  0  0  0  0  0  0  0  0  0  0
  129.0753  129.5140  151.2987 H   0  0  0  0  0  0  0  0  0  0  0  0
  130.1510  128.3807  150.4461 H   0  0  0  0  0  0  0  0  0  0  0  0
  129.8039  128.1476  152.1763 H   0  0  0  0  0  0  0  0  0  0  0  0
  132.0543  129.1348  151.8451 H   0  0  0  0  0  0  0  0  0  0  0  0
  131.3257  130.5013  150.9674 H   0  0  0  0  0  0  0  0  0  0  0  0
  131.7547  128.8926  154.2380 H   0  0  0  0  0  0  0  0  0  0  0  0
  131.3422  130.0345  156.3777 H   0  0  0  0  0  0  0  0  0  0  0  0
  128.8915  131.0249  157.8028 H   0  0  0  0  0  0  0  0  0  0  0  0
  131.0686  135.7871  158.6205 H   0  0  0  0  0  0  0  0  0  0  0  0
  128.0927  135.9158  161.2543 H   0  0  0  0  0  0  0  0  0  0  0  0
  130.3608  136.5326  162.0922 H   0  0  0  0  0  0  0  0  0  0  0  0
  130.6047  137.4800  159.2389 H   0  0  0  0  0  0  0  0  0  0  0  0
  130.0460  138.3712  160.6893 H   0  0  0  0  0  0  0  0  0  0  0  0
  132.2992  138.7421  161.4642 H   0  0  0  0  0  0  0  0  0  0  0  0
  132.4930  138.9098  159.6895 H   0  0  0  0  0  0  0  0  0  0  0  0
  134.0313  137.1291  161.0030 H   0  0  0  0  0  0  0  0  0  0  0  0
  133.2827  136.6449  159.4502 H   0  0  0  0  0  0  0  0  0  0  0  0
  132.5368  135.8553  162.2634 H   0  0  0  0  0  0  0  0  0  0  0  0
  132.3675  134.9286  160.7456 H   0  0  0  0  0  0  0  0  0  0  0  0
  129.5696  133.3151  154.2660 H   0  0  0  0  0  0  0  0  0  0  0  0
  129.9991  132.1631  152.1353 H   0  0  0  0  0  0  0  0  0  0  0  0
  1  2  1  0
  1 27  1  0
  1 28  1  0
  1 29  1  0
  2  3  1  0
  2 30  1  0
  2 31  1  0
  3 26  2  0
  3  4  1  0
  4  5  2  0
  4 32  1  0
  5  6  1  0
  5 33  1  0
  6  7  1  0
  6 25  2  0
  7 23  1  0
  7  8  2  0
  8  9  1  0
  8 34  1  0
  9 10  1  0
  9 11  1  0
 11 12  1  0
 11 23  2  0
 12 13  1  0
 12 35  1  0
 13 14  1  1
 13 15  1  0
 13 18  1  0
 15 16  1  0
 15 17  1  0
 15 36  1  0
 18 22  1  0
 18 19  1  0
 18 37  1  0
 19 20  1  0
 19 38  1  0
 19 39  1  0
 20 21  1  0
 20 40  1  0
 20 41  1  0
 21 22  1  0
 21 42  1  0
 21 43  1  0
 22 44  1  0
 22 45  1  0
 23 24  1  0
 25 26  1  0
 25 46  1  0
 26 47  1  0
M  CHG  1  23   1
M  END
>  <DOCK_score>  (1) 
-55.923218

>  <SMILES>  (1) 
CCc1ccc(-c2c[nH]c(N[C@H](C(F)F)C3CCCC3)[nH+]2)cc1

$$$$
