N#Cc1cccc(OC[C@H](CO)NC2CCCC[C@H]2[NH2+]C2CCCCC2)c1
     RDKit          3D

 61 63  0  0  1  0  0  0  0  0999 V2000
  130.6630  133.2287  151.7409 N   0  0  0  0  0  0  0  0  0  0  0  0
  130.7136  132.7083  152.7494 C   0  0  0  0  0  0  0  0  0  0  0  0
  130.7774  132.0521  154.0205 C   0  0  0  0  0  0  0  0  0  0  0  0
  131.0763  130.6897  154.0919 C   0  0  0  0  0  0  0  0  0  0  0  0
  131.1369  130.0611  155.3185 C   0  0  0  0  0  0  0  0  0  0  0  0
  130.9030  130.7756  156.4790 C   0  0  0  0  0  0  0  0  0  0  0  0
  130.6051  132.1302  156.4183 C   0  0  0  0  0  0  0  0  0  0  0  0
  130.3758  132.8271  157.5623 O   0  0  0  0  0  0  0  0  0  0  0  0
  129.4803  133.9377  157.4769 C   0  0  0  0  0  0  0  0  0  0  0  0
  129.3480  134.5930  158.8531 C   0  0  2  0  0  0  0  0  0  0  0  0
  128.9585  133.8660  159.5658 H   0  0  0  0  0  0  0  0  0  0  0  0
  128.3895  135.7819  158.7618 C   0  0  0  0  0  0  0  0  0  0  0  0
  129.0803  136.9105  158.2221 O   0  0  0  0  0  0  0  0  0  0  0  0
  130.6665  135.0604  159.3015 N   0  0  0  0  0  0  0  0  0  0  0  0
  130.5781  135.6967  160.6226 C   0  0  1  0  0  0  0  0  0  0  0  0
  130.0433  134.6871  161.6402 C   0  0  0  0  0  0  0  0  0  0  0  0
  130.9899  133.4875  161.7144 C   0  0  0  0  0  0  0  0  0  0  0  0
  132.3793  133.9601  162.1468 C   0  0  0  0  0  0  0  0  0  0  0  0
  132.9142  134.9696  161.1291 C   0  0  0  0  0  0  0  0  0  0  0  0
  131.9676  136.1694  161.0550 C   0  0  1  0  0  0  0  0  0  0  0  0
  131.9021  136.6416  162.0352 H   0  0  0  0  0  0  0  0  0  0  0  0
  132.4812  137.1387  160.0779 N   0  0  0  0  0  0  0  0  0  0  0  0
  131.7328  137.7477  159.7830 H   0  0  0  0  0  0  0  0  0  0  0  0
  132.8498  136.6467  159.2779 H   0  0  0  0  0  0  0  0  0  0  0  0
  133.5481  137.9378  160.6955 C   0  0  0  0  0  0  0  0  0  0  0  0
  134.4078  138.5734  159.6012 C   0  0  0  0  0  0  0  0  0  0  0  0
  135.5189  139.4057  160.2443 C   0  0  0  0  0  0  0  0  0  0  0  0
  134.8976  140.5052  161.1080 C   0  0  0  0  0  0  0  0  0  0  0  0
  134.0379  139.8695  162.2024 C   0  0  0  0  0  0  0  0  0  0  0  0
  132.9269  139.0373  161.5592 C   0  0  0  0  0  0  0  0  0  0  0  0
  130.5360  132.7703  155.1924 C   0  0  0  0  0  0  0  0  0  0  0  0
  131.2594  130.1285  153.1876 H   0  0  0  0  0  0  0  0  0  0  0  0
  131.3680  129.0075  155.3724 H   0  0  0  0  0  0  0  0  0  0  0  0
  130.9518  130.2780  157.4363 H   0  0  0  0  0  0  0  0  0  0  0  0
  128.5020  133.5907  157.1440 H   0  0  0  0  0  0  0  0  0  0  0  0
  129.8698  134.6645  156.7642 H   0  0  0  0  0  0  0  0  0  0  0  0
  127.5519  135.5245  158.1134 H   0  0  0  0  0  0  0  0  0  0  0  0
  128.0170  136.0258  159.7568 H   0  0  0  0  0  0  0  0  0  0  0  0
  129.4396  136.7649  157.3362 H   0  0  0  0  0  0  0  0  0  0  0  0
  131.0774  135.6866  158.6253 H   0  0  0  0  0  0  0  0  0  0  0  0
  129.9037  136.5515  160.5698 H   0  0  0  0  0  0  0  0  0  0  0  0
  129.0534  134.3504  161.3321 H   0  0  0  0  0  0  0  0  0  0  0  0
  129.9777  135.1594  162.6204 H   0  0  0  0  0  0  0  0  0  0  0  0
  131.0555  133.0153  160.7341 H   0  0  0  0  0  0  0  0  0  0  0  0
  130.6088  132.7683  162.4393 H   0  0  0  0  0  0  0  0  0  0  0  0
  133.0537  133.1054  162.1994 H   0  0  0  0  0  0  0  0  0  0  0  0
  132.3138  134.4322  163.1270 H   0  0  0  0  0  0  0  0  0  0  0  0
  132.9797  134.4975  160.1489 H   0  0  0  0  0  0  0  0  0  0  0  0
  133.9040  135.3063  161.4371 H   0  0  0  0  0  0  0  0  0  0  0  0
  134.1698  137.2944  161.3181 H   0  0  0  0  0  0  0  0  0  0  0  0
  134.8503  137.7900  158.9858 H   0  0  0  0  0  0  0  0  0  0  0  0
  133.7860  139.2168  158.9785 H   0  0  0  0  0  0  0  0  0  0  0  0
  136.1314  139.8585  159.4646 H   0  0  0  0  0  0  0  0  0  0  0  0
  136.1406  138.7623  160.8669 H   0  0  0  0  0  0  0  0  0  0  0  0
  134.2759  141.1485  160.4853 H   0  0  0  0  0  0  0  0  0  0  0  0
  135.6893  141.0981  161.5662 H   0  0  0  0  0  0  0  0  0  0  0  0
  133.5954  140.6529  162.8177 H   0  0  0  0  0  0  0  0  0  0  0  0
  134.6597  139.2262  162.8250 H   0  0  0  0  0  0  0  0  0  0  0  0
  132.3051  139.6806  160.9365 H   0  0  0  0  0  0  0  0  0  0  0  0
  132.3144  138.5844  162.3388 H   0  0  0  0  0  0  0  0  0  0  0  0
  130.3001  133.8232  155.1434 H   0  0  0  0  0  0  0  0  0  0  0  0
  1  2  3  0
  2  3  1  0
  3 31  2  0
  3  4  1  0
  4  5  2  0
  4 32  1  0
  5  6  1  0
  5 33  1  0
  6  7  2  0
  6 34  1  0
  7  8  1  0
  7 31  1  0
  8  9  1  0
  9 10  1  0
  9 35  1  0
  9 36  1  0
 10 11  1  1
 10 12  1  0
 10 14  1  0
 12 13  1  0
 12 37  1  0
 12 38  1  0
 13 39  1  0
 14 15  1  0
 14 40  1  0
 15 20  1  0
 15 16  1  0
 15 41  1  6
 16 17  1  0
 16 42  1  0
 16 43  1  0
 17 18  1  0
 17 44  1  0
 17 45  1  0
 18 19  1  0
 18 46  1  0
 18 47  1  0
 19 20  1  0
 19 48  1  0
 19 49  1  0
 20 21  1  1
 20 22  1  0
 22 23  1  0
 22 24  1  0
 22 25  1  0
 25 30  1  0
 25 26  1  0
 25 50  1  0
 26 27  1  0
 26 51  1  0
 26 52  1  0
 27 28  1  0
 27 53  1  0
 27 54  1  0
 28 29  1  0
 28 55  1  0
 28 56  1  0
 29 30  1  0
 29 57  1  0
 29 58  1  0
 30 59  1  0
 30 60  1  0
 31 61  1  0
M  CHG  1  22   1
M  END
>  <DOCK_score>  (1) 
-57.319546

>  <SMILES>  (1) 
N#Cc1cccc(OC[C@H](CO)NC2CCCC[C@H]2[NH2+]C2CCCCC2)c1

$$$$
