NNc1cccc(C2=CC[N@@H+](CC3=Cc4cc(Br)ccc4OC3)CC2)c1
     RDKit          3D

 49 52  0  0  1  0  0  0  0  0999 V2000
  134.9961  140.7234  164.3687 N   0  0  0  0  0  0  0  0  0  0  0  0
  135.3693  141.2985  163.1872 N   0  0  0  0  0  0  0  0  0  0  0  0
  135.2539  140.5812  161.9941 C   0  0  0  0  0  0  0  0  0  0  0  0
  136.1338  140.8280  160.9464 C   0  0  0  0  0  0  0  0  0  0  0  0
  136.0235  140.1209  159.7643 C   0  0  0  0  0  0  0  0  0  0  0  0
  135.0418  139.1616  159.6176 C   0  0  0  0  0  0  0  0  0  0  0  0
  134.1503  138.9100  160.6613 C   0  0  0  0  0  0  0  0  0  0  0  0
  133.0953  137.8864  160.5049 C   0  0  0  0  0  0  0  0  0  0  0  0
  133.3579  136.6461  160.8562 C   0  0  0  0  0  0  0  0  0  0  0  0
  132.3542  135.5352  160.7428 C   0  0  0  0  0  0  0  0  0  0  0  0
  131.2725  135.9143  159.8264 N   0  0  1  0  0  0  0  0  0  0  0  0
  131.6340  135.9878  158.8873 H   0  0  0  0  0  0  0  0  0  0  0  0
  130.2141  134.8965  159.8676 C   0  0  0  0  0  0  0  0  0  0  0  0
  130.6136  133.7215  159.0129 C   0  0  0  0  0  0  0  0  0  0  0  0
  130.2821  133.6953  157.7254 C   0  0  0  0  0  0  0  0  0  0  0  0
  130.6590  132.5086  156.9290 C   0  0  0  0  0  0  0  0  0  0  0  0
  130.6194  132.5259  155.5389 C   0  0  0  0  0  0  0  0  0  0  0  0
  131.0009  131.4011  154.8321 C   0  0  0  0  0  0  0  0  0  0  0  0
  130.9538  131.4160  152.9418 Br  0  0  0  0  0  0  0  0  0  0  0  0
  131.4180  130.2631  155.5024 C   0  0  0  0  0  0  0  0  0  0  0  0
  131.4525  130.2353  156.8849 C   0  0  0  0  0  0  0  0  0  0  0  0
  131.0727  131.3530  157.6049 C   0  0  0  0  0  0  0  0  0  0  0  0
  131.0770  131.3519  158.9628 O   0  0  0  0  0  0  0  0  0  0  0  0
  131.3866  132.5805  159.6197 C   0  0  0  0  0  0  0  0  0  0  0  0
  130.7231  137.2134  160.2455 C   0  0  0  0  0  0  0  0  0  0  0  0
  131.7600  138.3003  159.9504 C   0  0  0  0  0  0  0  0  0  0  0  0
  134.2615  139.6230  161.8545 C   0  0  0  0  0  0  0  0  0  0  0  0
  135.4892  139.8564  164.5206 H   0  0  0  0  0  0  0  0  0  0  0  0
  135.1357  141.3587  165.1401 H   0  0  0  0  0  0  0  0  0  0  0  0
  135.7145  142.2048  163.1767 H   0  0  0  0  0  0  0  0  0  0  0  0
  136.9062  141.5747  161.0568 H   0  0  0  0  0  0  0  0  0  0  0  0
  136.7100  140.3167  158.9540 H   0  0  0  0  0  0  0  0  0  0  0  0
  134.9615  138.6080  158.6937 H   0  0  0  0  0  0  0  0  0  0  0  0
  134.3395  136.4168  161.2437 H   0  0  0  0  0  0  0  0  0  0  0  0
  131.9359  135.3255  161.7273 H   0  0  0  0  0  0  0  0  0  0  0  0
  132.8486  134.6397  160.3662 H   0  0  0  0  0  0  0  0  0  0  0  0
  129.2853  135.3226  159.4881 H   0  0  0  0  0  0  0  0  0  0  0  0
  130.0684  134.5652  160.8958 H   0  0  0  0  0  0  0  0  0  0  0  0
  129.7507  134.5199  157.2735 H   0  0  0  0  0  0  0  0  0  0  0  0
  130.2923  133.4121  155.0154 H   0  0  0  0  0  0  0  0  0  0  0  0
  131.7185  129.3906  154.9412 H   0  0  0  0  0  0  0  0  0  0  0  0
  131.7794  129.3443  157.4005 H   0  0  0  0  0  0  0  0  0  0  0  0
  131.1319  132.4964  160.6762 H   0  0  0  0  0  0  0  0  0  0  0  0
  132.4539  132.7796  159.5230 H   0  0  0  0  0  0  0  0  0  0  0  0
  129.8082  137.4201  159.6903 H   0  0  0  0  0  0  0  0  0  0  0  0
  130.5089  137.1925  161.3141 H   0  0  0  0  0  0  0  0  0  0  0  0
  131.8421  138.4407  158.8727 H   0  0  0  0  0  0  0  0  0  0  0  0
  131.4479  139.2355  160.4154 H   0  0  0  0  0  0  0  0  0  0  0  0
  133.5773  139.4292  162.6673 H   0  0  0  0  0  0  0  0  0  0  0  0
  1  2  1  0
  1 28  1  0
  1 29  1  0
  2  3  1  0
  2 30  1  0
  3 27  2  0
  3  4  1  0
  4  5  2  0
  4 31  1  0
  5  6  1  0
  5 32  1  0
  6  7  2  0
  6 33  1  0
  7  8  1  0
  7 27  1  0
  8 26  1  0
  8  9  2  0
  9 10  1  0
  9 34  1  0
 10 11  1  0
 10 35  1  0
 10 36  1  0
 11 12  1  6
 11 13  1  0
 11 25  1  0
 13 14  1  0
 13 37  1  0
 13 38  1  0
 14 24  1  0
 14 15  2  0
 15 16  1  0
 15 39  1  0
 16 22  2  0
 16 17  1  0
 17 18  2  0
 17 40  1  0
 18 19  1  0
 18 20  1  0
 20 21  2  0
 20 41  1  0
 21 22  1  0
 21 42  1  0
 22 23  1  0
 23 24  1  0
 24 43  1  0
 24 44  1  0
 25 26  1  0
 25 45  1  0
 25 46  1  0
 26 47  1  0
 26 48  1  0
 27 49  1  0
M  CHG  1  11   1
M  END
>  <DOCK_score>  (1) 
-56.1534

>  <SMILES>  (1) 
NNc1cccc(C2=CC[N@@H+](CC3=Cc4cc(Br)ccc4OC3)CC2)c1

$$$$
