Cc1cccc([C@H](C)Nc2[nH]cc(-c3ccc(N)cc3)[nH+]2)c1CBr
     RDKit          3D

 46 48  0  0  1  0  0  0  0  0999 V2000
  125.3792  134.3883  162.1930 C   0  0  0  0  0  0  0  0  0  0  0  0
  126.1860  134.8501  161.0067 C   0  0  0  0  0  0  0  0  0  0  0  0
  125.5471  135.2179  159.8371 C   0  0  0  0  0  0  0  0  0  0  0  0
  126.2872  135.6373  158.7478 C   0  0  0  0  0  0  0  0  0  0  0  0
  127.6663  135.6920  158.8289 C   0  0  0  0  0  0  0  0  0  0  0  0
  128.3048  135.3280  159.9995 C   0  0  0  0  0  0  0  0  0  0  0  0
  129.8080  135.3876  160.0877 C   0  0  2  0  0  0  0  0  0  0  0  0
  130.1616  134.6257  160.7826 H   0  0  0  0  0  0  0  0  0  0  0  0
  130.2353  136.7698  160.5855 C   0  0  0  0  0  0  0  0  0  0  0  0
  130.3850  135.1458  158.7630 N   0  0  0  0  0  0  0  0  0  0  0  0
  130.1357  133.9528  158.1065 C   0  0  0  0  0  0  0  0  0  0  0  0
  129.3701  132.9324  158.5803 N   0  0  0  0  0  0  0  0  0  0  0  0
  128.9053  132.9100  159.4314 H   0  0  0  0  0  0  0  0  0  0  0  0
  129.3774  131.9391  157.6298 C   0  0  0  0  0  0  0  0  0  0  0  0
  130.1465  132.3816  156.6046 C   0  0  0  0  0  0  0  0  0  0  0  0
  130.4417  131.6425  155.3526 C   0  0  0  0  0  0  0  0  0  0  0  0
  130.0686  132.1787  154.1210 C   0  0  0  0  0  0  0  0  0  0  0  0
  130.3492  131.4926  152.9582 C   0  0  0  0  0  0  0  0  0  0  0  0
  130.9930  130.2622  153.0141 C   0  0  0  0  0  0  0  0  0  0  0  0
  131.2712  129.5660  151.8354 N   0  0  0  0  0  0  0  0  0  0  0  0
  131.3606  129.7230  154.2412 C   0  0  0  0  0  0  0  0  0  0  0  0
  131.0873  130.4083  155.4063 C   0  0  0  0  0  0  0  0  0  0  0  0
  130.5936  133.6219  156.9237 N   0  0  0  0  0  0  0  0  0  0  0  0
  131.1630  134.1751  156.3663 H   0  0  0  0  0  0  0  0  0  0  0  0
  127.5643  134.9098  161.0894 C   0  0  0  0  0  0  0  0  0  0  0  0
  128.2605  134.5130  162.3658 C   0  0  0  0  0  0  0  0  0  0  0  0
  128.6752  132.5919  162.3162 Br  0  0  0  0  0  0  0  0  0  0  0  0
  125.1226  135.2464  162.8141 H   0  0  0  0  0  0  0  0  0  0  0  0
  124.4660  133.9054  161.8453 H   0  0  0  0  0  0  0  0  0  0  0  0
  125.9654  133.6791  162.7772 H   0  0  0  0  0  0  0  0  0  0  0  0
  124.4699  135.1748  159.7737 H   0  0  0  0  0  0  0  0  0  0  0  0
  125.7883  135.9219  157.8333 H   0  0  0  0  0  0  0  0  0  0  0  0
  128.2447  136.0194  157.9776 H   0  0  0  0  0  0  0  0  0  0  0  0
  129.8818  137.5315  159.8907 H   0  0  0  0  0  0  0  0  0  0  0  0
  129.8060  136.9497  161.5711 H   0  0  0  0  0  0  0  0  0  0  0  0
  131.3226  136.8129  160.6494 H   0  0  0  0  0  0  0  0  0  0  0  0
  130.9418  135.8217  158.3459 H   0  0  0  0  0  0  0  0  0  0  0  0
  128.8681  130.9886  157.6886 H   0  0  0  0  0  0  0  0  0  0  0  0
  129.5640  133.1325  154.0774 H   0  0  0  0  0  0  0  0  0  0  0  0
  130.0640  131.9096  152.0036 H   0  0  0  0  0  0  0  0  0  0  0  0
  131.7209  128.7078  151.8733 H   0  0  0  0  0  0  0  0  0  0  0  0
  131.0150  129.9422  150.9783 H   0  0  0  0  0  0  0  0  0  0  0  0
  131.8606  128.7665  154.2823 H   0  0  0  0  0  0  0  0  0  0  0  0
  131.3737  129.9890  156.3595 H   0  0  0  0  0  0  0  0  0  0  0  0
  127.6098  134.7224  163.2148 H   0  0  0  0  0  0  0  0  0  0  0  0
  129.1847  135.0818  162.4674 H   0  0  0  0  0  0  0  0  0  0  0  0
  1  2  1  0
  1 28  1  0
  1 29  1  0
  1 30  1  0
  2 25  2  0
  2  3  1  0
  3  4  2  0
  3 31  1  0
  4  5  1  0
  4 32  1  0
  5  6  2  0
  5 33  1  0
  6  7  1  0
  6 25  1  0
  7  8  1  1
  7  9  1  0
  7 10  1  0
  9 34  1  0
  9 35  1  0
  9 36  1  0
 10 37  1  0
 11 10  1  0
 11 23  2  0
 11 12  1  0
 12 13  1  0
 12 14  1  0
 14 15  2  0
 14 38  1  0
 15 16  1  0
 15 23  1  0
 16 22  1  0
 16 17  2  0
 17 18  1  0
 17 39  1  0
 18 19  2  0
 18 40  1  0
 19 20  1  0
 19 21  1  0
 20 41  1  0
 20 42  1  0
 21 22  2  0
 21 43  1  0
 22 44  1  0
 23 24  1  0
 25 26  1  0
 26 27  1  0
 26 45  1  0
 26 46  1  0
M  CHG  1  23   1
M  END
>  <DOCK_score>  (1) 
-57.668926

>  <SMILES>  (1) 
Cc1cccc([C@H](C)Nc2[nH]cc(-c3ccc(N)cc3)[nH+]2)c1CBr

$$$$
