CCc1ccc(-c2c[nH]c(N[C@H](CNc3ccccc3)c3c(F)ccc4c3CCC4)[nH+]2)cc1
     RDKit          3D

 63 67  0  0  1  0  0  0  0  0999 V2000
  130.3523  128.3710  151.7485 C   0  0  0  0  0  0  0  0  0  0  0  0
  131.3312  129.5360  151.9079 C   0  0  0  0  0  0  0  0  0  0  0  0
  131.0620  130.2436  153.2110 C   0  0  0  0  0  0  0  0  0  0  0  0
  131.7145  129.8395  154.3619 C   0  0  0  0  0  0  0  0  0  0  0  0
  131.4763  130.4875  155.5570 C   0  0  0  0  0  0  0  0  0  0  0  0
  130.5678  131.5434  155.6050 C   0  0  0  0  0  0  0  0  0  0  0  0
  130.3033  132.2402  156.8875 C   0  0  0  0  0  0  0  0  0  0  0  0
  129.8217  131.6712  158.0204 C   0  0  0  0  0  0  0  0  0  0  0  0
  129.7301  132.6692  158.9598 N   0  0  0  0  0  0  0  0  0  0  0  0
  129.4174  132.5718  159.8728 H   0  0  0  0  0  0  0  0  0  0  0  0
  130.1589  133.8199  158.3731 C   0  0  0  0  0  0  0  0  0  0  0  0
  130.2234  135.0608  158.9834 N   0  0  0  0  0  0  0  0  0  0  0  0
  129.2758  135.4043  160.0466 C   0  0  2  0  0  0  0  0  0  0  0  0
  129.1218  134.5379  160.6899 H   0  0  0  0  0  0  0  0  0  0  0  0
  127.9415  135.8216  159.4252 C   0  0  0  0  0  0  0  0  0  0  0  0
  127.1830  134.6262  159.0483 N   0  0  0  0  0  0  0  0  0  0  0  0
  126.3063  134.0381  159.9629 C   0  0  0  0  0  0  0  0  0  0  0  0
  125.2949  133.1974  159.5157 C   0  0  0  0  0  0  0  0  0  0  0  0
  124.4327  132.6138  160.4231 C   0  0  0  0  0  0  0  0  0  0  0  0
  124.5687  132.8737  161.7742 C   0  0  0  0  0  0  0  0  0  0  0  0
  125.5713  133.7145  162.2225 C   0  0  0  0  0  0  0  0  0  0  0  0
  126.4403  134.2973  161.3209 C   0  0  0  0  0  0  0  0  0  0  0  0
  129.8283  136.5444  160.8629 C   0  0  0  0  0  0  0  0  0  0  0  0
  130.1053  137.7565  160.2559 C   0  0  0  0  0  0  0  0  0  0  0  0
  129.8807  137.9182  158.9334 F   0  0  0  0  0  0  0  0  0  0  0  0
  130.6127  138.8034  161.0062 C   0  0  0  0  0  0  0  0  0  0  0  0
  130.8407  138.6348  162.3578 C   0  0  0  0  0  0  0  0  0  0  0  0
  130.5631  137.4222  162.9661 C   0  0  0  0  0  0  0  0  0  0  0  0
  130.0516  136.3774  162.2187 C   0  0  0  0  0  0  0  0  0  0  0  0
  129.8298  135.1726  163.1078 C   0  0  0  0  0  0  0  0  0  0  0  0
  129.8399  135.7267  164.5485 C   0  0  0  0  0  0  0  0  0  0  0  0
  130.7213  136.9898  164.4082 C   0  0  0  0  0  0  0  0  0  0  0  0
  130.5060  133.5583  157.1365 N   0  0  0  0  0  0  0  0  0  0  0  0
  130.8505  134.2045  156.5004 H   0  0  0  0  0  0  0  0  0  0  0  0
  129.9091  131.9425  154.4433 C   0  0  0  0  0  0  0  0  0  0  0  0
  130.1594  131.2910  153.2527 C   0  0  0  0  0  0  0  0  0  0  0  0
  130.4816  127.6722  152.5749 H   0  0  0  0  0  0  0  0  0  0  0  0
  129.3309  128.7517  151.7511 H   0  0  0  0  0  0  0  0  0  0  0  0
  130.5469  127.8593  150.8060 H   0  0  0  0  0  0  0  0  0  0  0  0
  132.3525  129.1554  151.9053 H   0  0  0  0  0  0  0  0  0  0  0  0
  131.2018  130.2349  151.0815 H   0  0  0  0  0  0  0  0  0  0  0  0
  132.4147  129.0181  154.3245 H   0  0  0  0  0  0  0  0  0  0  0  0
  131.9896  130.1743  156.4540 H   0  0  0  0  0  0  0  0  0  0  0  0
  129.5599  130.6324  158.1575 H   0  0  0  0  0  0  0  0  0  0  0  0
  130.8961  135.7027  158.7072 H   0  0  0  0  0  0  0  0  0  0  0  0
  127.3691  136.4017  160.1492 H   0  0  0  0  0  0  0  0  0  0  0  0
  128.1272  136.4283  158.5389 H   0  0  0  0  0  0  0  0  0  0  0  0
  127.2898  134.2431  158.1635 H   0  0  0  0  0  0  0  0  0  0  0  0
  125.1853  132.9973  158.4601 H   0  0  0  0  0  0  0  0  0  0  0  0
  123.6487  131.9569  160.0766 H   0  0  0  0  0  0  0  0  0  0  0  0
  123.8902  132.4195  162.4812 H   0  0  0  0  0  0  0  0  0  0  0  0
  125.6745  133.9160  163.2784 H   0  0  0  0  0  0  0  0  0  0  0  0
  127.2226  134.9540  161.6714 H   0  0  0  0  0  0  0  0  0  0  0  0
  130.8303  139.7506  160.5350 H   0  0  0  0  0  0  0  0  0  0  0  0
  131.2364  139.4520  162.9426 H   0  0  0  0  0  0  0  0  0  0  0  0
  128.8673  134.7114  162.8868 H   0  0  0  0  0  0  0  0  0  0  0  0
  130.6354  134.4508  162.9747 H   0  0  0  0  0  0  0  0  0  0  0  0
  128.8313  135.9836  164.8719 H   0  0  0  0  0  0  0  0  0  0  0  0
  130.2950  135.0128  165.2349 H   0  0  0  0  0  0  0  0  0  0  0  0
  131.7650  136.7593  164.6216 H   0  0  0  0  0  0  0  0  0  0  0  0
  130.3609  137.7700  165.0786 H   0  0  0  0  0  0  0  0  0  0  0  0
  129.2039  132.7600  154.4748 H   0  0  0  0  0  0  0  0  0  0  0  0
  129.6494  131.5992  152.3520 H   0  0  0  0  0  0  0  0  0  0  0  0
  1  2  1  0
  1 37  1  0
  1 38  1  0
  1 39  1  0
  2  3  1  0
  2 40  1  0
  2 41  1  0
  3 36  2  0
  3  4  1  0
  4  5  2  0
  4 42  1  0
  5  6  1  0
  5 43  1  0
  6  7  1  0
  6 35  2  0
  7 33  1  0
  7  8  2  0
  8  9  1  0
  8 44  1  0
  9 10  1  0
  9 11  1  0
 11 12  1  0
 11 33  2  0
 12 13  1  0
 12 45  1  0
 13 14  1  1
 13 15  1  0
 13 23  1  0
 15 16  1  0
 15 46  1  0
 15 47  1  0
 16 17  1  0
 16 48  1  0
 17 22  1  0
 17 18  2  0
 18 19  1  0
 18 49  1  0
 19 20  2  0
 19 50  1  0
 20 21  1  0
 20 51  1  0
 21 22  2  0
 21 52  1  0
 22 53  1  0
 23 29  1  0
 23 24  2  0
 24 25  1  0
 24 26  1  0
 26 27  2  0
 26 54  1  0
 27 28  1  0
 27 55  1  0
 28 32  1  0
 28 29  2  0
 29 30  1  0
 30 31  1  0
 30 56  1  0
 30 57  1  0
 31 32  1  0
 31 58  1  0
 31 59  1  0
 32 60  1  0
 32 61  1  0
 33 34  1  0
 35 36  1  0
 35 62  1  0
 36 63  1  0
M  CHG  1  33   1
M  END
>  <DOCK_score>  (1) 
-62.23904

>  <SMILES>  (1) 
CCc1ccc(-c2c[nH]c(N[C@H](CNc3ccccc3)c3c(F)ccc4c3CCC4)[nH+]2)cc1

$$$$
