Cc1ccc(-c2ccc3c(c2)OC[C@H]([NH+]=C(NC2CC=CC2)N[C@H]2CCC(=O)NC2)C3)[nH]1
     RDKit          3D

 64 68  0  0  1  0  0  0  0  0999 V2000
  137.1026  142.5555  166.0529 C   0  0  0  0  0  0  0  0  0  0  0  0
  136.2527  141.3367  165.8018 C   0  0  0  0  0  0  0  0  0  0  0  0
  135.8064  140.4779  166.7440 C   0  0  0  0  0  0  0  0  0  0  0  0
  135.0500  139.4883  166.0956 C   0  0  0  0  0  0  0  0  0  0  0  0
  135.0656  139.7733  164.7634 C   0  0  0  0  0  0  0  0  0  0  0  0
  134.3985  138.9937  163.6988 C   0  0  0  0  0  0  0  0  0  0  0  0
  133.9431  139.6308  162.5429 C   0  0  0  0  0  0  0  0  0  0  0  0
  133.3239  138.8971  161.5544 C   0  0  0  0  0  0  0  0  0  0  0  0
  133.1495  137.5289  161.6973 C   0  0  0  0  0  0  0  0  0  0  0  0
  133.5959  136.8885  162.8416 C   0  0  0  0  0  0  0  0  0  0  0  0
  134.2213  137.6196  163.8434 C   0  0  0  0  0  0  0  0  0  0  0  0
  133.4372  135.5510  163.0218 O   0  0  0  0  0  0  0  0  0  0  0  0
  133.1442  134.7528  161.8743 C   0  0  0  0  0  0  0  0  0  0  0  0
  131.9895  135.4118  161.1089 C   0  0  2  0  0  0  0  0  0  0  0  0
  131.1407  135.5560  161.7773 H   0  0  0  0  0  0  0  0  0  0  0  0
  131.5936  134.5609  159.9841 N   0  0  0  0  0  0  0  0  0  0  0  0
  132.2500  133.9936  159.5503 H   0  0  0  0  0  0  0  0  0  0  0  0
  130.3590  134.5662  159.5662 C   0  0  0  0  0  0  0  0  0  0  0  0
  129.9874  133.7676  158.5105 N   0  0  0  0  0  0  0  0  0  0  0  0
  130.9789  132.9108  157.8553 C   0  0  0  0  0  0  0  0  0  0  0  0
  130.5328  132.5419  156.4215 C   0  0  0  0  0  0  0  0  0  0  0  0
  130.9799  131.1096  156.2374 C   0  0  0  0  0  0  0  0  0  0  0  0
  131.2563  130.5522  157.3849 C   0  0  0  0  0  0  0  0  0  0  0  0
  131.0391  131.5187  158.5258 C   0  0  0  0  0  0  0  0  0  0  0  0
  129.4285  135.3701  160.1808 N   0  0  0  0  0  0  0  0  0  0  0  0
  128.0217  134.9633  160.2215 C   0  0  1  0  0  0  0  0  0  0  0  0
  127.6430  134.8543  159.2053 H   0  0  0  0  0  0  0  0  0  0  0  0
  127.8937  133.6278  160.9644 C   0  0  0  0  0  0  0  0  0  0  0  0
  126.4493  133.1381  160.8337 C   0  0  0  0  0  0  0  0  0  0  0  0
  125.4999  134.2485  161.1815 C   0  0  0  0  0  0  0  0  0  0  0  0
  124.3517  133.9603  161.4452 O   0  0  0  0  0  0  0  0  0  0  0  0
  125.8517  135.5343  161.2156 N   0  0  0  0  0  0  0  0  0  0  0  0
  127.2038  136.0186  160.9671 C   0  0  0  0  0  0  0  0  0  0  0  0
  132.4715  136.7671  160.5861 C   0  0  0  0  0  0  0  0  0  0  0  0
  135.8049  140.9146  164.5856 N   0  0  0  0  0  0  0  0  0  0  0  0
  135.9799  141.3489  163.7362 H   0  0  0  0  0  0  0  0  0  0  0  0
  136.4590  143.4173  166.2287 H   0  0  0  0  0  0  0  0  0  0  0  0
  137.7307  142.3866  166.9277 H   0  0  0  0  0  0  0  0  0  0  0  0
  137.7331  142.7441  165.1839 H   0  0  0  0  0  0  0  0  0  0  0  0
  135.9939  140.5432  167.8058 H   0  0  0  0  0  0  0  0  0  0  0  0
  134.5502  138.6542  166.5656 H   0  0  0  0  0  0  0  0  0  0  0  0
  134.0718  140.6967  162.4259 H   0  0  0  0  0  0  0  0  0  0  0  0
  132.9715  139.3917  160.6613 H   0  0  0  0  0  0  0  0  0  0  0  0
  134.5705  137.1221  164.7360 H   0  0  0  0  0  0  0  0  0  0  0  0
  134.0240  134.6947  161.2333 H   0  0  0  0  0  0  0  0  0  0  0  0
  132.8518  133.7510  162.1890 H   0  0  0  0  0  0  0  0  0  0  0  0
  129.0686  133.7715  158.1994 H   0  0  0  0  0  0  0  0  0  0  0  0
  131.9602  133.3854  157.8501 H   0  0  0  0  0  0  0  0  0  0  0  0
  129.4493  132.6160  156.3299 H   0  0  0  0  0  0  0  0  0  0  0  0
  131.0215  133.1895  155.6934 H   0  0  0  0  0  0  0  0  0  0  0  0
  131.0607  130.6132  155.2817 H   0  0  0  0  0  0  0  0  0  0  0  0
  131.5960  129.5338  157.5033 H   0  0  0  0  0  0  0  0  0  0  0  0
  131.8717  131.4709  159.2276 H   0  0  0  0  0  0  0  0  0  0  0  0
  130.0999  131.3011  159.0342 H   0  0  0  0  0  0  0  0  0  0  0  0
  129.7035  136.2067  160.5875 H   0  0  0  0  0  0  0  0  0  0  0  0
  128.5706  132.8962  160.5233 H   0  0  0  0  0  0  0  0  0  0  0  0
  128.1398  133.7683  162.0169 H   0  0  0  0  0  0  0  0  0  0  0  0
  126.2681  132.8144  159.8088 H   0  0  0  0  0  0  0  0  0  0  0  0
  126.2889  132.2991  161.5108 H   0  0  0  0  0  0  0  0  0  0  0  0
  125.1647  136.1883  161.4185 H   0  0  0  0  0  0  0  0  0  0  0  0
  127.6867  136.2429  161.9182 H   0  0  0  0  0  0  0  0  0  0  0  0
  127.1564  136.9275  160.3674 H   0  0  0  0  0  0  0  0  0  0  0  0
  133.1774  136.6110  159.7703 H   0  0  0  0  0  0  0  0  0  0  0  0
  131.6182  137.3399  160.2227 H   0  0  0  0  0  0  0  0  0  0  0  0
  1  2  1  0
  1 37  1  0
  1 38  1  0
  1 39  1  0
  2 35  1  0
  2  3  2  0
  3  4  1  0
  3 40  1  0
  4  5  2  0
  4 41  1  0
  5  6  1  0
  5 35  1  0
  6 11  1  0
  6  7  2  0
  7  8  1  0
  7 42  1  0
  8  9  2  0
  8 43  1  0
  9 34  1  0
  9 10  1  0
 10 11  2  0
 10 12  1  0
 11 44  1  0
 12 13  1  0
 13 14  1  0
 13 45  1  0
 13 46  1  0
 14 15  1  1
 14 16  1  0
 14 34  1  0
 16 17  1  0
 18 16  2  0
 18 19  1  0
 18 25  1  0
 19 20  1  0
 19 47  1  0
 20 24  1  0
 20 21  1  0
 20 48  1  0
 21 22  1  0
 21 49  1  0
 21 50  1  0
 22 23  2  0
 22 51  1  0
 23 24  1  0
 23 52  1  0
 24 53  1  0
 24 54  1  0
 25 26  1  0
 25 55  1  0
 26 27  1  6
 26 33  1  0
 26 28  1  0
 28 29  1  0
 28 56  1  0
 28 57  1  0
 29 30  1  0
 29 58  1  0
 29 59  1  0
 30 31  2  0
 30 32  1  0
 32 33  1  0
 32 60  1  0
 33 61  1  0
 33 62  1  0
 34 63  1  0
 34 64  1  0
 35 36  1  0
M  CHG  1  16   1
M  END
>  <DOCK_score>  (1) 
-44.468674

>  <SMILES>  (1) 
Cc1ccc(-c2ccc3c(c2)OC[C@H]([NH+]=C(NC2CC=CC2)N[C@H]2CCC(=O)NC2)C3)[nH]1

$$$$
