Cc1ccccc1[C@@H](c1ccccc1)[NH+]1CCN(c2cccc3cc[nH]c23)CC1
     RDKit          3D

 57 61  0  0  1  0  0  0  0  0999 V2000
  127.1710  132.4777  159.7218 C   0  0  0  0  0  0  0  0  0  0  0  0
  127.3067  133.7422  158.9133 C   0  0  0  0  0  0  0  0  0  0  0  0
  126.1775  134.3878  158.4447 C   0  0  0  0  0  0  0  0  0  0  0  0
  126.3020  135.5475  157.7031 C   0  0  0  0  0  0  0  0  0  0  0  0
  127.5558  136.0621  157.4303 C   0  0  0  0  0  0  0  0  0  0  0  0
  128.6844  135.4192  157.9022 C   0  0  0  0  0  0  0  0  0  0  0  0
  128.5602  134.2563  158.6397 C   0  0  0  0  0  0  0  0  0  0  0  0
  129.7910  133.5526  159.1503 C   0  0  1  0  0  0  0  0  0  0  0  0
  129.5556  133.0391  160.0824 H   0  0  0  0  0  0  0  0  0  0  0  0
  130.2565  132.5488  158.1273 C   0  0  0  0  0  0  0  0  0  0  0  0
  130.0247  132.7734  156.7832 C   0  0  0  0  0  0  0  0  0  0  0  0
  130.4557  131.8547  155.8444 C   0  0  0  0  0  0  0  0  0  0  0  0
  131.1099  130.7068  156.2505 C   0  0  0  0  0  0  0  0  0  0  0  0
  131.3376  130.4798  157.5950 C   0  0  0  0  0  0  0  0  0  0  0  0
  130.9106  131.4006  158.5334 C   0  0  0  0  0  0  0  0  0  0  0  0
  130.8545  134.5376  159.3891 N   0  0  0  0  0  0  0  0  0  0  0  0
  131.0723  135.0129  158.5261 H   0  0  0  0  0  0  0  0  0  0  0  0
  130.4003  135.5163  160.3857 C   0  0  0  0  0  0  0  0  0  0  0  0
  131.5008  136.5532  160.6211 C   0  0  0  0  0  0  0  0  0  0  0  0
  132.7160  135.8748  161.0937 N   0  0  0  0  0  0  0  0  0  0  0  0
  133.7291  136.7977  161.3717 C   0  0  0  0  0  0  0  0  0  0  0  0
  134.2592  136.8858  162.6474 C   0  0  0  0  0  0  0  0  0  0  0  0
  135.2643  137.7987  162.9325 C   0  0  0  0  0  0  0  0  0  0  0  0
  135.7442  138.6305  161.9606 C   0  0  0  0  0  0  0  0  0  0  0  0
  135.2290  138.5566  160.6633 C   0  0  0  0  0  0  0  0  0  0  0  0
  135.5077  139.2723  159.4161 C   0  0  0  0  0  0  0  0  0  0  0  0
  134.6848  138.7692  158.4820 C   0  0  0  0  0  0  0  0  0  0  0  0
  133.9023  137.7903  159.0293 N   0  0  0  0  0  0  0  0  0  0  0  0
  133.2305  137.2804  158.5499 H   0  0  0  0  0  0  0  0  0  0  0  0
  134.2112  137.6359  160.3638 C   0  0  0  0  0  0  0  0  0  0  0  0
  133.1686  134.8742  160.1171 C   0  0  0  0  0  0  0  0  0  0  0  0
  132.0543  133.8512  159.8858 C   0  0  0  0  0  0  0  0  0  0  0  0
  127.1936  132.7216  160.7840 H   0  0  0  0  0  0  0  0  0  0  0  0
  126.2254  131.9920  159.4805 H   0  0  0  0  0  0  0  0  0  0  0  0
  127.9956  131.8052  159.4857 H   0  0  0  0  0  0  0  0  0  0  0  0
  125.1981  133.9856  158.6579 H   0  0  0  0  0  0  0  0  0  0  0  0
  125.4196  136.0511  157.3368 H   0  0  0  0  0  0  0  0  0  0  0  0
  127.6529  136.9681  156.8505 H   0  0  0  0  0  0  0  0  0  0  0  0
  129.6637  135.8233  157.6922 H   0  0  0  0  0  0  0  0  0  0  0  0
  129.5098  133.6683  156.4662 H   0  0  0  0  0  0  0  0  0  0  0  0
  130.2781  132.0322  154.7940 H   0  0  0  0  0  0  0  0  0  0  0  0
  131.4437  129.9873  155.5174 H   0  0  0  0  0  0  0  0  0  0  0  0
  131.8488  129.5829  157.9123 H   0  0  0  0  0  0  0  0  0  0  0  0
  131.0881  131.2232  159.5837 H   0  0  0  0  0  0  0  0  0  0  0  0
  130.1769  135.0046  161.3219 H   0  0  0  0  0  0  0  0  0  0  0  0
  129.5025  136.0157  160.0216 H   0  0  0  0  0  0  0  0  0  0  0  0
  131.1697  137.2709  161.3716 H   0  0  0  0  0  0  0  0  0  0  0  0
  131.7148  137.0745  159.6882 H   0  0  0  0  0  0  0  0  0  0  0  0
  133.8873  136.2378  163.4273 H   0  0  0  0  0  0  0  0  0  0  0  0
  135.6677  137.8555  163.9328 H   0  0  0  0  0  0  0  0  0  0  0  0
  136.5237  139.3410  162.1933 H   0  0  0  0  0  0  0  0  0  0  0  0
  136.2365  140.0566  159.2747 H   0  0  0  0  0  0  0  0  0  0  0  0
  134.6464  139.0901  157.4515 H   0  0  0  0  0  0  0  0  0  0  0  0
  133.4101  135.3679  159.1758 H   0  0  0  0  0  0  0  0  0  0  0  0
  134.0542  134.3670  160.4999 H   0  0  0  0  0  0  0  0  0  0  0  0
  131.8225  133.3480  160.8245 H   0  0  0  0  0  0  0  0  0  0  0  0
  132.3828  133.1161  159.1510 H   0  0  0  0  0  0  0  0  0  0  0  0
  1  2  1  0
  1 33  1  0
  1 34  1  0
  1 35  1  0
  2  7  2  0
  2  3  1  0
  3  4  2  0
  3 36  1  0
  4  5  1  0
  4 37  1  0
  5  6  2  0
  5 38  1  0
  6  7  1  0
  6 39  1  0
  7  8  1  0
  8  9  1  1
  8 10  1  0
  8 16  1  0
 10 15  1  0
 10 11  2  0
 11 12  1  0
 11 40  1  0
 12 13  2  0
 12 41  1  0
 13 14  1  0
 13 42  1  0
 14 15  2  0
 14 43  1  0
 15 44  1  0
 16 17  1  0
 16 32  1  0
 16 18  1  0
 18 19  1  0
 18 45  1  0
 18 46  1  0
 19 20  1  0
 19 47  1  0
 19 48  1  0
 20 21  1  0
 20 31  1  0
 21 30  1  0
 21 22  2  0
 22 23  1  0
 22 49  1  0
 23 24  2  0
 23 50  1  0
 24 25  1  0
 24 51  1  0
 25 30  2  0
 25 26  1  0
 26 27  2  0
 26 52  1  0
 27 28  1  0
 27 53  1  0
 28 29  1  0
 28 30  1  0
 31 32  1  0
 31 54  1  0
 31 55  1  0
 32 56  1  0
 32 57  1  0
M  CHG  1  16   1
M  END
>  <DOCK_score>  (1) 
-62.432732

>  <SMILES>  (1) 
Cc1ccccc1[C@@H](c1ccccc1)[NH+]1CCN(c2cccc3cc[nH]c23)CC1

$$$$
