Cc1cccc([C@H](Nc2[nH]cc(-c3ccc(F)cc3)[nH+]2)c2cccc(F)c2)c1
     RDKit          3D

 48 51  0  0  1  0  0  0  0  0999 V2000
  131.3046  139.8631  159.6529 C   0  0  0  0  0  0  0  0  0  0  0  0
  130.4913  138.8512  160.4183 C   0  0  0  0  0  0  0  0  0  0  0  0
  130.0507  139.1425  161.6960 C   0  0  0  0  0  0  0  0  0  0  0  0
  129.3044  138.2147  162.3979 C   0  0  0  0  0  0  0  0  0  0  0  0
  128.9986  136.9954  161.8223 C   0  0  0  0  0  0  0  0  0  0  0  0
  129.4345  136.7064  160.5430 C   0  0  0  0  0  0  0  0  0  0  0  0
  129.0959  135.3800  159.9131 C   0  0  2  0  0  0  0  0  0  0  0  0
  129.0061  134.6209  160.6903 H   0  0  0  0  0  0  0  0  0  0  0  0
  130.1570  134.9984  158.9779 N   0  0  0  0  0  0  0  0  0  0  0  0
  130.0656  133.8091  158.2750 C   0  0  0  0  0  0  0  0  0  0  0  0
  129.4364  132.6812  158.7039 N   0  0  0  0  0  0  0  0  0  0  0  0
  128.9755  132.5667  159.5498 H   0  0  0  0  0  0  0  0  0  0  0  0
  129.5749  131.7344  157.7177 C   0  0  0  0  0  0  0  0  0  0  0  0
  130.2841  132.3107  156.7160 C   0  0  0  0  0  0  0  0  0  0  0  0
  130.6773  131.6635  155.4403 C   0  0  0  0  0  0  0  0  0  0  0  0
  130.2433  132.1916  154.2258 C   0  0  0  0  0  0  0  0  0  0  0  0
  130.6163  131.5896  153.0415 C   0  0  0  0  0  0  0  0  0  0  0  0
  131.4114  130.4551  153.0591 C   0  0  0  0  0  0  0  0  0  0  0  0
  131.7700  129.8657  151.8975 F   0  0  0  0  0  0  0  0  0  0  0  0
  131.8405  129.9235  154.2643 C   0  0  0  0  0  0  0  0  0  0  0  0
  131.4772  130.5220  155.4532 C   0  0  0  0  0  0  0  0  0  0  0  0
  130.5661  133.5855  157.0844 N   0  0  0  0  0  0  0  0  0  0  0  0
  131.0612  134.2282  156.5527 H   0  0  0  0  0  0  0  0  0  0  0  0
  127.7896  135.4953  159.1706 C   0  0  0  0  0  0  0  0  0  0  0  0
  127.7820  135.8678  157.8390 C   0  0  0  0  0  0  0  0  0  0  0  0
  126.5846  135.9739  157.1568 C   0  0  0  0  0  0  0  0  0  0  0  0
  125.3933  135.7073  157.8048 C   0  0  0  0  0  0  0  0  0  0  0  0
  125.3995  135.3347  159.1382 C   0  0  0  0  0  0  0  0  0  0  0  0
  124.2356  135.0744  159.7727 F   0  0  0  0  0  0  0  0  0  0  0  0
  126.6001  135.2235  159.8192 C   0  0  0  0  0  0  0  0  0  0  0  0
  130.1856  137.6323  159.8429 C   0  0  0  0  0  0  0  0  0  0  0  0
  130.6374  140.5069  159.0799 H   0  0  0  0  0  0  0  0  0  0  0  0
  131.8823  140.4684  160.3515 H   0  0  0  0  0  0  0  0  0  0  0  0
  131.9822  139.3458  158.9737 H   0  0  0  0  0  0  0  0  0  0  0  0
  130.2893  140.0950  162.1456 H   0  0  0  0  0  0  0  0  0  0  0  0
  128.9600  138.4423  163.3959 H   0  0  0  0  0  0  0  0  0  0  0  0
  128.4152  136.2705  162.3705 H   0  0  0  0  0  0  0  0  0  0  0  0
  130.9236  135.5789  158.8512 H   0  0  0  0  0  0  0  0  0  0  0  0
  129.1918  130.7249  157.7366 H   0  0  0  0  0  0  0  0  0  0  0  0
  129.6199  133.0733  154.2113 H   0  0  0  0  0  0  0  0  0  0  0  0
  130.2838  132.0005  152.0996 H   0  0  0  0  0  0  0  0  0  0  0  0
  132.4599  129.0388  154.2733 H   0  0  0  0  0  0  0  0  0  0  0  0
  131.8123  130.1071  156.3923 H   0  0  0  0  0  0  0  0  0  0  0  0
  128.7125  136.0760  157.3318 H   0  0  0  0  0  0  0  0  0  0  0  0
  126.5800  136.2645  156.1165 H   0  0  0  0  0  0  0  0  0  0  0  0
  124.4580  135.7894  157.2712 H   0  0  0  0  0  0  0  0  0  0  0  0
  126.6067  134.9279  160.8580 H   0  0  0  0  0  0  0  0  0  0  0  0
  130.5295  137.4052  158.8446 H   0  0  0  0  0  0  0  0  0  0  0  0
  1  2  1  0
  1 32  1  0
  1 33  1  0
  1 34  1  0
  2 31  2  0
  2  3  1  0
  3  4  2  0
  3 35  1  0
  4  5  1  0
  4 36  1  0
  5  6  2  0
  5 37  1  0
  6  7  1  0
  6 31  1  0
  7  8  1  1
  7  9  1  0
  7 24  1  0
  9 38  1  0
 10  9  1  0
 10 22  2  0
 10 11  1  0
 11 12  1  0
 11 13  1  0
 13 14  2  0
 13 39  1  0
 14 15  1  0
 14 22  1  0
 15 21  1  0
 15 16  2  0
 16 17  1  0
 16 40  1  0
 17 18  2  0
 17 41  1  0
 18 19  1  0
 18 20  1  0
 20 21  2  0
 20 42  1  0
 21 43  1  0
 22 23  1  0
 24 30  1  0
 24 25  2  0
 25 26  1  0
 25 44  1  0
 26 27  2  0
 26 45  1  0
 27 28  1  0
 27 46  1  0
 28 29  1  0
 28 30  2  0
 30 47  1  0
 31 48  1  0
M  CHG  1  22   1
M  END
>  <DOCK_score>  (1) 
-59.273842

>  <SMILES>  (1) 
Cc1cccc([C@H](Nc2[nH]cc(-c3ccc(F)cc3)[nH+]2)c2cccc(F)c2)c1

$$$$
