CN(C(=O)C(=O)Nc1cc(O)cc(Nc2[nH]cc(-c3ccc(N)cc3)[nH+]2)c1)[C@H]1CCC(=O)NC1
     RDKit          3D

 60 63  0  0  1  0  0  0  0  0999 V2000
  135.9349  135.0392  162.8803 C   0  0  0  0  0  0  0  0  0  0  0  0
  135.5432  135.7091  164.1230 N   0  0  0  0  0  0  0  0  0  0  0  0
  134.2438  135.9714  164.3665 C   0  0  0  0  0  0  0  0  0  0  0  0
  133.9193  136.5262  165.3959 O   0  0  0  0  0  0  0  0  0  0  0  0
  133.2032  135.5792  163.3695 C   0  0  0  0  0  0  0  0  0  0  0  0
  133.5277  135.0242  162.3400 O   0  0  0  0  0  0  0  0  0  0  0  0
  131.9039  135.8414  163.6131 N   0  0  0  0  0  0  0  0  0  0  0  0
  130.9303  135.4745  162.6804 C   0  0  0  0  0  0  0  0  0  0  0  0
  129.6499  135.1441  163.1061 C   0  0  0  0  0  0  0  0  0  0  0  0
  128.6826  134.7847  162.1806 C   0  0  0  0  0  0  0  0  0  0  0  0
  127.4289  134.4662  162.5975 O   0  0  0  0  0  0  0  0  0  0  0  0
  128.9948  134.7445  160.8300 C   0  0  0  0  0  0  0  0  0  0  0  0
  130.2756  135.0692  160.4031 C   0  0  0  0  0  0  0  0  0  0  0  0
  130.5902  135.0281  159.0419 N   0  0  0  0  0  0  0  0  0  0  0  0
  130.4693  133.8406  158.3385 C   0  0  0  0  0  0  0  0  0  0  0  0
  130.0627  132.6499  158.8573 N   0  0  0  0  0  0  0  0  0  0  0  0
  129.8069  132.4813  159.7777 H   0  0  0  0  0  0  0  0  0  0  0  0
  130.0782  131.7312  157.8353 C   0  0  0  0  0  0  0  0  0  0  0  0
  130.5012  132.3850  156.7250 C   0  0  0  0  0  0  0  0  0  0  0  0
  130.6787  131.7917  155.3769 C   0  0  0  0  0  0  0  0  0  0  0  0
  130.4977  132.5768  154.2393 C   0  0  0  0  0  0  0  0  0  0  0  0
  130.6684  132.0245  152.9874 C   0  0  0  0  0  0  0  0  0  0  0  0
  131.0100  130.6833  152.8591 C   0  0  0  0  0  0  0  0  0  0  0  0
  131.1772  130.1246  151.5896 N   0  0  0  0  0  0  0  0  0  0  0  0
  131.1857  129.8974  153.9918 C   0  0  0  0  0  0  0  0  0  0  0  0
  131.0213  130.4468  155.2458 C   0  0  0  0  0  0  0  0  0  0  0  0
  130.7333  133.6772  157.0649 N   0  0  0  0  0  0  0  0  0  0  0  0
  131.0448  134.3701  156.4619 H   0  0  0  0  0  0  0  0  0  0  0  0
  131.2437  135.4344  161.3287 C   0  0  0  0  0  0  0  0  0  0  0  0
  136.5639  136.0939  165.1008 C   0  0  1  0  0  0  0  0  0  0  0  0
  136.1376  136.0684  166.1038 H   0  0  0  0  0  0  0  0  0  0  0  0
  137.7492  135.1242  165.0209 C   0  0  0  0  0  0  0  0  0  0  0  0
  138.7091  135.4376  166.1714 C   0  0  0  0  0  0  0  0  0  0  0  0
  138.9913  136.9122  166.2122 C   0  0  0  0  0  0  0  0  0  0  0  0
  139.9625  137.2942  166.8300 O   0  0  0  0  0  0  0  0  0  0  0  0
  138.2279  137.8246  165.6095 N   0  0  0  0  0  0  0  0  0  0  0  0
  137.0643  137.5054  164.7918 C   0  0  0  0  0  0  0  0  0  0  0  0
  135.8549  133.9597  163.0087 H   0  0  0  0  0  0  0  0  0  0  0  0
  135.2768  135.3587  162.0723 H   0  0  0  0  0  0  0  0  0  0  0  0
  136.9643  135.3008  162.6355 H   0  0  0  0  0  0  0  0  0  0  0  0
  131.6445  136.2849  164.4357 H   0  0  0  0  0  0  0  0  0  0  0  0
  129.4070  135.1712  164.1581 H   0  0  0  0  0  0  0  0  0  0  0  0
  126.8245  134.2291  161.8808 H   0  0  0  0  0  0  0  0  0  0  0  0
  128.2416  134.4606  160.1100 H   0  0  0  0  0  0  0  0  0  0  0  0
  130.8930  135.8309  158.5897 H   0  0  0  0  0  0  0  0  0  0  0  0
  129.8086  130.6876  157.9039 H   0  0  0  0  0  0  0  0  0  0  0  0
  130.2276  133.6178  154.3385 H   0  0  0  0  0  0  0  0  0  0  0  0
  130.5322  132.6334  152.1059 H   0  0  0  0  0  0  0  0  0  0  0  0
  131.4158  129.1889  151.4993 H   0  0  0  0  0  0  0  0  0  0  0  0
  131.0546  130.6725  150.7987 H   0  0  0  0  0  0  0  0  0  0  0  0
  131.4512  128.8556  153.8897 H   0  0  0  0  0  0  0  0  0  0  0  0
  131.1580  129.8357  156.1257 H   0  0  0  0  0  0  0  0  0  0  0  0
  132.2401  135.6868  160.9974 H   0  0  0  0  0  0  0  0  0  0  0  0
  137.3911  134.0986  165.1108 H   0  0  0  0  0  0  0  0  0  0  0  0
  138.2639  135.2515  164.0685 H   0  0  0  0  0  0  0  0  0  0  0  0
  138.2590  135.1253  167.1137 H   0  0  0  0  0  0  0  0  0  0  0  0
  139.6440  134.8980  166.0202 H   0  0  0  0  0  0  0  0  0  0  0  0
  138.4642  138.7590  165.7189 H   0  0  0  0  0  0  0  0  0  0  0  0
  136.2704  138.2226  164.9996 H   0  0  0  0  0  0  0  0  0  0  0  0
  137.3371  137.5650  163.7381 H   0  0  0  0  0  0  0  0  0  0  0  0
  1  2  1  0
  1 38  1  0
  1 39  1  0
  1 40  1  0
  2  3  1  0
  2 30  1  0
  3  4  2  0
  3  5  1  0
  5  6  2  0
  5  7  1  0
  7  8  1  0
  7 41  1  0
  8 29  1  0
  8  9  2  0
  9 10  1  0
  9 42  1  0
 10 11  1  0
 10 12  2  0
 11 43  1  0
 12 13  1  0
 12 44  1  0
 13 14  1  0
 13 29  2  0
 14 45  1  0
 15 14  1  0
 15 27  2  0
 15 16  1  0
 16 17  1  0
 16 18  1  0
 18 19  2  0
 18 46  1  0
 19 20  1  0
 19 27  1  0
 20 26  1  0
 20 21  2  0
 21 22  1  0
 21 47  1  0
 22 23  2  0
 22 48  1  0
 23 24  1  0
 23 25  1  0
 24 49  1  0
 24 50  1  0
 25 26  2  0
 25 51  1  0
 26 52  1  0
 27 28  1  0
 29 53  1  0
 30 31  1  1
 30 37  1  0
 30 32  1  0
 32 33  1  0
 32 54  1  0
 32 55  1  0
 33 34  1  0
 33 56  1  0
 33 57  1  0
 34 35  2  0
 34 36  1  0
 36 37  1  0
 36 58  1  0
 37 59  1  0
 37 60  1  0
M  CHG  1  27   1
M  END
>  <DOCK_score>  (1) 
-57.259117

>  <SMILES>  (1) 
CN(C(=O)C(=O)Nc1cc(O)cc(Nc2[nH]cc(-c3ccc(N)cc3)[nH+]2)c1)[C@H]1CCC(=O)NC1

$$$$
