O=C(CC[N@@H+]1CCC(c2c[nH]c3ccccc23)C1)Nc1ccccc1
     RDKit          3D

 49 52  0  0  1  0  0  0  0  0999 V2000
  130.7896  130.2635  155.6007 O   0  0  0  0  0  0  0  0  0  0  0  0
  130.4066  131.2816  155.0644 C   0  0  0  0  0  0  0  0  0  0  0  0
  130.2565  132.5468  155.8694 C   0  0  0  0  0  0  0  0  0  0  0  0
  130.6425  132.2742  157.3245 C   0  0  0  0  0  0  0  0  0  0  0  0
  130.4963  133.5075  158.1091 N   0  0  2  0  0  0  0  0  0  0  0  0
  131.0956  134.2294  157.7381 H   0  0  0  0  0  0  0  0  0  0  0  0
  130.8246  133.2512  159.5282 C   0  0  0  0  0  0  0  0  0  0  0  0
  129.8804  134.1244  160.3752 C   0  0  0  0  0  0  0  0  0  0  0  0
  128.9842  134.8596  159.3523 C   0  0  2  0  0  0  0  0  0  0  0  0
  127.5635  134.9390  159.8482 C   0  0  0  0  0  0  0  0  0  0  0  0
  126.8598  136.0585  160.0797 C   0  0  0  0  0  0  0  0  0  0  0  0
  125.6055  135.7380  160.5227 N   0  0  0  0  0  0  0  0  0  0  0  0
  124.9158  136.3792  160.7551 H   0  0  0  0  0  0  0  0  0  0  0  0
  125.4680  134.3696  160.5888 C   0  0  0  0  0  0  0  0  0  0  0  0
  124.4251  133.5288  160.9644 C   0  0  0  0  0  0  0  0  0  0  0  0
  124.5981  132.1630  160.9213 C   0  0  0  0  0  0  0  0  0  0  0  0
  125.8042  131.6147  160.5065 C   0  0  0  0  0  0  0  0  0  0  0  0
  126.8415  132.4217  160.1334 C   0  0  0  0  0  0  0  0  0  0  0  0
  126.6860  133.8090  160.1633 C   0  0  0  0  0  0  0  0  0  0  0  0
  129.0809  133.9580  158.0959 C   0  0  0  0  0  0  0  0  0  0  0  0
  130.1203  131.2828  153.7474 N   0  0  0  0  0  0  0  0  0  0  0  0
  130.2648  130.1096  152.9989 C   0  0  0  0  0  0  0  0  0  0  0  0
  129.4468  129.8797  151.9005 C   0  0  0  0  0  0  0  0  0  0  0  0
  129.5962  128.7235  151.1600 C   0  0  0  0  0  0  0  0  0  0  0  0
  130.5512  127.7898  151.5182 C   0  0  0  0  0  0  0  0  0  0  0  0
  131.3633  128.0129  152.6150 C   0  0  0  0  0  0  0  0  0  0  0  0
  131.2230  129.1698  153.3560 C   0  0  0  0  0  0  0  0  0  0  0  0
  130.9085  133.3179  155.4588 H   0  0  0  0  0  0  0  0  0  0  0  0
  129.2213  132.8849  155.8253 H   0  0  0  0  0  0  0  0  0  0  0  0
  129.9906  131.5030  157.7350 H   0  0  0  0  0  0  0  0  0  0  0  0
  131.6778  131.9361  157.3686 H   0  0  0  0  0  0  0  0  0  0  0  0
  130.6662  132.1984  159.7617 H   0  0  0  0  0  0  0  0  0  0  0  0
  131.8619  133.5228  159.7241 H   0  0  0  0  0  0  0  0  0  0  0  0
  129.2731  133.4996  161.0300 H   0  0  0  0  0  0  0  0  0  0  0  0
  130.4534  134.8428  160.9614 H   0  0  0  0  0  0  0  0  0  0  0  0
  129.3746  135.8556  159.1433 H   0  0  0  0  0  0  0  0  0  0  0  0
  127.2291  137.0634  159.9373 H   0  0  0  0  0  0  0  0  0  0  0  0
  123.4829  133.9457  161.2881 H   0  0  0  0  0  0  0  0  0  0  0  0
  123.7874  131.5119  161.2136 H   0  0  0  0  0  0  0  0  0  0  0  0
  125.9233  130.5417  160.4782 H   0  0  0  0  0  0  0  0  0  0  0  0
  127.7768  131.9881  159.8114 H   0  0  0  0  0  0  0  0  0  0  0  0
  128.8682  134.5314  157.1937 H   0  0  0  0  0  0  0  0  0  0  0  0
  128.4054  133.1068  158.1803 H   0  0  0  0  0  0  0  0  0  0  0  0
  129.8139  132.0971  153.3185 H   0  0  0  0  0  0  0  0  0  0  0  0
  128.6974  130.6063  151.6230 H   0  0  0  0  0  0  0  0  0  0  0  0
  128.9634  128.5463  150.3029 H   0  0  0  0  0  0  0  0  0  0  0  0
  130.6628  126.8842  150.9404 H   0  0  0  0  0  0  0  0  0  0  0  0
  132.1082  127.2818  152.8923 H   0  0  0  0  0  0  0  0  0  0  0  0
  131.8581  129.3439  154.2121 H   0  0  0  0  0  0  0  0  0  0  0  0
  1  2  2  0
  2  3  1  0
  2 21  1  0
  3  4  1  0
  3 28  1  0
  3 29  1  0
  4  5  1  0
  4 30  1  0
  4 31  1  0
  5  6  1  6
  5 20  1  0
  5  7  1  0
  7  8  1  0
  7 32  1  0
  7 33  1  0
  8  9  1  0
  8 34  1  0
  8 35  1  0
  9 10  1  0
  9 20  1  0
  9 36  1  6
 10 19  1  0
 10 11  2  0
 11 12  1  0
 11 37  1  0
 12 13  1  0
 12 14  1  0
 14 19  2  0
 14 15  1  0
 15 16  2  0
 15 38  1  0
 16 17  1  0
 16 39  1  0
 17 18  2  0
 17 40  1  0
 18 19  1  0
 18 41  1  0
 20 42  1  0
 20 43  1  0
 21 22  1  0
 21 44  1  0
 22 27  1  0
 22 23  2  0
 23 24  1  0
 23 45  1  0
 24 25  2  0
 24 46  1  0
 25 26  1  0
 25 47  1  0
 26 27  2  0
 26 48  1  0
 27 49  1  0
M  CHG  1   5   1
M  END
>  <DOCK_score>  (1) 
-46.919949

>  <SMILES>  (1) 
O=C(CC[N@@H+]1CCC(c2c[nH]c3ccccc23)C1)Nc1ccccc1

$$$$
