Cc1cc(O)ccc1Nc1[nH]cc(C2CC2)[nH+]1
     RDKit          3D

 33 35  0  0  1  0  0  0  0  0999 V2000
  130.9489  136.8981  160.4108 C   0  0  0  0  0  0  0  0  0  0  0  0
  129.4877  136.5467  160.2979 C   0  0  0  0  0  0  0  0  0  0  0  0
  128.5974  136.9767  161.2621 C   0  0  0  0  0  0  0  0  0  0  0  0
  127.2526  136.6538  161.1582 C   0  0  0  0  0  0  0  0  0  0  0  0
  126.3764  137.0775  162.1080 O   0  0  0  0  0  0  0  0  0  0  0  0
  126.8004  135.8991  160.0854 C   0  0  0  0  0  0  0  0  0  0  0  0
  127.6893  135.4681  159.1207 C   0  0  0  0  0  0  0  0  0  0  0  0
  129.0362  135.7910  159.2241 C   0  0  0  0  0  0  0  0  0  0  0  0
  129.9371  135.3597  158.2431 N   0  0  0  0  0  0  0  0  0  0  0  0
  129.7055  134.1753  157.5623 C   0  0  0  0  0  0  0  0  0  0  0  0
  129.0604  133.0851  158.0590 N   0  0  0  0  0  0  0  0  0  0  0  0
  128.6806  132.9943  158.9469 H   0  0  0  0  0  0  0  0  0  0  0  0
  129.0462  132.1367  157.0617 C   0  0  0  0  0  0  0  0  0  0  0  0
  129.6825  132.6701  156.0047 C   0  0  0  0  0  0  0  0  0  0  0  0
  129.9149  131.9906  154.6798 C   0  0  0  0  0  0  0  0  0  0  0  0
  131.0919  131.0180  154.5815 C   0  0  0  0  0  0  0  0  0  0  0  0
  131.1680  132.3833  153.8947 C   0  0  0  0  0  0  0  0  0  0  0  0
  130.0760  133.9125  156.3313 N   0  0  0  0  0  0  0  0  0  0  0  0
  130.5579  134.5199  155.7485 H   0  0  0  0  0  0  0  0  0  0  0  0
  131.1355  137.8438  159.9018 H   0  0  0  0  0  0  0  0  0  0  0  0
  131.2198  136.9918  161.4624 H   0  0  0  0  0  0  0  0  0  0  0  0
  131.5481  136.1129  159.9499 H   0  0  0  0  0  0  0  0  0  0  0  0
  128.9484  137.5641  162.0975 H   0  0  0  0  0  0  0  0  0  0  0  0
  125.4625  136.8039  161.9503 H   0  0  0  0  0  0  0  0  0  0  0  0
  125.7530  135.6487  160.0047 H   0  0  0  0  0  0  0  0  0  0  0  0
  127.3372  134.8807  158.2855 H   0  0  0  0  0  0  0  0  0  0  0  0
  130.7236  135.8901  158.0400 H   0  0  0  0  0  0  0  0  0  0  0  0
  128.6102  131.1503  157.1188 H   0  0  0  0  0  0  0  0  0  0  0  0
  129.0170  131.7539  154.1089 H   0  0  0  0  0  0  0  0  0  0  0  0
  131.6982  130.8696  155.4751 H   0  0  0  0  0  0  0  0  0  0  0  0
  130.9685  130.1411  153.9460 H   0  0  0  0  0  0  0  0  0  0  0  0
  131.0947  132.4043  152.8074 H   0  0  0  0  0  0  0  0  0  0  0  0
  131.8244  133.1329  154.3366 H   0  0  0  0  0  0  0  0  0  0  0  0
  1  2  1  0
  1 20  1  0
  1 21  1  0
  1 22  1  0
  2  8  2  0
  2  3  1  0
  3  4  2  0
  3 23  1  0
  4  5  1  0
  4  6  1  0
  5 24  1  0
  6  7  2  0
  6 25  1  0
  7  8  1  0
  7 26  1  0
  8  9  1  0
  9 27  1  0
 10  9  1  0
 10 18  2  0
 10 11  1  0
 11 12  1  0
 11 13  1  0
 13 14  2  0
 13 28  1  0
 14 15  1  0
 14 18  1  0
 15 17  1  0
 15 16  1  0
 15 29  1  0
 16 17  1  0
 16 30  1  0
 16 31  1  0
 17 32  1  0
 17 33  1  0
 18 19  1  0
M  CHG  1  18   1
M  END
>  <DOCK_score>  (1) 
-46.605522

>  <SMILES>  (1) 
Cc1cc(O)ccc1Nc1[nH]cc(C2CC2)[nH+]1

$$$$
