[NH3+][C@@H](C(=O)Nc1cccc(O)c1)c1cccc(NC2CC23CCCC3)c1
     RDKit          3D

 52 55  0  0  1  0  0  0  0  0999 V2000
  131.5988  132.8709  158.4837 N   0  0  0  0  0  0  0  0  0  0  0  0
  131.1525  132.5711  157.6298 H   0  0  0  0  0  0  0  0  0  0  0  0
  132.5014  133.2680  158.2699 H   0  0  0  0  0  0  0  0  0  0  0  0
  131.7167  132.0787  159.0974 H   0  0  0  0  0  0  0  0  0  0  0  0
  130.7627  133.8820  159.1442 C   0  0  1  0  0  0  0  0  0  0  0  0
  130.6352  134.7376  158.4812 H   0  0  0  0  0  0  0  0  0  0  0  0
  129.4147  133.2886  159.4634 C   0  0  0  0  0  0  0  0  0  0  0  0
  129.3136  132.1022  159.6940 O   0  0  0  0  0  0  0  0  0  0  0  0
  128.3214  134.0764  159.4926 N   0  0  0  0  0  0  0  0  0  0  0  0
  127.0690  133.5244  159.7832 C   0  0  0  0  0  0  0  0  0  0  0  0
  126.7914  132.2082  159.4361 C   0  0  0  0  0  0  0  0  0  0  0  0
  125.5569  131.6618  159.7278 C   0  0  0  0  0  0  0  0  0  0  0  0
  124.5909  132.4258  160.3550 C   0  0  0  0  0  0  0  0  0  0  0  0
  124.8607  133.7427  160.6994 C   0  0  0  0  0  0  0  0  0  0  0  0
  123.9100  134.4927  161.3161 O   0  0  0  0  0  0  0  0  0  0  0  0
  126.1006  134.2928  160.4135 C   0  0  0  0  0  0  0  0  0  0  0  0
  131.4292  134.3296  160.4196 C   0  0  0  0  0  0  0  0  0  0  0  0
  131.1640  133.6700  161.6059 C   0  0  0  0  0  0  0  0  0  0  0  0
  131.7730  134.0776  162.7784 C   0  0  0  0  0  0  0  0  0  0  0  0
  132.6490  135.1456  162.7682 C   0  0  0  0  0  0  0  0  0  0  0  0
  132.9178  135.8100  161.5786 C   0  0  0  0  0  0  0  0  0  0  0  0
  133.8031  136.8902  161.5648 N   0  0  0  0  0  0  0  0  0  0  0  0
  133.6277  137.9686  160.5888 C   0  0  1  0  0  0  0  0  0  0  0  0
  133.2007  139.3397  161.1191 C   0  0  0  0  0  0  0  0  0  0  0  0
  134.6273  139.1207  160.6244 C   0  0  0  0  0  0  0  0  0  0  0  0
  135.1192  139.7780  159.3230 C   0  0  0  0  0  0  0  0  0  0  0  0
  136.3229  140.6456  159.7712 C   0  0  0  0  0  0  0  0  0  0  0  0
  136.9948  139.7672  160.8561 C   0  0  0  0  0  0  0  0  0  0  0  0
  135.8114  139.1127  161.6008 C   0  0  0  0  0  0  0  0  0  0  0  0
  132.3082  135.3944  160.4013 C   0  0  0  0  0  0  0  0  0  0  0  0
  128.4024  135.0253  159.3082 H   0  0  0  0  0  0  0  0  0  0  0  0
  127.5429  131.6105  158.9416 H   0  0  0  0  0  0  0  0  0  0  0  0
  125.3444  130.6370  159.4612 H   0  0  0  0  0  0  0  0  0  0  0  0
  123.6249  131.9972  160.5778 H   0  0  0  0  0  0  0  0  0  0  0  0
  124.1904  135.3963  161.5162 H   0  0  0  0  0  0  0  0  0  0  0  0
  126.3125  135.3175  160.6810 H   0  0  0  0  0  0  0  0  0  0  0  0
  130.4794  132.8347  161.6165 H   0  0  0  0  0  0  0  0  0  0  0  0
  131.5632  133.5608  163.7032 H   0  0  0  0  0  0  0  0  0  0  0  0
  133.1246  135.4632  163.6843 H   0  0  0  0  0  0  0  0  0  0  0  0
  134.5342  136.9263  162.2014 H   0  0  0  0  0  0  0  0  0  0  0  0
  133.2445  137.6637  159.6151 H   0  0  0  0  0  0  0  0  0  0  0  0
  132.5372  139.9371  160.4940 H   0  0  0  0  0  0  0  0  0  0  0  0
  133.0498  139.4391  162.1941 H   0  0  0  0  0  0  0  0  0  0  0  0
  135.4402  139.0191  158.6093 H   0  0  0  0  0  0  0  0  0  0  0  0
  134.3374  140.4031  158.8916 H   0  0  0  0  0  0  0  0  0  0  0  0
  135.9813  141.5897  160.1958 H   0  0  0  0  0  0  0  0  0  0  0  0
  137.0056  140.8224  158.9401 H   0  0  0  0  0  0  0  0  0  0  0  0
  137.5800  140.3843  161.5378 H   0  0  0  0  0  0  0  0  0  0  0  0
  137.6247  139.0054  160.3966 H   0  0  0  0  0  0  0  0  0  0  0  0
  135.5651  139.6898  162.4921 H   0  0  0  0  0  0  0  0  0  0  0  0
  136.0629  138.0884  161.8755 H   0  0  0  0  0  0  0  0  0  0  0  0
  132.5181  135.9063  159.4739 H   0  0  0  0  0  0  0  0  0  0  0  0
  1  2  1  0
  1  3  1  0
  1  4  1  0
  1  5  1  0
  5  6  1  6
  5  7  1  0
  5 17  1  0
  7  8  2  0
  7  9  1  0
  9 10  1  0
  9 31  1  0
 10 16  1  0
 10 11  2  0
 11 12  1  0
 11 32  1  0
 12 13  2  0
 12 33  1  0
 13 14  1  0
 13 34  1  0
 14 15  1  0
 14 16  2  0
 15 35  1  0
 16 36  1  0
 17 30  1  0
 17 18  2  0
 18 19  1  0
 18 37  1  0
 19 20  2  0
 19 38  1  0
 20 21  1  0
 20 39  1  0
 21 22  1  0
 21 30  2  0
 22 23  1  0
 22 40  1  0
 23 25  1  0
 23 24  1  0
 23 41  1  6
 24 25  1  0
 24 42  1  0
 24 43  1  0
 25 29  1  0
 25 26  1  0
 26 27  1  0
 26 44  1  0
 26 45  1  0
 27 28  1  0
 27 46  1  0
 27 47  1  0
 28 29  1  0
 28 48  1  0
 28 49  1  0
 29 50  1  0
 29 51  1  0
 30 52  1  0
M  CHG  1   1   1
M  END
>  <DOCK_score>  (1) 
-42.516628

>  <SMILES>  (1) 
[NH3+][C@@H](C(=O)Nc1cccc(O)c1)c1cccc(NC2CC23CCCC3)c1

$$$$
