C=C=CCCC(Nc1[nH]cc(-c2ccc(N)cc2)[nH+]1)C1=C[C@@H](Br)CC1
     RDKit          3D

 49 51  0  0  1  0  0  0  0  0999 V2000
  133.6115  139.1352  159.5643 C   0  0  0  0  0  0  0  0  0  0  0  0
  133.1424  138.2129  160.3626 C   0  0  0  0  0  0  0  0  0  0  0  0
  132.6732  137.2905  161.1610 C   0  0  0  0  0  0  0  0  0  0  0  0
  132.2731  135.9471  160.6076 C   0  0  0  0  0  0  0  0  0  0  0  0
  130.7990  135.9822  160.1994 C   0  0  0  0  0  0  0  0  0  0  0  0
  130.3928  134.6182  159.6375 C   0  0  2  0  0  0  0  0  0  0  0  0
  130.8412  134.5099  158.2470 N   0  0  0  0  0  0  0  0  0  0  0  0
  130.5857  133.3563  157.5253 C   0  0  0  0  0  0  0  0  0  0  0  0
  129.9361  132.2561  157.9933 N   0  0  0  0  0  0  0  0  0  0  0  0
  129.5711  132.1401  158.8845 H   0  0  0  0  0  0  0  0  0  0  0  0
  129.8918  131.3398  156.9694 C   0  0  0  0  0  0  0  0  0  0  0  0
  130.5152  131.9068  155.9071 C   0  0  0  0  0  0  0  0  0  0  0  0
  130.7095  131.2842  154.5746 C   0  0  0  0  0  0  0  0  0  0  0  0
  130.1759  131.8883  153.4374 C   0  0  0  0  0  0  0  0  0  0  0  0
  130.3575  131.3074  152.2000 C   0  0  0  0  0  0  0  0  0  0  0  0
  131.0721  130.1208  152.0862 C   0  0  0  0  0  0  0  0  0  0  0  0
  131.2539  129.5348  150.8311 N   0  0  0  0  0  0  0  0  0  0  0  0
  131.6005  129.5141  153.2195 C   0  0  0  0  0  0  0  0  0  0  0  0
  131.4259  130.0939  154.4582 C   0  0  0  0  0  0  0  0  0  0  0  0
  130.9349  133.1417  156.2801 N   0  0  0  0  0  0  0  0  0  0  0  0
  131.4150  133.7670  155.7150 H   0  0  0  0  0  0  0  0  0  0  0  0
  128.8935  134.4779  159.6943 C   0  0  0  0  0  0  0  0  0  0  0  0
  128.2363  133.9806  160.7064 C   0  0  0  0  0  0  0  0  0  0  0  0
  126.7483  133.9851  160.4442 C   0  0  1  0  0  0  0  0  0  0  0  0
  126.4101  132.9838  160.1774 H   0  0  0  0  0  0  0  0  0  0  0  0
  125.7696  134.6404  162.0183 Br  0  0  0  0  0  0  0  0  0  0  0  0
  126.5608  134.9522  159.2522 C   0  0  0  0  0  0  0  0  0  0  0  0
  127.9540  134.8883  158.5843 C   0  0  0  0  0  0  0  0  0  0  0  0
  134.6734  139.1988  159.3776 H   0  0  0  0  0  0  0  0  0  0  0  0
  132.9373  139.8338  159.0911 H   0  0  0  0  0  0  0  0  0  0  0  0
  132.5721  137.4912  162.2175 H   0  0  0  0  0  0  0  0  0  0  0  0
  132.4210  135.1818  161.3696 H   0  0  0  0  0  0  0  0  0  0  0  0
  132.8861  135.7159  159.7365 H   0  0  0  0  0  0  0  0  0  0  0  0
  130.6510  136.7477  159.4376 H   0  0  0  0  0  0  0  0  0  0  0  0
  130.1861  136.2134  161.0706 H   0  0  0  0  0  0  0  0  0  0  0  0
  130.8544  133.8289  160.2307 H   0  0  0  0  0  0  0  0  0  0  0  0
  131.3170  135.2463  157.8320 H   0  0  0  0  0  0  0  0  0  0  0  0
  129.4460  130.3567  157.0044 H   0  0  0  0  0  0  0  0  0  0  0  0
  129.6203  132.8102  153.5253 H   0  0  0  0  0  0  0  0  0  0  0  0
  129.9438  131.7750  151.3186 H   0  0  0  0  0  0  0  0  0  0  0  0
  130.8823  129.9548  150.0407 H   0  0  0  0  0  0  0  0  0  0  0  0
  131.7563  128.7079  150.7509 H   0  0  0  0  0  0  0  0  0  0  0  0
  132.1519  128.5898  153.1291 H   0  0  0  0  0  0  0  0  0  0  0  0
  131.8400  129.6241  155.3380 H   0  0  0  0  0  0  0  0  0  0  0  0
  128.6957  133.6157  161.6132 H   0  0  0  0  0  0  0  0  0  0  0  0
  126.3387  135.9616  159.5985 H   0  0  0  0  0  0  0  0  0  0  0  0
  125.7855  134.5933  158.5753 H   0  0  0  0  0  0  0  0  0  0  0  0
  128.2328  135.8667  158.1931 H   0  0  0  0  0  0  0  0  0  0  0  0
  127.9594  134.1443  157.7877 H   0  0  0  0  0  0  0  0  0  0  0  0
  1  2  2  0
  1 29  1  0
  1 30  1  0
  2  3  2  0
  3  4  1  0
  3 31  1  0
  4  5  1  0
  4 32  1  0
  4 33  1  0
  5  6  1  0
  5 34  1  0
  5 35  1  0
  6  7  1  0
  6 22  1  0
  6 36  1  1
  7 37  1  0
  8  7  1  0
  8 20  2  0
  8  9  1  0
  9 10  1  0
  9 11  1  0
 11 12  2  0
 11 38  1  0
 12 13  1  0
 12 20  1  0
 13 19  1  0
 13 14  2  0
 14 15  1  0
 14 39  1  0
 15 16  2  0
 15 40  1  0
 16 17  1  0
 16 18  1  0
 17 41  1  0
 17 42  1  0
 18 19  2  0
 18 43  1  0
 19 44  1  0
 20 21  1  0
 22 28  1  0
 22 23  2  0
 23 24  1  0
 23 45  1  0
 24 25  1  6
 24 26  1  0
 24 27  1  0
 27 28  1  0
 27 46  1  0
 27 47  1  0
 28 48  1  0
 28 49  1  0
M  CHG  1  20   1
M  END
>  <DOCK_score>  (1) 
-60.044819

>  <SMILES>  (1) 
C=C=CCCC(Nc1[nH]cc(-c2ccc(N)cc2)[nH+]1)C1=C[C@@H](Br)CC1

$$$$
