C[C@H](Cc1ccc(C(C)(C)C)cc1)C[NH+](C)C1c2cc(O)ccc2-c2ccc(O)cc21
     RDKit          3D

 65 68  0  0  1  0  0  0  0  0999 V2000
  128.9311  138.3849  161.8775 C   0  0  0  0  0  0  0  0  0  0  0  0
  129.6476  137.3097  161.0581 C   0  0  2  0  0  0  0  0  0  0  0  0
  130.3112  136.7395  161.7082 H   0  0  0  0  0  0  0  0  0  0  0  0
  130.4668  137.9743  159.9499 C   0  0  0  0  0  0  0  0  0  0  0  0
  131.7605  138.4922  160.5234 C   0  0  0  0  0  0  0  0  0  0  0  0
  132.8800  137.6816  160.5464 C   0  0  0  0  0  0  0  0  0  0  0  0
  134.0681  138.1584  161.0680 C   0  0  0  0  0  0  0  0  0  0  0  0
  134.1339  139.4424  161.5760 C   0  0  0  0  0  0  0  0  0  0  0  0
  135.4275  139.9601  162.1501 C   0  0  0  0  0  0  0  0  0  0  0  0
  136.5114  139.9336  161.0706 C   0  0  0  0  0  0  0  0  0  0  0  0
  135.2299  141.3963  162.6392 C   0  0  0  0  0  0  0  0  0  0  0  0
  135.8547  139.0760  163.3235 C   0  0  0  0  0  0  0  0  0  0  0  0
  133.0132  140.2513  161.5575 C   0  0  0  0  0  0  0  0  0  0  0  0
  131.8265  139.7763  161.0313 C   0  0  0  0  0  0  0  0  0  0  0  0
  128.6136  136.3702  160.4345 C   0  0  0  0  0  0  0  0  0  0  0  0
  129.2613  135.1042  160.0663 N   0  0  1  0  0  0  0  0  0  0  0  0
  130.1737  135.2934  159.6791 H   0  0  0  0  0  0  0  0  0  0  0  0
  129.4015  134.2604  161.2605 C   0  0  0  0  0  0  0  0  0  0  0  0
  128.4406  134.4067  159.0675 C   0  0  0  0  0  0  0  0  0  0  0  0
  127.1006  134.0427  159.6585 C   0  0  0  0  0  0  0  0  0  0  0  0
  126.0815  134.8095  160.1803 C   0  0  0  0  0  0  0  0  0  0  0  0
  124.9330  134.1997  160.6668 C   0  0  0  0  0  0  0  0  0  0  0  0
  123.9276  134.9557  161.1808 O   0  0  0  0  0  0  0  0  0  0  0  0
  124.8119  132.8170  160.6276 C   0  0  0  0  0  0  0  0  0  0  0  0
  125.8288  132.0465  160.1066 C   0  0  0  0  0  0  0  0  0  0  0  0
  126.9861  132.6554  159.6159 C   0  0  0  0  0  0  0  0  0  0  0  0
  128.2122  132.0769  159.0125 C   0  0  0  0  0  0  0  0  0  0  0  0
  128.5725  130.7519  158.7564 C   0  0  0  0  0  0  0  0  0  0  0  0
  129.7905  130.4678  158.1774 C   0  0  0  0  0  0  0  0  0  0  0  0
  130.6630  131.4957  157.8462 C   0  0  0  0  0  0  0  0  0  0  0  0
  131.8625  131.2113  157.2746 O   0  0  0  0  0  0  0  0  0  0  0  0
  130.3096  132.8144  158.0992 C   0  0  0  0  0  0  0  0  0  0  0  0
  129.0927  133.1026  158.6781 C   0  0  0  0  0  0  0  0  0  0  0  0
  128.2065  138.8998  161.2466 H   0  0  0  0  0  0  0  0  0  0  0  0
  128.4155  137.9187  162.7170 H   0  0  0  0  0  0  0  0  0  0  0  0
  129.6609  139.1025  162.2525 H   0  0  0  0  0  0  0  0  0  0  0  0
  130.6816  137.2445  159.1694 H   0  0  0  0  0  0  0  0  0  0  0  0
  129.8997  138.8032  159.5261 H   0  0  0  0  0  0  0  0  0  0  0  0
  132.8274  136.6769  160.1537 H   0  0  0  0  0  0  0  0  0  0  0  0
  134.9436  137.5264  161.0827 H   0  0  0  0  0  0  0  0  0  0  0  0
  136.2071  140.5633  160.2346 H   0  0  0  0  0  0  0  0  0  0  0  0
  137.4471  140.3080  161.4858 H   0  0  0  0  0  0  0  0  0  0  0  0
  136.6522  138.9104  160.7221 H   0  0  0  0  0  0  0  0  0  0  0  0
  134.4577  141.4153  163.4082 H   0  0  0  0  0  0  0  0  0  0  0  0
  136.1656  141.7707  163.0543 H   0  0  0  0  0  0  0  0  0  0  0  0
  134.9256  142.0262  161.8032 H   0  0  0  0  0  0  0  0  0  0  0  0
  135.9955  138.0529  162.9751 H   0  0  0  0  0  0  0  0  0  0  0  0
  136.7904  139.4505  163.7388 H   0  0  0  0  0  0  0  0  0  0  0  0
  135.0826  139.0949  164.0927 H   0  0  0  0  0  0  0  0  0  0  0  0
  133.0645  141.2544  161.9547 H   0  0  0  0  0  0  0  0  0  0  0  0
  130.9507  140.4081  161.0172 H   0  0  0  0  0  0  0  0  0  0  0  0
  127.8186  136.1757  161.1543 H   0  0  0  0  0  0  0  0  0  0  0  0
  128.1912  136.8348  159.5435 H   0  0  0  0  0  0  0  0  0  0  0  0
  129.9552  133.3571  161.0042 H   0  0  0  0  0  0  0  0  0  0  0  0
  129.9400  134.8099  162.0325 H   0  0  0  0  0  0  0  0  0  0  0  0
  128.4132  133.9879  161.6309 H   0  0  0  0  0  0  0  0  0  0  0  0
  128.3053  135.0359  158.1877 H   0  0  0  0  0  0  0  0  0  0  0  0
  126.1762  135.8849  160.2108 H   0  0  0  0  0  0  0  0  0  0  0  0
  124.1029  135.9065  161.1652 H   0  0  0  0  0  0  0  0  0  0  0  0
  123.9178  132.3440  161.0061 H   0  0  0  0  0  0  0  0  0  0  0  0
  125.7308  130.9714  160.0776 H   0  0  0  0  0  0  0  0  0  0  0  0
  127.8964  129.9496  159.0125 H   0  0  0  0  0  0  0  0  0  0  0  0
  130.0668  129.4426  157.9803 H   0  0  0  0  0  0  0  0  0  0  0  0
  132.4005  131.9912  157.0805 H   0  0  0  0  0  0  0  0  0  0  0  0
  130.9881  133.6143  157.8418 H   0  0  0  0  0  0  0  0  0  0  0  0
  1  2  1  0
  1 34  1  0
  1 35  1  0
  1 36  1  0
  2  3  1  1
  2  4  1  0
  2 15  1  0
  4  5  1  0
  4 37  1  0
  4 38  1  0
  5 14  1  0
  5  6  2  0
  6  7  1  0
  6 39  1  0
  7  8  2  0
  7 40  1  0
  8  9  1  0
  8 13  1  0
  9 10  1  0
  9 11  1  0
  9 12  1  0
 10 41  1  0
 10 42  1  0
 10 43  1  0
 11 44  1  0
 11 45  1  0
 11 46  1  0
 12 47  1  0
 12 48  1  0
 12 49  1  0
 13 14  2  0
 13 50  1  0
 14 51  1  0
 15 16  1  0
 15 52  1  0
 15 53  1  0
 16 17  1  6
 16 18  1  0
 16 19  1  0
 18 54  1  0
 18 55  1  0
 18 56  1  0
 19 33  1  0
 19 20  1  0
 19 57  1  0
 20 26  1  0
 20 21  2  0
 21 22  1  0
 21 58  1  0
 22 23  1  0
 22 24  2  0
 23 59  1  0
 24 25  1  0
 24 60  1  0
 25 26  2  0
 25 61  1  0
 26 27  1  0
 27 33  2  0
 27 28  1  0
 28 29  2  0
 28 62  1  0
 29 30  1  0
 29 63  1  0
 30 31  1  0
 30 32  2  0
 31 64  1  0
 32 33  1  0
 32 65  1  0
M  CHG  1  16   1
M  END
>  <DOCK_score>  (1) 
-44.867905

>  <SMILES>  (1) 
C[C@H](Cc1ccc(C(C)(C)C)cc1)C[NH+](C)C1c2cc(O)ccc2-c2ccc(O)cc21

$$$$
