ONCC1=CC(CBr)C=C[C@@H]1C[NH2+][C@@H]1CC[C@H](CC2=CCC=CC2)C1
     RDKit          3D

 57 59  0  0  1  0  0  0  0  0999 V2000
  126.0691  136.0054  161.3198 O   0  0  0  0  0  0  0  0  0  0  0  0
  126.8301  134.8409  160.8662 N   0  0  0  0  0  0  0  0  0  0  0  0
  126.7376  134.6869  159.4083 C   0  0  0  0  0  0  0  0  0  0  0  0
  127.8763  133.8286  158.9206 C   0  0  0  0  0  0  0  0  0  0  0  0
  127.7032  132.5435  158.8587 C   0  0  0  0  0  0  0  0  0  0  0  0
  128.7703  131.6011  158.3891 C   0  0  2  0  0  0  0  0  0  0  0  0
  129.4322  130.9474  159.6038 C   0  0  0  0  0  0  0  0  0  0  0  0
  130.3419  129.2965  159.0449 Br  0  0  0  0  0  0  0  0  0  0  0  0
  129.8139  132.3200  157.5883 C   0  0  0  0  0  0  0  0  0  0  0  0
  129.9866  133.6053  157.6493 C   0  0  0  0  0  0  0  0  0  0  0  0
  129.1598  134.4958  158.5272 C   0  0  2  0  0  0  0  0  0  0  0  0
  128.9329  135.4166  157.9898 H   0  0  0  0  0  0  0  0  0  0  0  0
  129.9559  134.8351  159.7890 C   0  0  0  0  0  0  0  0  0  0  0  0
  130.9420  135.8792  159.4799 N   0  0  0  0  0  0  0  0  0  0  0  0
  130.4652  136.7054  159.1507 H   0  0  0  0  0  0  0  0  0  0  0  0
  131.5711  135.5464  158.7647 H   0  0  0  0  0  0  0  0  0  0  0  0
  131.7063  136.2050  160.6914 C   0  0  2  0  0  0  0  0  0  0  0  0
  132.2291  135.3234  161.0624 H   0  0  0  0  0  0  0  0  0  0  0  0
  130.7749  136.7781  161.7794 C   0  0  0  0  0  0  0  0  0  0  0  0
  131.5650  137.8885  162.4940 C   0  0  0  0  0  0  0  0  0  0  0  0
  132.9489  137.9514  161.8153 C   0  0  2  0  0  0  0  0  0  0  0  0
  133.6741  137.3532  162.3669 H   0  0  0  0  0  0  0  0  0  0  0  0
  133.4257  139.4009  161.7048 C   0  0  0  0  0  0  0  0  0  0  0  0
  134.7776  139.4357  161.0395 C   0  0  0  0  0  0  0  0  0  0  0  0
  134.9060  140.0944  159.9282 C   0  0  0  0  0  0  0  0  0  0  0  0
  136.2053  140.1918  159.1865 C   0  0  0  0  0  0  0  0  0  0  0  0
  137.3651  139.8715  160.0804 C   0  0  0  0  0  0  0  0  0  0  0  0
  137.2366  139.2128  161.1918 C   0  0  0  0  0  0  0  0  0  0  0  0
  135.9156  138.7078  161.6893 C   0  0  0  0  0  0  0  0  0  0  0  0
  132.7092  137.3507  160.4079 C   0  0  0  0  0  0  0  0  0  0  0  0
  126.1005  136.1476  162.2757 H   0  0  0  0  0  0  0  0  0  0  0  0
  126.5247  134.0031  161.3384 H   0  0  0  0  0  0  0  0  0  0  0  0
  126.7931  135.6673  158.9350 H   0  0  0  0  0  0  0  0  0  0  0  0
  125.7900  134.2130  159.1523 H   0  0  0  0  0  0  0  0  0  0  0  0
  126.7493  132.1356  159.1591 H   0  0  0  0  0  0  0  0  0  0  0  0
  128.3154  130.8273  157.7707 H   0  0  0  0  0  0  0  0  0  0  0  0
  130.1598  131.6350  160.0350 H   0  0  0  0  0  0  0  0  0  0  0  0
  128.6719  130.7094  160.3477 H   0  0  0  0  0  0  0  0  0  0  0  0
  130.4493  131.7440  156.9320 H   0  0  0  0  0  0  0  0  0  0  0  0
  130.7595  134.0522  157.0416 H   0  0  0  0  0  0  0  0  0  0  0  0
  130.4710  133.9428  160.1447 H   0  0  0  0  0  0  0  0  0  0  0  0
  129.2763  135.1946  160.5618 H   0  0  0  0  0  0  0  0  0  0  0  0
  129.8774  137.1939  161.3216 H   0  0  0  0  0  0  0  0  0  0  0  0
  130.5039  135.9962  162.4887 H   0  0  0  0  0  0  0  0  0  0  0  0
  131.6780  137.6456  163.5506 H   0  0  0  0  0  0  0  0  0  0  0  0
  131.0509  138.8432  162.3829 H   0  0  0  0  0  0  0  0  0  0  0  0
  133.5001  139.8361  162.7014 H   0  0  0  0  0  0  0  0  0  0  0  0
  132.7136  139.9734  161.1105 H   0  0  0  0  0  0  0  0  0  0  0  0
  134.0397  140.5941  159.5206 H   0  0  0  0  0  0  0  0  0  0  0  0
  136.1936  139.4908  158.3519 H   0  0  0  0  0  0  0  0  0  0  0  0
  136.3214  141.2045  158.8007 H   0  0  0  0  0  0  0  0  0  0  0  0
  138.3502  140.2034  159.7874 H   0  0  0  0  0  0  0  0  0  0  0  0
  138.1186  139.0243  161.7857 H   0  0  0  0  0  0  0  0  0  0  0  0
  135.8329  137.6440  161.4666 H   0  0  0  0  0  0  0  0  0  0  0  0
  135.8613  138.8521  162.7684 H   0  0  0  0  0  0  0  0  0  0  0  0
  132.2699  138.0926  159.7410 H   0  0  0  0  0  0  0  0  0  0  0  0
  133.6373  136.9578  159.9925 H   0  0  0  0  0  0  0  0  0  0  0  0
  1  2  1  0
  1 31  1  0
  2  3  1  0
  2 32  1  0
  3  4  1  0
  3 33  1  0
  3 34  1  0
  4 11  1  0
  4  5  2  0
  5  6  1  0
  5 35  1  0
  6  7  1  0
  6  9  1  0
  6 36  1  6
  7  8  1  0
  7 37  1  0
  7 38  1  0
  9 10  2  0
  9 39  1  0
 10 11  1  0
 10 40  1  0
 11 12  1  6
 11 13  1  0
 13 14  1  0
 13 41  1  0
 13 42  1  0
 14 15  1  0
 14 16  1  0
 14 17  1  0
 17 18  1  1
 17 30  1  0
 17 19  1  0
 19 20  1  0
 19 43  1  0
 19 44  1  0
 20 21  1  0
 20 45  1  0
 20 46  1  0
 21 22  1  1
 21 23  1  0
 21 30  1  0
 23 24  1  0
 23 47  1  0
 23 48  1  0
 24 29  1  0
 24 25  2  0
 25 26  1  0
 25 49  1  0
 26 27  1  0
 26 50  1  0
 26 51  1  0
 27 28  2  0
 27 52  1  0
 28 29  1  0
 28 53  1  0
 29 54  1  0
 29 55  1  0
 30 56  1  0
 30 57  1  0
M  CHG  1  14   1
M  END
>  <DOCK_score>  (1) 
-46.216038

>  <SMILES>  (1) 
ONCC1=CC(CBr)C=C[C@@H]1C[NH2+][C@@H]1CC[C@H](CC2=CCC=CC2)C1

$$$$
