O=C1CC[C@@H](NC(N[C@H]2CCC(=O)NC2)=[NH+]C2CC(=C3CCC3)C2)CN1
     RDKit          3D

 56 59  0  0  1  0  0  0  0  0999 V2000
  131.8614  129.7404  156.2567 O   0  0  0  0  0  0  0  0  0  0  0  0
  131.2569  130.6797  156.7290 C   0  0  0  0  0  0  0  0  0  0  0  0
  130.3583  131.4738  155.8248 C   0  0  0  0  0  0  0  0  0  0  0  0
  129.3799  132.3030  156.6604 C   0  0  0  0  0  0  0  0  0  0  0  0
  130.1743  133.0447  157.7422 C   0  0  1  0  0  0  0  0  0  0  0  0
  130.9954  133.5939  157.2811 H   0  0  0  0  0  0  0  0  0  0  0  0
  129.2923  133.9790  158.4460 N   0  0  0  0  0  0  0  0  0  0  0  0
  129.7883  134.7584  159.4642 C   0  0  0  0  0  0  0  0  0  0  0  0
  128.9673  135.1443  160.4971 N   0  0  0  0  0  0  0  0  0  0  0  0
  127.5636  134.7249  160.5130 C   0  0  1  0  0  0  0  0  0  0  0  0
  127.2053  134.6080  159.4903 H   0  0  0  0  0  0  0  0  0  0  0  0
  127.4328  133.3938  161.2629 C   0  0  0  0  0  0  0  0  0  0  0  0
  125.9959  132.8900  161.1078 C   0  0  0  0  0  0  0  0  0  0  0  0
  125.0299  133.9941  161.4285 C   0  0  0  0  0  0  0  0  0  0  0  0
  123.8795  133.6974  161.6727 O   0  0  0  0  0  0  0  0  0  0  0  0
  125.3693  135.2833  161.4597 N   0  0  0  0  0  0  0  0  0  0  0  0
  126.7217  135.7781  161.2343 C   0  0  0  0  0  0  0  0  0  0  0  0
  131.0372  135.1315  159.4500 N   0  0  0  0  0  0  0  0  0  0  0  0
  131.4952  135.2603  158.6047 H   0  0  0  0  0  0  0  0  0  0  0  0
  131.7471  135.3620  160.7105 C   0  0  0  0  0  0  0  0  0  0  0  0
  132.1253  136.8345  160.9458 C   0  0  0  0  0  0  0  0  0  0  0  0
  133.4494  136.3203  161.4749 C   0  0  0  0  0  0  0  0  0  0  0  0
  134.3641  136.7604  162.3029 C   0  0  0  0  0  0  0  0  0  0  0  0
  135.6853  136.2558  162.8437 C   0  0  0  0  0  0  0  0  0  0  0  0
  135.4392  137.1332  164.0774 C   0  0  0  0  0  0  0  0  0  0  0  0
  134.5690  137.9974  163.1514 C   0  0  0  0  0  0  0  0  0  0  0  0
  133.2567  135.0766  160.6300 C   0  0  0  0  0  0  0  0  0  0  0  0
  130.7298  132.0195  158.7314 C   0  0  0  0  0  0  0  0  0  0  0  0
  131.4260  130.9526  158.0233 N   0  0  0  0  0  0  0  0  0  0  0  0
  129.7994  130.7938  155.1819 H   0  0  0  0  0  0  0  0  0  0  0  0
  130.9630  132.1394  155.2090 H   0  0  0  0  0  0  0  0  0  0  0  0
  128.6480  131.6450  157.1289 H   0  0  0  0  0  0  0  0  0  0  0  0
  128.8695  133.0233  156.0211 H   0  0  0  0  0  0  0  0  0  0  0  0
  128.3581  134.0478  158.1936 H   0  0  0  0  0  0  0  0  0  0  0  0
  129.3172  135.6941  161.2155 H   0  0  0  0  0  0  0  0  0  0  0  0
  128.1249  132.6651  160.8406 H   0  0  0  0  0  0  0  0  0  0  0  0
  127.6568  133.5440  162.3190 H   0  0  0  0  0  0  0  0  0  0  0  0
  125.8298  132.0546  161.7879 H   0  0  0  0  0  0  0  0  0  0  0  0
  125.8377  132.5570  160.0820 H   0  0  0  0  0  0  0  0  0  0  0  0
  124.6725  135.9325  161.6441 H   0  0  0  0  0  0  0  0  0  0  0  0
  127.1835  136.0136  162.1933 H   0  0  0  0  0  0  0  0  0  0  0  0
  126.6780  136.6823  160.6272 H   0  0  0  0  0  0  0  0  0  0  0  0
  131.2583  134.8926  161.5642 H   0  0  0  0  0  0  0  0  0  0  0  0
  132.2165  137.4149  160.0276 H   0  0  0  0  0  0  0  0  0  0  0  0
  131.5141  137.3279  161.7015 H   0  0  0  0  0  0  0  0  0  0  0  0
  135.6868  135.1882  163.0637 H   0  0  0  0  0  0  0  0  0  0  0  0
  136.5459  136.5675  162.2520 H   0  0  0  0  0  0  0  0  0  0  0  0
  136.3310  137.6415  164.4443 H   0  0  0  0  0  0  0  0  0  0  0  0
  134.8791  136.6323  164.8670 H   0  0  0  0  0  0  0  0  0  0  0  0
  135.1234  138.7869  162.6439 H   0  0  0  0  0  0  0  0  0  0  0  0
  133.6550  138.3588  163.6226 H   0  0  0  0  0  0  0  0  0  0  0  0
  133.5553  134.1563  161.1317 H   0  0  0  0  0  0  0  0  0  0  0  0
  133.6654  135.1638  159.6234 H   0  0  0  0  0  0  0  0  0  0  0  0
  131.4240  132.5139  159.4108 H   0  0  0  0  0  0  0  0  0  0  0  0
  129.9086  131.5933  159.3077 H   0  0  0  0  0  0  0  0  0  0  0  0
  132.0516  130.4069  158.5250 H   0  0  0  0  0  0  0  0  0  0  0  0
  1  2  2  0
  2 29  1  0
  2  3  1  0
  3  4  1  0
  3 30  1  0
  3 31  1  0
  4  5  1  0
  4 32  1  0
  4 33  1  0
  5  6  1  6
  5  7  1  0
  5 28  1  0
  7 34  1  0
  8  7  1  0
  8  9  1  0
  8 18  2  0
  9 10  1  0
  9 35  1  0
 10 11  1  6
 10 17  1  0
 10 12  1  0
 12 13  1  0
 12 36  1  0
 12 37  1  0
 13 14  1  0
 13 38  1  0
 13 39  1  0
 14 15  2  0
 14 16  1  0
 16 17  1  0
 16 40  1  0
 17 41  1  0
 17 42  1  0
 18 19  1  0
 18 20  1  0
 20 27  1  0
 20 21  1  0
 20 43  1  0
 21 22  1  0
 21 44  1  0
 21 45  1  0
 22 23  2  0
 22 27  1  0
 23 26  1  0
 23 24  1  0
 24 25  1  0
 24 46  1  0
 24 47  1  0
 25 26  1  0
 25 48  1  0
 25 49  1  0
 26 50  1  0
 26 51  1  0
 27 52  1  0
 27 53  1  0
 28 29  1  0
 28 54  1  0
 28 55  1  0
 29 56  1  0
M  CHG  1  18   1
M  END
>  <DOCK_score>  (1) 
-46.817131

>  <SMILES>  (1) 
O=C1CC[C@@H](NC(N[C@H]2CCC(=O)NC2)=[NH+]C2CC(=C3CCC3)C2)CN1

$$$$
