O=C1CC[C@H]([NH+]=C(NCCC2CC=CC2)N[C@H]2CCc3ccccc3C2)CN1
     RDKit          3D

 61 64  0  0  1  0  0  0  0  0999 V2000
  124.1954  133.9793  161.5590 O   0  0  0  0  0  0  0  0  0  0  0  0
  125.3606  134.2360  161.3412 C   0  0  0  0  0  0  0  0  0  0  0  0
  126.2077  133.1873  160.6795 C   0  0  0  0  0  0  0  0  0  0  0  0
  127.6900  133.5095  160.8847 C   0  0  0  0  0  0  0  0  0  0  0  0
  127.9217  134.9801  160.5174 C   0  0  2  0  0  0  0  0  0  0  0  0
  127.5218  135.1787  159.5230 H   0  0  0  0  0  0  0  0  0  0  0  0
  129.3573  135.2713  160.5368 N   0  0  0  0  0  0  0  0  0  0  0  0
  129.7067  135.9485  161.1371 H   0  0  0  0  0  0  0  0  0  0  0  0
  130.1652  134.6205  159.7476 C   0  0  0  0  0  0  0  0  0  0  0  0
  129.7153  134.1569  158.5341 N   0  0  0  0  0  0  0  0  0  0  0  0
  130.6233  133.4255  157.6471 C   0  0  0  0  0  0  0  0  0  0  0  0
  129.8781  133.0249  156.3723 C   0  0  0  0  0  0  0  0  0  0  0  0
  130.8263  132.2611  155.4459 C   0  0  0  0  0  0  0  0  0  0  0  0
  130.2142  132.1009  154.0349 C   0  0  0  0  0  0  0  0  0  0  0  0
  130.6376  130.7203  153.5877 C   0  0  0  0  0  0  0  0  0  0  0  0
  131.0481  130.0039  154.5985 C   0  0  0  0  0  0  0  0  0  0  0  0
  130.9666  130.7861  155.8887 C   0  0  0  0  0  0  0  0  0  0  0  0
  131.4672  134.3979  160.1289 N   0  0  0  0  0  0  0  0  0  0  0  0
  131.9465  134.8921  161.4221 C   0  0  1  0  0  0  0  0  0  0  0  0
  131.8450  135.9767  161.4611 H   0  0  0  0  0  0  0  0  0  0  0  0
  131.1296  134.2560  162.5530 C   0  0  0  0  0  0  0  0  0  0  0  0
  131.4840  134.9623  163.8599 C   0  0  0  0  0  0  0  0  0  0  0  0
  132.9776  135.0068  164.0502 C   0  0  0  0  0  0  0  0  0  0  0  0
  133.4596  135.2651  165.3272 C   0  0  0  0  0  0  0  0  0  0  0  0
  134.8170  135.3241  165.5655 C   0  0  0  0  0  0  0  0  0  0  0  0
  135.7059  135.1249  164.5253 C   0  0  0  0  0  0  0  0  0  0  0  0
  135.2293  134.8663  163.2571 C   0  0  0  0  0  0  0  0  0  0  0  0
  133.8628  134.8038  163.0156 C   0  0  0  0  0  0  0  0  0  0  0  0
  133.4119  134.5047  161.6098 C   0  0  0  0  0  0  0  0  0  0  0  0
  127.2059  135.8598  161.5432 C   0  0  0  0  0  0  0  0  0  0  0  0
  125.8207  135.4346  161.7016 N   0  0  0  0  0  0  0  0  0  0  0  0
  125.9866  133.1636  159.6124 H   0  0  0  0  0  0  0  0  0  0  0  0
  125.9850  132.2136  161.1158 H   0  0  0  0  0  0  0  0  0  0  0  0
  128.2966  132.8709  160.2426 H   0  0  0  0  0  0  0  0  0  0  0  0
  127.9604  133.3448  161.9277 H   0  0  0  0  0  0  0  0  0  0  0  0
  128.7966  134.3141  158.2651 H   0  0  0  0  0  0  0  0  0  0  0  0
  131.4695  134.0619  157.3884 H   0  0  0  0  0  0  0  0  0  0  0  0
  130.9834  132.5303  158.1538 H   0  0  0  0  0  0  0  0  0  0  0  0
  129.0318  132.3885  156.6309 H   0  0  0  0  0  0  0  0  0  0  0  0
  129.5179  133.9202  155.8655 H   0  0  0  0  0  0  0  0  0  0  0  0
  131.7996  132.7491  155.3970 H   0  0  0  0  0  0  0  0  0  0  0  0
  129.1273  132.1677  154.0826 H   0  0  0  0  0  0  0  0  0  0  0  0
  130.6127  132.8583  153.3598 H   0  0  0  0  0  0  0  0  0  0  0  0
  130.6053  130.3728  152.5656 H   0  0  0  0  0  0  0  0  0  0  0  0
  131.3996  128.9854  154.5227 H   0  0  0  0  0  0  0  0  0  0  0  0
  131.8763  130.6501  156.4734 H   0  0  0  0  0  0  0  0  0  0  0  0
  130.0941  130.4781  156.4650 H   0  0  0  0  0  0  0  0  0  0  0  0
  132.0685  133.9137  159.5417 H   0  0  0  0  0  0  0  0  0  0  0  0
  130.0655  134.3742  162.3486 H   0  0  0  0  0  0  0  0  0  0  0  0
  131.3729  133.1963  162.6302 H   0  0  0  0  0  0  0  0  0  0  0  0
  131.0944  135.9800  163.8354 H   0  0  0  0  0  0  0  0  0  0  0  0
  131.0314  134.4250  164.6932 H   0  0  0  0  0  0  0  0  0  0  0  0
  132.7660  135.4214  166.1401 H   0  0  0  0  0  0  0  0  0  0  0  0
  135.1841  135.5251  166.5610 H   0  0  0  0  0  0  0  0  0  0  0  0
  136.7698  135.1716  164.7053 H   0  0  0  0  0  0  0  0  0  0  0  0
  135.9242  134.7114  162.4451 H   0  0  0  0  0  0  0  0  0  0  0  0
  133.5299  133.4390  161.4138 H   0  0  0  0  0  0  0  0  0  0  0  0
  134.0257  135.0688  160.9076 H   0  0  0  0  0  0  0  0  0  0  0  0
  127.7179  135.7841  162.5025 H   0  0  0  0  0  0  0  0  0  0  0  0
  127.2284  136.8964  161.2072 H   0  0  0  0  0  0  0  0  0  0  0  0
  125.1944  136.0629  162.0939 H   0  0  0  0  0  0  0  0  0  0  0  0
  1  2  2  0
  2 31  1  0
  2  3  1  0
  3  4  1  0
  3 32  1  0
  3 33  1  0
  4  5  1  0
  4 34  1  0
  4 35  1  0
  5  6  1  6
  5  7  1  0
  5 30  1  0
  7  8  1  0
  9  7  2  0
  9 10  1  0
  9 18  1  0
 10 11  1  0
 10 36  1  0
 11 12  1  0
 11 37  1  0
 11 38  1  0
 12 13  1  0
 12 39  1  0
 12 40  1  0
 13 17  1  0
 13 14  1  0
 13 41  1  0
 14 15  1  0
 14 42  1  0
 14 43  1  0
 15 16  2  0
 15 44  1  0
 16 17  1  0
 16 45  1  0
 17 46  1  0
 17 47  1  0
 18 19  1  0
 18 48  1  0
 19 20  1  6
 19 29  1  0
 19 21  1  0
 21 22  1  0
 21 49  1  0
 21 50  1  0
 22 23  1  0
 22 51  1  0
 22 52  1  0
 23 28  2  0
 23 24  1  0
 24 25  2  0
 24 53  1  0
 25 26  1  0
 25 54  1  0
 26 27  2  0
 26 55  1  0
 27 28  1  0
 27 56  1  0
 28 29  1  0
 29 57  1  0
 29 58  1  0
 30 31  1  0
 30 59  1  0
 30 60  1  0
 31 61  1  0
M  CHG  1   7   1
M  END
>  <DOCK_score>  (1) 
-44.85714

>  <SMILES>  (1) 
O=C1CC[C@H]([NH+]=C(NCCC2CC=CC2)N[C@H]2CCc3ccccc3C2)CN1

$$$$
