O=C1SCC[C@@H]1NC(N[C@H]1C[C@H](Cc2ccccc2)C1)=[NH+]C1CCOCC1
     RDKit          3D

 57 60  0  0  1  0  0  0  0  0999 V2000
  126.8161  136.7843  161.1404 O   0  0  0  0  0  0  0  0  0  0  0  0
  126.5845  135.7575  160.5372 C   0  0  0  0  0  0  0  0  0  0  0  0
  125.1685  134.7983  160.6952 S   0  0  0  0  0  0  0  0  0  0  0  0
  125.6307  133.4882  159.5207 C   0  0  0  0  0  0  0  0  0  0  0  0
  127.1585  133.6236  159.3779 C   0  0  0  0  0  0  0  0  0  0  0  0
  127.4889  135.1099  159.5242 C   0  0  2  0  0  0  0  0  0  0  0  0
  127.3595  135.6022  158.5603 H   0  0  0  0  0  0  0  0  0  0  0  0
  128.8810  135.2549  159.9572 N   0  0  0  0  0  0  0  0  0  0  0  0
  129.8973  134.7389  159.1883 C   0  0  0  0  0  0  0  0  0  0  0  0
  131.2036  134.8749  159.5946 N   0  0  0  0  0  0  0  0  0  0  0  0
  131.5238  134.9370  161.0228 C   0  0  1  0  0  0  0  0  0  0  0  0
  130.8209  134.3774  161.6399 H   0  0  0  0  0  0  0  0  0  0  0  0
  132.9978  134.6323  161.3375 C   0  0  0  0  0  0  0  0  0  0  0  0
  133.2654  136.1360  161.1578 C   0  0  2  0  0  0  0  0  0  0  0  0
  133.5032  136.4176  160.1320 H   0  0  0  0  0  0  0  0  0  0  0  0
  134.2523  136.7108  162.1758 C   0  0  0  0  0  0  0  0  0  0  0  0
  134.2361  138.2157  162.0969 C   0  0  0  0  0  0  0  0  0  0  0  0
  135.1013  138.8722  161.2417 C   0  0  0  0  0  0  0  0  0  0  0  0
  135.0830  140.2523  161.1657 C   0  0  0  0  0  0  0  0  0  0  0  0
  134.2070  140.9764  161.9526 C   0  0  0  0  0  0  0  0  0  0  0  0
  133.3455  140.3200  162.8117 C   0  0  0  0  0  0  0  0  0  0  0  0
  133.3600  138.9397  162.8837 C   0  0  0  0  0  0  0  0  0  0  0  0
  131.7914  136.3629  161.5328 C   0  0  0  0  0  0  0  0  0  0  0  0
  129.6223  134.1207  158.0742 N   0  0  0  0  0  0  0  0  0  0  0  0
  128.8373  134.3703  157.5620 H   0  0  0  0  0  0  0  0  0  0  0  0
  130.4988  133.0489  157.5956 C   0  0  0  0  0  0  0  0  0  0  0  0
  129.9490  132.4857  156.2815 C   0  0  0  0  0  0  0  0  0  0  0  0
  130.8264  131.3152  155.8303 C   0  0  0  0  0  0  0  0  0  0  0  0
  130.8573  130.3212  156.8564 O   0  0  0  0  0  0  0  0  0  0  0  0
  131.4058  130.7777  158.0946 C   0  0  0  0  0  0  0  0  0  0  0  0
  130.5516  131.9267  158.6368 C   0  0  0  0  0  0  0  0  0  0  0  0
  125.3711  132.5084  159.9215 H   0  0  0  0  0  0  0  0  0  0  0  0
  125.1410  133.6476  158.5601 H   0  0  0  0  0  0  0  0  0  0  0  0
  127.4738  133.2669  158.3974 H   0  0  0  0  0  0  0  0  0  0  0  0
  127.6577  133.0524  160.1605 H   0  0  0  0  0  0  0  0  0  0  0  0
  129.0857  135.7148  160.7862 H   0  0  0  0  0  0  0  0  0  0  0  0
  131.9133  134.9298  158.9356 H   0  0  0  0  0  0  0  0  0  0  0  0
  133.4848  134.0095  160.5872 H   0  0  0  0  0  0  0  0  0  0  0  0
  133.1644  134.2777  162.3547 H   0  0  0  0  0  0  0  0  0  0  0  0
  133.9640  136.3965  163.1790 H   0  0  0  0  0  0  0  0  0  0  0  0
  135.2555  136.3461  161.9550 H   0  0  0  0  0  0  0  0  0  0  0  0
  135.7887  138.3068  160.6302 H   0  0  0  0  0  0  0  0  0  0  0  0
  135.7564  140.7651  160.4948 H   0  0  0  0  0  0  0  0  0  0  0  0
  134.1958  142.0548  161.8965 H   0  0  0  0  0  0  0  0  0  0  0  0
  132.6612  140.8857  163.4266 H   0  0  0  0  0  0  0  0  0  0  0  0
  132.6872  138.4268  163.5552 H   0  0  0  0  0  0  0  0  0  0  0  0
  131.6266  136.4818  162.6037 H   0  0  0  0  0  0  0  0  0  0  0  0
  131.3042  137.1372  160.9401 H   0  0  0  0  0  0  0  0  0  0  0  0
  131.5019  133.4433  157.4333 H   0  0  0  0  0  0  0  0  0  0  0  0
  128.9273  132.1376  156.4336 H   0  0  0  0  0  0  0  0  0  0  0  0
  129.9597  133.2643  155.5187 H   0  0  0  0  0  0  0  0  0  0  0  0
  131.8385  131.6721  155.6394 H   0  0  0  0  0  0  0  0  0  0  0  0
  130.4153  130.8832  154.9179 H   0  0  0  0  0  0  0  0  0  0  0  0
  132.4255  131.1276  157.9333 H   0  0  0  0  0  0  0  0  0  0  0  0
  131.4121  129.9586  158.8136 H   0  0  0  0  0  0  0  0  0  0  0  0
  130.9934  132.3054  159.5585 H   0  0  0  0  0  0  0  0  0  0  0  0
  129.5421  131.5673  158.8365 H   0  0  0  0  0  0  0  0  0  0  0  0
  1  2  2  0
  2  6  1  0
  2  3  1  0
  3  4  1  0
  4  5  1  0
  4 32  1  0
  4 33  1  0
  5  6  1  0
  5 34  1  0
  5 35  1  0
  6  7  1  6
  6  8  1  0
  8 36  1  0
  9  8  1  0
  9 10  1  0
  9 24  2  0
 10 11  1  0
 10 37  1  0
 11 12  1  1
 11 23  1  0
 11 13  1  0
 13 14  1  0
 13 38  1  0
 13 39  1  0
 14 15  1  6
 14 16  1  0
 14 23  1  0
 16 17  1  0
 16 40  1  0
 16 41  1  0
 17 22  1  0
 17 18  2  0
 18 19  1  0
 18 42  1  0
 19 20  2  0
 19 43  1  0
 20 21  1  0
 20 44  1  0
 21 22  2  0
 21 45  1  0
 22 46  1  0
 23 47  1  0
 23 48  1  0
 24 25  1  0
 24 26  1  0
 26 31  1  0
 26 27  1  0
 26 49  1  0
 27 28  1  0
 27 50  1  0
 27 51  1  0
 28 29  1  0
 28 52  1  0
 28 53  1  0
 29 30  1  0
 30 31  1  0
 30 54  1  0
 30 55  1  0
 31 56  1  0
 31 57  1  0
M  CHG  1  24   1
M  END
>  <DOCK_score>  (1) 
-43.315907

>  <SMILES>  (1) 
O=C1SCC[C@@H]1NC(N[C@H]1C[C@H](Cc2ccccc2)C1)=[NH+]C1CCOCC1

$$$$
