Cc1cccc(O[C@H]2C[C@@H]([NH+]=C(N[C@H]3C[C@@H](O)C3)N[C@H]3C[C@@H](O)C3)C2)c1CCl
     RDKit          3D

 59 62  0  0  1  0  0  0  0  0999 V2000
  131.7612  139.8271  166.0420 C   0  0  0  0  0  0  0  0  0  0  0  0
  132.1440  140.0030  164.5951 C   0  0  0  0  0  0  0  0  0  0  0  0
  132.1691  141.2676  164.0360 C   0  0  0  0  0  0  0  0  0  0  0  0
  132.5200  141.4323  162.7090 C   0  0  0  0  0  0  0  0  0  0  0  0
  132.8514  140.3337  161.9394 C   0  0  0  0  0  0  0  0  0  0  0  0
  132.8215  139.0637  162.4963 C   0  0  0  0  0  0  0  0  0  0  0  0
  133.1422  137.9811  161.7401 O   0  0  0  0  0  0  0  0  0  0  0  0
  132.3415  137.7390  160.5815 C   0  0  1  0  0  0  0  0  0  0  0  0
  132.7260  138.2343  159.6901 H   0  0  0  0  0  0  0  0  0  0  0  0
  132.0052  136.2542  160.3645 C   0  0  0  0  0  0  0  0  0  0  0  0
  130.5962  136.7164  159.9511 C   0  0  1  0  0  0  0  0  0  0  0  0
  130.5018  136.9313  158.8867 H   0  0  0  0  0  0  0  0  0  0  0  0
  129.5233  135.8552  160.4549 N   0  0  0  0  0  0  0  0  0  0  0  0
  129.1181  136.0392  161.3169 H   0  0  0  0  0  0  0  0  0  0  0  0
  129.1134  134.8418  159.7450 C   0  0  0  0  0  0  0  0  0  0  0  0
  128.1066  134.0338  160.2178 N   0  0  0  0  0  0  0  0  0  0  0  0
  127.4947  134.3117  161.5195 C   0  0  1  0  0  0  0  0  0  0  0  0
  128.2114  134.2785  162.3400 H   0  0  0  0  0  0  0  0  0  0  0  0
  126.6069  135.5672  161.5274 C   0  0  0  0  0  0  0  0  0  0  0  0
  125.6317  134.7764  162.4152 C   0  0  1  0  0  0  0  0  0  0  0  0
  125.8383  134.8697  163.4815 H   0  0  0  0  0  0  0  0  0  0  0  0
  124.2569  134.9987  162.0949 O   0  0  0  0  0  0  0  0  0  0  0  0
  126.2163  133.4990  161.7851 C   0  0  0  0  0  0  0  0  0  0  0  0
  129.6877  134.5811  158.5234 N   0  0  0  0  0  0  0  0  0  0  0  0
  129.2269  133.4422  157.7255 C   0  0  1  0  0  0  0  0  0  0  0  0
  128.1702  133.5069  157.4662 H   0  0  0  0  0  0  0  0  0  0  0  0
  130.1365  133.1210  156.5278 C   0  0  0  0  0  0  0  0  0  0  0  0
  129.9123  131.6356  156.8565 C   0  0  1  0  0  0  0  0  0  0  0  0
  129.0428  131.2048  156.3600 H   0  0  0  0  0  0  0  0  0  0  0  0
  131.0867  130.8340  156.7134 O   0  0  0  0  0  0  0  0  0  0  0  0
  129.6367  132.0781  158.3051 C   0  0  0  0  0  0  0  0  0  0  0  0
  130.8383  137.9668  160.8130 C   0  0  0  0  0  0  0  0  0  0  0  0
  132.4691  138.9011  163.8285 C   0  0  0  0  0  0  0  0  0  0  0  0
  132.4403  137.5233  164.4381 C   0  0  0  0  0  0  0  0  0  0  0  0
  130.7987  136.8077  164.2289 Cl  0  0  0  0  0  0  0  0  0  0  0  0
  132.6544  139.8854  166.6639 H   0  0  0  0  0  0  0  0  0  0  0  0
  131.0647  140.6140  166.3319 H   0  0  0  0  0  0  0  0  0  0  0  0
  131.2874  138.8548  166.1769 H   0  0  0  0  0  0  0  0  0  0  0  0
  131.9147  142.1280  164.6371 H   0  0  0  0  0  0  0  0  0  0  0  0
  132.5385  142.4209  162.2745 H   0  0  0  0  0  0  0  0  0  0  0  0
  133.1294  140.4633  160.9038 H   0  0  0  0  0  0  0  0  0  0  0  0
  132.5695  135.7926  159.5542 H   0  0  0  0  0  0  0  0  0  0  0  0
  132.0200  135.6645  161.2811 H   0  0  0  0  0  0  0  0  0  0  0  0
  127.8014  133.2795  159.6895 H   0  0  0  0  0  0  0  0  0  0  0  0
  127.0617  136.4204  162.0308 H   0  0  0  0  0  0  0  0  0  0  0  0
  126.2005  135.8209  160.5483 H   0  0  0  0  0  0  0  0  0  0  0  0
  123.9770  135.9202  162.1806 H   0  0  0  0  0  0  0  0  0  0  0  0
  125.7017  133.1852  160.8769 H   0  0  0  0  0  0  0  0  0  0  0  0
  126.3563  132.6850  162.4963 H   0  0  0  0  0  0  0  0  0  0  0  0
  130.3980  135.1513  158.1898 H   0  0  0  0  0  0  0  0  0  0  0  0
  129.7178  133.4238  155.5681 H   0  0  0  0  0  0  0  0  0  0  0  0
  131.1673  133.4485  156.6622 H   0  0  0  0  0  0  0  0  0  0  0  0
  131.4581  130.8363  155.8206 H   0  0  0  0  0  0  0  0  0  0  0  0
  130.5310  132.1186  158.9269 H   0  0  0  0  0  0  0  0  0  0  0  0
  128.8151  131.5400  158.7781 H   0  0  0  0  0  0  0  0  0  0  0  0
  130.5333  137.8463  161.8525 H   0  0  0  0  0  0  0  0  0  0  0  0
  130.4618  138.8860  160.3642 H   0  0  0  0  0  0  0  0  0  0  0  0
  133.1778  136.8914  163.9432 H   0  0  0  0  0  0  0  0  0  0  0  0
  132.6744  137.5910  165.5005 H   0  0  0  0  0  0  0  0  0  0  0  0
  1  2  1  0
  1 36  1  0
  1 37  1  0
  1 38  1  0
  2 33  2  0
  2  3  1  0
  3  4  2  0
  3 39  1  0
  4  5  1  0
  4 40  1  0
  5  6  2  0
  5 41  1  0
  6  7  1  0
  6 33  1  0
  7  8  1  0
  8  9  1  6
  8 32  1  0
  8 10  1  0
 10 11  1  0
 10 42  1  0
 10 43  1  0
 11 12  1  6
 11 13  1  0
 11 32  1  0
 13 14  1  0
 15 13  2  0
 15 16  1  1
 15 24  1  0
 16 17  1  1
 16 44  1  0
 17 18  1  1
 17 23  1  0
 17 19  1  0
 19 20  1  0
 19 45  1  0
 19 46  1  0
 20 21  1  1
 20 22  1  0
 20 23  1  0
 22 47  1  0
 23 48  1  0
 23 49  1  0
 24 25  1  0
 24 50  1  0
 25 26  1  6
 25 31  1  0
 25 27  1  0
 27 28  1  0
 27 51  1  0
 27 52  1  0
 28 29  1  6
 28 30  1  0
 28 31  1  0
 30 53  1  0
 31 54  1  0
 31 55  1  0
 32 56  1  0
 32 57  1  0
 33 34  1  0
 34 35  1  0
 34 58  1  0
 34 59  1  0
M  CHG  1  13   1
M  END
>  <DOCK_score>  (1) 
-42.344082

>  <SMILES>  (1) 
Cc1cccc(O[C@H]2C[C@@H]([NH+]=C(N[C@H]3C[C@@H](O)C3)N[C@H]3C[C@@H](O)C3)C2)c1CCl

$$$$
