Brc1ccc(-c2c[nH]c(N[C@@H](c3ccc(Br)cc3)c3cccs3)[nH+]2)cc1
     RDKit          3D

 42 45  0  0  1  0  0  0  0  0999 V2000
  131.8073  129.2007  152.1711 Br  0  0  0  0  0  0  0  0  0  0  0  0
  131.2550  130.1936  153.6828 C   0  0  0  0  0  0  0  0  0  0  0  0
  130.4453  131.3049  153.5190 C   0  0  0  0  0  0  0  0  0  0  0  0
  130.0397  132.0337  154.6184 C   0  0  0  0  0  0  0  0  0  0  0  0
  130.4461  131.6491  155.8950 C   0  0  0  0  0  0  0  0  0  0  0  0
  130.0135  132.4290  157.0804 C   0  0  0  0  0  0  0  0  0  0  0  0
  129.2876  131.9575  158.1243 C   0  0  0  0  0  0  0  0  0  0  0  0
  129.1123  133.0066  158.9939 N   0  0  0  0  0  0  0  0  0  0  0  0
  128.6324  132.9803  159.8365 H   0  0  0  0  0  0  0  0  0  0  0  0
  129.7366  134.0892  158.4553 C   0  0  0  0  0  0  0  0  0  0  0  0
  129.7947  135.3511  159.0217 N   0  0  0  0  0  0  0  0  0  0  0  0
  128.7027  135.8205  159.8782 C   0  0  1  0  0  0  0  0  0  0  0  0
  128.5989  135.1526  160.7332 H   0  0  0  0  0  0  0  0  0  0  0  0
  129.0085  137.2141  160.3633 C   0  0  0  0  0  0  0  0  0  0  0  0
  128.5276  137.6407  161.5873 C   0  0  0  0  0  0  0  0  0  0  0  0
  128.8120  138.9172  162.0348 C   0  0  0  0  0  0  0  0  0  0  0  0
  129.5689  139.7713  161.2531 C   0  0  0  0  0  0  0  0  0  0  0  0
  129.9528  141.5200  161.8620 Br  0  0  0  0  0  0  0  0  0  0  0  0
  130.0455  139.3458  160.0264 C   0  0  0  0  0  0  0  0  0  0  0  0
  129.7651  138.0673  159.5819 C   0  0  0  0  0  0  0  0  0  0  0  0
  127.4173  135.8333  159.0916 C   0  0  0  0  0  0  0  0  0  0  0  0
  126.2003  135.6446  159.6042 C   0  0  0  0  0  0  0  0  0  0  0  0
  125.1657  135.7008  158.6863 C   0  0  0  0  0  0  0  0  0  0  0  0
  125.5425  135.9350  157.4283 C   0  0  0  0  0  0  0  0  0  0  0  0
  127.2916  136.1066  157.3587 S   0  0  0  0  0  0  0  0  0  0  0  0
  130.2739  133.7402  157.3119 N   0  0  0  0  0  0  0  0  0  0  0  0
  130.7779  134.3256  156.7252 H   0  0  0  0  0  0  0  0  0  0  0  0
  131.2653  130.5325  156.0534 C   0  0  0  0  0  0  0  0  0  0  0  0
  131.6609  129.8078  154.9478 C   0  0  0  0  0  0  0  0  0  0  0  0
  130.1309  131.6021  152.5295 H   0  0  0  0  0  0  0  0  0  0  0  0
  129.4080  132.9002  154.4901 H   0  0  0  0  0  0  0  0  0  0  0  0
  128.9216  130.9493  158.2501 H   0  0  0  0  0  0  0  0  0  0  0  0
  130.5584  135.9245  158.8513 H   0  0  0  0  0  0  0  0  0  0  0  0
  127.9332  136.9751  162.1955 H   0  0  0  0  0  0  0  0  0  0  0  0
  128.4394  139.2491  162.9926 H   0  0  0  0  0  0  0  0  0  0  0  0
  130.6363  140.0125  159.4156 H   0  0  0  0  0  0  0  0  0  0  0  0
  130.1374  137.7349  158.6242 H   0  0  0  0  0  0  0  0  0  0  0  0
  126.0348  135.4622  160.6557 H   0  0  0  0  0  0  0  0  0  0  0  0
  124.1317  135.5655  158.9673 H   0  0  0  0  0  0  0  0  0  0  0  0
  124.8753  136.0114  156.5826 H   0  0  0  0  0  0  0  0  0  0  0  0
  131.5864  130.2328  157.0400 H   0  0  0  0  0  0  0  0  0  0  0  0
  132.2926  128.9402  155.0699 H   0  0  0  0  0  0  0  0  0  0  0  0
  1  2  1  0
  2 29  2  0
  2  3  1  0
  3  4  2  0
  3 30  1  0
  4  5  1  0
  4 31  1  0
  5  6  1  0
  5 28  2  0
  6 26  1  0
  6  7  2  0
  7  8  1  0
  7 32  1  0
  8  9  1  0
  8 10  1  0
 10 11  1  0
 10 26  2  0
 11 12  1  0
 11 33  1  0
 12 13  1  1
 12 14  1  0
 12 21  1  0
 14 20  1  0
 14 15  2  0
 15 16  1  0
 15 34  1  0
 16 17  2  0
 16 35  1  0
 17 18  1  0
 17 19  1  0
 19 20  2  0
 19 36  1  0
 20 37  1  0
 21 25  1  0
 21 22  2  0
 22 23  1  0
 22 38  1  0
 23 24  2  0
 23 39  1  0
 24 25  1  0
 24 40  1  0
 26 27  1  0
 28 29  1  0
 28 41  1  0
 29 42  1  0
M  CHG  1  26   1
M  END
>  <DOCK_score>  (1) 
-59.240688

>  <SMILES>  (1) 
Brc1ccc(-c2c[nH]c(N[C@@H](c3ccc(Br)cc3)c3cccs3)[nH+]2)cc1

$$$$
