C=C(C)c1ccc([C@H](Nc2[nH]cc(-c3ccc(N)cc3)[nH+]2)c2ccccc2)cc1
     RDKit          3D

 54 57  0  0  1  0  0  0  0  0999 V2000
  133.3268  141.1991  161.5857 C   0  0  0  0  0  0  0  0  0  0  0  0
  132.2447  140.6727  162.1418 C   0  0  0  0  0  0  0  0  0  0  0  0
  131.4867  141.4431  163.1922 C   0  0  0  0  0  0  0  0  0  0  0  0
  131.7822  139.3301  161.7318 C   0  0  0  0  0  0  0  0  0  0  0  0
  130.4239  139.0121  161.7805 C   0  0  0  0  0  0  0  0  0  0  0  0
  129.9983  137.7573  161.3960 C   0  0  0  0  0  0  0  0  0  0  0  0
  130.9142  136.8157  160.9622 C   0  0  0  0  0  0  0  0  0  0  0  0
  130.4420  135.4472  160.5431 C   0  0  2  0  0  0  0  0  0  0  0  0
  130.9107  134.6921  161.1740 H   0  0  0  0  0  0  0  0  0  0  0  0
  130.8090  135.2112  159.1446 N   0  0  0  0  0  0  0  0  0  0  0  0
  130.4778  134.0133  158.5347 C   0  0  0  0  0  0  0  0  0  0  0  0
  129.8104  132.9830  159.1218 N   0  0  0  0  0  0  0  0  0  0  0  0
  129.4844  132.9557  160.0350 H   0  0  0  0  0  0  0  0  0  0  0  0
  129.6839  131.9879  158.1816 C   0  0  0  0  0  0  0  0  0  0  0  0
  130.2773  132.4393  157.0491 C   0  0  0  0  0  0  0  0  0  0  0  0
  130.3844  131.7020  155.7662 C   0  0  0  0  0  0  0  0  0  0  0  0
  129.8163  132.2304  154.6080 C   0  0  0  0  0  0  0  0  0  0  0  0
  129.9220  131.5461  153.4154 C   0  0  0  0  0  0  0  0  0  0  0  0
  130.5845  130.3250  153.3701 C   0  0  0  0  0  0  0  0  0  0  0  0
  130.6856  129.6304  152.1623 N   0  0  0  0  0  0  0  0  0  0  0  0
  131.1465  129.7938  154.5246 C   0  0  0  0  0  0  0  0  0  0  0  0
  131.0484  130.4773  155.7182 C   0  0  0  0  0  0  0  0  0  0  0  0
  130.7505  133.6867  157.2948 N   0  0  0  0  0  0  0  0  0  0  0  0
  131.2180  134.2469  156.6556 H   0  0  0  0  0  0  0  0  0  0  0  0
  128.9444  135.3657  160.6901 C   0  0  0  0  0  0  0  0  0  0  0  0
  128.3892  134.9331  161.8797 C   0  0  0  0  0  0  0  0  0  0  0  0
  127.0154  134.8625  162.0158 C   0  0  0  0  0  0  0  0  0  0  0  0
  126.1970  135.2157  160.9594 C   0  0  0  0  0  0  0  0  0  0  0  0
  126.7525  135.6434  159.7679 C   0  0  0  0  0  0  0  0  0  0  0  0
  128.1262  135.7180  159.6331 C   0  0  0  0  0  0  0  0  0  0  0  0
  132.2624  137.1230  160.9167 C   0  0  0  0  0  0  0  0  0  0  0  0
  132.7005  138.3759  161.2936 C   0  0  0  0  0  0  0  0  0  0  0  0
  133.6652  142.1799  161.8853 H   0  0  0  0  0  0  0  0  0  0  0  0
  133.8701  140.6470  160.8330 H   0  0  0  0  0  0  0  0  0  0  0  0
  131.4737  140.8737  164.1216 H   0  0  0  0  0  0  0  0  0  0  0  0
  131.9743  142.4032  163.3611 H   0  0  0  0  0  0  0  0  0  0  0  0
  130.4641  141.6094  162.8534 H   0  0  0  0  0  0  0  0  0  0  0  0
  129.7079  139.7464  162.1190 H   0  0  0  0  0  0  0  0  0  0  0  0
  128.9476  137.5099  161.4333 H   0  0  0  0  0  0  0  0  0  0  0  0
  131.2840  135.8942  158.6459 H   0  0  0  0  0  0  0  0  0  0  0  0
  129.2039  131.0302  158.3188 H   0  0  0  0  0  0  0  0  0  0  0  0
  129.2972  133.1768  154.6439 H   0  0  0  0  0  0  0  0  0  0  0  0
  129.4861  131.9573  152.5170 H   0  0  0  0  0  0  0  0  0  0  0  0
  131.1480  128.7791  152.1293 H   0  0  0  0  0  0  0  0  0  0  0  0
  130.2935  130.0013  151.3556 H   0  0  0  0  0  0  0  0  0  0  0  0
  131.6606  128.8447  154.4872 H   0  0  0  0  0  0  0  0  0  0  0  0
  131.4857  130.0641  156.6152 H   0  0  0  0  0  0  0  0  0  0  0  0
  129.0286  134.6535  162.7040 H   0  0  0  0  0  0  0  0  0  0  0  0
  126.5814  134.5289  162.9469 H   0  0  0  0  0  0  0  0  0  0  0  0
  125.1237  135.1580  161.0648 H   0  0  0  0  0  0  0  0  0  0  0  0
  126.1131  135.9194  158.9423 H   0  0  0  0  0  0  0  0  0  0  0  0
  128.5600  136.0522  158.7023 H   0  0  0  0  0  0  0  0  0  0  0  0
  132.9730  136.3819  160.5816 H   0  0  0  0  0  0  0  0  0  0  0  0
  133.7526  138.6160  161.2531 H   0  0  0  0  0  0  0  0  0  0  0  0
  1  2  2  0
  1 33  1  0
  1 34  1  0
  2  3  1  0
  2  4  1  0
  3 35  1  0
  3 36  1  0
  3 37  1  0
  4 32  2  0
  4  5  1  0
  5  6  2  0
  5 38  1  0
  6  7  1  0
  6 39  1  0
  7  8  1  0
  7 31  2  0
  8  9  1  1
  8 10  1  0
  8 25  1  0
 10 40  1  0
 11 10  1  0
 11 23  2  0
 11 12  1  0
 12 13  1  0
 12 14  1  0
 14 15  2  0
 14 41  1  0
 15 16  1  0
 15 23  1  0
 16 22  1  0
 16 17  2  0
 17 18  1  0
 17 42  1  0
 18 19  2  0
 18 43  1  0
 19 20  1  0
 19 21  1  0
 20 44  1  0
 20 45  1  0
 21 22  2  0
 21 46  1  0
 22 47  1  0
 23 24  1  0
 25 30  1  0
 25 26  2  0
 26 27  1  0
 26 48  1  0
 27 28  2  0
 27 49  1  0
 28 29  1  0
 28 50  1  0
 29 30  2  0
 29 51  1  0
 30 52  1  0
 31 32  1  0
 31 53  1  0
 32 54  1  0
M  CHG  1  23   1
M  END
>  <DOCK_score>  (1) 
-58.250446

>  <SMILES>  (1) 
C=C(C)c1ccc([C@H](Nc2[nH]cc(-c3ccc(N)cc3)[nH+]2)c2ccccc2)cc1

$$$$
