Nc1ccc(-c2c[nH]c(N[C@H](c3ccccc3F)c3ccc(F)cc3F)[nH+]2)cc1
     RDKit          3D

 47 50  0  0  1  0  0  0  0  0999 V2000
  131.6160  129.5886  151.8608 N   0  0  0  0  0  0  0  0  0  0  0  0
  131.2700  130.2353  153.0497 C   0  0  0  0  0  0  0  0  0  0  0  0
  130.5059  131.3953  153.0115 C   0  0  0  0  0  0  0  0  0  0  0  0
  130.1631  132.0355  154.1837 C   0  0  0  0  0  0  0  0  0  0  0  0
  130.5836  131.5181  155.4079 C   0  0  0  0  0  0  0  0  0  0  0  0
  130.2161  132.2049  156.6704 C   0  0  0  0  0  0  0  0  0  0  0  0
  129.4913  131.6738  157.6858 C   0  0  0  0  0  0  0  0  0  0  0  0
  129.3874  132.6459  158.6525 N   0  0  0  0  0  0  0  0  0  0  0  0
  128.9256  132.5648  159.5016 H   0  0  0  0  0  0  0  0  0  0  0  0
  130.0526  133.7426  158.1980 C   0  0  0  0  0  0  0  0  0  0  0  0
  130.1859  134.9427  158.8750 N   0  0  0  0  0  0  0  0  0  0  0  0
  129.1381  135.3826  159.7995 C   0  0  2  0  0  0  0  0  0  0  0  0
  129.0202  134.6444  160.5929 H   0  0  0  0  0  0  0  0  0  0  0  0
  127.8377  135.5289  159.0522 C   0  0  0  0  0  0  0  0  0  0  0  0
  127.8446  135.8722  157.7132 C   0  0  0  0  0  0  0  0  0  0  0  0
  126.6521  136.0059  157.0273 C   0  0  0  0  0  0  0  0  0  0  0  0
  125.4510  135.7971  157.6795 C   0  0  0  0  0  0  0  0  0  0  0  0
  125.4416  135.4539  159.0180 C   0  0  0  0  0  0  0  0  0  0  0  0
  126.6359  135.3137  159.7047 C   0  0  0  0  0  0  0  0  0  0  0  0
  126.6282  134.9725  161.0119 F   0  0  0  0  0  0  0  0  0  0  0  0
  129.5236  136.7094  160.4011 C   0  0  0  0  0  0  0  0  0  0  0  0
  129.7294  137.8050  159.5838 C   0  0  0  0  0  0  0  0  0  0  0  0
  130.0826  139.0223  160.1342 C   0  0  0  0  0  0  0  0  0  0  0  0
  130.2314  139.1455  161.5063 C   0  0  0  0  0  0  0  0  0  0  0  0
  130.5767  140.3361  162.0434 F   0  0  0  0  0  0  0  0  0  0  0  0
  130.0261  138.0494  162.3248 C   0  0  0  0  0  0  0  0  0  0  0  0
  129.6719  136.8305  161.7724 C   0  0  0  0  0  0  0  0  0  0  0  0
  129.4765  135.7580  162.5706 F   0  0  0  0  0  0  0  0  0  0  0  0
  130.5414  133.4771  157.0111 N   0  0  0  0  0  0  0  0  0  0  0  0
  131.0558  134.0916  156.4645 H   0  0  0  0  0  0  0  0  0  0  0  0
  131.3549  130.3573  155.4436 C   0  0  0  0  0  0  0  0  0  0  0  0
  131.6900  129.7171  154.2693 C   0  0  0  0  0  0  0  0  0  0  0  0
  131.3232  129.9489  151.0096 H   0  0  0  0  0  0  0  0  0  0  0  0
  132.1494  128.7783  151.8869 H   0  0  0  0  0  0  0  0  0  0  0  0
  130.1807  131.7961  152.0628 H   0  0  0  0  0  0  0  0  0  0  0  0
  129.5691  132.9369  154.1534 H   0  0  0  0  0  0  0  0  0  0  0  0
  129.0755  130.6779  157.7273 H   0  0  0  0  0  0  0  0  0  0  0  0
  130.9732  135.4924  158.7373 H   0  0  0  0  0  0  0  0  0  0  0  0
  128.7822  136.0365  157.2030 H   0  0  0  0  0  0  0  0  0  0  0  0
  126.6584  136.2742  155.9812 H   0  0  0  0  0  0  0  0  0  0  0  0
  124.5197  135.9019  157.1427 H   0  0  0  0  0  0  0  0  0  0  0  0
  124.5032  135.2909  159.5274 H   0  0  0  0  0  0  0  0  0  0  0  0
  129.6136  137.7096  158.5143 H   0  0  0  0  0  0  0  0  0  0  0  0
  130.2428  139.8777  159.4947 H   0  0  0  0  0  0  0  0  0  0  0  0
  130.1416  138.1450  163.3944 H   0  0  0  0  0  0  0  0  0  0  0  0
  131.6854  129.9571  156.3907 H   0  0  0  0  0  0  0  0  0  0  0  0
  132.2831  128.8149  154.2968 H   0  0  0  0  0  0  0  0  0  0  0  0
  1  2  1  0
  1 33  1  0
  1 34  1  0
  2 32  2  0
  2  3  1  0
  3  4  2  0
  3 35  1  0
  4  5  1  0
  4 36  1  0
  5  6  1  0
  5 31  2  0
  6 29  1  0
  6  7  2  0
  7  8  1  0
  7 37  1  0
  8  9  1  0
  8 10  1  0
 10 11  1  0
 10 29  2  0
 11 12  1  0
 11 38  1  0
 12 13  1  1
 12 14  1  0
 12 21  1  0
 14 19  1  0
 14 15  2  0
 15 16  1  0
 15 39  1  0
 16 17  2  0
 16 40  1  0
 17 18  1  0
 17 41  1  0
 18 19  2  0
 18 42  1  0
 19 20  1  0
 21 27  1  0
 21 22  2  0
 22 23  1  0
 22 43  1  0
 23 24  2  0
 23 44  1  0
 24 25  1  0
 24 26  1  0
 26 27  2  0
 26 45  1  0
 27 28  1  0
 29 30  1  0
 31 32  1  0
 31 46  1  0
 32 47  1  0
M  CHG  1  29   1
M  END
>  <DOCK_score>  (1) 
-58.115921

>  <SMILES>  (1) 
Nc1ccc(-c2c[nH]c(N[C@H](c3ccccc3F)c3ccc(F)cc3F)[nH+]2)cc1

$$$$
