CC1(C)C([NH+]=C(NCC2CCCCC2)NC2CC=CCC2)C[C@H]1O
     RDKit          3D

 60 62  0  0  1  0  0  0  0  0999 V2000
  125.3699  135.1994  159.5767 C   0  0  0  0  0  0  0  0  0  0  0  0
  125.7533  134.0226  160.4761 C   0  0  0  0  0  0  0  0  0  0  0  0
  125.6412  132.6708  159.7684 C   0  0  0  0  0  0  0  0  0  0  0  0
  127.0863  134.2219  161.2163 C   0  0  1  0  0  0  0  0  0  0  0  0
  128.0040  135.1393  160.5362 N   0  0  0  0  0  0  0  0  0  0  0  0
  127.9762  136.0885  160.7344 H   0  0  0  0  0  0  0  0  0  0  0  0
  128.8576  134.6802  159.6647 C   0  0  0  0  0  0  0  0  0  0  0  0
  129.7187  135.5412  159.0265 N   0  0  0  0  0  0  0  0  0  0  0  0
  130.1702  136.7600  159.7021 C   0  0  0  0  0  0  0  0  0  0  0  0
  130.9080  136.3861  160.9894 C   0  0  0  0  0  0  0  0  0  0  0  0
  131.7914  137.5557  161.4289 C   0  0  0  0  0  0  0  0  0  0  0  0
  132.5291  137.1817  162.7160 C   0  0  0  0  0  0  0  0  0  0  0  0
  133.4014  135.9501  162.4646 C   0  0  0  0  0  0  0  0  0  0  0  0
  132.5181  134.7808  162.0250 C   0  0  0  0  0  0  0  0  0  0  0  0
  131.7803  135.1546  160.7378 C   0  0  0  0  0  0  0  0  0  0  0  0
  128.8970  133.3349  159.3839 N   0  0  0  0  0  0  0  0  0  0  0  0
  129.8565  132.8188  158.4045 C   0  0  1  0  0  0  0  0  0  0  0  0
  130.2271  131.3769  158.7580 C   0  0  0  0  0  0  0  0  0  0  0  0
  130.9940  130.7493  157.6310 C   0  0  0  0  0  0  0  0  0  0  0  0
  131.0218  131.2163  156.4241 C   0  0  0  0  0  0  0  0  0  0  0  0
  130.2996  132.4565  155.9856 C   0  0  0  0  0  0  0  0  0  0  0  0
  129.2230  132.8285  157.0075 C   0  0  0  0  0  0  0  0  0  0  0  0
  126.2749  134.8843  162.3422 C   0  0  0  0  0  0  0  0  0  0  0  0
  125.0739  134.0553  161.8573 C   0  0  1  0  0  0  0  0  0  0  0  0
  124.9995  133.0761  162.3307 H   0  0  0  0  0  0  0  0  0  0  0  0
  123.8388  134.7740  161.8723 O   0  0  0  0  0  0  0  0  0  0  0  0
  126.1423  135.3463  158.8217 H   0  0  0  0  0  0  0  0  0  0  0  0
  124.4191  134.9881  159.0874 H   0  0  0  0  0  0  0  0  0  0  0  0
  125.2753  136.1022  160.1801 H   0  0  0  0  0  0  0  0  0  0  0  0
  125.7295  131.8687  160.5011 H   0  0  0  0  0  0  0  0  0  0  0  0
  124.6752  132.6015  159.2684 H   0  0  0  0  0  0  0  0  0  0  0  0
  126.4392  132.5793  159.0316 H   0  0  0  0  0  0  0  0  0  0  0  0
  127.5644  133.2884  161.5138 H   0  0  0  0  0  0  0  0  0  0  0  0
  130.0272  135.3415  158.1289 H   0  0  0  0  0  0  0  0  0  0  0  0
  129.3083  137.3814  159.9449 H   0  0  0  0  0  0  0  0  0  0  0  0
  130.8425  137.3118  159.0452 H   0  0  0  0  0  0  0  0  0  0  0  0
  130.1830  136.1642  161.7723 H   0  0  0  0  0  0  0  0  0  0  0  0
  132.5164  137.7777  160.6459 H   0  0  0  0  0  0  0  0  0  0  0  0
  131.1700  138.4330  161.6081 H   0  0  0  0  0  0  0  0  0  0  0  0
  131.8041  136.9597  163.4991 H   0  0  0  0  0  0  0  0  0  0  0  0
  133.1584  138.0148  163.0292 H   0  0  0  0  0  0  0  0  0  0  0  0
  133.9270  135.6838  163.3815 H   0  0  0  0  0  0  0  0  0  0  0  0
  134.1265  136.1722  161.6816 H   0  0  0  0  0  0  0  0  0  0  0  0
  131.7931  134.5587  162.8079 H   0  0  0  0  0  0  0  0  0  0  0  0
  133.1395  133.9034  161.8459 H   0  0  0  0  0  0  0  0  0  0  0  0
  131.1511  134.3216  160.4246 H   0  0  0  0  0  0  0  0  0  0  0  0
  132.5054  135.3766  159.9548 H   0  0  0  0  0  0  0  0  0  0  0  0
  128.2894  132.7274  159.8342 H   0  0  0  0  0  0  0  0  0  0  0  0
  130.7530  133.4390  158.4080 H   0  0  0  0  0  0  0  0  0  0  0  0
  130.8403  131.3720  159.6592 H   0  0  0  0  0  0  0  0  0  0  0  0
  129.3175  130.8035  158.9369 H   0  0  0  0  0  0  0  0  0  0  0  0
  131.5581  129.8523  157.8401 H   0  0  0  0  0  0  0  0  0  0  0  0
  131.6012  130.6802  155.6870 H   0  0  0  0  0  0  0  0  0  0  0  0
  131.0119  133.2766  155.8959 H   0  0  0  0  0  0  0  0  0  0  0  0
  129.8324  132.2790  155.0170 H   0  0  0  0  0  0  0  0  0  0  0  0
  128.4125  132.1007  156.9678 H   0  0  0  0  0  0  0  0  0  0  0  0
  128.8370  133.8237  156.7871 H   0  0  0  0  0  0  0  0  0  0  0  0
  126.6156  134.6160  163.3421 H   0  0  0  0  0  0  0  0  0  0  0  0
  126.1458  135.9590  162.2131 H   0  0  0  0  0  0  0  0  0  0  0  0
  123.9134  135.6904  161.5730 H   0  0  0  0  0  0  0  0  0  0  0  0
  1  2  1  0
  1 27  1  0
  1 28  1  0
  1 29  1  0
  2 24  1  0
  2  3  1  0
  2  4  1  0
  3 30  1  0
  3 31  1  0
  3 32  1  0
  4  5  1  0
  4 23  1  0
  4 33  1  1
  5  6  1  0
  7  5  2  0
  7  8  1  0
  7 16  1  0
  8  9  1  0
  8 34  1  0
  9 10  1  0
  9 35  1  0
  9 36  1  0
 10 15  1  0
 10 11  1  0
 10 37  1  0
 11 12  1  0
 11 38  1  0
 11 39  1  0
 12 13  1  0
 12 40  1  0
 12 41  1  0
 13 14  1  0
 13 42  1  0
 13 43  1  0
 14 15  1  0
 14 44  1  0
 14 45  1  0
 15 46  1  0
 15 47  1  0
 16 17  1  0
 16 48  1  0
 17 22  1  0
 17 18  1  0
 17 49  1  6
 18 19  1  0
 18 50  1  0
 18 51  1  0
 19 20  2  0
 19 52  1  0
 20 21  1  0
 20 53  1  0
 21 22  1  0
 21 54  1  0
 21 55  1  0
 22 56  1  0
 22 57  1  0
 23 24  1  0
 23 58  1  0
 23 59  1  0
 24 25  1  1
 24 26  1  0
 26 60  1  0
M  CHG  1   5   1
M  END
>  <DOCK_score>  (1) 
-44.754463

>  <SMILES>  (1) 
CC1(C)C([NH+]=C(NCC2CCCCC2)NC2CC=CCC2)C[C@H]1O

$$$$
