Cc1c[nH]c(C(=O)C=C[C@H](Nc2[nH]cc(-c3ccc(N)cc3)[nH+]2)c2ccccc2)n1
     RDKit          3D

 53 56  0  0  1  0  0  0  0  0999 V2000
  127.7268  138.1599  166.0029 C   0  0  0  0  0  0  0  0  0  0  0  0
  128.5314  138.6415  164.8231 C   0  0  0  0  0  0  0  0  0  0  0  0
  129.1556  139.8420  164.7247 C   0  0  0  0  0  0  0  0  0  0  0  0
  129.7611  139.8795  163.5139 N   0  0  0  0  0  0  0  0  0  0  0  0
  130.2838  140.6129  163.1535 H   0  0  0  0  0  0  0  0  0  0  0  0
  129.4921  138.6918  162.8927 C   0  0  0  0  0  0  0  0  0  0  0  0
  129.9530  138.2960  161.5508 C   0  0  0  0  0  0  0  0  0  0  0  0
  130.6378  139.0574  160.8933 O   0  0  0  0  0  0  0  0  0  0  0  0
  129.5858  136.9809  161.0058 C   0  0  0  0  0  0  0  0  0  0  0  0
  129.4482  136.8199  159.6908 C   0  0  0  0  0  0  0  0  0  0  0  0
  129.0718  135.4719  159.1321 C   0  0  2  0  0  0  0  0  0  0  0  0
  128.9555  134.7596  159.9489 H   0  0  0  0  0  0  0  0  0  0  0  0
  130.1248  135.0077  158.2255 N   0  0  0  0  0  0  0  0  0  0  0  0
  130.0000  133.7851  157.5880 C   0  0  0  0  0  0  0  0  0  0  0  0
  129.3347  132.7022  158.0738 N   0  0  0  0  0  0  0  0  0  0  0  0
  128.8667  132.6481  158.9217 H   0  0  0  0  0  0  0  0  0  0  0  0
  129.4486  131.6987  157.1409 C   0  0  0  0  0  0  0  0  0  0  0  0
  130.1795  132.1979  156.1138 C   0  0  0  0  0  0  0  0  0  0  0  0
  130.5588  131.4703  154.8779 C   0  0  0  0  0  0  0  0  0  0  0  0
  130.1457  131.9451  153.6338 C   0  0  0  0  0  0  0  0  0  0  0  0
  130.5038  131.2701  152.4860 C   0  0  0  0  0  0  0  0  0  0  0  0
  131.2660  130.1115  152.5690 C   0  0  0  0  0  0  0  0  0  0  0  0
  131.6226  129.4263  151.4050 N   0  0  0  0  0  0  0  0  0  0  0  0
  131.6746  129.6329  153.8087 C   0  0  0  0  0  0  0  0  0  0  0  0
  131.3236  130.3078  154.9589 C   0  0  0  0  0  0  0  0  0  0  0  0
  130.4987  133.4817  156.4143 N   0  0  0  0  0  0  0  0  0  0  0  0
  131.0155  134.0791  155.8513 H   0  0  0  0  0  0  0  0  0  0  0  0
  127.7729  135.5862  158.3765 C   0  0  0  0  0  0  0  0  0  0  0  0
  126.5722  135.3863  159.0317 C   0  0  0  0  0  0  0  0  0  0  0  0
  125.3806  135.4950  158.3394 C   0  0  0  0  0  0  0  0  0  0  0  0
  125.3900  135.7956  156.9902 C   0  0  0  0  0  0  0  0  0  0  0  0
  126.5910  135.9902  156.3338 C   0  0  0  0  0  0  0  0  0  0  0  0
  127.7824  135.8853  157.0269 C   0  0  0  0  0  0  0  0  0  0  0  0
  128.7500  137.9622  163.7003 N   0  0  0  0  0  0  0  0  0  0  0  0
  126.6842  138.4511  165.8749 H   0  0  0  0  0  0  0  0  0  0  0  0
  127.7950  137.0741  166.0702 H   0  0  0  0  0  0  0  0  0  0  0  0
  128.1192  138.6060  166.9168 H   0  0  0  0  0  0  0  0  0  0  0  0
  129.1678  140.6217  165.4720 H   0  0  0  0  0  0  0  0  0  0  0  0
  129.4278  136.1454  161.6716 H   0  0  0  0  0  0  0  0  0  0  0  0
  129.6063  137.6554  159.0249 H   0  0  0  0  0  0  0  0  0  0  0  0
  130.9095  135.5569  158.0719 H   0  0  0  0  0  0  0  0  0  0  0  0
  129.0351  130.7036  157.2126 H   0  0  0  0  0  0  0  0  0  0  0  0
  129.5493  132.8431  153.5690 H   0  0  0  0  0  0  0  0  0  0  0  0
  130.1877  131.6400  151.5217 H   0  0  0  0  0  0  0  0  0  0  0  0
  132.1550  128.6167  151.4627 H   0  0  0  0  0  0  0  0  0  0  0  0
  131.3380  129.7586  150.5400 H   0  0  0  0  0  0  0  0  0  0  0  0
  132.2668  128.7320  153.8712 H   0  0  0  0  0  0  0  0  0  0  0  0
  131.6415  129.9361  155.9218 H   0  0  0  0  0  0  0  0  0  0  0  0
  126.5650  135.1481  160.0851 H   0  0  0  0  0  0  0  0  0  0  0  0
  124.4424  135.3425  158.8522 H   0  0  0  0  0  0  0  0  0  0  0  0
  124.4592  135.8779  156.4488 H   0  0  0  0  0  0  0  0  0  0  0  0
  126.5984  136.2248  155.2796 H   0  0  0  0  0  0  0  0  0  0  0  0
  128.7207  136.0375  156.5141 H   0  0  0  0  0  0  0  0  0  0  0  0
  1  2  1  0
  1 35  1  0
  1 36  1  0
  1 37  1  0
  2 34  1  0
  2  3  2  0
  3  4  1  0
  3 38  1  0
  4  5  1  0
  4  6  1  0
  6  7  1  0
  6 34  2  0
  7  8  2  0
  7  9  1  0
  9 10  2  0
  9 39  1  0
 10 11  1  0
 10 40  1  0
 11 12  1  1
 11 13  1  0
 11 28  1  0
 13 41  1  0
 14 13  1  0
 14 26  2  0
 14 15  1  0
 15 16  1  0
 15 17  1  0
 17 18  2  0
 17 42  1  0
 18 19  1  0
 18 26  1  0
 19 25  1  0
 19 20  2  0
 20 21  1  0
 20 43  1  0
 21 22  2  0
 21 44  1  0
 22 23  1  0
 22 24  1  0
 23 45  1  0
 23 46  1  0
 24 25  2  0
 24 47  1  0
 25 48  1  0
 26 27  1  0
 28 33  1  0
 28 29  2  0
 29 30  1  0
 29 49  1  0
 30 31  2  0
 30 50  1  0
 31 32  1  0
 31 51  1  0
 32 33  2  0
 32 52  1  0
 33 53  1  0
M  CHG  1  26   1
M  END
>  <DOCK_score>  (1) 
-61.070251

>  <SMILES>  (1) 
Cc1c[nH]c(C(=O)C=C[C@H](Nc2[nH]cc(-c3ccc(N)cc3)[nH+]2)c2ccccc2)n1

$$$$
