Nc1ccc(-c2c[nH]c(Nc3cc(F)ccc3Sc3ccccc3)[nH+]2)cc1
     RDKit          3D

 45 48  0  0  1  0  0  0  0  0999 V2000
  131.5106  129.8502  151.9882 N   0  0  0  0  0  0  0  0  0  0  0  0
  131.1738  130.5195  153.1671 C   0  0  0  0  0  0  0  0  0  0  0  0
  130.3360  131.6281  153.1208 C   0  0  0  0  0  0  0  0  0  0  0  0
  130.0023  132.2902  154.2834 C   0  0  0  0  0  0  0  0  0  0  0  0
  130.5055  131.8471  155.5056 C   0  0  0  0  0  0  0  0  0  0  0  0
  130.1482  132.5581  156.7578 C   0  0  0  0  0  0  0  0  0  0  0  0
  129.5009  132.0227  157.8224 C   0  0  0  0  0  0  0  0  0  0  0  0
  129.3754  133.0228  158.7568 N   0  0  0  0  0  0  0  0  0  0  0  0
  128.9552  132.9462  159.6276 H   0  0  0  0  0  0  0  0  0  0  0  0
  129.9503  134.1405  158.2343 C   0  0  0  0  0  0  0  0  0  0  0  0
  130.0346  135.3726  158.8611 N   0  0  0  0  0  0  0  0  0  0  0  0
  129.0454  135.7642  159.7713 C   0  0  0  0  0  0  0  0  0  0  0  0
  127.7259  135.8754  159.3588 C   0  0  0  0  0  0  0  0  0  0  0  0
  126.7496  136.2628  160.2607 C   0  0  0  0  0  0  0  0  0  0  0  0
  125.4647  136.3703  159.8578 F   0  0  0  0  0  0  0  0  0  0  0  0
  127.0871  136.5403  161.5747 C   0  0  0  0  0  0  0  0  0  0  0  0
  128.4001  136.4305  161.9932 C   0  0  0  0  0  0  0  0  0  0  0  0
  129.3851  136.0486  161.0942 C   0  0  0  0  0  0  0  0  0  0  0  0
  131.0606  135.9164  161.6236 S   0  0  0  0  0  0  0  0  0  0  0  0
  131.8960  137.0705  160.5869 C   0  0  0  0  0  0  0  0  0  0  0  0
  131.2298  138.1976  160.1208 C   0  0  0  0  0  0  0  0  0  0  0  0
  131.8890  139.1020  159.3121 C   0  0  0  0  0  0  0  0  0  0  0  0
  133.2079  138.8824  158.9580 C   0  0  0  0  0  0  0  0  0  0  0  0
  133.8725  137.7592  159.4157 C   0  0  0  0  0  0  0  0  0  0  0  0
  133.2212  136.8530  160.2287 C   0  0  0  0  0  0  0  0  0  0  0  0
  130.4063  133.8597  157.0377 N   0  0  0  0  0  0  0  0  0  0  0  0
  130.8579  134.4829  156.4474 H   0  0  0  0  0  0  0  0  0  0  0  0
  131.3495  130.7386  155.5487 C   0  0  0  0  0  0  0  0  0  0  0  0
  131.6761  130.0761  154.3842 C   0  0  0  0  0  0  0  0  0  0  0  0
  131.1597  130.1596  151.1377 H   0  0  0  0  0  0  0  0  0  0  0  0
  132.0947  129.0772  152.0190 H   0  0  0  0  0  0  0  0  0  0  0  0
  129.9467  131.9713  152.1736 H   0  0  0  0  0  0  0  0  0  0  0  0
  129.3511  133.1510  154.2472 H   0  0  0  0  0  0  0  0  0  0  0  0
  129.1507  131.0055  157.9176 H   0  0  0  0  0  0  0  0  0  0  0  0
  130.7789  135.9645  158.6695 H   0  0  0  0  0  0  0  0  0  0  0  0
  127.4603  135.6603  158.3344 H   0  0  0  0  0  0  0  0  0  0  0  0
  126.3222  136.8410  162.2754 H   0  0  0  0  0  0  0  0  0  0  0  0
  128.6598  136.6470  163.0188 H   0  0  0  0  0  0  0  0  0  0  0  0
  130.1988  138.3677  160.3938 H   0  0  0  0  0  0  0  0  0  0  0  0
  131.3731  139.9802  158.9528 H   0  0  0  0  0  0  0  0  0  0  0  0
  133.7199  139.5896  158.3224 H   0  0  0  0  0  0  0  0  0  0  0  0
  134.9023  137.5910  159.1373 H   0  0  0  0  0  0  0  0  0  0  0  0
  133.7408  135.9759  160.5854 H   0  0  0  0  0  0  0  0  0  0  0  0
  131.7442  130.3962  156.4940 H   0  0  0  0  0  0  0  0  0  0  0  0
  132.3260  129.2143  154.4178 H   0  0  0  0  0  0  0  0  0  0  0  0
  1  2  1  0
  1 30  1  0
  1 31  1  0
  2 29  2  0
  2  3  1  0
  3  4  2  0
  3 32  1  0
  4  5  1  0
  4 33  1  0
  5  6  1  0
  5 28  2  0
  6 26  1  0
  6  7  2  0
  7  8  1  0
  7 34  1  0
  8  9  1  0
  8 10  1  0
 10 11  1  0
 10 26  2  0
 11 12  1  0
 11 35  1  0
 12 18  1  0
 12 13  2  0
 13 14  1  0
 13 36  1  0
 14 15  1  0
 14 16  2  0
 16 17  1  0
 16 37  1  0
 17 18  2  0
 17 38  1  0
 18 19  1  0
 19 20  1  0
 20 25  1  0
 20 21  2  0
 21 22  1  0
 21 39  1  0
 22 23  2  0
 22 40  1  0
 23 24  1  0
 23 41  1  0
 24 25  2  0
 24 42  1  0
 25 43  1  0
 26 27  1  0
 28 29  1  0
 28 44  1  0
 29 45  1  0
M  CHG  1  26   1
M  END
>  <DOCK_score>  (1) 
-56.59882

>  <SMILES>  (1) 
Nc1ccc(-c2c[nH]c(Nc3cc(F)ccc3Sc3ccccc3)[nH+]2)cc1

$$$$
