C=C1CCC[C@H]1Oc1cccc(C([NH3+])C(=O)Nc2cccc(O)c2)c1
     RDKit          3D

 48 50  0  0  1  0  0  0  0  0999 V2000
  135.9812  138.3819  162.6185 C   0  0  0  0  0  0  0  0  0  0  0  0
  135.4262  138.6519  161.4630 C   0  0  0  0  0  0  0  0  0  0  0  0
  135.9655  139.5932  160.4064 C   0  0  0  0  0  0  0  0  0  0  0  0
  134.9659  139.5667  159.2316 C   0  0  0  0  0  0  0  0  0  0  0  0
  134.2400  138.2072  159.3961 C   0  0  0  0  0  0  0  0  0  0  0  0
  134.1229  138.0789  160.9352 C   0  0  1  0  0  0  0  0  0  0  0  0
  133.2759  138.6584  161.3022 H   0  0  0  0  0  0  0  0  0  0  0  0
  133.9914  136.7069  161.3130 O   0  0  0  0  0  0  0  0  0  0  0  0
  132.7299  136.2348  161.4937 C   0  0  0  0  0  0  0  0  0  0  0  0
  132.1332  136.3077  162.7442 C   0  0  0  0  0  0  0  0  0  0  0  0
  130.8510  135.8272  162.9253 C   0  0  0  0  0  0  0  0  0  0  0  0
  130.1618  135.2744  161.8615 C   0  0  0  0  0  0  0  0  0  0  0  0
  130.7542  135.2003  160.6146 C   0  0  0  0  0  0  0  0  0  0  0  0
  130.0006  134.5968  159.4575 C   0  0  2  0  0  0  0  0  0  0  0  0
  129.8549  135.5980  158.3925 N   0  0  0  0  0  0  0  0  0  0  0  0
  129.3503  135.1940  157.6178 H   0  0  0  0  0  0  0  0  0  0  0  0
  129.3462  136.3942  158.7466 H   0  0  0  0  0  0  0  0  0  0  0  0
  130.7682  135.8935  158.0815 H   0  0  0  0  0  0  0  0  0  0  0  0
  128.6366  134.1553  159.9221 C   0  0  0  0  0  0  0  0  0  0  0  0
  127.6997  134.9236  159.8682 O   0  0  0  0  0  0  0  0  0  0  0  0
  128.4579  132.9068  160.3971 N   0  0  0  0  0  0  0  0  0  0  0  0
  127.1915  132.4970  160.8283 C   0  0  0  0  0  0  0  0  0  0  0  0
  126.8181  131.1631  160.7208 C   0  0  0  0  0  0  0  0  0  0  0  0
  125.5698  130.7577  161.1515 C   0  0  0  0  0  0  0  0  0  0  0  0
  124.6855  131.6788  161.6805 C   0  0  0  0  0  0  0  0  0  0  0  0
  125.0510  133.0134  161.7850 C   0  0  0  0  0  0  0  0  0  0  0  0
  124.1801  133.9181  162.3044 O   0  0  0  0  0  0  0  0  0  0  0  0
  126.3048  133.4232  161.3587 C   0  0  0  0  0  0  0  0  0  0  0  0
  132.0346  135.6847  160.4270 C   0  0  0  0  0  0  0  0  0  0  0  0
  135.5050  137.6907  163.2980 H   0  0  0  0  0  0  0  0  0  0  0  0
  136.9151  138.8506  162.8916 H   0  0  0  0  0  0  0  0  0  0  0  0
  136.9449  139.2535  160.0698 H   0  0  0  0  0  0  0  0  0  0  0  0
  136.0400  140.6032  160.8094 H   0  0  0  0  0  0  0  0  0  0  0  0
  135.4936  139.6062  158.2787 H   0  0  0  0  0  0  0  0  0  0  0  0
  134.2571  140.3913  159.3102 H   0  0  0  0  0  0  0  0  0  0  0  0
  134.8393  137.3955  158.9838 H   0  0  0  0  0  0  0  0  0  0  0  0
  133.2535  138.2360  158.9333 H   0  0  0  0  0  0  0  0  0  0  0  0
  132.6709  136.7394  163.5754 H   0  0  0  0  0  0  0  0  0  0  0  0
  130.3860  135.8837  163.8985 H   0  0  0  0  0  0  0  0  0  0  0  0
  129.1592  134.8996  162.0049 H   0  0  0  0  0  0  0  0  0  0  0  0
  130.5502  133.7367  159.0750 H   0  0  0  0  0  0  0  0  0  0  0  0
  129.2073  132.2923  160.4401 H   0  0  0  0  0  0  0  0  0  0  0  0
  127.5057  130.4421  160.3041 H   0  0  0  0  0  0  0  0  0  0  0  0
  125.2828  129.7196  161.0709 H   0  0  0  0  0  0  0  0  0  0  0  0
  123.7087  131.3595  162.0125 H   0  0  0  0  0  0  0  0  0  0  0  0
  124.5237  134.8213  162.3365 H   0  0  0  0  0  0  0  0  0  0  0  0
  126.5908  134.4616  161.4389 H   0  0  0  0  0  0  0  0  0  0  0  0
  132.4952  135.6310  159.4516 H   0  0  0  0  0  0  0  0  0  0  0  0
  1  2  2  0
  1 30  1  0
  1 31  1  0
  2  6  1  0
  2  3  1  0
  3  4  1  0
  3 32  1  0
  3 33  1  0
  4  5  1  0
  4 34  1  0
  4 35  1  0
  5  6  1  0
  5 36  1  0
  5 37  1  0
  6  7  1  1
  6  8  1  0
  8  9  1  0
  9 29  1  0
  9 10  2  0
 10 11  1  0
 10 38  1  0
 11 12  2  0
 11 39  1  0
 12 13  1  0
 12 40  1  0
 13 14  1  0
 13 29  2  0
 14 15  1  0
 14 19  1  0
 14 41  1  6
 15 16  1  0
 15 17  1  0
 15 18  1  0
 19 20  2  0
 19 21  1  0
 21 22  1  0
 21 42  1  0
 22 28  1  0
 22 23  2  0
 23 24  1  0
 23 43  1  0
 24 25  2  0
 24 44  1  0
 25 26  1  0
 25 45  1  0
 26 27  1  0
 26 28  2  0
 27 46  1  0
 28 47  1  0
 29 48  1  0
M  CHG  1  15   1
M  END
>  <DOCK_score>  (1) 
-43.816422

>  <SMILES>  (1) 
C=C1CCC[C@H]1Oc1cccc(C([NH3+])C(=O)Nc2cccc(O)c2)c1

$$$$
