Fc1ccc(C2=CC[N@H+](Cc3c[nH]c4cc(-c5ccccc5)ccc34)CC2)cc1
     RDKit          3D

 53 57  0  0  1  0  0  0  0  0999 V2000
  137.2526  141.0954  160.8767 F   0  0  0  0  0  0  0  0  0  0  0  0
  136.2396  140.2118  160.7420 C   0  0  0  0  0  0  0  0  0  0  0  0
  136.0223  139.2560  161.7217 C   0  0  0  0  0  0  0  0  0  0  0  0
  134.9894  138.3515  161.5890 C   0  0  0  0  0  0  0  0  0  0  0  0
  134.1628  138.4000  160.4657 C   0  0  0  0  0  0  0  0  0  0  0  0
  133.0544  137.4333  160.3185 C   0  0  0  0  0  0  0  0  0  0  0  0
  131.8233  137.8887  160.2298 C   0  0  0  0  0  0  0  0  0  0  0  0
  130.6288  136.9904  160.0845 C   0  0  0  0  0  0  0  0  0  0  0  0
  131.0430  135.6578  159.6305 N   0  0  2  0  0  0  0  0  0  0  0  0
  131.3972  135.7157  158.6875 H   0  0  0  0  0  0  0  0  0  0  0  0
  129.8917  134.7459  159.6682 C   0  0  0  0  0  0  0  0  0  0  0  0
  130.3190  133.3781  159.2018 C   0  0  0  0  0  0  0  0  0  0  0  0
  130.7923  132.3840  159.9706 C   0  0  0  0  0  0  0  0  0  0  0  0
  131.0755  131.2909  159.1982 N   0  0  0  0  0  0  0  0  0  0  0  0
  131.4283  130.4504  159.5298 H   0  0  0  0  0  0  0  0  0  0  0  0
  130.7835  131.5618  157.8794 C   0  0  0  0  0  0  0  0  0  0  0  0
  130.8803  130.8199  156.7092 C   0  0  0  0  0  0  0  0  0  0  0  0
  130.4966  131.3879  155.5010 C   0  0  0  0  0  0  0  0  0  0  0  0
  130.5988  130.5981  154.2498 C   0  0  0  0  0  0  0  0  0  0  0  0
  129.7124  130.8327  153.2001 C   0  0  0  0  0  0  0  0  0  0  0  0
  129.8125  130.0952  152.0379 C   0  0  0  0  0  0  0  0  0  0  0  0
  130.7905  129.1248  151.9135 C   0  0  0  0  0  0  0  0  0  0  0  0
  131.6696  128.8840  152.9541 C   0  0  0  0  0  0  0  0  0  0  0  0
  131.5819  129.6188  154.1190 C   0  0  0  0  0  0  0  0  0  0  0  0
  130.0194  132.7025  155.4566 C   0  0  0  0  0  0  0  0  0  0  0  0
  129.9147  133.4377  156.6003 C   0  0  0  0  0  0  0  0  0  0  0  0
  130.2969  132.8814  157.8243 C   0  0  0  0  0  0  0  0  0  0  0  0
  132.0990  135.1546  160.5232 C   0  0  0  0  0  0  0  0  0  0  0  0
  133.3744  135.9644  160.2760 C   0  0  0  0  0  0  0  0  0  0  0  0
  134.3898  139.3606  159.4792 C   0  0  0  0  0  0  0  0  0  0  0  0
  135.4217  140.2641  159.6246 C   0  0  0  0  0  0  0  0  0  0  0  0
  136.6625  139.2194  162.5906 H   0  0  0  0  0  0  0  0  0  0  0  0
  134.8208  137.6071  162.3531 H   0  0  0  0  0  0  0  0  0  0  0  0
  131.6646  138.9564  160.2629 H   0  0  0  0  0  0  0  0  0  0  0  0
  129.9403  137.4211  159.3574 H   0  0  0  0  0  0  0  0  0  0  0  0
  130.1243  136.9029  161.0467 H   0  0  0  0  0  0  0  0  0  0  0  0
  129.1069  135.1244  159.0134 H   0  0  0  0  0  0  0  0  0  0  0  0
  129.5136  134.6802  160.6884 H   0  0  0  0  0  0  0  0  0  0  0  0
  130.9294  132.4393  161.0405 H   0  0  0  0  0  0  0  0  0  0  0  0
  131.2525  129.8066  156.7384 H   0  0  0  0  0  0  0  0  0  0  0  0
  128.9485  131.5901  153.2960 H   0  0  0  0  0  0  0  0  0  0  0  0
  129.1262  130.2762  151.2239 H   0  0  0  0  0  0  0  0  0  0  0  0
  130.8651  128.5500  151.0022 H   0  0  0  0  0  0  0  0  0  0  0  0
  132.4286  128.1224  152.8530 H   0  0  0  0  0  0  0  0  0  0  0  0
  132.2713  129.4328  154.9292 H   0  0  0  0  0  0  0  0  0  0  0  0
  129.7278  133.1360  154.5114 H   0  0  0  0  0  0  0  0  0  0  0  0
  129.5417  134.4503  156.5597 H   0  0  0  0  0  0  0  0  0  0  0  0
  131.7871  135.2711  161.5611 H   0  0  0  0  0  0  0  0  0  0  0  0
  132.2869  134.1021  160.3109 H   0  0  0  0  0  0  0  0  0  0  0  0
  134.1082  135.7302  161.0470 H   0  0  0  0  0  0  0  0  0  0  0  0
  133.7820  135.7098  159.2977 H   0  0  0  0  0  0  0  0  0  0  0  0
  133.7557  139.3994  158.6059 H   0  0  0  0  0  0  0  0  0  0  0  0
  135.5952  141.0110  158.8642 H   0  0  0  0  0  0  0  0  0  0  0  0
  1  2  1  0
  2 31  2  0
  2  3  1  0
  3  4  2  0
  3 32  1  0
  4  5  1  0
  4 33  1  0
  5  6  1  0
  5 30  2  0
  6 29  1  0
  6  7  2  0
  7  8  1  0
  7 34  1  0
  8  9  1  0
  8 35  1  0
  8 36  1  0
  9 10  1  6
  9 11  1  0
  9 28  1  0
 11 12  1  0
 11 37  1  0
 11 38  1  0
 12 27  1  0
 12 13  2  0
 13 14  1  0
 13 39  1  0
 14 15  1  0
 14 16  1  0
 16 27  2  0
 16 17  1  0
 17 18  2  0
 17 40  1  0
 18 19  1  0
 18 25  1  0
 19 24  1  0
 19 20  2  0
 20 21  1  0
 20 41  1  0
 21 22  2  0
 21 42  1  0
 22 23  1  0
 22 43  1  0
 23 24  2  0
 23 44  1  0
 24 45  1  0
 25 26  2  0
 25 46  1  0
 26 27  1  0
 26 47  1  0
 28 29  1  0
 28 48  1  0
 28 49  1  0
 29 50  1  0
 29 51  1  0
 30 31  1  0
 30 52  1  0
 31 53  1  0
M  CHG  1   9   1
M  END
>  <DOCK_score>  (1) 
-57.447746

>  <SMILES>  (1) 
Fc1ccc(C2=CC[N@H+](Cc3c[nH]c4cc(-c5ccccc5)ccc34)CC2)cc1

$$$$
