Clc1ccc2c(c1)OC[C@H](Nc1ccc(-c3n[nH]cc3C[NH2+]CCBr)o1)C2
     RDKit          3D

 48 51  0  0  1  0  0  0  0  0999 V2000
  129.1241  141.0818  168.0267 Cl  0  0  0  0  0  0  0  0  0  0  0  0
  128.2887  139.9928  166.9638 C   0  0  0  0  0  0  0  0  0  0  0  0
  127.2054  139.2668  167.4277 C   0  0  0  0  0  0  0  0  0  0  0  0
  126.5410  138.4020  166.5807 C   0  0  0  0  0  0  0  0  0  0  0  0
  126.9526  138.2563  165.2662 C   0  0  0  0  0  0  0  0  0  0  0  0
  128.0369  138.9785  164.7997 C   0  0  0  0  0  0  0  0  0  0  0  0
  128.7068  139.8468  165.6559 C   0  0  0  0  0  0  0  0  0  0  0  0
  128.4776  138.8624  163.5200 O   0  0  0  0  0  0  0  0  0  0  0  0
  127.5974  138.2740  162.5615 C   0  0  0  0  0  0  0  0  0  0  0  0
  127.0505  136.9654  163.1461 C   0  0  2  0  0  0  0  0  0  0  0  0
  127.8783  136.3210  163.4421 H   0  0  0  0  0  0  0  0  0  0  0  0
  126.2272  136.2831  162.1447 N   0  0  0  0  0  0  0  0  0  0  0  0
  126.8091  135.3739  161.2689 C   0  0  0  0  0  0  0  0  0  0  0  0
  126.1940  134.2961  160.7215 C   0  0  0  0  0  0  0  0  0  0  0  0
  127.1415  133.6563  159.8982 C   0  0  0  0  0  0  0  0  0  0  0  0
  128.2925  134.3728  159.9922 C   0  0  0  0  0  0  0  0  0  0  0  0
  129.5613  134.0671  159.2996 C   0  0  0  0  0  0  0  0  0  0  0  0
  129.7776  133.0507  158.4881 N   0  0  0  0  0  0  0  0  0  0  0  0
  131.1037  133.1247  158.0428 N   0  0  0  0  0  0  0  0  0  0  0  0
  131.5343  132.5049  157.4333 H   0  0  0  0  0  0  0  0  0  0  0  0
  131.6806  134.2043  158.6136 C   0  0  0  0  0  0  0  0  0  0  0  0
  130.7586  134.8076  159.3939 C   0  0  0  0  0  0  0  0  0  0  0  0
  130.9706  136.0507  160.2192 C   0  0  0  0  0  0  0  0  0  0  0  0
  132.3517  136.5216  160.0492 N   0  0  0  0  0  0  0  0  0  0  0  0
  132.9917  135.8030  160.3527 H   0  0  0  0  0  0  0  0  0  0  0  0
  132.5182  136.7314  159.0763 H   0  0  0  0  0  0  0  0  0  0  0  0
  132.5584  137.7333  160.8536 C   0  0  0  0  0  0  0  0  0  0  0  0
  133.9968  138.2238  160.6766 C   0  0  0  0  0  0  0  0  0  0  0  0
  134.3212  138.6324  158.7811 Br  0  0  0  0  0  0  0  0  0  0  0  0
  128.0775  135.4118  160.8264 O   0  0  0  0  0  0  0  0  0  0  0  0
  126.1981  137.3059  164.3712 C   0  0  0  0  0  0  0  0  0  0  0  0
  126.8801  139.3764  168.4517 H   0  0  0  0  0  0  0  0  0  0  0  0
  125.6959  137.8368  166.9449 H   0  0  0  0  0  0  0  0  0  0  0  0
  129.5542  140.4109  165.2955 H   0  0  0  0  0  0  0  0  0  0  0  0
  126.7728  138.9558  162.3530 H   0  0  0  0  0  0  0  0  0  0  0  0
  128.1432  138.0654  161.6413 H   0  0  0  0  0  0  0  0  0  0  0  0
  125.2760  136.4658  162.0929 H   0  0  0  0  0  0  0  0  0  0  0  0
  125.1718  133.9881  160.8842 H   0  0  0  0  0  0  0  0  0  0  0  0
  126.9846  132.7648  159.3089 H   0  0  0  0  0  0  0  0  0  0  0  0
  132.7009  134.5281  158.4709 H   0  0  0  0  0  0  0  0  0  0  0  0
  130.2791  136.8269  159.8911 H   0  0  0  0  0  0  0  0  0  0  0  0
  130.7907  135.8243  161.2700 H   0  0  0  0  0  0  0  0  0  0  0  0
  131.8669  138.5094  160.5257 H   0  0  0  0  0  0  0  0  0  0  0  0
  132.3785  137.5067  161.9045 H   0  0  0  0  0  0  0  0  0  0  0  0
  134.1502  139.1228  161.2735 H   0  0  0  0  0  0  0  0  0  0  0  0
  134.6882  137.4476  161.0045 H   0  0  0  0  0  0  0  0  0  0  0  0
  125.2682  137.7736  164.0474 H   0  0  0  0  0  0  0  0  0  0  0  0
  125.9724  136.3924  164.9214 H   0  0  0  0  0  0  0  0  0  0  0  0
  1  2  1  0
  2  7  2  0
  2  3  1  0
  3  4  2  0
  3 32  1  0
  4  5  1  0
  4 33  1  0
  5 31  1  0
  5  6  2  0
  6  7  1  0
  6  8  1  0
  7 34  1  0
  8  9  1  0
  9 10  1  0
  9 35  1  0
  9 36  1  0
 10 11  1  1
 10 12  1  0
 10 31  1  0
 12 13  1  0
 12 37  1  0
 13 30  1  0
 13 14  2  0
 14 15  1  0
 14 38  1  0
 15 16  2  0
 15 39  1  0
 16 17  1  0
 16 30  1  0
 17 22  1  0
 17 18  2  0
 18 19  1  0
 19 20  1  0
 19 21  1  0
 21 22  2  0
 21 40  1  0
 22 23  1  0
 23 24  1  0
 23 41  1  0
 23 42  1  0
 24 25  1  0
 24 26  1  0
 24 27  1  0
 27 28  1  0
 27 43  1  0
 27 44  1  0
 28 29  1  0
 28 45  1  0
 28 46  1  0
 31 47  1  0
 31 48  1  0
M  CHG  1  24   1
M  END
>  <DOCK_score>  (1) 
-41.573986

>  <SMILES>  (1) 
Clc1ccc2c(c1)OC[C@H](Nc1ccc(-c3n[nH]cc3C[NH2+]CCBr)o1)C2

$$$$
