C[C@H](C[NH2+]C1c2ccccc2-c2ccc(O)cc21)Cc1cnn(C)c1
     RDKit          3D

 49 52  0  0  1  0  0  0  0  0999 V2000
  132.3603  135.1983  161.5221 C   0  0  0  0  0  0  0  0  0  0  0  0
  131.4489  136.3247  161.0304 C   0  0  2  0  0  0  0  0  0  0  0  0
  130.7749  136.6233  161.8334 H   0  0  0  0  0  0  0  0  0  0  0  0
  130.6311  135.8336  159.8342 C   0  0  0  0  0  0  0  0  0  0  0  0
  129.4940  135.0362  160.3127 N   0  0  0  0  0  0  0  0  0  0  0  0
  128.9108  135.6051  160.9079 H   0  0  0  0  0  0  0  0  0  0  0  0
  129.8353  134.2432  160.8351 H   0  0  0  0  0  0  0  0  0  0  0  0
  128.7087  134.5646  159.1643 C   0  0  1  0  0  0  0  0  0  0  0  0
  129.3238  133.3099  158.5945 C   0  0  0  0  0  0  0  0  0  0  0  0
  130.5614  133.0533  158.0432 C   0  0  0  0  0  0  0  0  0  0  0  0
  130.8674  131.7828  157.5890 C   0  0  0  0  0  0  0  0  0  0  0  0
  129.9332  130.7672  157.6872 C   0  0  0  0  0  0  0  0  0  0  0  0
  128.6930  131.0144  158.2377 C   0  0  0  0  0  0  0  0  0  0  0  0
  128.3770  132.2945  158.6977 C   0  0  0  0  0  0  0  0  0  0  0  0
  127.1422  132.8313  159.3211 C   0  0  0  0  0  0  0  0  0  0  0  0
  125.9281  132.2153  159.6331 C   0  0  0  0  0  0  0  0  0  0  0  0
  124.9157  132.9436  160.2194 C   0  0  0  0  0  0  0  0  0  0  0  0
  125.0977  134.2908  160.5021 C   0  0  0  0  0  0  0  0  0  0  0  0
  124.0970  135.0051  161.0802 O   0  0  0  0  0  0  0  0  0  0  0  0
  126.3013  134.9087  160.1895 C   0  0  0  0  0  0  0  0  0  0  0  0
  127.3176  134.1828  159.6075 C   0  0  0  0  0  0  0  0  0  0  0  0
  132.3014  137.5228  160.6080 C   0  0  0  0  0  0  0  0  0  0  0  0
  131.4499  138.7661  160.5964 C   0  0  0  0  0  0  0  0  0  0  0  0
  130.7188  139.2528  159.5078 C   0  0  0  0  0  0  0  0  0  0  0  0
  130.1089  140.3482  159.8820 N   0  0  0  0  0  0  0  0  0  0  0  0
  130.4332  140.5936  161.2226 N   0  0  0  0  0  0  0  0  0  0  0  0
  129.9612  141.7204  162.0311 C   0  0  0  0  0  0  0  0  0  0  0  0
  131.2527  139.6057  161.6392 C   0  0  0  0  0  0  0  0  0  0  0  0
  133.0342  134.8996  160.7193 H   0  0  0  0  0  0  0  0  0  0  0  0
  132.9429  135.5483  162.3743 H   0  0  0  0  0  0  0  0  0  0  0  0
  131.7529  134.3448  161.8230 H   0  0  0  0  0  0  0  0  0  0  0  0
  131.2609  135.2189  159.1912 H   0  0  0  0  0  0  0  0  0  0  0  0
  130.2623  136.6902  159.2699 H   0  0  0  0  0  0  0  0  0  0  0  0
  128.6596  135.3401  158.3999 H   0  0  0  0  0  0  0  0  0  0  0  0
  131.2921  133.8448  157.9656 H   0  0  0  0  0  0  0  0  0  0  0  0
  131.8372  131.5835  157.1575 H   0  0  0  0  0  0  0  0  0  0  0  0
  130.1758  129.7768  157.3313 H   0  0  0  0  0  0  0  0  0  0  0  0
  127.9665  130.2188  158.3121 H   0  0  0  0  0  0  0  0  0  0  0  0
  125.7825  131.1677  159.4145 H   0  0  0  0  0  0  0  0  0  0  0  0
  123.9779  132.4649  160.4600 H   0  0  0  0  0  0  0  0  0  0  0  0
  124.3170  135.9335  161.2382 H   0  0  0  0  0  0  0  0  0  0  0  0
  126.4415  135.9577  160.4045 H   0  0  0  0  0  0  0  0  0  0  0  0
  133.1225  137.6513  161.3133 H   0  0  0  0  0  0  0  0  0  0  0  0
  132.7036  137.3488  159.6099 H   0  0  0  0  0  0  0  0  0  0  0  0
  130.6669  138.8024  158.5276 H   0  0  0  0  0  0  0  0  0  0  0  0
  129.0313  141.4458  162.5292 H   0  0  0  0  0  0  0  0  0  0  0  0
  130.7135  141.9714  162.7788 H   0  0  0  0  0  0  0  0  0  0  0  0
  129.7874  142.5823  161.3868 H   0  0  0  0  0  0  0  0  0  0  0  0
  131.6775  139.5049  162.6271 H   0  0  0  0  0  0  0  0  0  0  0  0
  1  2  1  0
  1 29  1  0
  1 30  1  0
  1 31  1  0
  2  3  1  1
  2  4  1  0
  2 22  1  0
  4  5  1  0
  4 32  1  0
  4 33  1  0
  5  6  1  0
  5  7  1  0
  5  8  1  0
  8 21  1  0
  8  9  1  0
  8 34  1  6
  9 14  1  0
  9 10  2  0
 10 11  1  0
 10 35  1  0
 11 12  2  0
 11 36  1  0
 12 13  1  0
 12 37  1  0
 13 14  2  0
 13 38  1  0
 14 15  1  0
 15 21  2  0
 15 16  1  0
 16 17  2  0
 16 39  1  0
 17 18  1  0
 17 40  1  0
 18 19  1  0
 18 20  2  0
 19 41  1  0
 20 21  1  0
 20 42  1  0
 22 23  1  0
 22 43  1  0
 22 44  1  0
 23 28  2  0
 23 24  1  0
 24 25  2  0
 24 45  1  0
 25 26  1  0
 26 27  1  0
 26 28  1  0
 27 46  1  0
 27 47  1  0
 27 48  1  0
 28 49  1  0
M  CHG  1   5   1
M  END
>  <DOCK_score>  (1) 
-42.792538

>  <SMILES>  (1) 
C[C@H](C[NH2+]C1c2ccccc2-c2ccc(O)cc21)Cc1cnn(C)c1

$$$$
