Brc1ccc(-c2c[nH]c(N[C@H](C3=COCCC3)C3CCCCC3)[nH+]2)cc1
     RDKit          3D

 53 56  0  0  1  0  0  0  0  0999 V2000
  130.7244  129.8148  150.1460 Br  0  0  0  0  0  0  0  0  0  0  0  0
  130.6816  130.4743  151.9178 C   0  0  0  0  0  0  0  0  0  0  0  0
  130.5417  131.8326  152.1448 C   0  0  0  0  0  0  0  0  0  0  0  0
  130.5104  132.3191  153.4357 C   0  0  0  0  0  0  0  0  0  0  0  0
  130.6195  131.4400  154.5120 C   0  0  0  0  0  0  0  0  0  0  0  0
  130.5870  131.9575  155.9018 C   0  0  0  0  0  0  0  0  0  0  0  0
  130.1180  131.2962  156.9887 C   0  0  0  0  0  0  0  0  0  0  0  0
  130.2756  132.1357  158.0648 N   0  0  0  0  0  0  0  0  0  0  0  0
  130.0320  131.9437  158.9840 H   0  0  0  0  0  0  0  0  0  0  0  0
  130.8368  133.2865  157.6033 C   0  0  0  0  0  0  0  0  0  0  0  0
  131.1588  134.3915  158.3725 N   0  0  0  0  0  0  0  0  0  0  0  0
  130.3771  134.7022  159.5719 C   0  0  2  0  0  0  0  0  0  0  0  0
  130.4375  133.8681  160.2710 H   0  0  0  0  0  0  0  0  0  0  0  0
  128.9381  134.9326  159.1879 C   0  0  0  0  0  0  0  0  0  0  0  0
  128.0185  134.1608  159.7040 C   0  0  0  0  0  0  0  0  0  0  0  0
  126.7030  134.2793  159.4182 O   0  0  0  0  0  0  0  0  0  0  0  0
  126.2625  135.4972  158.8105 C   0  0  0  0  0  0  0  0  0  0  0  0
  127.2113  135.8252  157.6492 C   0  0  0  0  0  0  0  0  0  0  0  0
  128.6150  136.0421  158.2247 C   0  0  0  0  0  0  0  0  0  0  0  0
  130.9368  135.9633  160.2330 C   0  0  0  0  0  0  0  0  0  0  0  0
  132.3977  135.7294  160.6228 C   0  0  0  0  0  0  0  0  0  0  0  0
  132.9574  136.9907  161.2839 C   0  0  0  0  0  0  0  0  0  0  0  0
  132.1410  137.3149  162.5366 C   0  0  0  0  0  0  0  0  0  0  0  0
  130.6801  137.5489  162.1468 C   0  0  0  0  0  0  0  0  0  0  0  0
  130.1204  136.2877  161.4856 C   0  0  0  0  0  0  0  0  0  0  0  0
  131.0170  133.1781  156.3096 N   0  0  0  0  0  0  0  0  0  0  0  0
  131.3984  133.8608  155.7357 H   0  0  0  0  0  0  0  0  0  0  0  0
  130.7651  130.0739  154.2778 C   0  0  0  0  0  0  0  0  0  0  0  0
  130.7899  129.5972  152.9830 C   0  0  0  0  0  0  0  0  0  0  0  0
  130.4572  132.5128  151.3103 H   0  0  0  0  0  0  0  0  0  0  0  0
  130.4013  133.3789  153.6119 H   0  0  0  0  0  0  0  0  0  0  0  0
  129.7001  130.3006  157.0053 H   0  0  0  0  0  0  0  0  0  0  0  0
  131.9022  134.9601  158.1173 H   0  0  0  0  0  0  0  0  0  0  0  0
  128.3253  133.3891  160.3945 H   0  0  0  0  0  0  0  0  0  0  0  0
  126.2869  136.3032  159.5440 H   0  0  0  0  0  0  0  0  0  0  0  0
  125.2476  135.3740  158.4326 H   0  0  0  0  0  0  0  0  0  0  0  0
  126.8761  136.7318  157.1454 H   0  0  0  0  0  0  0  0  0  0  0  0
  127.2276  134.9960  156.9421 H   0  0  0  0  0  0  0  0  0  0  0  0
  129.3438  136.0434  157.4140 H   0  0  0  0  0  0  0  0  0  0  0  0
  128.6501  136.9983  158.7466 H   0  0  0  0  0  0  0  0  0  0  0  0
  130.8763  136.7975  159.5340 H   0  0  0  0  0  0  0  0  0  0  0  0
  132.4581  134.8954  161.3219 H   0  0  0  0  0  0  0  0  0  0  0  0
  132.9793  135.4982  159.7303 H   0  0  0  0  0  0  0  0  0  0  0  0
  132.8969  137.8247  160.5847 H   0  0  0  0  0  0  0  0  0  0  0  0
  133.9981  136.8240  161.5616 H   0  0  0  0  0  0  0  0  0  0  0  0
  132.5397  138.2134  163.0075 H   0  0  0  0  0  0  0  0  0  0  0  0
  132.2013  136.4809  163.2357 H   0  0  0  0  0  0  0  0  0  0  0  0
  130.6196  138.3830  161.4476 H   0  0  0  0  0  0  0  0  0  0  0  0
  130.0984  137.7800  163.0392 H   0  0  0  0  0  0  0  0  0  0  0  0
  129.0796  136.4544  161.2080 H   0  0  0  0  0  0  0  0  0  0  0  0
  130.1807  135.4537  162.1848 H   0  0  0  0  0  0  0  0  0  0  0  0
  130.8540  129.3891  155.1081 H   0  0  0  0  0  0  0  0  0  0  0  0
  130.8989  128.5383  152.8004 H   0  0  0  0  0  0  0  0  0  0  0  0
  1  2  1  0
  2 29  2  0
  2  3  1  0
  3  4  2  0
  3 30  1  0
  4  5  1  0
  4 31  1  0
  5  6  1  0
  5 28  2  0
  6 26  1  0
  6  7  2  0
  7  8  1  0
  7 32  1  0
  8  9  1  0
  8 10  1  0
 10 11  1  0
 10 26  2  0
 11 12  1  0
 11 33  1  0
 12 13  1  1
 12 14  1  0
 12 20  1  0
 14 19  1  0
 14 15  2  0
 15 16  1  0
 15 34  1  0
 16 17  1  0
 17 18  1  0
 17 35  1  0
 17 36  1  0
 18 19  1  0
 18 37  1  0
 18 38  1  0
 19 39  1  0
 19 40  1  0
 20 25  1  0
 20 21  1  0
 20 41  1  0
 21 22  1  0
 21 42  1  0
 21 43  1  0
 22 23  1  0
 22 44  1  0
 22 45  1  0
 23 24  1  0
 23 46  1  0
 23 47  1  0
 24 25  1  0
 24 48  1  0
 24 49  1  0
 25 50  1  0
 25 51  1  0
 26 27  1  0
 28 29  1  0
 28 52  1  0
 29 53  1  0
M  CHG  1  26   1
M  END
>  <DOCK_score>  (1) 
-57.157825

>  <SMILES>  (1) 
Brc1ccc(-c2c[nH]c(N[C@H](C3=COCCC3)C3CCCCC3)[nH+]2)cc1

$$$$
