O=C1CCC(NC(NC2CCC2)=[NH+][C@H]2COc3cc(-c4ccncc4)ccc3C2)CN1
     RDKit          3D

 61 65  0  0  1  0  0  0  0  0999 V2000
  123.7462  133.7355  161.6684 O   0  0  0  0  0  0  0  0  0  0  0  0
  124.9083  133.9711  161.4137 C   0  0  0  0  0  0  0  0  0  0  0  0
  125.7836  132.8342  160.9706 C   0  0  0  0  0  0  0  0  0  0  0  0
  127.2568  133.2217  161.1207 C   0  0  0  0  0  0  0  0  0  0  0  0
  127.4630  134.6000  160.4809 C   0  0  2  0  0  0  0  0  0  0  0  0
  128.8922  134.9206  160.4545 N   0  0  0  0  0  0  0  0  0  0  0  0
  129.6576  134.5596  159.3710 C   0  0  0  0  0  0  0  0  0  0  0  0
  129.0820  133.8978  158.3124 N   0  0  0  0  0  0  0  0  0  0  0  0
  129.8977  133.5131  157.1579 C   0  0  0  0  0  0  0  0  0  0  0  0
  129.3018  132.3544  156.3413 C   0  0  0  0  0  0  0  0  0  0  0  0
  130.7380  131.8162  156.2075 C   0  0  0  0  0  0  0  0  0  0  0  0
  131.0576  132.5671  157.5108 C   0  0  0  0  0  0  0  0  0  0  0  0
  130.9294  134.8450  159.3473 N   0  0  0  0  0  0  0  0  0  0  0  0
  131.3745  135.0066  158.5008 H   0  0  0  0  0  0  0  0  0  0  0  0
  131.6862  134.9215  160.5993 C   0  0  1  0  0  0  0  0  0  0  0  0
  131.0261  134.7122  161.4410 H   0  0  0  0  0  0  0  0  0  0  0  0
  132.8322  133.9019  160.5750 C   0  0  0  0  0  0  0  0  0  0  0  0
  133.4836  133.9267  161.8457 O   0  0  0  0  0  0  0  0  0  0  0  0
  133.8401  135.1357  162.3532 C   0  0  0  0  0  0  0  0  0  0  0  0
  134.7724  135.1709  163.3829 C   0  0  0  0  0  0  0  0  0  0  0  0
  135.1608  136.3884  163.9314 C   0  0  0  0  0  0  0  0  0  0  0  0
  136.1566  136.4268  165.0309 C   0  0  0  0  0  0  0  0  0  0  0  0
  137.0157  137.5186  165.1835 C   0  0  0  0  0  0  0  0  0  0  0  0
  137.9237  137.5158  166.2224 C   0  0  0  0  0  0  0  0  0  0  0  0
  137.9936  136.4971  167.0578 N   0  0  0  0  0  0  0  0  0  0  0  0
  137.2048  135.4455  166.9456 C   0  0  0  0  0  0  0  0  0  0  0  0
  136.2650  135.3695  165.9383 C   0  0  0  0  0  0  0  0  0  0  0  0
  134.6103  137.5726  163.4438 C   0  0  0  0  0  0  0  0  0  0  0  0
  133.6866  137.5300  162.4213 C   0  0  0  0  0  0  0  0  0  0  0  0
  133.3004  136.3158  161.8723 C   0  0  0  0  0  0  0  0  0  0  0  0
  132.2902  136.3195  160.7524 C   0  0  0  0  0  0  0  0  0  0  0  0
  126.7184  135.6434  161.3148 C   0  0  0  0  0  0  0  0  0  0  0  0
  125.3404  135.2262  161.5418 N   0  0  0  0  0  0  0  0  0  0  0  0
  125.5748  132.6024  159.9261 H   0  0  0  0  0  0  0  0  0  0  0  0
  125.5756  131.9571  161.5833 H   0  0  0  0  0  0  0  0  0  0  0  0
  127.8830  132.4857  160.6168 H   0  0  0  0  0  0  0  0  0  0  0  0
  127.5194  133.2649  162.1778 H   0  0  0  0  0  0  0  0  0  0  0  0
  127.0707  134.5934  159.4639 H   0  0  0  0  0  0  0  0  0  0  0  0
  129.2984  135.3876  161.2012 H   0  0  0  0  0  0  0  0  0  0  0  0
  128.1356  133.6855  158.3300 H   0  0  0  0  0  0  0  0  0  0  0  0
  130.1994  134.3660  156.5498 H   0  0  0  0  0  0  0  0  0  0  0  0
  128.6444  131.7053  156.9196 H   0  0  0  0  0  0  0  0  0  0  0  0
  128.8622  132.6681  155.3945 H   0  0  0  0  0  0  0  0  0  0  0  0
  131.2692  132.2043  155.3384 H   0  0  0  0  0  0  0  0  0  0  0  0
  130.8109  130.7324  156.2989 H   0  0  0  0  0  0  0  0  0  0  0  0
  132.0334  133.0526  157.5070 H   0  0  0  0  0  0  0  0  0  0  0  0
  130.8817  131.9774  158.4105 H   0  0  0  0  0  0  0  0  0  0  0  0
  132.4331  132.9052  160.3863 H   0  0  0  0  0  0  0  0  0  0  0  0
  133.5429  134.1670  159.7921 H   0  0  0  0  0  0  0  0  0  0  0  0
  135.1964  134.2510  163.7577 H   0  0  0  0  0  0  0  0  0  0  0  0
  136.9671  138.3539  164.5006 H   0  0  0  0  0  0  0  0  0  0  0  0
  138.5887  138.3569  166.3511 H   0  0  0  0  0  0  0  0  0  0  0  0
  137.2957  134.6337  167.6520 H   0  0  0  0  0  0  0  0  0  0  0  0
  135.6227  134.5054  165.8524 H   0  0  0  0  0  0  0  0  0  0  0  0
  134.9063  138.5213  163.8664 H   0  0  0  0  0  0  0  0  0  0  0  0
  133.2614  138.4483  162.0444 H   0  0  0  0  0  0  0  0  0  0  0  0
  132.7808  136.6065  159.8224 H   0  0  0  0  0  0  0  0  0  0  0  0
  131.4988  137.0335  160.9803 H   0  0  0  0  0  0  0  0  0  0  0  0
  127.2213  135.7633  162.2744 H   0  0  0  0  0  0  0  0  0  0  0  0
  126.7238  136.5970  160.7871 H   0  0  0  0  0  0  0  0  0  0  0  0
  124.6973  135.9040  161.8025 H   0  0  0  0  0  0  0  0  0  0  0  0
  1  2  2  0
  2 33  1  0
  2  3  1  0
  3  4  1  0
  3 34  1  0
  3 35  1  0
  4  5  1  0
  4 36  1  0
  4 37  1  0
  5  6  1  0
  5 32  1  0
  5 38  1  6
  6 39  1  0
  7  6  1  0
  7  8  1  0
  7 13  2  0
  8  9  1  0
  8 40  1  0
  9 12  1  0
  9 10  1  0
  9 41  1  0
 10 11  1  0
 10 42  1  0
 10 43  1  0
 11 12  1  0
 11 44  1  0
 11 45  1  0
 12 46  1  0
 12 47  1  0
 13 14  1  0
 13 15  1  0
 15 16  1  1
 15 31  1  0
 15 17  1  0
 17 18  1  0
 17 48  1  0
 17 49  1  0
 18 19  1  0
 19 30  2  0
 19 20  1  0
 20 21  2  0
 20 50  1  0
 21 22  1  0
 21 28  1  0
 22 27  1  0
 22 23  2  0
 23 24  1  0
 23 51  1  0
 24 25  2  0
 24 52  1  0
 25 26  1  0
 26 27  2  0
 26 53  1  0
 27 54  1  0
 28 29  2  0
 28 55  1  0
 29 30  1  0
 29 56  1  0
 30 31  1  0
 31 57  1  0
 31 58  1  0
 32 33  1  0
 32 59  1  0
 32 60  1  0
 33 61  1  0
M  CHG  1  13   1
M  END
>  <DOCK_score>  (1) 
-51.397984

>  <SMILES>  (1) 
O=C1CCC(NC(NC2CCC2)=[NH+][C@H]2COc3cc(-c4ccncc4)ccc3C2)CN1

$$$$
