CNC(N[C@@H]1CC=C(C)CC1)=[NH+][C@H]1CCC(=O)NC1
     RDKit          3D

 44 45  0  0  1  0  0  0  0  0999 V2000
  129.8660  134.1561  157.0583 C   0  0  0  0  0  0  0  0  0  0  0  0
  129.1341  134.0063  158.3186 N   0  0  0  0  0  0  0  0  0  0  0  0
  129.6061  134.6044  159.4630 C   0  0  0  0  0  0  0  0  0  0  0  0
  130.7649  135.3433  159.4246 N   0  0  0  0  0  0  0  0  0  0  0  0
  131.6199  135.4273  160.6113 C   0  0  2  0  0  0  0  0  0  0  0  0
  131.0586  135.8644  161.4370 H   0  0  0  0  0  0  0  0  0  0  0  0
  132.8451  136.2905  160.3024 C   0  0  0  0  0  0  0  0  0  0  0  0
  133.8532  136.1714  161.4077 C   0  0  0  0  0  0  0  0  0  0  0  0
  133.8535  135.2243  162.2901 C   0  0  0  0  0  0  0  0  0  0  0  0
  134.9395  135.2323  163.3348 C   0  0  0  0  0  0  0  0  0  0  0  0
  132.8398  134.1187  162.3372 C   0  0  0  0  0  0  0  0  0  0  0  0
  132.1010  134.0237  161.0005 C   0  0  0  0  0  0  0  0  0  0  0  0
  128.9550  134.4712  160.5842 N   0  0  0  0  0  0  0  0  0  0  0  0
  129.4338  134.4851  161.4277 H   0  0  0  0  0  0  0  0  0  0  0  0
  127.5001  134.3003  160.5705 C   0  0  1  0  0  0  0  0  0  0  0  0
  127.1405  134.3098  159.5416 H   0  0  0  0  0  0  0  0  0  0  0  0
  127.1324  132.9666  161.2318 C   0  0  0  0  0  0  0  0  0  0  0  0
  125.6322  132.7295  161.0415 C   0  0  0  0  0  0  0  0  0  0  0  0
  124.8667  133.9611  161.4320 C   0  0  0  0  0  0  0  0  0  0  0  0
  123.6794  133.8526  161.6541 O   0  0  0  0  0  0  0  0  0  0  0  0
  125.4228  135.1677  161.5480 N   0  0  0  0  0  0  0  0  0  0  0  0
  126.8429  135.4348  161.3576 C   0  0  0  0  0  0  0  0  0  0  0  0
  130.8977  133.8326  157.1967 H   0  0  0  0  0  0  0  0  0  0  0  0
  129.8512  135.2021  156.7518 H   0  0  0  0  0  0  0  0  0  0  0  0
  129.3936  133.5453  156.2890 H   0  0  0  0  0  0  0  0  0  0  0  0
  128.3167  133.4849  158.3457 H   0  0  0  0  0  0  0  0  0  0  0  0
  131.0163  135.8092  158.6117 H   0  0  0  0  0  0  0  0  0  0  0  0
  133.2943  135.9587  159.3664 H   0  0  0  0  0  0  0  0  0  0  0  0
  132.5380  137.3318  160.2042 H   0  0  0  0  0  0  0  0  0  0  0  0
  134.6267  136.9225  161.4707 H   0  0  0  0  0  0  0  0  0  0  0  0
  135.7959  134.6630  162.9730 H   0  0  0  0  0  0  0  0  0  0  0  0
  135.2443  136.2595  163.5343 H   0  0  0  0  0  0  0  0  0  0  0  0
  134.5641  134.7798  164.2526 H   0  0  0  0  0  0  0  0  0  0  0  0
  132.1225  134.3198  163.1329 H   0  0  0  0  0  0  0  0  0  0  0  0
  133.3447  133.1740  162.5389 H   0  0  0  0  0  0  0  0  0  0  0  0
  131.2441  133.3577  161.1020 H   0  0  0  0  0  0  0  0  0  0  0  0
  132.7766  133.6425  160.2347 H   0  0  0  0  0  0  0  0  0  0  0  0
  127.6940  132.1579  160.7642 H   0  0  0  0  0  0  0  0  0  0  0  0
  127.3652  133.0082  162.2959 H   0  0  0  0  0  0  0  0  0  0  0  0
  125.4324  132.4955  159.9959 H   0  0  0  0  0  0  0  0  0  0  0  0
  125.3157  131.8936  161.6653 H   0  0  0  0  0  0  0  0  0  0  0  0
  124.8459  135.9143  161.7732 H   0  0  0  0  0  0  0  0  0  0  0  0
  127.3260  135.5253  162.3304 H   0  0  0  0  0  0  0  0  0  0  0  0
  126.9634  136.3699  160.8105 H   0  0  0  0  0  0  0  0  0  0  0  0
  1  2  1  0
  1 23  1  0
  1 24  1  0
  1 25  1  0
  2 26  1  0
  3  2  1  0
  3  4  1  0
  3 13  2  0
  4  5  1  0
  4 27  1  0
  5  6  1  1
  5 12  1  0
  5  7  1  0
  7  8  1  0
  7 28  1  0
  7 29  1  0
  8  9  2  0
  8 30  1  0
  9 10  1  0
  9 11  1  0
 10 31  1  0
 10 32  1  0
 10 33  1  0
 11 12  1  0
 11 34  1  0
 11 35  1  0
 12 36  1  0
 12 37  1  0
 13 14  1  0
 13 15  1  0
 15 16  1  6
 15 22  1  0
 15 17  1  0
 17 18  1  0
 17 38  1  0
 17 39  1  0
 18 19  1  0
 18 40  1  0
 18 41  1  0
 19 20  2  0
 19 21  1  0
 21 22  1  0
 21 42  1  0
 22 43  1  0
 22 44  1  0
M  CHG  1  13   1
M  END
>  <DOCK_score>  (1) 
-43.395889

>  <SMILES>  (1) 
CNC(N[C@@H]1CC=C(C)CC1)=[NH+][C@H]1CCC(=O)NC1

$$$$
