CCc1ccc(-c2c[nH]c(N[C@@H](Cc3cc(C)cc(C)c3)c3ncccc3CCO)[nH+]2)cc1
     RDKit          3D

 66 69  0  0  1  0  0  0  0  0999 V2000
  132.1421  129.7471  152.6403 C   0  0  0  0  0  0  0  0  0  0  0  0
  130.7236  129.7672  153.2126 C   0  0  0  0  0  0  0  0  0  0  0  0
  130.7013  130.5960  154.4711 C   0  0  0  0  0  0  0  0  0  0  0  0
  130.4436  131.9536  154.3977 C   0  0  0  0  0  0  0  0  0  0  0  0
  130.4162  132.7162  155.5475 C   0  0  0  0  0  0  0  0  0  0  0  0
  130.6599  132.1187  156.7829 C   0  0  0  0  0  0  0  0  0  0  0  0
  130.6374  132.9341  158.0217 C   0  0  0  0  0  0  0  0  0  0  0  0
  130.2955  132.4967  159.2590 C   0  0  0  0  0  0  0  0  0  0  0  0
  130.4117  133.5707  160.1077 N   0  0  0  0  0  0  0  0  0  0  0  0
  130.2341  133.5712  161.0612 H   0  0  0  0  0  0  0  0  0  0  0  0
  130.8216  134.6339  159.3635 C   0  0  0  0  0  0  0  0  0  0  0  0
  131.0581  135.9107  159.8434 N   0  0  0  0  0  0  0  0  0  0  0  0
  130.8684  136.2054  161.2659 C   0  0  1  0  0  0  0  0  0  0  0  0
  131.5302  135.5745  161.8590 H   0  0  0  0  0  0  0  0  0  0  0  0
  131.1945  137.6768  161.5296 C   0  0  0  0  0  0  0  0  0  0  0  0
  132.6262  137.9505  161.1465 C   0  0  0  0  0  0  0  0  0  0  0  0
  132.9325  138.3528  159.8601 C   0  0  0  0  0  0  0  0  0  0  0  0
  134.2452  138.6080  159.5099 C   0  0  0  0  0  0  0  0  0  0  0  0
  134.5786  139.0522  158.1089 C   0  0  0  0  0  0  0  0  0  0  0  0
  135.2526  138.4517  160.4435 C   0  0  0  0  0  0  0  0  0  0  0  0
  134.9467  138.0449  161.7288 C   0  0  0  0  0  0  0  0  0  0  0  0
  136.0448  137.8743  162.7466 C   0  0  0  0  0  0  0  0  0  0  0  0
  133.6336  137.7938  162.0801 C   0  0  0  0  0  0  0  0  0  0  0  0
  129.4367  135.9319  161.6489 C   0  0  0  0  0  0  0  0  0  0  0  0
  128.4823  136.0787  160.7508 N   0  0  0  0  0  0  0  0  0  0  0  0
  127.2169  135.8453  161.0391 C   0  0  0  0  0  0  0  0  0  0  0  0
  126.8433  135.4457  162.3085 C   0  0  0  0  0  0  0  0  0  0  0  0
  127.8184  135.2862  163.2809 C   0  0  0  0  0  0  0  0  0  0  0  0
  129.1387  135.5354  162.9387 C   0  0  0  0  0  0  0  0  0  0  0  0
  130.2349  135.3764  163.9605 C   0  0  0  0  0  0  0  0  0  0  0  0
  129.8016  136.0224  165.2781 C   0  0  0  0  0  0  0  0  0  0  0  0
  129.5462  137.4122  165.0658 O   0  0  0  0  0  0  0  0  0  0  0  0
  130.9610  134.2481  158.1187 N   0  0  0  0  0  0  0  0  0  0  0  0
  131.2473  134.8126  157.3836 H   0  0  0  0  0  0  0  0  0  0  0  0
  130.9242  130.7518  156.8499 C   0  0  0  0  0  0  0  0  0  0  0  0
  130.9435  129.9979  155.6942 C   0  0  0  0  0  0  0  0  0  0  0  0
  132.1583  129.1479  151.7299 H   0  0  0  0  0  0  0  0  0  0  0  0
  132.4561  130.7654  152.4106 H   0  0  0  0  0  0  0  0  0  0  0  0
  132.8229  129.3136  153.3728 H   0  0  0  0  0  0  0  0  0  0  0  0
  130.0424  130.2012  152.4796 H   0  0  0  0  0  0  0  0  0  0  0  0
  130.4093  128.7495  153.4420 H   0  0  0  0  0  0  0  0  0  0  0  0
  130.2596  132.4164  153.4394 H   0  0  0  0  0  0  0  0  0  0  0  0
  130.2105  133.7749  155.4899 H   0  0  0  0  0  0  0  0  0  0  0  0
  129.9900  131.4958  159.5259 H   0  0  0  0  0  0  0  0  0  0  0  0
  131.3496  136.6101  159.2378 H   0  0  0  0  0  0  0  0  0  0  0  0
  130.5327  138.3078  160.9366 H   0  0  0  0  0  0  0  0  0  0  0  0
  131.0535  137.8961  162.5881 H   0  0  0  0  0  0  0  0  0  0  0  0
  132.1460  138.4709  159.1294 H   0  0  0  0  0  0  0  0  0  0  0  0
  134.7705  138.1780  157.4867 H   0  0  0  0  0  0  0  0  0  0  0  0
  133.7407  139.6145  157.6969 H   0  0  0  0  0  0  0  0  0  0  0  0
  135.4658  139.6851  158.1299 H   0  0  0  0  0  0  0  0  0  0  0  0
  136.2786  138.6479  160.1689 H   0  0  0  0  0  0  0  0  0  0  0  0
  136.4210  136.8520  162.7074 H   0  0  0  0  0  0  0  0  0  0  0  0
  136.8557  138.5686  162.5259 H   0  0  0  0  0  0  0  0  0  0  0  0
  135.6522  138.0791  163.7425 H   0  0  0  0  0  0  0  0  0  0  0  0
  133.3946  137.4754  163.0841 H   0  0  0  0  0  0  0  0  0  0  0  0
  126.4634  135.9716  160.2760 H   0  0  0  0  0  0  0  0  0  0  0  0
  125.8047  135.2606  162.5400 H   0  0  0  0  0  0  0  0  0  0  0  0
  127.5558  134.9746  164.2812 H   0  0  0  0  0  0  0  0  0  0  0  0
  130.4296  134.3162  164.1225 H   0  0  0  0  0  0  0  0  0  0  0  0
  131.1417  135.8614  163.5991 H   0  0  0  0  0  0  0  0  0  0  0  0
  128.8947  135.5373  165.6395 H   0  0  0  0  0  0  0  0  0  0  0  0
  130.5944  135.9073  166.0171 H   0  0  0  0  0  0  0  0  0  0  0  0
  130.3112  137.9080  164.7432 H   0  0  0  0  0  0  0  0  0  0  0  0
  131.1140  130.2836  157.8045 H   0  0  0  0  0  0  0  0  0  0  0  0
  131.1484  128.9388  155.7449 H   0  0  0  0  0  0  0  0  0  0  0  0
  1  2  1  0
  1 37  1  0
  1 38  1  0
  1 39  1  0
  2  3  1  0
  2 40  1  0
  2 41  1  0
  3 36  2  0
  3  4  1  0
  4  5  2  0
  4 42  1  0
  5  6  1  0
  5 43  1  0
  6  7  1  0
  6 35  2  0
  7 33  1  0
  7  8  2  0
  8  9  1  0
  8 44  1  0
  9 10  1  0
  9 11  1  0
 11 12  1  0
 11 33  2  0
 12 13  1  0
 12 45  1  0
 13 14  1  1
 13 15  1  0
 13 24  1  0
 15 16  1  0
 15 46  1  0
 15 47  1  0
 16 23  1  0
 16 17  2  0
 17 18  1  0
 17 48  1  0
 18 19  1  0
 18 20  2  0
 19 49  1  0
 19 50  1  0
 19 51  1  0
 20 21  1  0
 20 52  1  0
 21 22  1  0
 21 23  2  0
 22 53  1  0
 22 54  1  0
 22 55  1  0
 23 56  1  0
 24 29  1  0
 24 25  2  0
 25 26  1  0
 26 27  2  0
 26 57  1  0
 27 28  1  0
 27 58  1  0
 28 29  2  0
 28 59  1  0
 29 30  1  0
 30 31  1  0
 30 60  1  0
 30 61  1  0
 31 32  1  0
 31 62  1  0
 31 63  1  0
 32 64  1  0
 33 34  1  0
 35 36  1  0
 35 65  1  0
 36 66  1  0
M  CHG  1  33   1
M  END
>  <DOCK_score>  (1) 
-60.028412

>  <SMILES>  (1) 
CCc1ccc(-c2c[nH]c(N[C@@H](Cc3cc(C)cc(C)c3)c3ncccc3CCO)[nH+]2)cc1

$$$$
