[NH3+][C@H](Cc1cn(-c2ccccc2)nn1)C(=O)Nc1cccc(O)c1
     RDKit          3D

 42 44  0  0  1  0  0  0  0  0999 V2000
  130.6578  133.8054  157.0804 N   0  0  0  0  0  0  0  0  0  0  0  0
  130.7877  132.8339  157.3195 H   0  0  0  0  0  0  0  0  0  0  0  0
  130.0215  133.8776  156.3006 H   0  0  0  0  0  0  0  0  0  0  0  0
  131.5464  134.2114  156.8281 H   0  0  0  0  0  0  0  0  0  0  0  0
  130.1013  134.5237  158.2347 C   0  0  2  0  0  0  0  0  0  0  0  0
  129.9609  135.5731  157.9763 H   0  0  0  0  0  0  0  0  0  0  0  0
  131.0661  134.4140  159.4170 C   0  0  0  0  0  0  0  0  0  0  0  0
  130.7725  135.5105  160.4083 C   0  0  0  0  0  0  0  0  0  0  0  0
  131.3120  136.7519  160.4259 C   0  0  0  0  0  0  0  0  0  0  0  0
  130.7579  137.3881  161.4940 N   0  0  0  0  0  0  0  0  0  0  0  0
  131.0289  138.7026  161.9006 C   0  0  0  0  0  0  0  0  0  0  0  0
  130.3910  139.2315  163.0145 C   0  0  0  0  0  0  0  0  0  0  0  0
  130.6603  140.5264  163.4129 C   0  0  0  0  0  0  0  0  0  0  0  0
  131.5644  141.2954  162.7037 C   0  0  0  0  0  0  0  0  0  0  0  0
  132.2012  140.7715  161.5939 C   0  0  0  0  0  0  0  0  0  0  0  0
  131.9358  139.4774  161.1904 C   0  0  0  0  0  0  0  0  0  0  0  0
  129.9376  136.5751  162.0626 N   0  0  0  0  0  0  0  0  0  0  0  0
  129.9237  135.4496  161.4404 N   0  0  0  0  0  0  0  0  0  0  0  0
  128.7741  133.9172  158.6114 C   0  0  0  0  0  0  0  0  0  0  0  0
  128.3351  132.9789  157.9804 O   0  0  0  0  0  0  0  0  0  0  0  0
  128.0751  134.4172  159.6495 N   0  0  0  0  0  0  0  0  0  0  0  0
  126.8429  133.8542  159.9994 C   0  0  0  0  0  0  0  0  0  0  0  0
  126.6021  132.5063  159.7641 C   0  0  0  0  0  0  0  0  0  0  0  0
  125.3877  131.9494  160.1148 C   0  0  0  0  0  0  0  0  0  0  0  0
  124.4054  132.7332  160.6900 C   0  0  0  0  0  0  0  0  0  0  0  0
  124.6383  134.0813  160.9222 C   0  0  0  0  0  0  0  0  0  0  0  0
  123.6713  134.8509  161.4875 O   0  0  0  0  0  0  0  0  0  0  0  0
  125.8578  134.6427  160.5768 C   0  0  0  0  0  0  0  0  0  0  0  0
  132.0912  134.5122  159.0598 H   0  0  0  0  0  0  0  0  0  0  0  0
  130.9408  133.4448  159.8997 H   0  0  0  0  0  0  0  0  0  0  0  0
  132.0369  137.1550  159.7340 H   0  0  0  0  0  0  0  0  0  0  0  0
  129.6847  138.6313  163.5688 H   0  0  0  0  0  0  0  0  0  0  0  0
  130.1643  140.9383  164.2794 H   0  0  0  0  0  0  0  0  0  0  0  0
  131.7703  142.3091  163.0147 H   0  0  0  0  0  0  0  0  0  0  0  0
  132.9070  141.3746  161.0419 H   0  0  0  0  0  0  0  0  0  0  0  0
  132.4332  139.0688  160.3232 H   0  0  0  0  0  0  0  0  0  0  0  0
  128.4262  135.1676  160.1542 H   0  0  0  0  0  0  0  0  0  0  0  0
  127.3664  131.8927  159.3105 H   0  0  0  0  0  0  0  0  0  0  0  0
  125.2038  130.9005  159.9348 H   0  0  0  0  0  0  0  0  0  0  0  0
  123.4554  132.2959  160.9594 H   0  0  0  0  0  0  0  0  0  0  0  0
  123.9259  135.7757  161.6094 H   0  0  0  0  0  0  0  0  0  0  0  0
  126.0410  135.6917  160.7571 H   0  0  0  0  0  0  0  0  0  0  0  0
  1  2  1  0
  1  3  1  0
  1  4  1  0
  1  5  1  0
  5  6  1  6
  5  7  1  0
  5 19  1  0
  7  8  1  0
  7 29  1  0
  7 30  1  0
  8 18  1  0
  8  9  2  0
  9 10  1  0
  9 31  1  0
 10 11  1  0
 10 17  1  0
 11 16  1  0
 11 12  2  0
 12 13  1  0
 12 32  1  0
 13 14  2  0
 13 33  1  0
 14 15  1  0
 14 34  1  0
 15 16  2  0
 15 35  1  0
 16 36  1  0
 17 18  2  0
 19 20  2  0
 19 21  1  0
 21 22  1  0
 21 37  1  0
 22 28  1  0
 22 23  2  0
 23 24  1  0
 23 38  1  0
 24 25  2  0
 24 39  1  0
 25 26  1  0
 25 40  1  0
 26 27  1  0
 26 28  2  0
 27 41  1  0
 28 42  1  0
M  CHG  1   1   1
M  END
>  <DOCK_score>  (1) 
-45.663326

>  <SMILES>  (1) 
[NH3+][C@H](Cc1cn(-c2ccccc2)nn1)C(=O)Nc1cccc(O)c1

$$$$
