CCC[C@H](Nc1[nH]cc(-c2ccc(N)cc2)[nH+]1)c1cccs1
     RDKit          3D

 43 45  0  0  1  0  0  0  0  0999 V2000
  131.2079  138.3780  161.1614 C   0  0  0  0  0  0  0  0  0  0  0  0
  130.8407  136.9544  160.7375 C   0  0  0  0  0  0  0  0  0  0  0  0
  129.6795  137.0022  159.7424 C   0  0  0  0  0  0  0  0  0  0  0  0
  129.3124  135.5786  159.3185 C   0  0  2  0  0  0  0  0  0  0  0  0
  129.3621  134.9177  160.1839 H   0  0  0  0  0  0  0  0  0  0  0  0
  130.2534  135.1155  158.2956 N   0  0  0  0  0  0  0  0  0  0  0  0
  130.1205  133.8475  157.7561 C   0  0  0  0  0  0  0  0  0  0  0  0
  129.6051  132.7635  158.3970 N   0  0  0  0  0  0  0  0  0  0  0  0
  129.2682  132.7400  159.3064 H   0  0  0  0  0  0  0  0  0  0  0  0
  129.6507  131.7076  157.5178 C   0  0  0  0  0  0  0  0  0  0  0  0
  130.1918  132.1774  156.3668 C   0  0  0  0  0  0  0  0  0  0  0  0
  130.4361  131.3915  155.1324 C   0  0  0  0  0  0  0  0  0  0  0  0
  129.8182  131.7581  153.9377 C   0  0  0  0  0  0  0  0  0  0  0  0
  130.0511  131.0296  152.7904 C   0  0  0  0  0  0  0  0  0  0  0  0
  130.8922  129.9236  152.8270 C   0  0  0  0  0  0  0  0  0  0  0  0
  131.1225  129.1833  151.6650 N   0  0  0  0  0  0  0  0  0  0  0  0
  131.5046  129.5529  154.0182 C   0  0  0  0  0  0  0  0  0  0  0  0
  131.2792  130.2820  155.1667 C   0  0  0  0  0  0  0  0  0  0  0  0
  130.4651  133.4946  156.5416 N   0  0  0  0  0  0  0  0  0  0  0  0
  130.8551  134.0813  155.8748 H   0  0  0  0  0  0  0  0  0  0  0  0
  127.9140  135.5666  158.7569 C   0  0  0  0  0  0  0  0  0  0  0  0
  126.8021  135.3667  159.4663 C   0  0  0  0  0  0  0  0  0  0  0  0
  125.6285  135.4002  158.7331 C   0  0  0  0  0  0  0  0  0  0  0  0
  125.7872  135.6274  157.4284 C   0  0  0  0  0  0  0  0  0  0  0  0
  127.4976  135.8217  157.0673 S   0  0  0  0  0  0  0  0  0  0  0  0
  131.5045  138.9531  160.2843 H   0  0  0  0  0  0  0  0  0  0  0  0
  130.3457  138.8509  161.6314 H   0  0  0  0  0  0  0  0  0  0  0  0
  132.0351  138.3440  161.8703 H   0  0  0  0  0  0  0  0  0  0  0  0
  130.5441  136.3792  161.6146 H   0  0  0  0  0  0  0  0  0  0  0  0
  131.7029  136.4816  160.2674 H   0  0  0  0  0  0  0  0  0  0  0  0
  129.9761  137.5773  158.8652 H   0  0  0  0  0  0  0  0  0  0  0  0
  128.8173  137.4750  160.2123 H   0  0  0  0  0  0  0  0  0  0  0  0
  130.9670  135.6989  157.9934 H   0  0  0  0  0  0  0  0  0  0  0  0
  129.3189  130.6974  157.7076 H   0  0  0  0  0  0  0  0  0  0  0  0
  129.1608  132.6145  153.9101 H   0  0  0  0  0  0  0  0  0  0  0  0
  129.5758  131.3156  151.8638 H   0  0  0  0  0  0  0  0  0  0  0  0
  131.7095  128.4122  151.6892 H   0  0  0  0  0  0  0  0  0  0  0  0
  130.6953  129.4421  150.8329 H   0  0  0  0  0  0  0  0  0  0  0  0
  132.1577  128.6930  154.0443 H   0  0  0  0  0  0  0  0  0  0  0  0
  131.7557  129.9936  156.0921 H   0  0  0  0  0  0  0  0  0  0  0  0
  126.8165  135.1922  160.5321 H   0  0  0  0  0  0  0  0  0  0  0  0
  124.6579  135.2539  159.1835 H   0  0  0  0  0  0  0  0  0  0  0  0
  124.9875  135.6867  156.7050 H   0  0  0  0  0  0  0  0  0  0  0  0
  1  2  1  0
  1 26  1  0
  1 27  1  0
  1 28  1  0
  2  3  1  0
  2 29  1  0
  2 30  1  0
  3  4  1  0
  3 31  1  0
  3 32  1  0
  4  5  1  1
  4  6  1  0
  4 21  1  0
  6 33  1  0
  7  6  1  0
  7 19  2  0
  7  8  1  0
  8  9  1  0
  8 10  1  0
 10 11  2  0
 10 34  1  0
 11 12  1  0
 11 19  1  0
 12 18  1  0
 12 13  2  0
 13 14  1  0
 13 35  1  0
 14 15  2  0
 14 36  1  0
 15 16  1  0
 15 17  1  0
 16 37  1  0
 16 38  1  0
 17 18  2  0
 17 39  1  0
 18 40  1  0
 19 20  1  0
 21 25  1  0
 21 22  2  0
 22 23  1  0
 22 41  1  0
 23 24  2  0
 23 42  1  0
 24 25  1  0
 24 43  1  0
M  CHG  1  19   1
M  END
>  <DOCK_score>  (1) 
-56.592819

>  <SMILES>  (1) 
CCC[C@H](Nc1[nH]cc(-c2ccc(N)cc2)[nH+]1)c1cccs1

$$$$
