C=C(C)C=C1CC([NH2+]C2CC(COC3C=CC(O)CC3)[C@H](CO)C2)=C1C
     RDKit          3D

 60 62  0  0  1  0  0  0  0  0999 V2000
  128.5003  138.4590  162.1126 C   0  0  0  0  0  0  0  0  0  0  0  0
  129.4689  138.3804  163.0252 C   0  0  0  0  0  0  0  0  0  0  0  0
  129.7779  139.5679  163.9000 C   0  0  0  0  0  0  0  0  0  0  0  0
  130.2325  137.1399  163.1774 C   0  0  0  0  0  0  0  0  0  0  0  0
  130.6003  136.4359  162.0871 C   0  0  0  0  0  0  0  0  0  0  0  0
  131.2605  135.1128  161.8300 C   0  0  0  0  0  0  0  0  0  0  0  0
  131.1088  135.4669  160.3801 C   0  0  0  0  0  0  0  0  0  0  0  0
  131.4512  134.8140  159.1924 N   0  0  0  0  0  0  0  0  0  0  0  0
  131.6550  135.4980  158.4792 H   0  0  0  0  0  0  0  0  0  0  0  0
  132.2648  134.2376  159.3479 H   0  0  0  0  0  0  0  0  0  0  0  0
  130.3301  133.9710  158.7561 C   0  0  2  0  0  0  0  0  0  0  0  0
  130.4015  132.5745  159.4224 C   0  0  0  0  0  0  0  0  0  0  0  0
  129.6090  131.6586  158.4670 C   0  0  1  0  0  0  0  0  0  0  0  0
  128.1643  131.5194  158.9510 C   0  0  0  0  0  0  0  0  0  0  0  0
  127.5472  132.8078  158.9852 O   0  0  0  0  0  0  0  0  0  0  0  0
  126.3909  132.8764  159.8221 C   0  0  2  0  0  0  0  0  0  0  0  0
  125.5510  134.0514  159.4148 C   0  0  0  0  0  0  0  0  0  0  0  0
  124.9871  134.8640  160.2496 C   0  0  0  0  0  0  0  0  0  0  0  0
  125.1027  134.7508  161.7415 C   0  0  1  0  0  0  0  0  0  0  0  0
  123.8226  134.9834  162.3323 O   0  0  0  0  0  0  0  0  0  0  0  0
  125.5932  133.3537  162.1276 C   0  0  0  0  0  0  0  0  0  0  0  0
  126.8287  133.0222  161.2811 C   0  0  0  0  0  0  0  0  0  0  0  0
  129.6390  132.3340  157.0847 C   0  0  2  0  0  0  0  0  0  0  0  0
  128.6247  132.5633  156.7582 H   0  0  0  0  0  0  0  0  0  0  0  0
  130.3217  131.4169  156.0680 C   0  0  0  0  0  0  0  0  0  0  0  0
  130.3430  132.0552  154.7897 O   0  0  0  0  0  0  0  0  0  0  0  0
  130.4488  133.6369  157.2484 C   0  0  0  0  0  0  0  0  0  0  0  0
  130.5244  136.6253  160.6440 C   0  0  0  0  0  0  0  0  0  0  0  0
  129.9825  137.7305  159.7745 C   0  0  0  0  0  0  0  0  0  0  0  0
  128.2788  137.6079  161.4857 H   0  0  0  0  0  0  0  0  0  0  0  0
  127.9372  139.3736  162.0003 H   0  0  0  0  0  0  0  0  0  0  0  0
  130.5949  140.1402  163.4604 H   0  0  0  0  0  0  0  0  0  0  0  0
  128.8936  140.2001  163.9802 H   0  0  0  0  0  0  0  0  0  0  0  0
  130.0688  139.2224  164.8919 H   0  0  0  0  0  0  0  0  0  0  0  0
  130.5013  136.7887  164.1628 H   0  0  0  0  0  0  0  0  0  0  0  0
  130.6655  134.2539  162.1403 H   0  0  0  0  0  0  0  0  0  0  0  0
  132.2959  135.0620  162.1670 H   0  0  0  0  0  0  0  0  0  0  0  0
  129.3778  134.4561  158.9705 H   0  0  0  0  0  0  0  0  0  0  0  0
  131.4364  132.2412  159.4995 H   0  0  0  0  0  0  0  0  0  0  0  0
  129.9325  132.5968  160.4061 H   0  0  0  0  0  0  0  0  0  0  0  0
  130.0808  130.6774  158.4135 H   0  0  0  0  0  0  0  0  0  0  0  0
  127.6137  130.8707  158.2696 H   0  0  0  0  0  0  0  0  0  0  0  0
  128.1562  131.0861  159.9511 H   0  0  0  0  0  0  0  0  0  0  0  0
  125.8085  131.9620  159.7093 H   0  0  0  0  0  0  0  0  0  0  0  0
  125.4083  134.2302  158.3592 H   0  0  0  0  0  0  0  0  0  0  0  0
  124.3969  135.6742  159.8476 H   0  0  0  0  0  0  0  0  0  0  0  0
  125.8098  135.4957  162.1067 H   0  0  0  0  0  0  0  0  0  0  0  0
  123.4481  135.8518  162.1303 H   0  0  0  0  0  0  0  0  0  0  0  0
  124.8084  132.6229  161.9322 H   0  0  0  0  0  0  0  0  0  0  0  0
  125.8575  133.3339  163.1849 H   0  0  0  0  0  0  0  0  0  0  0  0
  127.2694  132.0869  161.6266 H   0  0  0  0  0  0  0  0  0  0  0  0
  127.5580  133.8278  161.3661 H   0  0  0  0  0  0  0  0  0  0  0  0
  131.3432  131.2142  156.3900 H   0  0  0  0  0  0  0  0  0  0  0  0
  129.7703  130.4794  155.9968 H   0  0  0  0  0  0  0  0  0  0  0  0
  130.8182  132.8973  154.7785 H   0  0  0  0  0  0  0  0  0  0  0  0
  130.0143  134.4343  156.6456 H   0  0  0  0  0  0  0  0  0  0  0  0
  131.4913  133.4750  156.9745 H   0  0  0  0  0  0  0  0  0  0  0  0
  128.9596  137.4938  159.4816 H   0  0  0  0  0  0  0  0  0  0  0  0
  129.9936  138.6683  160.3299 H   0  0  0  0  0  0  0  0  0  0  0  0
  130.6022  137.8286  158.8832 H   0  0  0  0  0  0  0  0  0  0  0  0
  1  2  2  0
  1 30  1  0
  1 31  1  0
  2  3  1  0
  2  4  1  0
  3 32  1  0
  3 33  1  0
  3 34  1  0
  4  5  2  0
  4 35  1  0
  5 28  1  0
  5  6  1  0
  6  7  1  0
  6 36  1  0
  6 37  1  0
  7  8  1  0
  7 28  2  0
  8  9  1  0
  8 10  1  0
  8 11  1  0
 11 27  1  0
 11 12  1  0
 11 38  1  6
 12 13  1  0
 12 39  1  0
 12 40  1  0
 13 14  1  0
 13 23  1  0
 13 41  1  6
 14 15  1  0
 14 42  1  0
 14 43  1  0
 15 16  1  0
 16 22  1  0
 16 17  1  0
 16 44  1  1
 17 18  2  0
 17 45  1  0
 18 19  1  0
 18 46  1  0
 19 20  1  0
 19 21  1  0
 19 47  1  1
 20 48  1  0
 21 22  1  0
 21 49  1  0
 21 50  1  0
 22 51  1  0
 22 52  1  0
 23 24  1  6
 23 25  1  0
 23 27  1  0
 25 26  1  0
 25 53  1  0
 25 54  1  0
 26 55  1  0
 27 56  1  0
 27 57  1  0
 28 29  1  0
 29 58  1  0
 29 59  1  0
 29 60  1  0
M  CHG  1   8   1
M  END
>  <DOCK_score>  (1) 
-43.270061

>  <SMILES>  (1) 
C=C(C)C=C1CC([NH2+]C2CC(COC3C=CC(O)CC3)[C@H](CO)C2)=C1C

$$$$
