Cc1nn(-c2ccc(F)cc2)cc1C[NH+]=C(NC=C1NCCCN1)NC1CC=CC1
     RDKit          3D

 59 62  0  0  1  0  0  0  0  0999 V2000
  135.3678  139.0936  158.5666 C   0  0  0  0  0  0  0  0  0  0  0  0
  135.1852  139.3794  160.0349 C   0  0  0  0  0  0  0  0  0  0  0  0
  135.8512  140.2640  160.7329 N   0  0  0  0  0  0  0  0  0  0  0  0
  135.3901  140.2162  162.0549 N   0  0  0  0  0  0  0  0  0  0  0  0
  135.8525  141.0037  163.1191 C   0  0  0  0  0  0  0  0  0  0  0  0
  135.2998  140.8562  164.3842 C   0  0  0  0  0  0  0  0  0  0  0  0
  135.7597  141.6292  165.4321 C   0  0  0  0  0  0  0  0  0  0  0  0
  136.7643  142.5585  165.2195 C   0  0  0  0  0  0  0  0  0  0  0  0
  137.2090  143.3176  166.2446 F   0  0  0  0  0  0  0  0  0  0  0  0
  137.3131  142.7108  163.9572 C   0  0  0  0  0  0  0  0  0  0  0  0
  136.8593  141.9358  162.9079 C   0  0  0  0  0  0  0  0  0  0  0  0
  134.4204  139.2765  162.1228 C   0  0  0  0  0  0  0  0  0  0  0  0
  134.2724  138.7472  160.8861 C   0  0  0  0  0  0  0  0  0  0  0  0
  133.3005  137.6636  160.4961 C   0  0  0  0  0  0  0  0  0  0  0  0
  131.9862  137.9553  161.0737 N   0  0  0  0  0  0  0  0  0  0  0  0
  131.8593  138.7517  161.6127 H   0  0  0  0  0  0  0  0  0  0  0  0
  130.9863  137.1438  160.8632 C   0  0  0  0  0  0  0  0  0  0  0  0
  129.7546  137.4172  161.4046 N   0  0  0  0  0  0  0  0  0  0  0  0
  129.3596  138.7545  161.6196 C   0  0  0  0  0  0  0  0  0  0  0  0
  128.1645  139.0197  162.1449 C   0  0  0  0  0  0  0  0  0  0  0  0
  127.2604  137.9962  162.4952 N   0  0  0  0  0  0  0  0  0  0  0  0
  126.5328  138.1528  163.7691 C   0  0  0  0  0  0  0  0  0  0  0  0
  125.9152  139.5546  163.8113 C   0  0  0  0  0  0  0  0  0  0  0  0
  127.0200  140.6028  163.6402 C   0  0  0  0  0  0  0  0  0  0  0  0
  127.7287  140.3403  162.3769 N   0  0  0  0  0  0  0  0  0  0  0  0
  131.1663  136.0141  160.0986 N   0  0  0  0  0  0  0  0  0  0  0  0
  130.0437  135.1030  159.8622 C   0  0  0  0  0  0  0  0  0  0  0  0
  130.0890  133.9021  160.8354 C   0  0  0  0  0  0  0  0  0  0  0  0
  129.6239  132.7232  160.0127 C   0  0  0  0  0  0  0  0  0  0  0  0
  129.6749  132.9914  158.7363 C   0  0  0  0  0  0  0  0  0  0  0  0
  130.1826  134.3940  158.4950 C   0  0  0  0  0  0  0  0  0  0  0  0
  134.7070  139.7375  157.9862 H   0  0  0  0  0  0  0  0  0  0  0  0
  136.4028  139.2866  158.2848 H   0  0  0  0  0  0  0  0  0  0  0  0
  135.1255  138.0497  158.3668 H   0  0  0  0  0  0  0  0  0  0  0  0
  134.5133  140.1347  164.5494 H   0  0  0  0  0  0  0  0  0  0  0  0
  135.3327  141.5120  166.4171 H   0  0  0  0  0  0  0  0  0  0  0  0
  138.0961  143.4362  163.7931 H   0  0  0  0  0  0  0  0  0  0  0  0
  137.2880  142.0546  161.9237 H   0  0  0  0  0  0  0  0  0  0  0  0
  133.8642  138.9978  163.0057 H   0  0  0  0  0  0  0  0  0  0  0  0
  133.6569  136.7038  160.8702 H   0  0  0  0  0  0  0  0  0  0  0  0
  133.2189  137.6224  159.4098 H   0  0  0  0  0  0  0  0  0  0  0  0
  129.1559  136.6910  161.6392 H   0  0  0  0  0  0  0  0  0  0  0  0
  130.0262  139.5630  161.3582 H   0  0  0  0  0  0  0  0  0  0  0  0
  127.1252  137.2239  161.9241 H   0  0  0  0  0  0  0  0  0  0  0  0
  127.2222  138.0319  164.6048 H   0  0  0  0  0  0  0  0  0  0  0  0
  125.7439  137.4036  163.8347 H   0  0  0  0  0  0  0  0  0  0  0  0
  125.4174  139.7041  164.7693 H   0  0  0  0  0  0  0  0  0  0  0  0
  125.1894  139.6566  163.0045 H   0  0  0  0  0  0  0  0  0  0  0  0
  127.7200  140.5353  164.4730 H   0  0  0  0  0  0  0  0  0  0  0  0
  126.5778  141.5987  163.6113 H   0  0  0  0  0  0  0  0  0  0  0  0
  127.8894  141.0464  161.7315 H   0  0  0  0  0  0  0  0  0  0  0  0
  132.0366  135.8210  159.7160 H   0  0  0  0  0  0  0  0  0  0  0  0
  129.0927  135.6304  159.9346 H   0  0  0  0  0  0  0  0  0  0  0  0
  131.1066  133.7394  161.1906 H   0  0  0  0  0  0  0  0  0  0  0  0
  129.4147  134.0686  161.6756 H   0  0  0  0  0  0  0  0  0  0  0  0
  129.2923  131.7823  160.4264 H   0  0  0  0  0  0  0  0  0  0  0  0
  129.3912  132.3016  157.9553 H   0  0  0  0  0  0  0  0  0  0  0  0
  129.5719  134.8948  157.7438 H   0  0  0  0  0  0  0  0  0  0  0  0
  131.2267  134.3732  158.1823 H   0  0  0  0  0  0  0  0  0  0  0  0
  1  2  1  0
  1 32  1  0
  1 33  1  0
  1 34  1  0
  2 13  1  0
  2  3  2  0
  3  4  1  0
  4  5  1  0
  4 12  1  0
  5 11  1  0
  5  6  2  0
  6  7  1  0
  6 35  1  0
  7  8  2  0
  7 36  1  0
  8  9  1  0
  8 10  1  0
 10 11  2  0
 10 37  1  0
 11 38  1  0
 12 13  2  0
 12 39  1  0
 13 14  1  0
 14 15  1  0
 14 40  1  0
 14 41  1  0
 15 16  1  0
 17 15  2  0
 17 18  1  0
 17 26  1  0
 18 19  1  0
 18 42  1  0
 19 20  2  0
 19 43  1  0
 20 25  1  0
 20 21  1  0
 21 22  1  0
 21 44  1  0
 22 23  1  0
 22 45  1  0
 22 46  1  0
 23 24  1  0
 23 47  1  0
 23 48  1  0
 24 25  1  0
 24 49  1  0
 24 50  1  0
 25 51  1  0
 26 27  1  0
 26 52  1  0
 27 31  1  0
 27 28  1  0
 27 53  1  0
 28 29  1  0
 28 54  1  0
 28 55  1  0
 29 30  2  0
 29 56  1  0
 30 31  1  0
 30 57  1  0
 31 58  1  0
 31 59  1  0
M  CHG  1  15   1
M  END
>  <DOCK_score>  (1) 
-43.797577

>  <SMILES>  (1) 
Cc1nn(-c2ccc(F)cc2)cc1C[NH+]=C(NC=C1NCCCN1)NC1CC=CC1

$$$$
