O=C(OCc1ccc(Cc2ccccc2)cc1)c1c[nH]nc1[C@H]1CCC[NH2+]C1
     RDKit          3D

 54 57  0  0  1  0  0  0  0  0999 V2000
  126.7566  136.8739  161.5296 O   0  0  0  0  0  0  0  0  0  0  0  0
  127.4436  136.0661  160.9358 C   0  0  0  0  0  0  0  0  0  0  0  0
  128.6955  136.3936  160.5599 O   0  0  0  0  0  0  0  0  0  0  0  0
  129.1574  137.7280  160.8974 C   0  0  0  0  0  0  0  0  0  0  0  0
  130.6502  137.7060  161.1024 C   0  0  0  0  0  0  0  0  0  0  0  0
  131.1718  137.4642  162.3595 C   0  0  0  0  0  0  0  0  0  0  0  0
  132.5412  137.4397  162.5467 C   0  0  0  0  0  0  0  0  0  0  0  0
  133.3889  137.6661  161.4784 C   0  0  0  0  0  0  0  0  0  0  0  0
  134.8818  137.6430  161.6832 C   0  0  0  0  0  0  0  0  0  0  0  0
  135.3623  139.0278  162.0330 C   0  0  0  0  0  0  0  0  0  0  0  0
  135.7511  139.8981  161.0317 C   0  0  0  0  0  0  0  0  0  0  0  0
  136.1872  141.1700  161.3523 C   0  0  0  0  0  0  0  0  0  0  0  0
  136.2446  141.5682  162.6748 C   0  0  0  0  0  0  0  0  0  0  0  0
  135.8608  140.6962  163.6764 C   0  0  0  0  0  0  0  0  0  0  0  0
  135.4196  139.4261  163.3556 C   0  0  0  0  0  0  0  0  0  0  0  0
  132.8673  137.9132  160.2225 C   0  0  0  0  0  0  0  0  0  0  0  0
  131.4979  137.9334  160.0345 C   0  0  0  0  0  0  0  0  0  0  0  0
  126.9100  134.7273  160.6325 C   0  0  0  0  0  0  0  0  0  0  0  0
  125.6571  134.2494  160.9637 C   0  0  0  0  0  0  0  0  0  0  0  0
  125.5722  132.9918  160.5024 N   0  0  0  0  0  0  0  0  0  0  0  0
  124.8027  132.4074  160.5884 H   0  0  0  0  0  0  0  0  0  0  0  0
  126.7826  132.6633  159.8820 N   0  0  0  0  0  0  0  0  0  0  0  0
  127.5861  133.6883  159.9533 C   0  0  0  0  0  0  0  0  0  0  0  0
  128.9894  133.7533  159.4079 C   0  0  1  0  0  0  0  0  0  0  0  0
  129.5861  134.4310  160.0182 H   0  0  0  0  0  0  0  0  0  0  0  0
  129.6142  132.3555  159.4360 C   0  0  0  0  0  0  0  0  0  0  0  0
  131.0096  132.4180  158.8080 C   0  0  0  0  0  0  0  0  0  0  0  0
  130.8989  132.9752  157.3872 C   0  0  0  0  0  0  0  0  0  0  0  0
  130.3192  134.3231  157.4302 N   0  0  0  0  0  0  0  0  0  0  0  0
  130.8848  134.9127  158.0223 H   0  0  0  0  0  0  0  0  0  0  0  0
  130.2961  134.7080  156.4978 H   0  0  0  0  0  0  0  0  0  0  0  0
  128.9538  134.2621  157.9651 C   0  0  0  0  0  0  0  0  0  0  0  0
  128.9121  138.4135  160.0863 H   0  0  0  0  0  0  0  0  0  0  0  0
  128.6696  138.0604  161.8139 H   0  0  0  0  0  0  0  0  0  0  0  0
  130.5095  137.2909  163.1948 H   0  0  0  0  0  0  0  0  0  0  0  0
  132.9488  137.2462  163.5279 H   0  0  0  0  0  0  0  0  0  0  0  0
  135.1267  136.9577  162.4947 H   0  0  0  0  0  0  0  0  0  0  0  0
  135.3692  137.3100  160.7668 H   0  0  0  0  0  0  0  0  0  0  0  0
  135.7105  139.5854  159.9987 H   0  0  0  0  0  0  0  0  0  0  0  0
  136.4875  141.8512  160.5697 H   0  0  0  0  0  0  0  0  0  0  0  0
  136.5895  142.5604  162.9255 H   0  0  0  0  0  0  0  0  0  0  0  0
  135.9059  141.0073  164.7097 H   0  0  0  0  0  0  0  0  0  0  0  0
  135.1201  138.7447  164.1381 H   0  0  0  0  0  0  0  0  0  0  0  0
  133.5296  138.0901  159.3879 H   0  0  0  0  0  0  0  0  0  0  0  0
  131.0904  138.1264  159.0530 H   0  0  0  0  0  0  0  0  0  0  0  0
  124.8865  134.7893  161.4937 H   0  0  0  0  0  0  0  0  0  0  0  0
  129.6938  132.0124  160.4675 H   0  0  0  0  0  0  0  0  0  0  0  0
  128.9897  131.6655  158.8683 H   0  0  0  0  0  0  0  0  0  0  0  0
  131.6487  133.0681  159.4053 H   0  0  0  0  0  0  0  0  0  0  0  0
  131.4388  131.4166  158.7744 H   0  0  0  0  0  0  0  0  0  0  0  0
  131.8905  133.0210  156.9371 H   0  0  0  0  0  0  0  0  0  0  0  0
  130.2595  132.3245  156.7909 H   0  0  0  0  0  0  0  0  0  0  0  0
  128.3559  133.5843  157.3560 H   0  0  0  0  0  0  0  0  0  0  0  0
  128.5097  135.2573  157.9423 H   0  0  0  0  0  0  0  0  0  0  0  0
  1  2  2  0
  2  3  1  0
  2 18  1  0
  3  4  1  0
  4  5  1  0
  4 33  1  0
  4 34  1  0
  5 17  1  0
  5  6  2  0
  6  7  1  0
  6 35  1  0
  7  8  2  0
  7 36  1  0
  8  9  1  0
  8 16  1  0
  9 10  1  0
  9 37  1  0
  9 38  1  0
 10 15  1  0
 10 11  2  0
 11 12  1  0
 11 39  1  0
 12 13  2  0
 12 40  1  0
 13 14  1  0
 13 41  1  0
 14 15  2  0
 14 42  1  0
 15 43  1  0
 16 17  2  0
 16 44  1  0
 17 45  1  0
 18 23  1  0
 18 19  2  0
 19 20  1  0
 19 46  1  0
 20 21  1  0
 20 22  1  0
 22 23  2  0
 23 24  1  0
 24 25  1  1
 24 32  1  0
 24 26  1  0
 26 27  1  0
 26 47  1  0
 26 48  1  0
 27 28  1  0
 27 49  1  0
 27 50  1  0
 28 29  1  0
 28 51  1  0
 28 52  1  0
 29 30  1  0
 29 31  1  0
 29 32  1  0
 32 53  1  0
 32 54  1  0
M  CHG  1  29   1
M  END
>  <DOCK_score>  (1) 
-42.428551

>  <SMILES>  (1) 
O=C(OCc1ccc(Cc2ccccc2)cc1)c1c[nH]nc1[C@H]1CCC[NH2+]C1

$$$$
