c1cncc(COC2C[N@@H+](Cc3cccc(-c4cc5cccnc5[nH]4)c3)CC23CCOCC3)c1
     RDKit          3D

 65 70  0  0  1  0  0  0  0  0999 V2000
  128.6243  137.1680  160.8843 C   0  0  0  0  0  0  0  0  0  0  0  0
  127.7881  136.8464  161.9369 C   0  0  0  0  0  0  0  0  0  0  0  0
  126.8179  135.9670  161.7831 N   0  0  0  0  0  0  0  0  0  0  0  0
  126.6062  135.3624  160.6302 C   0  0  0  0  0  0  0  0  0  0  0  0
  127.4022  135.6328  159.5336 C   0  0  0  0  0  0  0  0  0  0  0  0
  127.1531  134.9378  158.2199 C   0  0  0  0  0  0  0  0  0  0  0  0
  128.3961  134.4926  157.6732 O   0  0  0  0  0  0  0  0  0  0  0  0
  128.8815  133.2773  158.2471 C   0  0  2  0  0  0  0  0  0  0  0  0
  129.7089  133.5659  159.5262 C   0  0  0  0  0  0  0  0  0  0  0  0
  131.0458  133.9422  158.9848 N   0  0  1  0  0  0  0  0  0  0  0  0
  131.0396  134.9034  158.6778 H   0  0  0  0  0  0  0  0  0  0  0  0
  132.0803  133.7436  160.0087 C   0  0  0  0  0  0  0  0  0  0  0  0
  132.0730  134.9100  160.9630 C   0  0  0  0  0  0  0  0  0  0  0  0
  131.2704  134.8751  162.0896 C   0  0  0  0  0  0  0  0  0  0  0  0
  131.2622  135.9392  162.9737 C   0  0  0  0  0  0  0  0  0  0  0  0
  132.0469  137.0479  162.7307 C   0  0  0  0  0  0  0  0  0  0  0  0
  132.8542  137.0916  161.5935 C   0  0  0  0  0  0  0  0  0  0  0  0
  133.6982  138.2764  161.3272 C   0  0  0  0  0  0  0  0  0  0  0  0
  134.6717  138.7436  162.1474 C   0  0  0  0  0  0  0  0  0  0  0  0
  135.2445  139.9194  161.4963 C   0  0  0  0  0  0  0  0  0  0  0  0
  136.2608  140.8199  161.8318 C   0  0  0  0  0  0  0  0  0  0  0  0
  136.5351  141.8477  160.9502 C   0  0  0  0  0  0  0  0  0  0  0  0
  135.8036  141.9520  159.7767 C   0  0  0  0  0  0  0  0  0  0  0  0
  134.8507  141.0942  159.4795 N   0  0  0  0  0  0  0  0  0  0  0  0
  134.5421  140.0875  160.2863 C   0  0  0  0  0  0  0  0  0  0  0  0
  133.6122  139.0781  160.2113 N   0  0  0  0  0  0  0  0  0  0  0  0
  132.9879  138.9495  159.4801 H   0  0  0  0  0  0  0  0  0  0  0  0
  132.8622  136.0123  160.7085 C   0  0  0  0  0  0  0  0  0  0  0  0
  131.2859  133.0409  157.8352 C   0  0  0  0  0  0  0  0  0  0  0  0
  129.9086  132.6055  157.3150 C   0  0  0  0  0  0  0  0  0  0  0  0
  129.7068  133.0863  155.8808 C   0  0  0  0  0  0  0  0  0  0  0  0
  130.6911  132.3563  154.9614 C   0  0  0  0  0  0  0  0  0  0  0  0
  130.5046  130.9455  155.0930 O   0  0  0  0  0  0  0  0  0  0  0  0
  130.7509  130.4420  156.4076 C   0  0  0  0  0  0  0  0  0  0  0  0
  129.7688  131.0876  157.3903 C   0  0  0  0  0  0  0  0  0  0  0  0
  128.4325  136.5528  159.6570 C   0  0  0  0  0  0  0  0  0  0  0  0
  129.4174  137.8891  161.0165 H   0  0  0  0  0  0  0  0  0  0  0  0
  127.9308  137.3213  162.8963 H   0  0  0  0  0  0  0  0  0  0  0  0
  125.8017  134.6472  160.5423 H   0  0  0  0  0  0  0  0  0  0  0  0
  126.4991  134.0808  158.3806 H   0  0  0  0  0  0  0  0  0  0  0  0
  126.6789  135.6317  157.5258 H   0  0  0  0  0  0  0  0  0  0  0  0
  128.0568  132.5989  158.4657 H   0  0  0  0  0  0  0  0  0  0  0  0
  129.2719  134.3910  160.0888 H   0  0  0  0  0  0  0  0  0  0  0  0
  129.7824  132.6726  160.1463 H   0  0  0  0  0  0  0  0  0  0  0  0
  131.8767  132.8240  160.5574 H   0  0  0  0  0  0  0  0  0  0  0  0
  133.0568  133.6723  159.5295 H   0  0  0  0  0  0  0  0  0  0  0  0
  130.6509  134.0116  162.2820 H   0  0  0  0  0  0  0  0  0  0  0  0
  130.6369  135.9039  163.8534 H   0  0  0  0  0  0  0  0  0  0  0  0
  132.0366  137.8797  163.4194 H   0  0  0  0  0  0  0  0  0  0  0  0
  134.9678  138.3260  163.0984 H   0  0  0  0  0  0  0  0  0  0  0  0
  136.8148  140.7148  162.7529 H   0  0  0  0  0  0  0  0  0  0  0  0
  137.3122  142.5637  161.1731 H   0  0  0  0  0  0  0  0  0  0  0  0
  136.0211  142.7567  159.0902 H   0  0  0  0  0  0  0  0  0  0  0  0
  133.4852  136.0400  159.8268 H   0  0  0  0  0  0  0  0  0  0  0  0
  131.8548  132.1689  158.1581 H   0  0  0  0  0  0  0  0  0  0  0  0
  131.8288  133.5714  157.0530 H   0  0  0  0  0  0  0  0  0  0  0  0
  128.6859  132.8716  155.5650 H   0  0  0  0  0  0  0  0  0  0  0  0
  129.8870  134.1600  155.8279 H   0  0  0  0  0  0  0  0  0  0  0  0
  131.7119  132.6160  155.2420 H   0  0  0  0  0  0  0  0  0  0  0  0
  130.5117  132.6521  153.9278 H   0  0  0  0  0  0  0  0  0  0  0  0
  131.7722  130.6816  156.7036 H   0  0  0  0  0  0  0  0  0  0  0  0
  130.6144  129.3605  156.4147 H   0  0  0  0  0  0  0  0  0  0  0  0
  129.9925  130.7511  158.4026 H   0  0  0  0  0  0  0  0  0  0  0  0
  128.7502  130.8022  157.1275 H   0  0  0  0  0  0  0  0  0  0  0  0
  129.0678  136.7876  158.8156 H   0  0  0  0  0  0  0  0  0  0  0  0
  1 36  2  0
  1  2  1  0
  1 37  1  0
  2  3  2  0
  2 38  1  0
  3  4  1  0
  4  5  2  0
  4 39  1  0
  5  6  1  0
  5 36  1  0
  6  7  1  0
  6 40  1  0
  6 41  1  0
  7  8  1  0
  8 30  1  0
  8  9  1  0
  8 42  1  1
  9 10  1  0
  9 43  1  0
  9 44  1  0
 10 11  1  6
 10 12  1  0
 10 29  1  0
 12 13  1  0
 12 45  1  0
 12 46  1  0
 13 28  1  0
 13 14  2  0
 14 15  1  0
 14 47  1  0
 15 16  2  0
 15 48  1  0
 16 17  1  0
 16 49  1  0
 17 18  1  0
 17 28  2  0
 18 26  1  0
 18 19  2  0
 19 20  1  0
 19 50  1  0
 20 25  2  0
 20 21  1  0
 21 22  2  0
 21 51  1  0
 22 23  1  0
 22 52  1  0
 23 24  2  0
 23 53  1  0
 24 25  1  0
 25 26  1  0
 26 27  1  0
 28 54  1  0
 29 30  1  0
 29 55  1  0
 29 56  1  0
 30 35  1  0
 30 31  1  0
 31 32  1  0
 31 57  1  0
 31 58  1  0
 32 33  1  0
 32 59  1  0
 32 60  1  0
 33 34  1  0
 34 35  1  0
 34 61  1  0
 34 62  1  0
 35 63  1  0
 35 64  1  0
 36 65  1  0
M  CHG  1  10   1
M  END
>  <DOCK_score>  (1) 
-45.257019

>  <SMILES>  (1) 
c1cncc(COC2C[N@@H+](Cc3cccc(-c4cc5cccnc5[nH]4)c3)CC23CCOCC3)c1

$$$$
