Cc1ccc([C@@H]([NH3+])c2cccc(NCCc3ccc(F)cc3)c2)cc1
     RDKit          3D

 49 51  0  0  1  0  0  0  0  0999 V2000
  130.7884  129.1367  158.4951 C   0  0  0  0  0  0  0  0  0  0  0  0
  130.4818  130.5862  158.7707 C   0  0  0  0  0  0  0  0  0  0  0  0
  129.3923  130.9261  159.5507 C   0  0  0  0  0  0  0  0  0  0  0  0
  129.1144  132.2555  159.8082 C   0  0  0  0  0  0  0  0  0  0  0  0
  129.9225  133.2453  159.2807 C   0  0  0  0  0  0  0  0  0  0  0  0
  129.6192  134.6946  159.5610 C   0  0  1  0  0  0  0  0  0  0  0  0
  130.1396  135.0061  160.4667 H   0  0  0  0  0  0  0  0  0  0  0  0
  130.0696  135.5168  158.4301 N   0  0  0  0  0  0  0  0  0  0  0  0
  129.5879  135.2285  157.5917 H   0  0  0  0  0  0  0  0  0  0  0  0
  129.8665  136.4872  158.6178 H   0  0  0  0  0  0  0  0  0  0  0  0
  131.0639  135.3994  158.3039 H   0  0  0  0  0  0  0  0  0  0  0  0
  128.1343  134.8698  159.7495 C   0  0  0  0  0  0  0  0  0  0  0  0
  127.2643  134.5375  158.7268 C   0  0  0  0  0  0  0  0  0  0  0  0
  125.9013  134.6962  158.8956 C   0  0  0  0  0  0  0  0  0  0  0  0
  125.4039  135.1874  160.0871 C   0  0  0  0  0  0  0  0  0  0  0  0
  126.2746  135.5219  161.1160 C   0  0  0  0  0  0  0  0  0  0  0  0
  125.7752  136.0191  162.3218 N   0  0  0  0  0  0  0  0  0  0  0  0
  126.5959  135.9617  163.5340 C   0  0  0  0  0  0  0  0  0  0  0  0
  125.8193  136.5674  164.7050 C   0  0  0  0  0  0  0  0  0  0  0  0
  126.6636  136.5083  165.9517 C   0  0  0  0  0  0  0  0  0  0  0  0
  126.5922  135.4057  166.7827 C   0  0  0  0  0  0  0  0  0  0  0  0
  127.3702  135.3478  167.9234 C   0  0  0  0  0  0  0  0  0  0  0  0
  128.2126  136.4000  168.2403 C   0  0  0  0  0  0  0  0  0  0  0  0
  128.9688  136.3474  169.3586 F   0  0  0  0  0  0  0  0  0  0  0  0
  128.2791  137.5063  167.4104 C   0  0  0  0  0  0  0  0  0  0  0  0
  127.5048  137.5592  166.2668 C   0  0  0  0  0  0  0  0  0  0  0  0
  127.6436  135.3562  160.9449 C   0  0  0  0  0  0  0  0  0  0  0  0
  131.0092  132.9056  158.4967 C   0  0  0  0  0  0  0  0  0  0  0  0
  131.2874  131.5762  158.2396 C   0  0  0  0  0  0  0  0  0  0  0  0
  130.2716  128.8220  157.5885 H   0  0  0  0  0  0  0  0  0  0  0  0
  131.8631  129.0115  158.3627 H   0  0  0  0  0  0  0  0  0  0  0  0
  130.4523  128.5283  159.3348 H   0  0  0  0  0  0  0  0  0  0  0  0
  128.7610  130.1528  159.9628 H   0  0  0  0  0  0  0  0  0  0  0  0
  128.2657  132.5208  160.4211 H   0  0  0  0  0  0  0  0  0  0  0  0
  127.6506  134.1530  157.7944 H   0  0  0  0  0  0  0  0  0  0  0  0
  125.2247  134.4356  158.0953 H   0  0  0  0  0  0  0  0  0  0  0  0
  124.3391  135.3107  160.2184 H   0  0  0  0  0  0  0  0  0  0  0  0
  124.8848  136.4026  162.3568 H   0  0  0  0  0  0  0  0  0  0  0  0
  126.8404  134.9236  163.7584 H   0  0  0  0  0  0  0  0  0  0  0  0
  127.5154  136.5258  163.3772 H   0  0  0  0  0  0  0  0  0  0  0  0
  125.5750  137.6057  164.4806 H   0  0  0  0  0  0  0  0  0  0  0  0
  124.8999  136.0034  164.8616 H   0  0  0  0  0  0  0  0  0  0  0  0
  125.9313  134.5873  166.5380 H   0  0  0  0  0  0  0  0  0  0  0  0
  127.3173  134.4845  168.5701 H   0  0  0  0  0  0  0  0  0  0  0  0
  128.9356  138.3277  167.6567 H   0  0  0  0  0  0  0  0  0  0  0  0
  127.5564  138.4221  165.6194 H   0  0  0  0  0  0  0  0  0  0  0  0
  128.3231  135.6116  161.7445 H   0  0  0  0  0  0  0  0  0  0  0  0
  131.6405  133.6789  158.0846 H   0  0  0  0  0  0  0  0  0  0  0  0
  132.1362  131.3109  157.6267 H   0  0  0  0  0  0  0  0  0  0  0  0
  1  2  1  0
  1 30  1  0
  1 31  1  0
  1 32  1  0
  2 29  2  0
  2  3  1  0
  3  4  2  0
  3 33  1  0
  4  5  1  0
  4 34  1  0
  5  6  1  0
  5 28  2  0
  6  7  1  1
  6  8  1  0
  6 12  1  0
  8  9  1  0
  8 10  1  0
  8 11  1  0
 12 27  1  0
 12 13  2  0
 13 14  1  0
 13 35  1  0
 14 15  2  0
 14 36  1  0
 15 16  1  0
 15 37  1  0
 16 17  1  0
 16 27  2  0
 17 18  1  0
 17 38  1  0
 18 19  1  0
 18 39  1  0
 18 40  1  0
 19 20  1  0
 19 41  1  0
 19 42  1  0
 20 26  1  0
 20 21  2  0
 21 22  1  0
 21 43  1  0
 22 23  2  0
 22 44  1  0
 23 24  1  0
 23 25  1  0
 25 26  2  0
 25 45  1  0
 26 46  1  0
 27 47  1  0
 28 29  1  0
 28 48  1  0
 29 49  1  0
M  CHG  1   8   1
M  END
>  <DOCK_score>  (1) 
-42.648159

>  <SMILES>  (1) 
Cc1ccc([C@@H]([NH3+])c2cccc(NCCc3ccc(F)cc3)c2)cc1

$$$$
