CO[C@@H]1CC[C@H]1Nc1cncc(-c2ccc(Nc3ccc(NC4=[NH+]CCN4)cc3)cc2)n1
     RDKit          3D

 60 64  0  0  1  0  0  0  0  0999 V2000
  130.2311  143.8344  169.5815 C   0  0  0  0  0  0  0  0  0  0  0  0
  129.2833  142.8780  169.1026 O   0  0  0  0  0  0  0  0  0  0  0  0
  129.8746  141.7199  168.5103 C   0  0  2  0  0  0  0  0  0  0  0  0
  130.7545  141.3697  169.0500 H   0  0  0  0  0  0  0  0  0  0  0  0
  130.0925  141.8469  166.9933 C   0  0  0  0  0  0  0  0  0  0  0  0
  129.6388  140.3798  166.8839 C   0  0  0  0  0  0  0  0  0  0  0  0
  128.8632  140.6060  168.1924 C   0  0  1  0  0  0  0  0  0  0  0  0
  127.8469  140.9695  168.0402 H   0  0  0  0  0  0  0  0  0  0  0  0
  128.9292  139.4718  169.1173 N   0  0  0  0  0  0  0  0  0  0  0  0
  128.5971  138.1959  168.6773 C   0  0  0  0  0  0  0  0  0  0  0  0
  128.6593  137.1167  169.5570 C   0  0  0  0  0  0  0  0  0  0  0  0
  128.3392  135.9049  169.1425 N   0  0  0  0  0  0  0  0  0  0  0  0
  127.9682  135.7074  167.8902 C   0  0  0  0  0  0  0  0  0  0  0  0
  127.9033  136.7811  167.0042 C   0  0  0  0  0  0  0  0  0  0  0  0
  127.4803  136.5604  165.6008 C   0  0  0  0  0  0  0  0  0  0  0  0
  126.8186  137.5711  164.9037 C   0  0  0  0  0  0  0  0  0  0  0  0
  126.4308  137.3657  163.5974 C   0  0  0  0  0  0  0  0  0  0  0  0
  126.6909  136.1485  162.9770 C   0  0  0  0  0  0  0  0  0  0  0  0
  126.2930  135.9419  161.6559 N   0  0  0  0  0  0  0  0  0  0  0  0
  127.2475  135.6455  160.6766 C   0  0  0  0  0  0  0  0  0  0  0  0
  126.9029  134.8550  159.5876 C   0  0  0  0  0  0  0  0  0  0  0  0
  127.8431  134.5677  158.6183 C   0  0  0  0  0  0  0  0  0  0  0  0
  129.1363  135.0594  158.7378 C   0  0  0  0  0  0  0  0  0  0  0  0
  130.0922  134.7628  157.7567 N   0  0  0  0  0  0  0  0  0  0  0  0
  130.0163  133.5861  157.0606 C   0  0  0  0  0  0  0  0  0  0  0  0
  129.5090  132.4797  157.5797 N   0  0  0  0  0  0  0  0  0  0  0  0
  129.1510  132.3933  158.4771 H   0  0  0  0  0  0  0  0  0  0  0  0
  129.5708  131.4023  156.5797 C   0  0  0  0  0  0  0  0  0  0  0  0
  130.2252  132.0818  155.3599 C   0  0  0  0  0  0  0  0  0  0  0  0
  130.4494  133.4624  155.8163 N   0  0  0  0  0  0  0  0  0  0  0  0
  129.4824  135.8452  159.8291 C   0  0  0  0  0  0  0  0  0  0  0  0
  128.5410  136.1376  160.7958 C   0  0  0  0  0  0  0  0  0  0  0  0
  127.3473  135.1381  163.6714 C   0  0  0  0  0  0  0  0  0  0  0  0
  127.7410  135.3408  164.9763 C   0  0  0  0  0  0  0  0  0  0  0  0
  128.2207  138.0046  167.4209 N   0  0  0  0  0  0  0  0  0  0  0  0
  130.8623  143.3717  170.3403 H   0  0  0  0  0  0  0  0  0  0  0  0
  130.8510  144.1776  168.7531 H   0  0  0  0  0  0  0  0  0  0  0  0
  129.7031  144.6831  170.0162 H   0  0  0  0  0  0  0  0  0  0  0  0
  129.4126  142.5498  166.5119 H   0  0  0  0  0  0  0  0  0  0  0  0
  131.1340  142.0048  166.7136 H   0  0  0  0  0  0  0  0  0  0  0  0
  130.4542  139.6625  166.9782 H   0  0  0  0  0  0  0  0  0  0  0  0
  128.9977  140.1829  166.0248 H   0  0  0  0  0  0  0  0  0  0  0  0
  129.2045  139.6114  170.0369 H   0  0  0  0  0  0  0  0  0  0  0  0
  128.9660  137.2726  170.5806 H   0  0  0  0  0  0  0  0  0  0  0  0
  127.7107  134.7140  167.5541 H   0  0  0  0  0  0  0  0  0  0  0  0
  126.6127  138.5151  165.3865 H   0  0  0  0  0  0  0  0  0  0  0  0
  125.9207  138.1491  163.0566 H   0  0  0  0  0  0  0  0  0  0  0  0
  125.3551  136.0019  161.4170 H   0  0  0  0  0  0  0  0  0  0  0  0
  125.8984  134.4689  159.4969 H   0  0  0  0  0  0  0  0  0  0  0  0
  127.5742  133.9566  157.7695 H   0  0  0  0  0  0  0  0  0  0  0  0
  130.8075  135.3911  157.5709 H   0  0  0  0  0  0  0  0  0  0  0  0
  128.5708  131.0474  156.3309 H   0  0  0  0  0  0  0  0  0  0  0  0
  130.1914  130.5823  156.9413 H   0  0  0  0  0  0  0  0  0  0  0  0
  129.5510  132.0652  154.5036 H   0  0  0  0  0  0  0  0  0  0  0  0
  131.1714  131.6012  155.1114 H   0  0  0  0  0  0  0  0  0  0  0  0
  130.8515  134.1701  155.2888 H   0  0  0  0  0  0  0  0  0  0  0  0
  130.4880  136.2281  159.9215 H   0  0  0  0  0  0  0  0  0  0  0  0
  128.8101  136.7490  161.6443 H   0  0  0  0  0  0  0  0  0  0  0  0
  127.5483  134.1935  163.1878 H   0  0  0  0  0  0  0  0  0  0  0  0
  128.2507  134.5559  165.5153 H   0  0  0  0  0  0  0  0  0  0  0  0
  1  2  1  0
  1 36  1  0
  1 37  1  0
  1 38  1  0
  2  3  1  0
  3  4  1  1
  3  7  1  0
  3  5  1  0
  5  6  1  0
  5 39  1  0
  5 40  1  0
  6  7  1  0
  6 41  1  0
  6 42  1  0
  7  8  1  6
  7  9  1  0
  9 10  1  0
  9 43  1  0
 10 35  1  0
 10 11  2  0
 11 12  1  0
 11 44  1  0
 12 13  2  0
 13 14  1  0
 13 45  1  0
 14 15  1  0
 14 35  2  0
 15 34  1  0
 15 16  2  0
 16 17  1  0
 16 46  1  0
 17 18  2  0
 17 47  1  0
 18 19  1  0
 18 33  1  0
 19 20  1  0
 19 48  1  0
 20 32  1  0
 20 21  2  0
 21 22  1  0
 21 49  1  0
 22 23  2  0
 22 50  1  0
 23 24  1  0
 23 31  1  0
 24 25  1  0
 24 51  1  0
 25 30  2  0
 25 26  1  0
 26 27  1  0
 26 28  1  0
 28 29  1  0
 28 52  1  0
 28 53  1  0
 29 30  1  0
 29 54  1  0
 29 55  1  0
 30 56  1  0
 31 32  2  0
 31 57  1  0
 32 58  1  0
 33 34  2  0
 33 59  1  0
 34 60  1  0
M  CHG  1  30   1
M  END
>  <DOCK_score>  (1) 
-45.873001

>  <SMILES>  (1) 
CO[C@@H]1CC[C@H]1Nc1cncc(-c2ccc(Nc3ccc(NC4=[NH+]CCN4)cc3)cc2)n1

$$$$
