C[NH+](CC(=O)N[C@@H]1COc2ccccc2C1)C1c2ccccc2-c2ccc(O)cc21
     RDKit          3D

 55 59  0  0  1  0  0  0  0  0999 V2000
  129.3017  136.5445  158.3494 C   0  0  0  0  0  0  0  0  0  0  0  0
  129.8459  135.1938  158.5442 N   0  0  1  0  0  0  0  0  0  0  0  0
  130.7128  135.1041  158.0357 H   0  0  0  0  0  0  0  0  0  0  0  0
  130.0912  134.9663  159.9746 C   0  0  0  0  0  0  0  0  0  0  0  0
  131.3908  135.6180  160.3712 C   0  0  0  0  0  0  0  0  0  0  0  0
  132.4283  134.9937  160.3016 O   0  0  0  0  0  0  0  0  0  0  0  0
  131.4002  136.8946  160.8035 N   0  0  0  0  0  0  0  0  0  0  0  0
  132.6635  137.5280  161.1892 C   0  0  2  0  0  0  0  0  0  0  0  0
  133.3505  136.7744  161.5742 H   0  0  0  0  0  0  0  0  0  0  0  0
  132.4026  138.5882  162.2669 C   0  0  0  0  0  0  0  0  0  0  0  0
  133.6595  139.1140  162.6951 O   0  0  0  0  0  0  0  0  0  0  0  0
  134.5418  139.5098  161.7410 C   0  0  0  0  0  0  0  0  0  0  0  0
  135.5905  140.3454  162.1121 C   0  0  0  0  0  0  0  0  0  0  0  0
  136.5093  140.7656  161.1724 C   0  0  0  0  0  0  0  0  0  0  0  0
  136.3853  140.3606  159.8560 C   0  0  0  0  0  0  0  0  0  0  0  0
  135.3410  139.5377  159.4826 C   0  0  0  0  0  0  0  0  0  0  0  0
  134.4150  139.1135  160.4212 C   0  0  0  0  0  0  0  0  0  0  0  0
  133.2856  138.2204  159.9741 C   0  0  0  0  0  0  0  0  0  0  0  0
  128.8826  134.2017  158.0487 C   0  0  1  0  0  0  0  0  0  0  0  0
  129.5619  132.8673  157.8599 C   0  0  0  0  0  0  0  0  0  0  0  0
  130.6115  132.4676  157.0599 C   0  0  0  0  0  0  0  0  0  0  0  0
  131.0396  131.1523  157.0849 C   0  0  0  0  0  0  0  0  0  0  0  0
  130.4164  130.2355  157.9126 C   0  0  0  0  0  0  0  0  0  0  0  0
  129.3661  130.6265  158.7164 C   0  0  0  0  0  0  0  0  0  0  0  0
  128.9284  131.9523  158.6961 C   0  0  0  0  0  0  0  0  0  0  0  0
  127.8420  132.6339  159.4424 C   0  0  0  0  0  0  0  0  0  0  0  0
  126.9340  132.1515  160.3876 C   0  0  0  0  0  0  0  0  0  0  0  0
  126.0030  133.0004  160.9458 C   0  0  0  0  0  0  0  0  0  0  0  0
  125.9639  134.3370  160.5721 C   0  0  0  0  0  0  0  0  0  0  0  0
  125.0451  135.1710  161.1258 O   0  0  0  0  0  0  0  0  0  0  0  0
  126.8647  134.8214  159.6328 C   0  0  0  0  0  0  0  0  0  0  0  0
  127.7966  133.9755  159.0719 C   0  0  0  0  0  0  0  0  0  0  0  0
  129.0336  136.6805  157.3018 H   0  0  0  0  0  0  0  0  0  0  0  0
  128.4153  136.6721  158.9708 H   0  0  0  0  0  0  0  0  0  0  0  0
  130.0524  137.2827  158.6312 H   0  0  0  0  0  0  0  0  0  0  0  0
  130.1483  133.8951  160.1675 H   0  0  0  0  0  0  0  0  0  0  0  0
  129.2763  135.3974  160.5561 H   0  0  0  0  0  0  0  0  0  0  0  0
  130.5704  137.3939  160.8592 H   0  0  0  0  0  0  0  0  0  0  0  0
  131.7911  139.3898  161.8528 H   0  0  0  0  0  0  0  0  0  0  0  0
  131.8877  138.1327  163.1129 H   0  0  0  0  0  0  0  0  0  0  0  0
  135.6883  140.6627  163.1397 H   0  0  0  0  0  0  0  0  0  0  0  0
  137.3247  141.4108  161.4648 H   0  0  0  0  0  0  0  0  0  0  0  0
  137.1047  140.6880  159.1201 H   0  0  0  0  0  0  0  0  0  0  0  0
  135.2460  139.2231  158.4538 H   0  0  0  0  0  0  0  0  0  0  0  0
  132.5270  138.8197  159.4704 H   0  0  0  0  0  0  0  0  0  0  0  0
  133.6691  137.4681  159.2849 H   0  0  0  0  0  0  0  0  0  0  0  0
  128.4485  134.5382  157.1072 H   0  0  0  0  0  0  0  0  0  0  0  0
  131.0993  133.1818  156.4130 H   0  0  0  0  0  0  0  0  0  0  0  0
  131.8619  130.8409  156.4578 H   0  0  0  0  0  0  0  0  0  0  0  0
  130.7541  129.2098  157.9297 H   0  0  0  0  0  0  0  0  0  0  0  0
  128.8827  129.9076  159.3615 H   0  0  0  0  0  0  0  0  0  0  0  0
  126.9612  131.1124  160.6809 H   0  0  0  0  0  0  0  0  0  0  0  0
  125.3020  132.6250  161.6767 H   0  0  0  0  0  0  0  0  0  0  0  0
  125.0955  136.0812  160.8035 H   0  0  0  0  0  0  0  0  0  0  0  0
  126.8345  135.8610  159.3418 H   0  0  0  0  0  0  0  0  0  0  0  0
  1  2  1  0
  1 33  1  0
  1 34  1  0
  1 35  1  0
  2  3  1  6
  2  4  1  0
  2 19  1  0
  4  5  1  0
  4 36  1  0
  4 37  1  0
  5  6  2  0
  5  7  1  0
  7  8  1  0
  7 38  1  0
  8  9  1  1
  8 18  1  0
  8 10  1  0
 10 11  1  0
 10 39  1  0
 10 40  1  0
 11 12  1  0
 12 17  2  0
 12 13  1  0
 13 14  2  0
 13 41  1  0
 14 15  1  0
 14 42  1  0
 15 16  2  0
 15 43  1  0
 16 17  1  0
 16 44  1  0
 17 18  1  0
 18 45  1  0
 18 46  1  0
 19 32  1  0
 19 20  1  0
 19 47  1  6
 20 25  1  0
 20 21  2  0
 21 22  1  0
 21 48  1  0
 22 23  2  0
 22 49  1  0
 23 24  1  0
 23 50  1  0
 24 25  2  0
 24 51  1  0
 25 26  1  0
 26 32  2  0
 26 27  1  0
 27 28  2  0
 27 52  1  0
 28 29  1  0
 28 53  1  0
 29 30  1  0
 29 31  2  0
 30 54  1  0
 31 32  1  0
 31 55  1  0
M  CHG  1   2   1
M  END
>  <DOCK_score>  (1) 
-50.772003

>  <SMILES>  (1) 
C[NH+](CC(=O)N[C@@H]1COc2ccccc2C1)C1c2ccccc2-c2ccc(O)cc21

$$$$
