O=C1CC[C@H]([NH+]=C(NC2CC=CC2)N[C@H]2CC[C@H](NC3=C(Cl)C(Cl)=C(Cl)C3)CC2)CN1
     RDKit          3D

 62 65  0  0  1  0  0  0  0  0999 V2000
  124.1126  133.6411  160.8654 O   0  0  0  0  0  0  0  0  0  0  0  0
  125.2769  133.9017  160.6472 C   0  0  0  0  0  0  0  0  0  0  0  0
  126.1522  132.8218  160.0788 C   0  0  0  0  0  0  0  0  0  0  0  0
  127.6253  133.1840  160.2833 C   0  0  0  0  0  0  0  0  0  0  0  0
  127.8395  134.6274  159.8117 C   0  0  2  0  0  0  0  0  0  0  0  0
  127.4517  134.7427  158.7995 H   0  0  0  0  0  0  0  0  0  0  0  0
  129.2691  134.9466  159.8295 N   0  0  0  0  0  0  0  0  0  0  0  0
  129.5971  135.6728  160.3827 H   0  0  0  0  0  0  0  0  0  0  0  0
  130.1005  134.2550  159.1019 C   0  0  0  0  0  0  0  0  0  0  0  0
  129.6776  133.6947  157.9198 N   0  0  0  0  0  0  0  0  0  0  0  0
  130.6120  132.9172  157.1021 C   0  0  0  0  0  0  0  0  0  0  0  0
  130.1411  132.8531  155.6306 C   0  0  0  0  0  0  0  0  0  0  0  0
  130.4968  131.4573  155.1740 C   0  0  0  0  0  0  0  0  0  0  0  0
  130.7389  130.6772  156.1922 C   0  0  0  0  0  0  0  0  0  0  0  0
  130.5849  131.4226  157.4975 C   0  0  0  0  0  0  0  0  0  0  0  0
  131.4004  134.0858  159.5166 N   0  0  0  0  0  0  0  0  0  0  0  0
  131.8508  134.6829  160.7762 C   0  0  1  0  0  0  0  0  0  0  0  0
  131.0134  134.7397  161.4715 H   0  0  0  0  0  0  0  0  0  0  0  0
  132.9592  133.8197  161.3823 C   0  0  0  0  0  0  0  0  0  0  0  0
  133.4297  134.4433  162.6978 C   0  0  0  0  0  0  0  0  0  0  0  0
  133.9676  135.8507  162.4313 C   0  0  2  0  0  0  0  0  0  0  0  0
  134.8051  135.7940  161.7361 H   0  0  0  0  0  0  0  0  0  0  0  0
  134.4182  136.4478  163.6910 N   0  0  0  0  0  0  0  0  0  0  0  0
  135.6561  136.1111  164.2133 C   0  0  0  0  0  0  0  0  0  0  0  0
  136.1972  136.5733  165.3473 C   0  0  0  0  0  0  0  0  0  0  0  0
  135.4379  137.7143  166.4129 Cl  0  0  0  0  0  0  0  0  0  0  0  0
  137.5181  135.9826  165.5625 C   0  0  0  0  0  0  0  0  0  0  0  0
  138.5435  136.3250  166.9210 Cl  0  0  0  0  0  0  0  0  0  0  0  0
  137.8255  135.1456  164.5737 C   0  0  0  0  0  0  0  0  0  0  0  0
  139.2888  134.2249  164.4168 Cl  0  0  0  0  0  0  0  0  0  0  0  0
  136.6550  135.1451  163.6162 C   0  0  0  0  0  0  0  0  0  0  0  0
  132.8593  136.7140  161.8253 C   0  0  0  0  0  0  0  0  0  0  0  0
  132.3887  136.0904  160.5099 C   0  0  0  0  0  0  0  0  0  0  0  0
  127.0919  135.5677  160.7579 C   0  0  0  0  0  0  0  0  0  0  0  0
  125.7127  135.1268  160.9245 N   0  0  0  0  0  0  0  0  0  0  0  0
  125.9501  132.7153  159.0130 H   0  0  0  0  0  0  0  0  0  0  0  0
  125.9378  131.8793  160.5826 H   0  0  0  0  0  0  0  0  0  0  0  0
  128.2532  132.5104  159.7002 H   0  0  0  0  0  0  0  0  0  0  0  0
  127.8809  133.1015  161.3397 H   0  0  0  0  0  0  0  0  0  0  0  0
  128.7605  133.8142  157.6273 H   0  0  0  0  0  0  0  0  0  0  0  0
  131.6214  133.3226  157.1731 H   0  0  0  0  0  0  0  0  0  0  0  0
  129.0641  133.0096  155.5693 H   0  0  0  0  0  0  0  0  0  0  0  0
  130.6682  133.5949  155.0305 H   0  0  0  0  0  0  0  0  0  0  0  0
  130.5448  131.1461  154.1410 H   0  0  0  0  0  0  0  0  0  0  0  0
  131.0128  129.6356  156.1122 H   0  0  0  0  0  0  0  0  0  0  0  0
  131.4137  131.1918  158.1666 H   0  0  0  0  0  0  0  0  0  0  0  0
  129.6342  131.1716  157.9682 H   0  0  0  0  0  0  0  0  0  0  0  0
  132.0191  133.5712  158.9753 H   0  0  0  0  0  0  0  0  0  0  0  0
  132.5761  132.8171  161.5721 H   0  0  0  0  0  0  0  0  0  0  0  0
  133.7968  133.7630  160.6870 H   0  0  0  0  0  0  0  0  0  0  0  0
  132.5922  134.5000  163.3930 H   0  0  0  0  0  0  0  0  0  0  0  0
  134.2193  133.8282  163.1295 H   0  0  0  0  0  0  0  0  0  0  0  0
  133.8497  137.0791  164.1592 H   0  0  0  0  0  0  0  0  0  0  0  0
  136.2215  134.1475  163.5463 H   0  0  0  0  0  0  0  0  0  0  0  0
  136.9733  135.4899  162.6323 H   0  0  0  0  0  0  0  0  0  0  0  0
  132.0217  136.7707  162.5206 H   0  0  0  0  0  0  0  0  0  0  0  0
  133.2425  137.7166  161.6355 H   0  0  0  0  0  0  0  0  0  0  0  0
  133.2264  136.0337  159.8146 H   0  0  0  0  0  0  0  0  0  0  0  0
  131.5992  136.7054  160.0781 H   0  0  0  0  0  0  0  0  0  0  0  0
  127.5884  135.5720  161.7282 H   0  0  0  0  0  0  0  0  0  0  0  0
  127.1002  136.5762  160.3444 H   0  0  0  0  0  0  0  0  0  0  0  0
  125.0675  135.7688  161.2600 H   0  0  0  0  0  0  0  0  0  0  0  0
  1  2  2  0
  2 35  1  0
  2  3  1  0
  3  4  1  0
  3 36  1  0
  3 37  1  0
  4  5  1  0
  4 38  1  0
  4 39  1  0
  5  6  1  6
  5  7  1  0
  5 34  1  0
  7  8  1  0
  9  7  2  0
  9 10  1  0
  9 16  1  0
 10 11  1  0
 10 40  1  0
 11 15  1  0
 11 12  1  0
 11 41  1  0
 12 13  1  0
 12 42  1  0
 12 43  1  0
 13 14  2  0
 13 44  1  0
 14 15  1  0
 14 45  1  0
 15 46  1  0
 15 47  1  0
 16 17  1  0
 16 48  1  0
 17 18  1  1
 17 33  1  0
 17 19  1  0
 19 20  1  0
 19 49  1  0
 19 50  1  0
 20 21  1  0
 20 51  1  0
 20 52  1  0
 21 22  1  6
 21 23  1  0
 21 32  1  0
 23 24  1  0
 23 53  1  0
 24 31  1  0
 24 25  2  0
 25 26  1  0
 25 27  1  0
 27 28  1  0
 27 29  2  0
 29 30  1  0
 29 31  1  0
 31 54  1  0
 31 55  1  0
 32 33  1  0
 32 56  1  0
 32 57  1  0
 33 58  1  0
 33 59  1  0
 34 35  1  0
 34 60  1  0
 34 61  1  0
 35 62  1  0
M  CHG  1   7   1
M  END
>  <DOCK_score>  (1) 
-47.932152

>  <SMILES>  (1) 
O=C1CC[C@H]([NH+]=C(NC2CC=CC2)N[C@H]2CC[C@H](NC3=C(Cl)C(Cl)=C(Cl)C3)CC2)CN1

$$$$
