Nc1ccc(-c2c[nH]c(Nc3cc(C4CCCCC4)c(O)cc3F)[nH+]2)cc1
     RDKit          3D

 51 54  0  0  1  0  0  0  0  0999 V2000
  131.1601  129.0572  151.9769 N   0  0  0  0  0  0  0  0  0  0  0  0
  130.9009  129.8472  153.0995 C   0  0  0  0  0  0  0  0  0  0  0  0
  130.0129  130.9131  153.0079 C   0  0  0  0  0  0  0  0  0  0  0  0
  129.7552  131.6939  154.1149 C   0  0  0  0  0  0  0  0  0  0  0  0
  130.3857  131.4139  155.3261 C   0  0  0  0  0  0  0  0  0  0  0  0
  130.1104  132.2529  156.5182 C   0  0  0  0  0  0  0  0  0  0  0  0
  129.5863  131.8229  157.6927 C   0  0  0  0  0  0  0  0  0  0  0  0
  129.5002  132.9200  158.5163 N   0  0  0  0  0  0  0  0  0  0  0  0
  129.1635  132.9307  159.4259 H   0  0  0  0  0  0  0  0  0  0  0  0
  129.9749  133.9886  157.8195 C   0  0  0  0  0  0  0  0  0  0  0  0
  130.0598  135.2872  158.2931 N   0  0  0  0  0  0  0  0  0  0  0  0
  129.1393  135.7479  159.2440 C   0  0  0  0  0  0  0  0  0  0  0  0
  129.5136  136.7243  160.1569 C   0  0  0  0  0  0  0  0  0  0  0  0
  128.6074  137.1747  161.0972 C   0  0  0  0  0  0  0  0  0  0  0  0
  129.0162  138.2310  162.0912 C   0  0  0  0  0  0  0  0  0  0  0  0
  130.4726  138.6287  161.8428 C   0  0  0  0  0  0  0  0  0  0  0  0
  130.8877  139.7012  162.8519 C   0  0  0  0  0  0  0  0  0  0  0  0
  130.7450  139.1483  164.2713 C   0  0  0  0  0  0  0  0  0  0  0  0
  129.2886  138.7506  164.5198 C   0  0  0  0  0  0  0  0  0  0  0  0
  128.8735  137.6781  163.5107 C   0  0  0  0  0  0  0  0  0  0  0  0
  127.3216  136.6551  161.1274 C   0  0  0  0  0  0  0  0  0  0  0  0
  126.4312  137.0991  162.0544 O   0  0  0  0  0  0  0  0  0  0  0  0
  126.9436  135.6829  160.2133 C   0  0  0  0  0  0  0  0  0  0  0  0
  127.8488  135.2308  159.2710 C   0  0  0  0  0  0  0  0  0  0  0  0
  127.4815  134.2836  158.3806 F   0  0  0  0  0  0  0  0  0  0  0  0
  130.3332  133.5866  156.6242 N   0  0  0  0  0  0  0  0  0  0  0  0
  130.7010  134.1523  155.9274 H   0  0  0  0  0  0  0  0  0  0  0  0
  131.2796  130.3479  155.4140 C   0  0  0  0  0  0  0  0  0  0  0  0
  131.5304  129.5665  154.3060 C   0  0  0  0  0  0  0  0  0  0  0  0
  130.7206  129.2528  151.1343 H   0  0  0  0  0  0  0  0  0  0  0  0
  131.7793  128.3137  152.0396 H   0  0  0  0  0  0  0  0  0  0  0  0
  129.5250  131.1299  152.0691 H   0  0  0  0  0  0  0  0  0  0  0  0
  129.0652  132.5216  154.0434 H   0  0  0  0  0  0  0  0  0  0  0  0
  129.2924  130.8122  157.9346 H   0  0  0  0  0  0  0  0  0  0  0  0
  130.7566  135.8778  157.9665 H   0  0  0  0  0  0  0  0  0  0  0  0
  130.5147  137.1289  160.1346 H   0  0  0  0  0  0  0  0  0  0  0  0
  128.3761  139.1057  161.9758 H   0  0  0  0  0  0  0  0  0  0  0  0
  131.1128  137.7540  161.9582 H   0  0  0  0  0  0  0  0  0  0  0  0
  130.5743  139.0225  160.8316 H   0  0  0  0  0  0  0  0  0  0  0  0
  130.2476  140.5758  162.7366 H   0  0  0  0  0  0  0  0  0  0  0  0
  131.9252  139.9845  162.6750 H   0  0  0  0  0  0  0  0  0  0  0  0
  131.0407  139.9123  164.9903 H   0  0  0  0  0  0  0  0  0  0  0  0
  131.3852  138.2737  164.3868 H   0  0  0  0  0  0  0  0  0  0  0  0
  128.6484  139.6254  164.4045 H   0  0  0  0  0  0  0  0  0  0  0  0
  129.1868  138.3568  165.5311 H   0  0  0  0  0  0  0  0  0  0  0  0
  127.8360  137.3949  163.6877 H   0  0  0  0  0  0  0  0  0  0  0  0
  129.5136  136.8036  163.6261 H   0  0  0  0  0  0  0  0  0  0  0  0
  125.5620  136.6793  161.9975 H   0  0  0  0  0  0  0  0  0  0  0  0
  125.9422  135.2792  160.2373 H   0  0  0  0  0  0  0  0  0  0  0  0
  131.7727  130.1319  156.3504 H   0  0  0  0  0  0  0  0  0  0  0  0
  132.2201  128.7382  154.3746 H   0  0  0  0  0  0  0  0  0  0  0  0
  1  2  1  0
  1 30  1  0
  1 31  1  0
  2 29  2  0
  2  3  1  0
  3  4  2  0
  3 32  1  0
  4  5  1  0
  4 33  1  0
  5  6  1  0
  5 28  2  0
  6 26  1  0
  6  7  2  0
  7  8  1  0
  7 34  1  0
  8  9  1  0
  8 10  1  0
 10 11  1  0
 10 26  2  0
 11 12  1  0
 11 35  1  0
 12 24  1  0
 12 13  2  0
 13 14  1  0
 13 36  1  0
 14 15  1  0
 14 21  2  0
 15 20  1  0
 15 16  1  0
 15 37  1  0
 16 17  1  0
 16 38  1  0
 16 39  1  0
 17 18  1  0
 17 40  1  0
 17 41  1  0
 18 19  1  0
 18 42  1  0
 18 43  1  0
 19 20  1  0
 19 44  1  0
 19 45  1  0
 20 46  1  0
 20 47  1  0
 21 22  1  0
 21 23  1  0
 22 48  1  0
 23 24  2  0
 23 49  1  0
 24 25  1  0
 26 27  1  0
 28 29  1  0
 28 50  1  0
 29 51  1  0
M  CHG  1  26   1
M  END
>  <DOCK_score>  (1) 
-52.987198

>  <SMILES>  (1) 
Nc1ccc(-c2c[nH]c(Nc3cc(C4CCCCC4)c(O)cc3F)[nH+]2)cc1

$$$$
