CCc1ccc(-c2c[nH]c(Nc3ccncc3/C3=C/CC/C=C\CC3)[nH+]2)cc1
     RDKit          3D

 55 58  0  0  1  0  0  0  0  0999 V2000
  130.4011  128.5794  151.7845 C   0  0  0  0  0  0  0  0  0  0  0  0
  131.5215  129.5667  152.1170 C   0  0  0  0  0  0  0  0  0  0  0  0
  131.1561  130.3432  153.3558 C   0  0  0  0  0  0  0  0  0  0  0  0
  131.5202  129.8661  154.6012 C   0  0  0  0  0  0  0  0  0  0  0  0
  131.1920  130.5758  155.7385 C   0  0  0  0  0  0  0  0  0  0  0  0
  130.4823  131.7704  155.6305 C   0  0  0  0  0  0  0  0  0  0  0  0
  130.1212  132.5346  156.8494 C   0  0  0  0  0  0  0  0  0  0  0  0
  129.3501  132.0884  157.8723 C   0  0  0  0  0  0  0  0  0  0  0  0
  129.2739  133.1082  158.7883 N   0  0  0  0  0  0  0  0  0  0  0  0
  128.7924  133.0895  159.6302 H   0  0  0  0  0  0  0  0  0  0  0  0
  129.9940  134.1523  158.2944 C   0  0  0  0  0  0  0  0  0  0  0  0
  130.1654  135.3797  158.9146 N   0  0  0  0  0  0  0  0  0  0  0  0
  129.1725  135.8819  159.7491 C   0  0  0  0  0  0  0  0  0  0  0  0
  127.8313  135.5743  159.5318 C   0  0  0  0  0  0  0  0  0  0  0  0
  126.8762  136.0871  160.3848 C   0  0  0  0  0  0  0  0  0  0  0  0
  127.2110  136.8711  161.3935 N   0  0  0  0  0  0  0  0  0  0  0  0
  128.4638  137.1975  161.6400 C   0  0  0  0  0  0  0  0  0  0  0  0
  129.4939  136.7198  160.8327 C   0  0  0  0  0  0  0  0  0  0  0  0
  130.9014  137.0873  161.1102 C   0  0  0  0  0  0  0  0  0  0  0  0
  131.5639  137.7491  160.1607 C   0  0  0  0  0  0  0  0  0  0  0  0
  132.9933  138.1424  160.3702 C   0  0  0  0  0  0  0  0  0  0  0  0
  133.9781  137.0524  160.0177 C   0  0  0  0  0  0  0  0  0  0  0  0
  133.3835  135.6903  159.9780 C   0  0  0  0  0  0  0  0  0  0  0  0
  132.8103  135.1764  161.0368 C   0  0  0  0  0  0  0  0  0  0  0  0
  132.7750  135.9353  162.3343 C   0  0  0  0  0  0  0  0  0  0  0  0
  131.4689  136.7058  162.4280 C   0  0  0  0  0  0  0  0  0  0  0  0
  130.4987  133.8054  157.1357 N   0  0  0  0  0  0  0  0  0  0  0  0
  131.0538  134.3675  156.5730 H   0  0  0  0  0  0  0  0  0  0  0  0
  130.1126  132.2441  154.3728 C   0  0  0  0  0  0  0  0  0  0  0  0
  130.4509  131.5287  153.2423 C   0  0  0  0  0  0  0  0  0  0  0  0
  130.2645  127.8907  152.6183 H   0  0  0  0  0  0  0  0  0  0  0  0
  130.6659  128.0175  150.8888 H   0  0  0  0  0  0  0  0  0  0  0  0
  129.4747  129.1264  151.6097 H   0  0  0  0  0  0  0  0  0  0  0  0
  132.4479  129.0198  152.2918 H   0  0  0  0  0  0  0  0  0  0  0  0
  131.6581  130.2555  151.2832 H   0  0  0  0  0  0  0  0  0  0  0  0
  132.0664  128.9380  154.6840 H   0  0  0  0  0  0  0  0  0  0  0  0
  131.4808  130.2040  156.7105 H   0  0  0  0  0  0  0  0  0  0  0  0
  128.8869  131.1160  157.9520 H   0  0  0  0  0  0  0  0  0  0  0  0
  130.9778  135.8885  158.7668 H   0  0  0  0  0  0  0  0  0  0  0  0
  127.5431  134.9384  158.7078 H   0  0  0  0  0  0  0  0  0  0  0  0
  125.8359  135.8475  160.2219 H   0  0  0  0  0  0  0  0  0  0  0  0
  128.6940  137.8418  162.4755 H   0  0  0  0  0  0  0  0  0  0  0  0
  131.0664  138.0029  159.2335 H   0  0  0  0  0  0  0  0  0  0  0  0
  133.1344  138.4163  161.4138 H   0  0  0  0  0  0  0  0  0  0  0  0
  133.2081  139.0132  159.7505 H   0  0  0  0  0  0  0  0  0  0  0  0
  134.7829  137.0604  160.7498 H   0  0  0  0  0  0  0  0  0  0  0  0
  134.3982  137.2739  159.0370 H   0  0  0  0  0  0  0  0  0  0  0  0
  133.4127  135.1237  159.0593 H   0  0  0  0  0  0  0  0  0  0  0  0
  132.3590  134.1957  160.9760 H   0  0  0  0  0  0  0  0  0  0  0  0
  133.6186  136.6240  162.3882 H   0  0  0  0  0  0  0  0  0  0  0  0
  132.8419  135.2303  163.1684 H   0  0  0  0  0  0  0  0  0  0  0  0
  131.6359  137.6130  163.0139 H   0  0  0  0  0  0  0  0  0  0  0  0
  130.7365  136.0915  162.9590 H   0  0  0  0  0  0  0  0  0  0  0  0
  129.5623  133.1689  154.2834 H   0  0  0  0  0  0  0  0  0  0  0  0
  130.1646  131.8945  152.2673 H   0  0  0  0  0  0  0  0  0  0  0  0
  1  2  1  0
  1 31  1  0
  1 32  1  0
  1 33  1  0
  2  3  1  0
  2 34  1  0
  2 35  1  0
  3 30  2  0
  3  4  1  0
  4  5  2  0
  4 36  1  0
  5  6  1  0
  5 37  1  0
  6  7  1  0
  6 29  2  0
  7 27  1  0
  7  8  2  0
  8  9  1  0
  8 38  1  0
  9 10  1  0
  9 11  1  0
 11 12  1  0
 11 27  2  0
 12 13  1  0
 12 39  1  0
 13 18  1  0
 13 14  2  0
 14 15  1  0
 14 40  1  0
 15 16  2  0
 15 41  1  0
 16 17  1  0
 17 18  2  0
 17 42  1  0
 18 19  1  0
 19 26  1  0
 19 20  2  0
 20 21  1  0
 20 43  1  0
 21 22  1  0
 21 44  1  0
 21 45  1  0
 22 23  1  0
 22 46  1  0
 22 47  1  0
 23 24  2  0
 23 48  1  0
 24 25  1  0
 24 49  1  0
 25 26  1  0
 25 50  1  0
 25 51  1  0
 26 52  1  0
 26 53  1  0
 27 28  1  0
 29 30  1  0
 29 54  1  0
 30 55  1  0
M  CHG  1  27   1
M  END
>  <DOCK_score>  (1) 
-60.157894

>  <SMILES>  (1) 
CCc1ccc(-c2c[nH]c(Nc3ccncc3/C3=C/CC/C=C\CC3)[nH+]2)cc1

$$$$
