Cc1c[nH]c(Nc2ccc(O)cc2I)[nH+]1
     RDKit          3D

 26 27  0  0  1  0  0  0  0  0999 V2000
  131.5102  130.8314  156.7294 C   0  0  0  0  0  0  0  0  0  0  0  0
  130.7903  131.8035  157.6283 C   0  0  0  0  0  0  0  0  0  0  0  0
  129.8093  131.4963  158.4940 C   0  0  0  0  0  0  0  0  0  0  0  0
  129.4343  132.6694  159.1084 N   0  0  0  0  0  0  0  0  0  0  0  0
  128.7493  132.7717  159.7874 H   0  0  0  0  0  0  0  0  0  0  0  0
  130.2107  133.6576  158.5868 C   0  0  0  0  0  0  0  0  0  0  0  0
  130.1566  134.9983  158.9321 N   0  0  0  0  0  0  0  0  0  0  0  0
  129.2419  135.4361  159.8978 C   0  0  0  0  0  0  0  0  0  0  0  0
  129.6084  135.4702  161.2370 C   0  0  0  0  0  0  0  0  0  0  0  0
  128.7060  135.9025  162.1886 C   0  0  0  0  0  0  0  0  0  0  0  0
  127.4335  136.3029  161.8076 C   0  0  0  0  0  0  0  0  0  0  0  0
  126.5458  136.7288  162.7454 O   0  0  0  0  0  0  0  0  0  0  0  0
  127.0663  136.2693  160.4706 C   0  0  0  0  0  0  0  0  0  0  0  0
  127.9694  135.8420  159.5163 C   0  0  0  0  0  0  0  0  0  0  0  0
  127.4174  135.7988  157.4958 I   0  0  0  0  0  0  0  0  0  0  0  0
  131.0192  133.1254  157.7008 N   0  0  0  0  0  0  0  0  0  0  0  0
  131.6787  133.6102  157.1803 H   0  0  0  0  0  0  0  0  0  0  0  0
  132.3835  130.4356  157.2477 H   0  0  0  0  0  0  0  0  0  0  0  0
  130.8398  130.0123  156.4692 H   0  0  0  0  0  0  0  0  0  0  0  0
  131.8279  131.3434  155.8211 H   0  0  0  0  0  0  0  0  0  0  0  0
  129.3946  130.5155  158.6740 H   0  0  0  0  0  0  0  0  0  0  0  0
  130.7521  135.6336  158.5050 H   0  0  0  0  0  0  0  0  0  0  0  0
  130.5990  135.1590  161.5339 H   0  0  0  0  0  0  0  0  0  0  0  0
  128.9911  135.9293  163.2299 H   0  0  0  0  0  0  0  0  0  0  0  0
  125.6863  136.9868  162.3852 H   0  0  0  0  0  0  0  0  0  0  0  0
  126.0754  136.5808  160.1748 H   0  0  0  0  0  0  0  0  0  0  0  0
  1  2  1  0
  1 18  1  0
  1 19  1  0
  1 20  1  0
  2 16  1  0
  2  3  2  0
  3  4  1  0
  3 21  1  0
  4  5  1  0
  4  6  1  0
  6  7  1  0
  6 16  2  0
  7  8  1  0
  7 22  1  0
  8 14  1  0
  8  9  2  0
  9 10  1  0
  9 23  1  0
 10 11  2  0
 10 24  1  0
 11 12  1  0
 11 13  1  0
 12 25  1  0
 13 14  2  0
 13 26  1  0
 14 15  1  0
 16 17  1  0
M  CHG  1  16   1
M  END
>  <DOCK_score>  (1) 
-42.039494

>  <SMILES>  (1) 
Cc1c[nH]c(Nc2ccc(O)cc2I)[nH+]1

$$$$
