ClC=CC[NH2+]Cc1c[nH]nc1-c1ccc(N[C@H]2Cc3ccc(-c4cccnc4)cc3C2)o1
     RDKit          3D

 57 61  0  0  1  0  0  0  0  0999 V2000
  135.8262  139.7105  160.0992 Cl  0  0  0  0  0  0  0  0  0  0  0  0
  134.1909  139.1582  160.2832 C   0  0  0  0  0  0  0  0  0  0  0  0
  133.9536  137.9474  160.7279 C   0  0  0  0  0  0  0  0  0  0  0  0
  132.5339  137.4679  160.8875 C   0  0  0  0  0  0  0  0  0  0  0  0
  132.3186  136.2852  160.0432 N   0  0  0  0  0  0  0  0  0  0  0  0
  132.9542  135.5529  160.3217 H   0  0  0  0  0  0  0  0  0  0  0  0
  132.4855  136.5263  159.0777 H   0  0  0  0  0  0  0  0  0  0  0  0
  130.9346  135.8179  160.1988 C   0  0  0  0  0  0  0  0  0  0  0  0
  130.7138  134.6047  159.3326 C   0  0  0  0  0  0  0  0  0  0  0  0
  131.6319  134.0201  158.5335 C   0  0  0  0  0  0  0  0  0  0  0  0
  131.0455  132.9678  157.9227 N   0  0  0  0  0  0  0  0  0  0  0  0
  131.4707  132.3683  157.2895 H   0  0  0  0  0  0  0  0  0  0  0  0
  129.7174  132.8920  158.3611 N   0  0  0  0  0  0  0  0  0  0  0  0
  129.5117  133.8755  159.2149 C   0  0  0  0  0  0  0  0  0  0  0  0
  128.2454  134.1661  159.9185 C   0  0  0  0  0  0  0  0  0  0  0  0
  127.0883  133.4633  159.7983 C   0  0  0  0  0  0  0  0  0  0  0  0
  126.1449  134.0830  160.6414 C   0  0  0  0  0  0  0  0  0  0  0  0
  126.7709  135.1307  161.2331 C   0  0  0  0  0  0  0  0  0  0  0  0
  126.1968  136.0112  162.1428 N   0  0  0  0  0  0  0  0  0  0  0  0
  127.0248  136.6431  163.1730 C   0  0  1  0  0  0  0  0  0  0  0  0
  127.8186  137.2367  162.7196 H   0  0  0  0  0  0  0  0  0  0  0  0
  126.1620  137.5091  164.1151 C   0  0  0  0  0  0  0  0  0  0  0  0
  126.7984  137.3633  165.4813 C   0  0  0  0  0  0  0  0  0  0  0  0
  126.6575  138.1382  166.6222 C   0  0  0  0  0  0  0  0  0  0  0  0
  127.3405  137.8128  167.7746 C   0  0  0  0  0  0  0  0  0  0  0  0
  128.1844  136.7040  167.7902 C   0  0  0  0  0  0  0  0  0  0  0  0
  128.9266  136.3492  169.0252 C   0  0  0  0  0  0  0  0  0  0  0  0
  130.1679  135.7114  168.9492 C   0  0  0  0  0  0  0  0  0  0  0  0
  130.8200  135.4010  170.1300 C   0  0  0  0  0  0  0  0  0  0  0  0
  130.2278  135.7290  171.3362 C   0  0  0  0  0  0  0  0  0  0  0  0
  129.0525  136.3259  171.3763 N   0  0  0  0  0  0  0  0  0  0  0  0
  128.3973  136.6458  170.2790 C   0  0  0  0  0  0  0  0  0  0  0  0
  128.3233  135.9275  166.6433 C   0  0  0  0  0  0  0  0  0  0  0  0
  127.6308  136.2587  165.4930 C   0  0  0  0  0  0  0  0  0  0  0  0
  127.6101  135.5882  164.1357 C   0  0  0  0  0  0  0  0  0  0  0  0
  128.0379  135.1777  160.7876 O   0  0  0  0  0  0  0  0  0  0  0  0
  133.3687  139.8118  160.0314 H   0  0  0  0  0  0  0  0  0  0  0  0
  134.7758  137.2939  160.9795 H   0  0  0  0  0  0  0  0  0  0  0  0
  131.8473  138.2591  160.5866 H   0  0  0  0  0  0  0  0  0  0  0  0
  132.3534  137.2075  161.9304 H   0  0  0  0  0  0  0  0  0  0  0  0
  130.2478  136.6091  159.8978 H   0  0  0  0  0  0  0  0  0  0  0  0
  130.7542  135.5574  161.2417 H   0  0  0  0  0  0  0  0  0  0  0  0
  132.6550  134.3405  158.4027 H   0  0  0  0  0  0  0  0  0  0  0  0
  126.9238  132.5959  159.1761 H   0  0  0  0  0  0  0  0  0  0  0  0
  125.1184  133.7813  160.7884 H   0  0  0  0  0  0  0  0  0  0  0  0
  125.2481  136.2072  162.0954 H   0  0  0  0  0  0  0  0  0  0  0  0
  125.1365  137.1406  164.1342 H   0  0  0  0  0  0  0  0  0  0  0  0
  126.1828  138.5517  163.7976 H   0  0  0  0  0  0  0  0  0  0  0  0
  126.0065  138.9999  166.6090 H   0  0  0  0  0  0  0  0  0  0  0  0
  127.2242  138.4173  168.6619 H   0  0  0  0  0  0  0  0  0  0  0  0
  130.6070  135.4666  167.9933 H   0  0  0  0  0  0  0  0  0  0  0  0
  131.7806  134.9079  170.1097 H   0  0  0  0  0  0  0  0  0  0  0  0
  130.7337  135.4882  172.2596 H   0  0  0  0  0  0  0  0  0  0  0  0
  127.4391  137.1387  170.3523 H   0  0  0  0  0  0  0  0  0  0  0  0
  128.9734  135.0651  166.6516 H   0  0  0  0  0  0  0  0  0  0  0  0
  128.6215  135.3186  163.8315 H   0  0  0  0  0  0  0  0  0  0  0  0
  126.9733  134.7039  164.1603 H   0  0  0  0  0  0  0  0  0  0  0  0
  1  2  1  0
  2  3  2  0
  2 37  1  0
  3  4  1  0
  3 38  1  0
  4  5  1  0
  4 39  1  0
  4 40  1  0
  5  6  1  0
  5  7  1  0
  5  8  1  0
  8  9  1  0
  8 41  1  0
  8 42  1  0
  9 14  1  0
  9 10  2  0
 10 11  1  0
 10 43  1  0
 11 12  1  0
 11 13  1  0
 13 14  2  0
 14 15  1  0
 15 36  1  0
 15 16  2  0
 16 17  1  0
 16 44  1  0
 17 18  2  0
 17 45  1  0
 18 19  1  0
 18 36  1  0
 19 20  1  0
 19 46  1  0
 20 21  1  6
 20 35  1  0
 20 22  1  0
 22 23  1  0
 22 47  1  0
 22 48  1  0
 23 34  2  0
 23 24  1  0
 24 25  2  0
 24 49  1  0
 25 26  1  0
 25 50  1  0
 26 27  1  0
 26 33  2  0
 27 32  1  0
 27 28  2  0
 28 29  1  0
 28 51  1  0
 29 30  2  0
 29 52  1  0
 30 31  1  0
 30 53  1  0
 31 32  2  0
 32 54  1  0
 33 34  1  0
 33 55  1  0
 34 35  1  0
 35 56  1  0
 35 57  1  0
M  CHG  1   5   1
M  END
>  <DOCK_score>  (1) 
-47.978603

>  <SMILES>  (1) 
ClC=CC[NH2+]Cc1c[nH]nc1-c1ccc(N[C@H]2Cc3ccc(-c4cccnc4)cc3C2)o1

$$$$
