C[C@]1(Cl)C[C@@H]([NH+]=C(NC2CC=CC2)N[C@H]2CCC(=O)NC2)C1
     RDKit          3D

 48 50  0  0  1  0  0  0  0  0999 V2000
  133.3693  135.8740  163.0323 C   0  0  0  0  0  0  0  0  0  0  0  0
  133.1286  136.5352  161.6737 C   0  0  2  0  0  0  0  0  0  0  0  0
  134.0992  138.0373  161.4443 Cl  0  0  0  0  0  0  0  0  0  0  0  0
  131.6403  136.7021  161.3247 C   0  0  0  0  0  0  0  0  0  0  0  0
  131.7131  135.3028  160.6906 C   0  0  1  0  0  0  0  0  0  0  0  0
  131.4976  134.4940  161.3887 H   0  0  0  0  0  0  0  0  0  0  0  0
  130.9642  135.1870  159.4369 N   0  0  0  0  0  0  0  0  0  0  0  0
  131.4002  135.3791  158.5920 H   0  0  0  0  0  0  0  0  0  0  0  0
  129.7119  134.8259  159.4568 C   0  0  0  0  0  0  0  0  0  0  0  0
  129.1786  134.1357  158.3941 N   0  0  0  0  0  0  0  0  0  0  0  0
  130.0297  133.2527  157.5928 C   0  0  0  0  0  0  0  0  0  0  0  0
  131.0471  132.5036  158.4845 C   0  0  0  0  0  0  0  0  0  0  0  0
  131.1476  131.1238  157.8767 C   0  0  0  0  0  0  0  0  0  0  0  0
  130.1476  130.8914  157.0706 C   0  0  0  0  0  0  0  0  0  0  0  0
  129.2135  132.0775  157.0063 C   0  0  0  0  0  0  0  0  0  0  0  0
  128.9244  135.1354  160.5405 N   0  0  0  0  0  0  0  0  0  0  0  0
  127.5170  134.7296  160.5629 C   0  0  1  0  0  0  0  0  0  0  0  0
  127.1291  134.6988  159.5447 H   0  0  0  0  0  0  0  0  0  0  0  0
  127.3917  133.3420  161.2034 C   0  0  0  0  0  0  0  0  0  0  0  0
  125.9449  132.8667  161.0490 C   0  0  0  0  0  0  0  0  0  0  0  0
  125.0016  133.9494  161.4885 C   0  0  0  0  0  0  0  0  0  0  0  0
  123.8551  133.6445  161.7405 O   0  0  0  0  0  0  0  0  0  0  0  0
  125.3573  135.2283  161.6167 N   0  0  0  0  0  0  0  0  0  0  0  0
  126.7086  135.7271  161.3936 C   0  0  0  0  0  0  0  0  0  0  0  0
  133.2161  135.5585  160.4890 C   0  0  0  0  0  0  0  0  0  0  0  0
  134.3649  135.4304  163.0491 H   0  0  0  0  0  0  0  0  0  0  0  0
  133.2920  136.6237  163.8199 H   0  0  0  0  0  0  0  0  0  0  0  0
  132.6226  135.0971  163.1956 H   0  0  0  0  0  0  0  0  0  0  0  0
  131.4469  137.4978  160.6053 H   0  0  0  0  0  0  0  0  0  0  0  0
  130.9901  136.7522  162.1981 H   0  0  0  0  0  0  0  0  0  0  0  0
  128.2387  134.2334  158.1748 H   0  0  0  0  0  0  0  0  0  0  0  0
  130.5358  133.8096  156.8045 H   0  0  0  0  0  0  0  0  0  0  0  0
  130.6806  132.4415  159.5091 H   0  0  0  0  0  0  0  0  0  0  0  0
  132.0160  133.0023  158.4565 H   0  0  0  0  0  0  0  0  0  0  0  0
  131.9401  130.4205  158.0856 H   0  0  0  0  0  0  0  0  0  0  0  0
  130.0062  129.9719  156.5219 H   0  0  0  0  0  0  0  0  0  0  0  0
  128.9359  132.2864  155.9732 H   0  0  0  0  0  0  0  0  0  0  0  0
  128.3247  131.8939  157.6097 H   0  0  0  0  0  0  0  0  0  0  0  0
  129.3008  135.6224  161.2903 H   0  0  0  0  0  0  0  0  0  0  0  0
  128.0625  132.6444  160.7020 H   0  0  0  0  0  0  0  0  0  0  0  0
  127.6480  133.4015  162.2612 H   0  0  0  0  0  0  0  0  0  0  0  0
  125.7537  132.6220  160.0041 H   0  0  0  0  0  0  0  0  0  0  0  0
  125.7875  131.9800  161.6630 H   0  0  0  0  0  0  0  0  0  0  0  0
  124.6741  135.8665  161.8748 H   0  0  0  0  0  0  0  0  0  0  0  0
  127.2004  135.8776  162.3546 H   0  0  0  0  0  0  0  0  0  0  0  0
  126.6585  136.6790  160.8649 H   0  0  0  0  0  0  0  0  0  0  0  0
  133.8380  134.6856  160.6878 H   0  0  0  0  0  0  0  0  0  0  0  0
  133.4536  136.0405  159.5406 H   0  0  0  0  0  0  0  0  0  0  0  0
  1  2  1  0
  1 26  1  0
  1 27  1  0
  1 28  1  0
  2 25  1  0
  2  3  1  6
  2  4  1  0
  4  5  1  0
  4 29  1  0
  4 30  1  0
  5  6  1  1
  5  7  1  0
  5 25  1  0
  7  8  1  0
  9  7  2  0
  9 10  1  0
  9 16  1  0
 10 11  1  0
 10 31  1  0
 11 15  1  0
 11 12  1  0
 11 32  1  0
 12 13  1  0
 12 33  1  0
 12 34  1  0
 13 14  2  0
 13 35  1  0
 14 15  1  0
 14 36  1  0
 15 37  1  0
 15 38  1  0
 16 17  1  0
 16 39  1  0
 17 18  1  6
 17 24  1  0
 17 19  1  0
 19 20  1  0
 19 40  1  0
 19 41  1  0
 20 21  1  0
 20 42  1  0
 20 43  1  0
 21 22  2  0
 21 23  1  0
 23 24  1  0
 23 44  1  0
 24 45  1  0
 24 46  1  0
 25 47  1  0
 25 48  1  0
M  CHG  1   7   1
M  END
>  <DOCK_score>  (1) 
-46.390636

>  <SMILES>  (1) 
C[C@]1(Cl)C[C@@H]([NH+]=C(NC2CC=CC2)N[C@H]2CCC(=O)NC2)C1

$$$$
