Cc1ccc(-c2ccccc2-c2cnc(CCNc3[nH]cc(-c4ccccc4)[nH+]3)nc2)cc1
     RDKit          3D

 59 63  0  0  1  0  0  0  0  0999 V2000
  135.8573  134.9984  166.0091 C   0  0  0  0  0  0  0  0  0  0  0  0
  135.7910  136.0073  164.8917 C   0  0  0  0  0  0  0  0  0  0  0  0
  136.3021  135.6902  163.6459 C   0  0  0  0  0  0  0  0  0  0  0  0
  136.2442  136.6102  162.6190 C   0  0  0  0  0  0  0  0  0  0  0  0
  135.6692  137.8610  162.8387 C   0  0  0  0  0  0  0  0  0  0  0  0
  135.6043  138.8536  161.7397 C   0  0  0  0  0  0  0  0  0  0  0  0
  136.6465  139.7572  161.5501 C   0  0  0  0  0  0  0  0  0  0  0  0
  136.5823  140.6795  160.5252 C   0  0  0  0  0  0  0  0  0  0  0  0
  135.4850  140.7132  159.6814 C   0  0  0  0  0  0  0  0  0  0  0  0
  134.4435  139.8244  159.8551 C   0  0  0  0  0  0  0  0  0  0  0  0
  134.4921  138.8875  160.8839 C   0  0  0  0  0  0  0  0  0  0  0  0
  133.3788  137.9263  161.0711 C   0  0  0  0  0  0  0  0  0  0  0  0
  132.2978  138.2335  161.9029 C   0  0  0  0  0  0  0  0  0  0  0  0
  131.3232  137.3506  162.0367 N   0  0  0  0  0  0  0  0  0  0  0  0
  131.3663  136.1925  161.4082 C   0  0  0  0  0  0  0  0  0  0  0  0
  130.2342  135.2161  161.5984 C   0  0  0  0  0  0  0  0  0  0  0  0
  129.1590  135.4694  160.5400 C   0  0  0  0  0  0  0  0  0  0  0  0
  129.7365  135.2933  159.2052 N   0  0  0  0  0  0  0  0  0  0  0  0
  129.7119  134.0489  158.5990 C   0  0  0  0  0  0  0  0  0  0  0  0
  129.1775  132.9171  159.1337 N   0  0  0  0  0  0  0  0  0  0  0  0
  128.7495  132.8379  160.0004 H   0  0  0  0  0  0  0  0  0  0  0  0
  129.3568  131.9077  158.2193 C   0  0  0  0  0  0  0  0  0  0  0  0
  129.9948  132.4511  157.1532 C   0  0  0  0  0  0  0  0  0  0  0  0
  130.3976  131.7344  155.9186 C   0  0  0  0  0  0  0  0  0  0  0  0
  129.8936  132.1337  154.6819 C   0  0  0  0  0  0  0  0  0  0  0  0
  130.2767  131.4671  153.5359 C   0  0  0  0  0  0  0  0  0  0  0  0
  131.1500  130.3969  153.6143 C   0  0  0  0  0  0  0  0  0  0  0  0
  131.6484  129.9925  154.8394 C   0  0  0  0  0  0  0  0  0  0  0  0
  131.2771  130.6557  155.9914 C   0  0  0  0  0  0  0  0  0  0  0  0
  130.1942  133.7677  157.4132 N   0  0  0  0  0  0  0  0  0  0  0  0
  130.6265  134.3995  156.8175 H   0  0  0  0  0  0  0  0  0  0  0  0
  132.3690  135.8617  160.6187 N   0  0  0  0  0  0  0  0  0  0  0  0
  133.3822  136.6879  160.4241 C   0  0  0  0  0  0  0  0  0  0  0  0
  135.1604  138.1767  164.0976 C   0  0  0  0  0  0  0  0  0  0  0  0
  135.2188  137.2467  165.1156 C   0  0  0  0  0  0  0  0  0  0  0  0
  136.7892  135.1266  166.5598 H   0  0  0  0  0  0  0  0  0  0  0  0
  135.0137  135.1467  166.6832 H   0  0  0  0  0  0  0  0  0  0  0  0
  135.8171  133.9918  165.5927 H   0  0  0  0  0  0  0  0  0  0  0  0
  136.7477  134.7212  163.4769 H   0  0  0  0  0  0  0  0  0  0  0  0
  136.6439  136.3617  161.6468 H   0  0  0  0  0  0  0  0  0  0  0  0
  137.5053  139.7362  162.2047 H   0  0  0  0  0  0  0  0  0  0  0  0
  137.3924  141.3790  160.3808 H   0  0  0  0  0  0  0  0  0  0  0  0
  135.4438  141.4391  158.8828 H   0  0  0  0  0  0  0  0  0  0  0  0
  133.5908  139.8556  159.1930 H   0  0  0  0  0  0  0  0  0  0  0  0
  132.2579  139.1781  162.4247 H   0  0  0  0  0  0  0  0  0  0  0  0
  130.6113  134.1984  161.4971 H   0  0  0  0  0  0  0  0  0  0  0  0
  129.8044  135.3471  162.5915 H   0  0  0  0  0  0  0  0  0  0  0  0
  128.3402  134.7631  160.6776 H   0  0  0  0  0  0  0  0  0  0  0  0
  128.7819  136.4870  160.6413 H   0  0  0  0  0  0  0  0  0  0  0  0
  130.1361  136.0485  158.7462 H   0  0  0  0  0  0  0  0  0  0  0  0
  129.0486  130.8784  158.3286 H   0  0  0  0  0  0  0  0  0  0  0  0
  129.2080  132.9659  154.6202 H   0  0  0  0  0  0  0  0  0  0  0  0
  129.8905  131.7786  152.5766 H   0  0  0  0  0  0  0  0  0  0  0  0
  131.4439  129.8750  152.7155 H   0  0  0  0  0  0  0  0  0  0  0  0
  132.3298  129.1564  154.8946 H   0  0  0  0  0  0  0  0  0  0  0  0
  131.6675  130.3394  156.9474 H   0  0  0  0  0  0  0  0  0  0  0  0
  134.2002  136.4098  159.7762 H   0  0  0  0  0  0  0  0  0  0  0  0
  134.7175  139.1457  164.2748 H   0  0  0  0  0  0  0  0  0  0  0  0
  134.8210  137.4886  166.0900 H   0  0  0  0  0  0  0  0  0  0  0  0
  1  2  1  0
  1 36  1  0
  1 37  1  0
  1 38  1  0
  2 35  2  0
  2  3  1  0
  3  4  2  0
  3 39  1  0
  4  5  1  0
  4 40  1  0
  5  6  1  0
  5 34  2  0
  6 11  1  0
  6  7  2  0
  7  8  1  0
  7 41  1  0
  8  9  2  0
  8 42  1  0
  9 10  1  0
  9 43  1  0
 10 11  2  0
 10 44  1  0
 11 12  1  0
 12 33  1  0
 12 13  2  0
 13 14  1  0
 13 45  1  0
 14 15  2  0
 15 16  1  0
 15 32  1  0
 16 17  1  0
 16 46  1  0
 16 47  1  0
 17 18  1  0
 17 48  1  0
 17 49  1  0
 18 50  1  0
 19 18  1  0
 19 30  2  0
 19 20  1  0
 20 21  1  0
 20 22  1  0
 22 23  2  0
 22 51  1  0
 23 24  1  0
 23 30  1  0
 24 29  1  0
 24 25  2  0
 25 26  1  0
 25 52  1  0
 26 27  2  0
 26 53  1  0
 27 28  1  0
 27 54  1  0
 28 29  2  0
 28 55  1  0
 29 56  1  0
 30 31  1  0
 32 33  2  0
 33 57  1  0
 34 35  1  0
 34 58  1  0
 35 59  1  0
M  CHG  1  30   1
M  END
>  <DOCK_score>  (1) 
-56.584572

>  <SMILES>  (1) 
Cc1ccc(-c2ccccc2-c2cnc(CCNc3[nH]cc(-c4ccccc4)[nH+]3)nc2)cc1

$$$$
