CC1=CCC(CNc2nc(N)nc(NC3CC[C@H]4CCC[NH+]4C3)n2)=CC1
     RDKit          3D

 56 59  0  0  1  0  0  0  0  0999 V2000
  130.0277  127.9307  151.3810 C   0  0  0  0  0  0  0  0  0  0  0  0
  130.2774  129.1260  152.2643 C   0  0  0  0  0  0  0  0  0  0  0  0
  129.3623  130.0437  152.3407 C   0  0  0  0  0  0  0  0  0  0  0  0
  129.5079  131.2679  153.1936 C   0  0  0  0  0  0  0  0  0  0  0  0
  130.5560  131.0724  154.2476 C   0  0  0  0  0  0  0  0  0  0  0  0
  130.5436  131.9770  155.4529 C   0  0  0  0  0  0  0  0  0  0  0  0
  129.7119  131.3815  156.5017 N   0  0  0  0  0  0  0  0  0  0  0  0
  129.5497  132.0337  157.7072 C   0  0  0  0  0  0  0  0  0  0  0  0
  128.7947  131.4936  158.6590 N   0  0  0  0  0  0  0  0  0  0  0  0
  128.6429  132.1192  159.8219 C   0  0  0  0  0  0  0  0  0  0  0  0
  127.8640  131.5558  160.8121 N   0  0  0  0  0  0  0  0  0  0  0  0
  129.2372  133.2903  160.0292 N   0  0  0  0  0  0  0  0  0  0  0  0
  129.9874  133.8330  159.0756 C   0  0  0  0  0  0  0  0  0  0  0  0
  130.6046  135.0485  159.2910 N   0  0  0  0  0  0  0  0  0  0  0  0
  130.4328  135.7408  160.5708 C   0  0  1  0  0  0  0  0  0  0  0  0
  131.5142  135.2737  161.5445 C   0  0  0  0  0  0  0  0  0  0  0  0
  132.9009  135.7451  161.0786 C   0  0  0  0  0  0  0  0  0  0  0  0
  132.8393  137.2581  160.9193 C   0  0  1  0  0  0  0  0  0  0  0  0
  132.5458  137.7348  161.8546 H   0  0  0  0  0  0  0  0  0  0  0  0
  134.1392  137.8744  160.3740 C   0  0  0  0  0  0  0  0  0  0  0  0
  133.6260  139.1924  159.7308 C   0  0  0  0  0  0  0  0  0  0  0  0
  132.1229  138.9440  159.4548 C   0  0  0  0  0  0  0  0  0  0  0  0
  131.8588  137.5523  159.8406 N   0  0  2  0  0  0  0  0  0  0  0  0
  132.0475  136.9545  159.0501 H   0  0  0  0  0  0  0  0  0  0  0  0
  130.5247  137.2571  160.3419 C   0  0  0  0  0  0  0  0  0  0  0  0
  130.1438  133.2047  157.9144 N   0  0  0  0  0  0  0  0  0  0  0  0
  131.4732  130.1573  154.1672 C   0  0  0  0  0  0  0  0  0  0  0  0
  131.5737  129.2063  153.0127 C   0  0  0  0  0  0  0  0  0  0  0  0
  129.0501  128.0258  150.9087 H   0  0  0  0  0  0  0  0  0  0  0  0
  130.7990  127.8795  150.6125 H   0  0  0  0  0  0  0  0  0  0  0  0
  130.0537  127.0223  151.9829 H   0  0  0  0  0  0  0  0  0  0  0  0
  128.4550  129.9176  151.7684 H   0  0  0  0  0  0  0  0  0  0  0  0
  129.7885  132.1115  152.5629 H   0  0  0  0  0  0  0  0  0  0  0  0
  128.5537  131.4842  153.6741 H   0  0  0  0  0  0  0  0  0  0  0  0
  131.5609  132.1024  155.8234 H   0  0  0  0  0  0  0  0  0  0  0  0
  130.1361  132.9486  155.1739 H   0  0  0  0  0  0  0  0  0  0  0  0
  129.2751  130.5291  156.3489 H   0  0  0  0  0  0  0  0  0  0  0  0
  127.7499  132.0142  161.6592 H   0  0  0  0  0  0  0  0  0  0  0  0
  127.4305  130.7013  160.6607 H   0  0  0  0  0  0  0  0  0  0  0  0
  131.1521  135.4445  158.5952 H   0  0  0  0  0  0  0  0  0  0  0  0
  129.4521  135.4990  160.9806 H   0  0  0  0  0  0  0  0  0  0  0  0
  131.3086  135.6837  162.5334 H   0  0  0  0  0  0  0  0  0  0  0  0
  131.5043  134.1852  161.5976 H   0  0  0  0  0  0  0  0  0  0  0  0
  133.6513  135.4816  161.8239 H   0  0  0  0  0  0  0  0  0  0  0  0
  133.1483  135.2810  160.1239 H   0  0  0  0  0  0  0  0  0  0  0  0
  134.8403  138.0826  161.1821 H   0  0  0  0  0  0  0  0  0  0  0  0
  134.5928  137.2260  159.6242 H   0  0  0  0  0  0  0  0  0  0  0  0
  133.7517  140.0254  160.4225 H   0  0  0  0  0  0  0  0  0  0  0  0
  134.1548  139.3900  158.7984 H   0  0  0  0  0  0  0  0  0  0  0  0
  131.5137  139.6129  160.0627 H   0  0  0  0  0  0  0  0  0  0  0  0
  131.9053  139.0936  158.3973 H   0  0  0  0  0  0  0  0  0  0  0  0
  129.7787  137.5656  159.6095 H   0  0  0  0  0  0  0  0  0  0  0  0
  130.3590  137.7829  161.2823 H   0  0  0  0  0  0  0  0  0  0  0  0
  132.1947  130.0773  154.9667 H   0  0  0  0  0  0  0  0  0  0  0  0
  132.3593  129.5456  152.3376 H   0  0  0  0  0  0  0  0  0  0  0  0
  131.8284  128.2150  153.3875 H   0  0  0  0  0  0  0  0  0  0  0  0
  1  2  1  0
  1 29  1  0
  1 30  1  0
  1 31  1  0
  2 28  1  0
  2  3  2  0
  3  4  1  0
  3 32  1  0
  4  5  1  0
  4 33  1  0
  4 34  1  0
  5  6  1  0
  5 27  2  0
  6  7  1  0
  6 35  1  0
  6 36  1  0
  7  8  1  0
  7 37  1  0
  8 26  1  0
  8  9  2  0
  9 10  1  0
 10 11  1  0
 10 12  2  0
 11 38  1  0
 11 39  1  0
 12 13  1  0
 13 14  1  0
 13 26  2  0
 14 15  1  0
 14 40  1  0
 15 25  1  0
 15 16  1  0
 15 41  1  1
 16 17  1  0
 16 42  1  0
 16 43  1  0
 17 18  1  0
 17 44  1  0
 17 45  1  0
 18 19  1  1
 18 23  1  0
 18 20  1  0
 20 21  1  0
 20 46  1  0
 20 47  1  0
 21 22  1  0
 21 48  1  0
 21 49  1  0
 22 23  1  0
 22 50  1  0
 22 51  1  0
 23 24  1  6
 23 25  1  0
 25 52  1  0
 25 53  1  0
 27 28  1  0
 27 54  1  0
 28 55  1  0
 28 56  1  0
M  CHG  1  23   1
M  END
>  <DOCK_score>  (1) 
-57.330925

>  <SMILES>  (1) 
CC1=CCC(CNc2nc(N)nc(NC3CC[C@H]4CCC[NH+]4C3)n2)=CC1

$$$$
