CC[C@@H](Nc1[nH]c2ccccc2[nH+]1)c1cccc(C2(Oc3ccc(C)cc3)C[C@@H](C)[C@H](C)C2)c1
     RDKit          3D

 70 74  0  0  1  0  0  0  0  0999 V2000
  127.3584  135.5074  159.4713 C   0  0  0  0  0  0  0  0  0  0  0  0
  128.4101  136.2261  160.3188 C   0  0  0  0  0  0  0  0  0  0  0  0
  129.6935  135.3937  160.3526 C   0  0  1  0  0  0  0  0  0  0  0  0
  129.4817  134.4170  160.7875 H   0  0  0  0  0  0  0  0  0  0  0  0
  130.1998  135.2215  158.9887 N   0  0  0  0  0  0  0  0  0  0  0  0
  130.3376  133.9595  158.4607 C   0  0  0  0  0  0  0  0  0  0  0  0
  130.7812  133.6904  157.2348 N   0  0  0  0  0  0  0  0  0  0  0  0
  131.0566  134.3457  156.5748 H   0  0  0  0  0  0  0  0  0  0  0  0
  130.7856  132.3308  157.0642 C   0  0  0  0  0  0  0  0  0  0  0  0
  131.1423  131.4936  156.0111 C   0  0  0  0  0  0  0  0  0  0  0  0
  131.0230  130.1279  156.1512 C   0  0  0  0  0  0  0  0  0  0  0  0
  130.5496  129.5809  157.3348 C   0  0  0  0  0  0  0  0  0  0  0  0
  130.1922  130.3955  158.3873 C   0  0  0  0  0  0  0  0  0  0  0  0
  130.3062  131.7771  158.2625 C   0  0  0  0  0  0  0  0  0  0  0  0
  130.0417  132.8296  159.0990 N   0  0  0  0  0  0  0  0  0  0  0  0
  129.6975  132.7626  160.0034 H   0  0  0  0  0  0  0  0  0  0  0  0
  130.7294  136.1015  161.1874 C   0  0  0  0  0  0  0  0  0  0  0  0
  131.9789  135.5365  161.3639 C   0  0  0  0  0  0  0  0  0  0  0  0
  132.9287  136.1854  162.1299 C   0  0  0  0  0  0  0  0  0  0  0  0
  132.6298  137.4000  162.7191 C   0  0  0  0  0  0  0  0  0  0  0  0
  131.3812  137.9655  162.5415 C   0  0  0  0  0  0  0  0  0  0  0  0
  131.0555  139.2892  163.1836 C   0  0  0  0  0  0  0  0  0  0  0  0
  131.3197  140.3659  162.2820 O   0  0  0  0  0  0  0  0  0  0  0  0
  132.3157  140.1816  161.3760 C   0  0  0  0  0  0  0  0  0  0  0  0
  132.0326  139.6304  160.1348 C   0  0  0  0  0  0  0  0  0  0  0  0
  133.0459  139.4497  159.2133 C   0  0  0  0  0  0  0  0  0  0  0  0
  134.3432  139.8063  159.5317 C   0  0  0  0  0  0  0  0  0  0  0  0
  135.4477  139.6019  158.5269 C   0  0  0  0  0  0  0  0  0  0  0  0
  134.6289  140.3506  160.7701 C   0  0  0  0  0  0  0  0  0  0  0  0
  133.6183  140.5390  161.6929 C   0  0  0  0  0  0  0  0  0  0  0  0
  129.5831  139.3189  163.6637 C   0  0  0  0  0  0  0  0  0  0  0  0
  129.5702  140.3846  164.7790 C   0  0  1  0  0  0  0  0  0  0  0  0
  129.2575  141.3465  164.3727 H   0  0  0  0  0  0  0  0  0  0  0  0
  128.6234  139.9565  165.9020 C   0  0  0  0  0  0  0  0  0  0  0  0
  131.0105  140.4807  165.3120 C   0  0  2  0  0  0  0  0  0  0  0  0
  131.0350  140.2222  166.3706 H   0  0  0  0  0  0  0  0  0  0  0  0
  131.5527  141.8963  165.1046 C   0  0  0  0  0  0  0  0  0  0  0  0
  131.8484  139.4700  164.5018 C   0  0  0  0  0  0  0  0  0  0  0  0
  130.4293  137.3138  161.7795 C   0  0  0  0  0  0  0  0  0  0  0  0
  127.1466  134.5307  159.9063 H   0  0  0  0  0  0  0  0  0  0  0  0
  126.4440  136.1003  159.4472 H   0  0  0  0  0  0  0  0  0  0  0  0
  127.7351  135.3792  158.4565 H   0  0  0  0  0  0  0  0  0  0  0  0
  128.0334  136.3543  161.3336 H   0  0  0  0  0  0  0  0  0  0  0  0
  128.6218  137.2028  159.8836 H   0  0  0  0  0  0  0  0  0  0  0  0
  130.4380  135.9979  158.4581 H   0  0  0  0  0  0  0  0  0  0  0  0
  131.5114  131.9130  155.0868 H   0  0  0  0  0  0  0  0  0  0  0  0
  131.2997  129.4789  155.3336 H   0  0  0  0  0  0  0  0  0  0  0  0
  130.4602  128.5089  157.4321 H   0  0  0  0  0  0  0  0  0  0  0  0
  129.8242  129.9632  159.3061 H   0  0  0  0  0  0  0  0  0  0  0  0
  132.2124  134.5879  160.9035 H   0  0  0  0  0  0  0  0  0  0  0  0
  133.9046  135.7439  162.2682 H   0  0  0  0  0  0  0  0  0  0  0  0
  133.3720  137.9074  163.3176 H   0  0  0  0  0  0  0  0  0  0  0  0
  131.0203  139.3470  159.8873 H   0  0  0  0  0  0  0  0  0  0  0  0
  132.8253  139.0247  158.2451 H   0  0  0  0  0  0  0  0  0  0  0  0
  135.8812  138.6107  158.6601 H   0  0  0  0  0  0  0  0  0  0  0  0
  135.0424  139.6888  157.5188 H   0  0  0  0  0  0  0  0  0  0  0  0
  136.2183  140.3583  158.6752 H   0  0  0  0  0  0  0  0  0  0  0  0
  135.6430  140.6284  161.0165 H   0  0  0  0  0  0  0  0  0  0  0  0
  133.8418  140.9646  162.6600 H   0  0  0  0  0  0  0  0  0  0  0  0
  129.2920  138.3467  164.0616 H   0  0  0  0  0  0  0  0  0  0  0  0
  128.9219  139.6121  162.8483 H   0  0  0  0  0  0  0  0  0  0  0  0
  128.6593  140.6904  166.7070 H   0  0  0  0  0  0  0  0  0  0  0  0
  127.6066  139.8914  165.5150 H   0  0  0  0  0  0  0  0  0  0  0  0
  128.9297  138.9828  166.2842 H   0  0  0  0  0  0  0  0  0  0  0  0
  130.9244  142.6080  165.6401 H   0  0  0  0  0  0  0  0  0  0  0  0
  132.5726  141.9540  165.4849 H   0  0  0  0  0  0  0  0  0  0  0  0
  131.5475  142.1353  164.0412 H   0  0  0  0  0  0  0  0  0  0  0  0
  132.8403  139.8733  164.2981 H   0  0  0  0  0  0  0  0  0  0  0  0
  131.9231  138.5223  165.0350 H   0  0  0  0  0  0  0  0  0  0  0  0
  129.4521  137.7535  161.6445 H   0  0  0  0  0  0  0  0  0  0  0  0
  1  2  1  0
  1 40  1  0
  1 41  1  0
  1 42  1  0
  2  3  1  0
  2 43  1  0
  2 44  1  0
  3  4  1  1
  3  5  1  0
  3 17  1  0
  5  6  1  0
  5 45  1  0
  6 15  1  0
  6  7  2  0
  7  8  1  0
  7  9  1  0
  9 14  2  0
  9 10  1  0
 10 11  2  0
 10 46  1  0
 11 12  1  0
 11 47  1  0
 12 13  2  0
 12 48  1  0
 13 14  1  0
 13 49  1  0
 14 15  1  0
 15 16  1  0
 17 39  1  0
 17 18  2  0
 18 19  1  0
 18 50  1  0
 19 20  2  0
 19 51  1  0
 20 21  1  0
 20 52  1  0
 21 22  1  0
 21 39  2  0
 22 38  1  0
 22 23  1  0
 22 31  1  0
 23 24  1  0
 24 30  1  0
 24 25  2  0
 25 26  1  0
 25 53  1  0
 26 27  2  0
 26 54  1  0
 27 28  1  0
 27 29  1  0
 28 55  1  0
 28 56  1  0
 28 57  1  0
 29 30  2  0
 29 58  1  0
 30 59  1  0
 31 32  1  0
 31 60  1  0
 31 61  1  0
 32 33  1  6
 32 34  1  0
 32 35  1  0
 34 62  1  0
 34 63  1  0
 34 64  1  0
 35 36  1  1
 35 37  1  0
 35 38  1  0
 37 65  1  0
 37 66  1  0
 37 67  1  0
 38 68  1  0
 38 69  1  0
 39 70  1  0
M  CHG  1   7   1
M  END
>  <DOCK_score>  (1) 
-56.0247

>  <SMILES>  (1) 
CC[C@@H](Nc1[nH]c2ccccc2[nH+]1)c1cccc(C2(Oc3ccc(C)cc3)C[C@@H](C)[C@H](C)C2)c1

$$$$
