CC1(NC(N[C@H]2CCC(=O)NC2)=[NH+]C2COc3cc(F)ccc3C2)CC=CC1
     RDKit          3D

 56 59  0  0  1  0  0  0  0  0999 V2000
  130.7603  133.0678  156.8686 C   0  0  0  0  0  0  0  0  0  0  0  0
  129.9759  132.6610  158.1178 C   0  0  0  0  0  0  0  0  0  0  0  0
  129.0729  133.7343  158.5407 N   0  0  0  0  0  0  0  0  0  0  0  0
  129.5093  134.6908  159.4266 C   0  0  0  0  0  0  0  0  0  0  0  0
  128.6181  135.2910  160.2843 N   0  0  0  0  0  0  0  0  0  0  0  0
  127.2034  134.9115  160.2541 C   0  0  1  0  0  0  0  0  0  0  0  0
  126.7916  135.1133  159.2653 H   0  0  0  0  0  0  0  0  0  0  0  0
  127.0641  133.4192  160.5784 C   0  0  0  0  0  0  0  0  0  0  0  0
  125.6047  133.0114  160.3612 C   0  0  0  0  0  0  0  0  0  0  0  0
  124.6937  133.9856  161.0516 C   0  0  0  0  0  0  0  0  0  0  0  0
  123.5471  133.6502  161.2605 O   0  0  0  0  0  0  0  0  0  0  0  0
  125.0785  135.1994  161.4479 N   0  0  0  0  0  0  0  0  0  0  0  0
  126.4343  135.7145  161.3040 C   0  0  0  0  0  0  0  0  0  0  0  0
  130.7679  135.0285  159.4533 N   0  0  0  0  0  0  0  0  0  0  0  0
  131.3011  134.9773  158.6446 H   0  0  0  0  0  0  0  0  0  0  0  0
  131.3788  135.4798  160.7061 C   0  0  1  0  0  0  0  0  0  0  0  0
  131.2999  134.3608  161.7525 C   0  0  0  0  0  0  0  0  0  0  0  0
  131.8076  134.8639  162.9889 O   0  0  0  0  0  0  0  0  0  0  0  0
  133.0036  135.5077  162.9692 C   0  0  0  0  0  0  0  0  0  0  0  0
  133.6835  135.6809  164.1703 C   0  0  0  0  0  0  0  0  0  0  0  0
  134.9010  136.3343  164.1920 C   0  0  0  0  0  0  0  0  0  0  0  0
  135.5592  136.5001  165.3600 F   0  0  0  0  0  0  0  0  0  0  0  0
  135.4459  136.8185  163.0140 C   0  0  0  0  0  0  0  0  0  0  0  0
  134.7727  136.6460  161.8210 C   0  0  0  0  0  0  0  0  0  0  0  0
  133.5529  135.9900  161.7940 C   0  0  0  0  0  0  0  0  0  0  0  0
  132.8538  135.8136  160.4698 C   0  0  0  0  0  0  0  0  0  0  0  0
  129.2009  131.3439  157.8821 C   0  0  0  0  0  0  0  0  0  0  0  0
  130.1279  130.2590  158.3807 C   0  0  0  0  0  0  0  0  0  0  0  0
  131.0709  130.7557  159.1342 C   0  0  0  0  0  0  0  0  0  0  0  0
  130.9303  132.2545  159.2646 C   0  0  0  0  0  0  0  0  0  0  0  0
  131.6464  133.6299  157.1631 H   0  0  0  0  0  0  0  0  0  0  0  0
  131.0620  132.1742  156.3223 H   0  0  0  0  0  0  0  0  0  0  0  0
  130.1313  133.6886  156.2308 H   0  0  0  0  0  0  0  0  0  0  0  0
  128.1671  133.7702  158.1955 H   0  0  0  0  0  0  0  0  0  0  0  0
  128.9259  135.9656  160.9095 H   0  0  0  0  0  0  0  0  0  0  0  0
  127.7092  132.8385  159.9190 H   0  0  0  0  0  0  0  0  0  0  0  0
  127.3443  133.2415  161.6167 H   0  0  0  0  0  0  0  0  0  0  0  0
  125.4430  132.0134  160.7686 H   0  0  0  0  0  0  0  0  0  0  0  0
  125.3865  133.0063  159.2932 H   0  0  0  0  0  0  0  0  0  0  0  0
  124.4142  135.7758  161.8571 H   0  0  0  0  0  0  0  0  0  0  0  0
  126.9503  135.6432  162.2613 H   0  0  0  0  0  0  0  0  0  0  0  0
  126.3888  136.7592  160.9962 H   0  0  0  0  0  0  0  0  0  0  0  0
  130.8556  136.3631  161.0725 H   0  0  0  0  0  0  0  0  0  0  0  0
  130.2628  134.0504  161.8805 H   0  0  0  0  0  0  0  0  0  0  0  0
  131.8999  133.5109  161.4271 H   0  0  0  0  0  0  0  0  0  0  0  0
  133.2589  135.3035  165.0888 H   0  0  0  0  0  0  0  0  0  0  0  0
  136.3965  137.3309  163.0288 H   0  0  0  0  0  0  0  0  0  0  0  0
  135.1993  137.0247  160.9039 H   0  0  0  0  0  0  0  0  0  0  0  0
  133.3253  135.0017  159.9161 H   0  0  0  0  0  0  0  0  0  0  0  0
  132.9293  136.7361  159.8941 H   0  0  0  0  0  0  0  0  0  0  0  0
  128.2725  131.3422  158.4536 H   0  0  0  0  0  0  0  0  0  0  0  0
  128.9944  131.2096  156.8204 H   0  0  0  0  0  0  0  0  0  0  0  0
  130.0236  129.2104  158.1442 H   0  0  0  0  0  0  0  0  0  0  0  0
  131.8498  130.1721  159.6023 H   0  0  0  0  0  0  0  0  0  0  0  0
  131.8990  132.7389  159.1423 H   0  0  0  0  0  0  0  0  0  0  0  0
  130.4950  132.5124  160.2301 H   0  0  0  0  0  0  0  0  0  0  0  0
  1 31  1  0
  1 32  1  0
  1 33  1  0
  2  1  1  0
  2 30  1  0
  2  3  1  0
  2 27  1  0
  3 34  1  0
  4  3  1  0
  4  5  1  0
  4 14  2  0
  5  6  1  0
  5 35  1  0
  6  7  1  6
  6 13  1  0
  6  8  1  0
  8  9  1  0
  8 36  1  0
  8 37  1  0
  9 10  1  0
  9 38  1  0
  9 39  1  0
 10 11  2  0
 10 12  1  0
 12 13  1  0
 12 40  1  0
 13 41  1  0
 13 42  1  0
 14 15  1  0
 14 16  1  0
 16 26  1  0
 16 17  1  0
 16 43  1  1
 17 18  1  0
 17 44  1  0
 17 45  1  0
 18 19  1  0
 19 25  2  0
 19 20  1  0
 20 21  2  0
 20 46  1  0
 21 22  1  0
 21 23  1  0
 23 24  2  0
 23 47  1  0
 24 25  1  0
 24 48  1  0
 25 26  1  0
 26 49  1  0
 26 50  1  0
 27 28  1  0
 27 51  1  0
 27 52  1  0
 28 29  2  0
 28 53  1  0
 29 30  1  0
 29 54  1  0
 30 55  1  0
 30 56  1  0
M  CHG  1  14   1
M  END
>  <DOCK_score>  (1) 
-45.39954

>  <SMILES>  (1) 
CC1(NC(N[C@H]2CCC(=O)NC2)=[NH+]C2COc3cc(F)ccc3C2)CC=CC1

$$$$
