Cc1cccc([C@@H](Nc2[nH]cc(-c3ccc(Br)cc3)[nH+]2)c2cccc3c2CCCC3)c1
     RDKit          3D

 58 62  0  0  1  0  0  0  0  0999 V2000
  125.4433  135.6013  158.1466 C   0  0  0  0  0  0  0  0  0  0  0  0
  126.2759  135.2230  159.3444 C   0  0  0  0  0  0  0  0  0  0  0  0
  125.6666  134.7194  160.4786 C   0  0  0  0  0  0  0  0  0  0  0  0
  126.4302  134.3720  161.5771 C   0  0  0  0  0  0  0  0  0  0  0  0
  127.8039  134.5234  161.5397 C   0  0  0  0  0  0  0  0  0  0  0  0
  128.4127  135.0317  160.4077 C   0  0  0  0  0  0  0  0  0  0  0  0
  129.9096  135.2014  160.3687 C   0  0  1  0  0  0  0  0  0  0  0  0
  130.3774  134.4464  161.0005 H   0  0  0  0  0  0  0  0  0  0  0  0
  130.3828  135.0470  158.9910 N   0  0  0  0  0  0  0  0  0  0  0  0
  130.1631  133.8604  158.3125 C   0  0  0  0  0  0  0  0  0  0  0  0
  129.5180  132.7704  158.8103 N   0  0  0  0  0  0  0  0  0  0  0  0
  129.1331  132.6857  159.6967 H   0  0  0  0  0  0  0  0  0  0  0  0
  129.5126  131.8122  157.8258 C   0  0  0  0  0  0  0  0  0  0  0  0
  130.1538  132.3438  156.7558 C   0  0  0  0  0  0  0  0  0  0  0  0
  130.3893  131.6695  155.4558 C   0  0  0  0  0  0  0  0  0  0  0  0
  129.8715  132.2137  154.2818 C   0  0  0  0  0  0  0  0  0  0  0  0
  130.0986  131.5858  153.0742 C   0  0  0  0  0  0  0  0  0  0  0  0
  130.8290  130.4108  153.0290 C   0  0  0  0  0  0  0  0  0  0  0  0
  131.1293  129.5512  151.3717 Br  0  0  0  0  0  0  0  0  0  0  0  0
  131.3407  129.8631  154.1926 C   0  0  0  0  0  0  0  0  0  0  0  0
  131.1244  130.4864  155.4046 C   0  0  0  0  0  0  0  0  0  0  0  0
  130.5370  133.6035  157.0829 N   0  0  0  0  0  0  0  0  0  0  0  0
  131.0136  134.2155  156.5004 H   0  0  0  0  0  0  0  0  0  0  0  0
  130.2727  136.5741  160.8737 C   0  0  0  0  0  0  0  0  0  0  0  0
  129.3938  137.6230  160.6966 C   0  0  0  0  0  0  0  0  0  0  0  0
  129.7258  138.8822  161.1597 C   0  0  0  0  0  0  0  0  0  0  0  0
  130.9349  139.0824  161.7936 C   0  0  0  0  0  0  0  0  0  0  0  0
  131.8221  138.0288  161.9701 C   0  0  0  0  0  0  0  0  0  0  0  0
  131.4893  136.7732  161.5130 C   0  0  0  0  0  0  0  0  0  0  0  0
  132.3982  135.5834  161.6773 C   0  0  0  0  0  0  0  0  0  0  0  0
  133.8247  136.0355  161.9833 C   0  0  0  0  0  0  0  0  0  0  0  0
  133.7775  137.0281  163.1508 C   0  0  0  0  0  0  0  0  0  0  0  0
  133.1297  138.3206  162.6585 C   0  0  0  0  0  0  0  0  0  0  0  0
  127.6488  135.3792  159.3089 C   0  0  0  0  0  0  0  0  0  0  0  0
  125.3415  134.7389  157.4880 H   0  0  0  0  0  0  0  0  0  0  0  0
  124.4563  135.9243  158.4775 H   0  0  0  0  0  0  0  0  0  0  0  0
  125.9301  136.4144  157.6080 H   0  0  0  0  0  0  0  0  0  0  0  0
  124.5938  134.5971  160.5063 H   0  0  0  0  0  0  0  0  0  0  0  0
  125.9542  133.9783  162.4630 H   0  0  0  0  0  0  0  0  0  0  0  0
  128.4011  134.2477  162.3964 H   0  0  0  0  0  0  0  0  0  0  0  0
  130.8503  135.7761  158.5541 H   0  0  0  0  0  0  0  0  0  0  0  0
  129.0799  130.8248  157.8914 H   0  0  0  0  0  0  0  0  0  0  0  0
  129.2971  133.1277  154.3166 H   0  0  0  0  0  0  0  0  0  0  0  0
  129.7018  132.0092  152.1633 H   0  0  0  0  0  0  0  0  0  0  0  0
  131.9099  128.9462  154.1519 H   0  0  0  0  0  0  0  0  0  0  0  0
  131.5244  130.0585  156.3120 H   0  0  0  0  0  0  0  0  0  0  0  0
  128.4499  137.4606  160.1977 H   0  0  0  0  0  0  0  0  0  0  0  0
  129.0414  139.7070  161.0254 H   0  0  0  0  0  0  0  0  0  0  0  0
  131.1935  140.0667  162.1555 H   0  0  0  0  0  0  0  0  0  0  0  0
  132.3960  134.9993  160.7570 H   0  0  0  0  0  0  0  0  0  0  0  0
  132.0340  134.9639  162.4969 H   0  0  0  0  0  0  0  0  0  0  0  0
  134.2521  136.5208  161.1058 H   0  0  0  0  0  0  0  0  0  0  0  0
  134.4320  135.1732  162.2588 H   0  0  0  0  0  0  0  0  0  0  0  0
  133.1873  136.6088  163.9656 H   0  0  0  0  0  0  0  0  0  0  0  0
  134.7898  137.2342  163.4987 H   0  0  0  0  0  0  0  0  0  0  0  0
  132.9495  138.9788  163.5085 H   0  0  0  0  0  0  0  0  0  0  0  0
  133.8021  138.8155  161.9578 H   0  0  0  0  0  0  0  0  0  0  0  0
  128.1248  135.7722  158.4229 H   0  0  0  0  0  0  0  0  0  0  0  0
  1  2  1  0
  1 35  1  0
  1 36  1  0
  1 37  1  0
  2 34  2  0
  2  3  1  0
  3  4  2  0
  3 38  1  0
  4  5  1  0
  4 39  1  0
  5  6  2  0
  5 40  1  0
  6  7  1  0
  6 34  1  0
  7  8  1  1
  7  9  1  0
  7 24  1  0
  9 41  1  0
 10  9  1  0
 10 22  2  0
 10 11  1  0
 11 12  1  0
 11 13  1  0
 13 14  2  0
 13 42  1  0
 14 15  1  0
 14 22  1  0
 15 21  1  0
 15 16  2  0
 16 17  1  0
 16 43  1  0
 17 18  2  0
 17 44  1  0
 18 19  1  0
 18 20  1  0
 20 21  2  0
 20 45  1  0
 21 46  1  0
 22 23  1  0
 24 29  1  0
 24 25  2  0
 25 26  1  0
 25 47  1  0
 26 27  2  0
 26 48  1  0
 27 28  1  0
 27 49  1  0
 28 33  1  0
 28 29  2  0
 29 30  1  0
 30 31  1  0
 30 50  1  0
 30 51  1  0
 31 32  1  0
 31 52  1  0
 31 53  1  0
 32 33  1  0
 32 54  1  0
 32 55  1  0
 33 56  1  0
 33 57  1  0
 34 58  1  0
M  CHG  1  22   1
M  END
>  <DOCK_score>  (1) 
-57.829033

>  <SMILES>  (1) 
Cc1cccc([C@@H](Nc2[nH]cc(-c3ccc(Br)cc3)[nH+]2)c2cccc3c2CCCC3)c1

$$$$
