Cc1ccc(-c2cc(CNc3[nH]cc(-c4ccc(Br)cc4)[nH+]3)ccc2Cl)cc1
     RDKit          3D

 48 51  0  0  1  0  0  0  0  0999 V2000
  136.8252  140.8538  160.4608 C   0  0  0  0  0  0  0  0  0  0  0  0
  135.4053  140.3630  160.5796 C   0  0  0  0  0  0  0  0  0  0  0  0
  134.7906  140.3249  161.8181 C   0  0  0  0  0  0  0  0  0  0  0  0
  133.4905  139.8760  161.9325 C   0  0  0  0  0  0  0  0  0  0  0  0
  132.7971  139.4608  160.7974 C   0  0  0  0  0  0  0  0  0  0  0  0
  131.3992  138.9773  160.9142 C   0  0  0  0  0  0  0  0  0  0  0  0
  131.0715  137.6825  160.5167 C   0  0  0  0  0  0  0  0  0  0  0  0
  129.7708  137.2361  160.6323 C   0  0  0  0  0  0  0  0  0  0  0  0
  129.4168  135.8338  160.2090 C   0  0  0  0  0  0  0  0  0  0  0  0
  130.0419  135.5412  158.9168 N   0  0  0  0  0  0  0  0  0  0  0  0
  129.8578  134.3044  158.3229 C   0  0  0  0  0  0  0  0  0  0  0  0
  129.1270  133.2785  158.8384 N   0  0  0  0  0  0  0  0  0  0  0  0
  128.6456  133.2823  159.6805 H   0  0  0  0  0  0  0  0  0  0  0  0
  129.1945  132.2374  157.9444 C   0  0  0  0  0  0  0  0  0  0  0  0
  129.9707  132.6538  156.9134 C   0  0  0  0  0  0  0  0  0  0  0  0
  130.3279  131.8589  155.7131 C   0  0  0  0  0  0  0  0  0  0  0  0
  129.9653  132.3072  154.4440 C   0  0  0  0  0  0  0  0  0  0  0  0
  130.3046  131.5666  153.3303 C   0  0  0  0  0  0  0  0  0  0  0  0
  130.9942  130.3750  153.4723 C   0  0  0  0  0  0  0  0  0  0  0  0
  131.4494  129.3616  151.9421 Br  0  0  0  0  0  0  0  0  0  0  0  0
  131.3520  129.9225  154.7307 C   0  0  0  0  0  0  0  0  0  0  0  0
  131.0221  130.6582  155.8506 C   0  0  0  0  0  0  0  0  0  0  0  0
  130.3630  133.9262  157.1741 N   0  0  0  0  0  0  0  0  0  0  0  0
  130.9274  134.4691  156.6019 H   0  0  0  0  0  0  0  0  0  0  0  0
  128.7900  138.0748  161.1309 C   0  0  0  0  0  0  0  0  0  0  0  0
  129.1084  139.3608  161.5273 C   0  0  0  0  0  0  0  0  0  0  0  0
  130.4083  139.8168  161.4215 C   0  0  0  0  0  0  0  0  0  0  0  0
  130.8072  141.4312  161.9197 Cl  0  0  0  0  0  0  0  0  0  0  0  0
  133.4232  139.4960  159.5530 C   0  0  0  0  0  0  0  0  0  0  0  0
  134.7217  139.9521  159.4495 C   0  0  0  0  0  0  0  0  0  0  0  0
  137.5107  140.0148  160.5734 H   0  0  0  0  0  0  0  0  0  0  0  0
  136.9699  141.3138  159.4830 H   0  0  0  0  0  0  0  0  0  0  0  0
  137.0209  141.5907  161.2405 H   0  0  0  0  0  0  0  0  0  0  0  0
  135.3290  140.6466  162.6972 H   0  0  0  0  0  0  0  0  0  0  0  0
  133.0116  139.8463  162.9001 H   0  0  0  0  0  0  0  0  0  0  0  0
  131.8350  137.0280  160.1231 H   0  0  0  0  0  0  0  0  0  0  0  0
  129.7782  135.1267  160.9557 H   0  0  0  0  0  0  0  0  0  0  0  0
  128.3344  135.7441  160.1176 H   0  0  0  0  0  0  0  0  0  0  0  0
  130.5849  136.2142  158.4772 H   0  0  0  0  0  0  0  0  0  0  0  0
  128.7231  131.2710  158.0454 H   0  0  0  0  0  0  0  0  0  0  0  0
  129.4233  133.2347  154.3324 H   0  0  0  0  0  0  0  0  0  0  0  0
  130.0278  131.9151  152.3462 H   0  0  0  0  0  0  0  0  0  0  0  0
  131.8899  128.9920  154.8362 H   0  0  0  0  0  0  0  0  0  0  0  0
  131.3018  130.3044  156.8319 H   0  0  0  0  0  0  0  0  0  0  0  0
  127.7726  137.7223  161.2154 H   0  0  0  0  0  0  0  0  0  0  0  0
  128.3396  140.0096  161.9203 H   0  0  0  0  0  0  0  0  0  0  0  0
  132.8920  139.1707  158.6708 H   0  0  0  0  0  0  0  0  0  0  0  0
  135.2066  139.9836  158.4849 H   0  0  0  0  0  0  0  0  0  0  0  0
  1  2  1  0
  1 31  1  0
  1 32  1  0
  1 33  1  0
  2 30  2  0
  2  3  1  0
  3  4  2  0
  3 34  1  0
  4  5  1  0
  4 35  1  0
  5  6  1  0
  5 29  2  0
  6 27  1  0
  6  7  2  0
  7  8  1  0
  7 36  1  0
  8  9  1  0
  8 25  2  0
  9 10  1  0
  9 37  1  0
  9 38  1  0
 10 39  1  0
 11 10  1  0
 11 23  2  0
 11 12  1  0
 12 13  1  0
 12 14  1  0
 14 15  2  0
 14 40  1  0
 15 16  1  0
 15 23  1  0
 16 22  1  0
 16 17  2  0
 17 18  1  0
 17 41  1  0
 18 19  2  0
 18 42  1  0
 19 20  1  0
 19 21  1  0
 21 22  2  0
 21 43  1  0
 22 44  1  0
 23 24  1  0
 25 26  1  0
 25 45  1  0
 26 27  2  0
 26 46  1  0
 27 28  1  0
 29 30  1  0
 29 47  1  0
 30 48  1  0
M  CHG  1  23   1
M  END
>  <DOCK_score>  (1) 
-61.31123

>  <SMILES>  (1) 
Cc1ccc(-c2cc(CNc3[nH]cc(-c4ccc(Br)cc4)[nH+]3)ccc2Cl)cc1

$$$$
