C[C@H](Cc1ccnn1C)C(Nc1[nH]cc(-c2ccc(N)cc2)[nH+]1)C(c1ccccc1)c1ccccc1
     RDKit          3D

 69 73  0  0  1  0  0  0  0  0999 V2000
  131.7396  136.6696  160.5602 C   0  0  0  0  0  0  0  0  0  0  0  0
  130.8714  135.6714  161.3288 C   0  0  2  0  0  0  0  0  0  0  0  0
  130.4927  136.1424  162.2359 H   0  0  0  0  0  0  0  0  0  0  0  0
  131.7101  134.4473  161.7016 C   0  0  0  0  0  0  0  0  0  0  0  0
  132.8678  134.8760  162.5660 C   0  0  0  0  0  0  0  0  0  0  0  0
  134.0933  135.2496  162.1304 C   0  0  0  0  0  0  0  0  0  0  0  0
  134.8692  135.5680  163.2498 C   0  0  0  0  0  0  0  0  0  0  0  0
  134.1378  135.3865  164.3192 N   0  0  0  0  0  0  0  0  0  0  0  0
  132.8683  134.9553  163.9132 N   0  0  0  0  0  0  0  0  0  0  0  0
  131.7420  134.6402  164.7955 C   0  0  0  0  0  0  0  0  0  0  0  0
  129.6961  135.2362  160.4512 C   0  0  2  0  0  0  0  0  0  0  0  0
  130.1573  135.0532  159.0728 N   0  0  0  0  0  0  0  0  0  0  0  0
  130.0359  133.8174  158.4605 C   0  0  0  0  0  0  0  0  0  0  0  0
  129.5137  132.6981  159.0313 N   0  0  0  0  0  0  0  0  0  0  0  0
  129.1626  132.6228  159.9324 H   0  0  0  0  0  0  0  0  0  0  0  0
  129.5724  131.6944  158.0936 C   0  0  0  0  0  0  0  0  0  0  0  0
  130.1367  132.2275  156.9819 C   0  0  0  0  0  0  0  0  0  0  0  0
  130.4068  131.5115  155.7110 C   0  0  0  0  0  0  0  0  0  0  0  0
  129.8133  131.9444  154.5262 C   0  0  0  0  0  0  0  0  0  0  0  0
  130.0702  131.2809  153.3450 C   0  0  0  0  0  0  0  0  0  0  0  0
  130.9109  130.1743  153.3371 C   0  0  0  0  0  0  0  0  0  0  0  0
  131.1648  129.5000  152.1402 N   0  0  0  0  0  0  0  0  0  0  0  0
  131.4995  129.7375  154.5180 C   0  0  0  0  0  0  0  0  0  0  0  0
  131.2499  130.4015  155.7006 C   0  0  0  0  0  0  0  0  0  0  0  0
  130.4102  133.5314  157.2374 N   0  0  0  0  0  0  0  0  0  0  0  0
  130.8181  134.1529  156.6142 H   0  0  0  0  0  0  0  0  0  0  0  0
  128.6079  136.3112  160.4865 C   0  0  0  0  0  0  0  0  0  0  0  0
  127.4502  135.8825  159.6221 C   0  0  0  0  0  0  0  0  0  0  0  0
  127.4198  136.2313  158.2848 C   0  0  0  0  0  0  0  0  0  0  0  0
  126.3602  135.8342  157.4908 C   0  0  0  0  0  0  0  0  0  0  0  0
  125.3259  135.0972  158.0366 C   0  0  0  0  0  0  0  0  0  0  0  0
  125.3537  134.7528  159.3751 C   0  0  0  0  0  0  0  0  0  0  0  0
  126.4159  135.1456  160.1678 C   0  0  0  0  0  0  0  0  0  0  0  0
  128.1335  136.4994  161.9044 C   0  0  0  0  0  0  0  0  0  0  0  0
  127.6723  137.7342  162.3207 C   0  0  0  0  0  0  0  0  0  0  0  0
  127.2327  137.9056  163.6201 C   0  0  0  0  0  0  0  0  0  0  0  0
  127.2639  136.8448  164.5059 C   0  0  0  0  0  0  0  0  0  0  0  0
  127.7299  135.6114  164.0910 C   0  0  0  0  0  0  0  0  0  0  0  0
  128.1646  135.4386  162.7903 C   0  0  0  0  0  0  0  0  0  0  0  0
  132.2850  136.1470  159.7743 H   0  0  0  0  0  0  0  0  0  0  0  0
  131.1048  137.4355  160.1145 H   0  0  0  0  0  0  0  0  0  0  0  0
  132.4476  137.1375  161.2441 H   0  0  0  0  0  0  0  0  0  0  0  0
  132.0889  133.9764  160.7945 H   0  0  0  0  0  0  0  0  0  0  0  0
  131.0917  133.7363  162.2493 H   0  0  0  0  0  0  0  0  0  0  0  0
  134.4154  135.2937  161.1005 H   0  0  0  0  0  0  0  0  0  0  0  0
  135.8963  135.9017  163.2340 H   0  0  0  0  0  0  0  0  0  0  0  0
  131.7805  133.5865  165.0717 H   0  0  0  0  0  0  0  0  0  0  0  0
  131.8019  135.2538  165.6944 H   0  0  0  0  0  0  0  0  0  0  0  0
  130.8056  134.8460  164.2770 H   0  0  0  0  0  0  0  0  0  0  0  0
  129.2909  134.2966  160.8266 H   0  0  0  0  0  0  0  0  0  0  0  0
  130.5477  135.7979  158.5891 H   0  0  0  0  0  0  0  0  0  0  0  0
  129.2379  130.6753  158.2199 H   0  0  0  0  0  0  0  0  0  0  0  0
  129.1559  132.8013  154.5327 H   0  0  0  0  0  0  0  0  0  0  0  0
  129.6141  131.6187  152.4262 H   0  0  0  0  0  0  0  0  0  0  0  0
  131.7516  128.7274  152.1341 H   0  0  0  0  0  0  0  0  0  0  0  0
  130.7543  129.8037  151.3159 H   0  0  0  0  0  0  0  0  0  0  0  0
  132.1527  128.8775  154.5096 H   0  0  0  0  0  0  0  0  0  0  0  0
  131.7075  130.0619  156.6181 H   0  0  0  0  0  0  0  0  0  0  0  0
  129.0131  137.2509  160.1111 H   0  0  0  0  0  0  0  0  0  0  0  0
  128.2258  136.8110  157.8594 H   0  0  0  0  0  0  0  0  0  0  0  0
  126.3383  136.1033  156.4451 H   0  0  0  0  0  0  0  0  0  0  0  0
  124.4958  134.7906  157.4173 H   0  0  0  0  0  0  0  0  0  0  0  0
  124.5455  134.1773  159.8015 H   0  0  0  0  0  0  0  0  0  0  0  0
  126.4374  134.8768  161.2136 H   0  0  0  0  0  0  0  0  0  0  0  0
  127.6521  138.5641  161.6299 H   0  0  0  0  0  0  0  0  0  0  0  0
  126.8689  138.8695  163.9444 H   0  0  0  0  0  0  0  0  0  0  0  0
  126.9246  136.9799  165.5223 H   0  0  0  0  0  0  0  0  0  0  0  0
  127.7546  134.7827  164.7832 H   0  0  0  0  0  0  0  0  0  0  0  0
  128.5291  134.4750  162.4662 H   0  0  0  0  0  0  0  0  0  0  0  0
  1  2  1  0
  1 40  1  0
  1 41  1  0
  1 42  1  0
  2  3  1  1
  2  4  1  0
  2 11  1  0
  4  5  1  0
  4 43  1  0
  4 44  1  0
  5  9  1  0
  5  6  2  0
  6  7  1  0
  6 45  1  0
  7  8  2  0
  7 46  1  0
  8  9  1  0
  9 10  1  0
 10 47  1  0
 10 48  1  0
 10 49  1  0
 11 12  1  0
 11 27  1  0
 11 50  1  1
 12 51  1  0
 13 12  1  0
 13 25  2  0
 13 14  1  0
 14 15  1  0
 14 16  1  0
 16 17  2  0
 16 52  1  0
 17 18  1  0
 17 25  1  0
 18 24  1  0
 18 19  2  0
 19 20  1  0
 19 53  1  0
 20 21  2  0
 20 54  1  0
 21 22  1  0
 21 23  1  0
 22 55  1  0
 22 56  1  0
 23 24  2  0
 23 57  1  0
 24 58  1  0
 25 26  1  0
 27 28  1  0
 27 34  1  0
 27 59  1  0
 28 33  1  0
 28 29  2  0
 29 30  1  0
 29 60  1  0
 30 31  2  0
 30 61  1  0
 31 32  1  0
 31 62  1  0
 32 33  2  0
 32 63  1  0
 33 64  1  0
 34 39  1  0
 34 35  2  0
 35 36  1  0
 35 65  1  0
 36 37  2  0
 36 66  1  0
 37 38  1  0
 37 67  1  0
 38 39  2  0
 38 68  1  0
 39 69  1  0
M  CHG  1  25   1
M  END
>  <DOCK_score>  (1) 
-64.26017

>  <SMILES>  (1) 
C[C@H](Cc1ccnn1C)C(Nc1[nH]cc(-c2ccc(N)cc2)[nH+]1)C(c1ccccc1)c1ccccc1

$$$$
