BrC[C@H](CNc1[nH]cc(-c2ccc(-c3ccccc3)cc2)[nH+]1)Cc1ccccc1
     RDKit          3D

 54 57  0  0  1  0  0  0  0  0999 V2000
  130.4045  137.8529  163.6441 Br  0  0  0  0  0  0  0  0  0  0  0  0
  132.1953  137.1277  163.2801 C   0  0  0  0  0  0  0  0  0  0  0  0
  132.3602  136.9081  161.7750 C   0  0  2  0  0  0  0  0  0  0  0  0
  132.2401  137.8579  161.2538 H   0  0  0  0  0  0  0  0  0  0  0  0
  131.3002  135.9197  161.2847 C   0  0  0  0  0  0  0  0  0  0  0  0
  131.4582  135.7094  159.8434 N   0  0  0  0  0  0  0  0  0  0  0  0
  131.1051  134.4961  159.2782 C   0  0  0  0  0  0  0  0  0  0  0  0
  130.6075  133.4230  159.9514 N   0  0  0  0  0  0  0  0  0  0  0  0
  130.4377  133.3713  160.9050 H   0  0  0  0  0  0  0  0  0  0  0  0
  130.3895  132.4268  159.0314 C   0  0  0  0  0  0  0  0  0  0  0  0
  130.7601  132.9193  157.8228 C   0  0  0  0  0  0  0  0  0  0  0  0
  130.7010  132.1957  156.5302 C   0  0  0  0  0  0  0  0  0  0  0  0
  129.9232  132.6959  155.4858 C   0  0  0  0  0  0  0  0  0  0  0  0
  129.8689  132.0238  154.2848 C   0  0  0  0  0  0  0  0  0  0  0  0
  130.5916  130.8435  154.1127 C   0  0  0  0  0  0  0  0  0  0  0  0
  130.5331  130.1201  152.8194 C   0  0  0  0  0  0  0  0  0  0  0  0
  130.6878  128.7354  152.7847 C   0  0  0  0  0  0  0  0  0  0  0  0
  130.6270  128.0669  151.5789 C   0  0  0  0  0  0  0  0  0  0  0  0
  130.4239  128.7697  150.4049 C   0  0  0  0  0  0  0  0  0  0  0  0
  130.2753  130.1449  150.4327 C   0  0  0  0  0  0  0  0  0  0  0  0
  130.3289  130.8233  151.6333 C   0  0  0  0  0  0  0  0  0  0  0  0
  131.3695  130.3436  155.1566 C   0  0  0  0  0  0  0  0  0  0  0  0
  131.4239  131.0152  156.3579 C   0  0  0  0  0  0  0  0  0  0  0  0
  131.1999  134.1897  158.0074 N   0  0  0  0  0  0  0  0  0  0  0  0
  131.5297  134.7777  157.3100 H   0  0  0  0  0  0  0  0  0  0  0  0
  133.7537  136.3436  161.4917 C   0  0  0  0  0  0  0  0  0  0  0  0
  134.7617  137.4638  161.5049 C   0  0  0  0  0  0  0  0  0  0  0  0
  135.0575  138.1411  160.3366 C   0  0  0  0  0  0  0  0  0  0  0  0
  135.9785  139.1719  160.3495 C   0  0  0  0  0  0  0  0  0  0  0  0
  136.6115  139.5184  161.5286 C   0  0  0  0  0  0  0  0  0  0  0  0
  136.3196  138.8377  162.6957 C   0  0  0  0  0  0  0  0  0  0  0  0
  135.3948  137.8103  162.6839 C   0  0  0  0  0  0  0  0  0  0  0  0
  132.3155  136.1780  163.8012 H   0  0  0  0  0  0  0  0  0  0  0  0
  132.9504  137.8320  163.6295 H   0  0  0  0  0  0  0  0  0  0  0  0
  130.3074  136.3219  161.4866 H   0  0  0  0  0  0  0  0  0  0  0  0
  131.4204  134.9698  161.8057 H   0  0  0  0  0  0  0  0  0  0  0  0
  131.8101  136.4204  159.2853 H   0  0  0  0  0  0  0  0  0  0  0  0
  129.9983  131.4402  159.2317 H   0  0  0  0  0  0  0  0  0  0  0  0
  129.3674  133.6125  155.6174 H   0  0  0  0  0  0  0  0  0  0  0  0
  129.2667  132.4110  153.4762 H   0  0  0  0  0  0  0  0  0  0  0  0
  130.8510  128.1861  153.7001 H   0  0  0  0  0  0  0  0  0  0  0  0
  130.7427  126.9935  151.5511 H   0  0  0  0  0  0  0  0  0  0  0  0
  130.3813  128.2429  149.4632 H   0  0  0  0  0  0  0  0  0  0  0  0
  130.1175  130.6887  149.5130 H   0  0  0  0  0  0  0  0  0  0  0  0
  130.2132  131.8968  151.6538 H   0  0  0  0  0  0  0  0  0  0  0  0
  131.9291  129.4295  155.0233 H   0  0  0  0  0  0  0  0  0  0  0  0
  132.0266  130.6281  157.1662 H   0  0  0  0  0  0  0  0  0  0  0  0
  134.0125  135.6130  162.2581 H   0  0  0  0  0  0  0  0  0  0  0  0
  133.7587  135.8618  160.5140 H   0  0  0  0  0  0  0  0  0  0  0  0
  134.5662  137.8674  159.4145 H   0  0  0  0  0  0  0  0  0  0  0  0
  136.2068  139.7035  159.4376 H   0  0  0  0  0  0  0  0  0  0  0  0
  137.3343  140.3208  161.5377 H   0  0  0  0  0  0  0  0  0  0  0  0
  136.8145  139.1081  163.6168 H   0  0  0  0  0  0  0  0  0  0  0  0
  135.1669  137.2782  163.5955 H   0  0  0  0  0  0  0  0  0  0  0  0
  1  2  1  0
  2  3  1  0
  2 33  1  0
  2 34  1  0
  3  4  1  6
  3  5  1  0
  3 26  1  0
  5  6  1  0
  5 35  1  0
  5 36  1  0
  6 37  1  0
  7  6  1  0
  7 24  2  0
  7  8  1  0
  8  9  1  0
  8 10  1  0
 10 11  2  0
 10 38  1  0
 11 12  1  0
 11 24  1  0
 12 23  1  0
 12 13  2  0
 13 14  1  0
 13 39  1  0
 14 15  2  0
 14 40  1  0
 15 16  1  0
 15 22  1  0
 16 21  1  0
 16 17  2  0
 17 18  1  0
 17 41  1  0
 18 19  2  0
 18 42  1  0
 19 20  1  0
 19 43  1  0
 20 21  2  0
 20 44  1  0
 21 45  1  0
 22 23  2  0
 22 46  1  0
 23 47  1  0
 24 25  1  0
 26 27  1  0
 26 48  1  0
 26 49  1  0
 27 32  1  0
 27 28  2  0
 28 29  1  0
 28 50  1  0
 29 30  2  0
 29 51  1  0
 30 31  1  0
 30 52  1  0
 31 32  2  0
 31 53  1  0
 32 54  1  0
M  CHG  1  24   1
M  END
>  <DOCK_score>  (1) 
-63.755993

>  <SMILES>  (1) 
BrC[C@H](CNc1[nH]cc(-c2ccc(-c3ccccc3)cc2)[nH+]1)Cc1ccccc1

$$$$
