O=C1CC=C(Nc2ccccc2Nc2cccc(F)c2NC2=[NH+]CCN2)N1
     RDKit          3D

 47 50  0  0  0  0  0  0  0  0999 V2000
  136.3699  140.9098  162.2019 O   0  0  0  0  0  0  0  0  0  0  0  0
  135.8519  140.2930  161.2951 C   0  0  0  0  0  0  0  0  0  0  0  0
  136.4219  140.0525  159.9116 C   0  0  0  0  0  0  0  0  0  0  0  0
  135.3521  139.2334  159.2192 C   0  0  0  0  0  0  0  0  0  0  0  0
  134.3734  139.0695  160.1013 C   0  0  0  0  0  0  0  0  0  0  0  0
  133.2035  138.3651  159.8396 N   0  0  0  0  0  0  0  0  0  0  0  0
  132.0128  138.7215  160.4843 C   0  0  0  0  0  0  0  0  0  0  0  0
  131.7921  140.0382  160.8596 C   0  0  0  0  0  0  0  0  0  0  0  0
  130.6155  140.3876  161.4957 C   0  0  0  0  0  0  0  0  0  0  0  0
  129.6557  139.4278  161.7597 C   0  0  0  0  0  0  0  0  0  0  0  0
  129.8645  138.1138  161.3841 C   0  0  0  0  0  0  0  0  0  0  0  0
  131.0446  137.7529  160.7507 C   0  0  0  0  0  0  0  0  0  0  0  0
  131.2608  136.4223  160.3747 N   0  0  0  0  0  0  0  0  0  0  0  0
  130.2883  135.4528  160.6429 C   0  0  0  0  0  0  0  0  0  0  0  0
  129.8954  135.2047  161.9509 C   0  0  0  0  0  0  0  0  0  0  0  0
  128.9393  134.2424  162.2151 C   0  0  0  0  0  0  0  0  0  0  0  0
  128.3625  133.5316  161.1784 C   0  0  0  0  0  0  0  0  0  0  0  0
  128.7438  133.7762  159.8705 C   0  0  0  0  0  0  0  0  0  0  0  0
  128.1777  133.0802  158.8602 F   0  0  0  0  0  0  0  0  0  0  0  0
  129.7078  134.7372  159.5972 C   0  0  0  0  0  0  0  0  0  0  0  0
  130.0967  134.9870  158.2724 N   0  0  0  0  0  0  0  0  0  0  0  0
  130.0508  133.9817  157.3443 C   0  0  0  0  0  0  0  0  0  0  0  0
  129.8252  134.2045  156.0595 N   0  0  0  0  0  0  0  0  0  0  0  0
  129.6747  135.0748  155.6585 H   0  0  0  0  0  0  0  0  0  0  0  0
  129.8422  132.9240  155.3352 C   0  0  0  0  0  0  0  0  0  0  0  0
  130.1140  131.8877  156.4442 C   0  0  0  0  0  0  0  0  0  0  0  0
  130.2228  132.7083  157.6606 N   0  0  0  0  0  0  0  0  0  0  0  0
  134.6494  139.6856  161.3096 N   0  0  0  0  0  0  0  0  0  0  0  0
  137.3540  139.4909  159.9738 H   0  0  0  0  0  0  0  0  0  0  0  0
  136.5788  140.9967  159.3902 H   0  0  0  0  0  0  0  0  0  0  0  0
  135.3798  138.8572  158.2073 H   0  0  0  0  0  0  0  0  0  0  0  0
  133.2123  137.6270  159.2103 H   0  0  0  0  0  0  0  0  0  0  0  0
  132.5395  140.7906  160.6553 H   0  0  0  0  0  0  0  0  0  0  0  0
  130.4455  141.4135  161.7876 H   0  0  0  0  0  0  0  0  0  0  0  0
  128.7383  139.7063  162.2570 H   0  0  0  0  0  0  0  0  0  0  0  0
  129.1109  137.3677  161.5880 H   0  0  0  0  0  0  0  0  0  0  0  0
  132.0847  136.1722  159.9282 H   0  0  0  0  0  0  0  0  0  0  0  0
  130.3405  135.7605  162.7629 H   0  0  0  0  0  0  0  0  0  0  0  0
  128.6385  134.0481  163.2339 H   0  0  0  0  0  0  0  0  0  0  0  0
  127.6122  132.7841  161.3899 H   0  0  0  0  0  0  0  0  0  0  0  0
  130.3983  135.8721  158.0142 H   0  0  0  0  0  0  0  0  0  0  0  0
  130.6400  132.9099  154.5926 H   0  0  0  0  0  0  0  0  0  0  0  0
  128.8773  132.7377  154.8637 H   0  0  0  0  0  0  0  0  0  0  0  0
  131.0472  131.3576  156.2540 H   0  0  0  0  0  0  0  0  0  0  0  0
  129.2849  131.1850  156.5280 H   0  0  0  0  0  0  0  0  0  0  0  0
  130.3934  132.3694  158.5533 H   0  0  0  0  0  0  0  0  0  0  0  0
  134.0519  139.6784  162.0736 H   0  0  0  0  0  0  0  0  0  0  0  0
  1  2  2  0
  2 28  1  0
  2  3  1  0
  3  4  1  0
  3 29  1  0
  3 30  1  0
  4  5  2  0
  4 31  1  0
  5  6  1  0
  5 28  1  0
  6  7  1  0
  6 32  1  0
  7 12  1  0
  7  8  2  0
  8  9  1  0
  8 33  1  0
  9 10  2  0
  9 34  1  0
 10 11  1  0
 10 35  1  0
 11 12  2  0
 11 36  1  0
 12 13  1  0
 13 14  1  0
 13 37  1  0
 14 20  1  0
 14 15  2  0
 15 16  1  0
 15 38  1  0
 16 17  2  0
 16 39  1  0
 17 18  1  0
 17 40  1  0
 18 19  1  0
 18 20  2  0
 20 21  1  0
 21 22  1  0
 21 41  1  0
 22 27  2  0
 22 23  1  0
 23 24  1  0
 23 25  1  0
 25 26  1  0
 25 42  1  0
 25 43  1  0
 26 27  1  0
 26 44  1  0
 26 45  1  0
 27 46  1  0
 28 47  1  0
M  CHG  1  27   1
M  END
>  <DOCK_score>  (1) 
-55.933243

>  <SMILES>  (1) 
O=C1CC=C(Nc2ccccc2Nc2cccc(F)c2NC2=[NH+]CCN2)N1

$$$$
