Fc1ccc(-c2c[nH]c(N[C@@H](CC3CCCC3)c3ccccc3)[nH+]2)cc1
     RDKit          3D

 51 54  0  0  1  0  0  0  0  0999 V2000
  131.1415  129.8184  150.6343 F   0  0  0  0  0  0  0  0  0  0  0  0
  131.0025  130.3248  151.8789 C   0  0  0  0  0  0  0  0  0  0  0  0
  130.3085  131.5087  152.0693 C   0  0  0  0  0  0  0  0  0  0  0  0
  130.1642  132.0298  153.3389 C   0  0  0  0  0  0  0  0  0  0  0  0
  130.7178  131.3632  154.4304 C   0  0  0  0  0  0  0  0  0  0  0  0
  130.5658  131.9197  155.7972 C   0  0  0  0  0  0  0  0  0  0  0  0
  129.9654  131.3056  156.8466 C   0  0  0  0  0  0  0  0  0  0  0  0
  130.0414  132.1707  157.9115 N   0  0  0  0  0  0  0  0  0  0  0  0
  129.6958  132.0146  158.8043 H   0  0  0  0  0  0  0  0  0  0  0  0
  130.6913  133.2866  157.4823 C   0  0  0  0  0  0  0  0  0  0  0  0
  130.9743  134.4014  158.2528 N   0  0  0  0  0  0  0  0  0  0  0  0
  130.0852  134.7746  159.3556 C   0  0  1  0  0  0  0  0  0  0  0  0
  130.0404  133.9598  160.0781 H   0  0  0  0  0  0  0  0  0  0  0  0
  130.6215  136.0338  160.0394 C   0  0  0  0  0  0  0  0  0  0  0  0
  132.0240  135.7594  160.5858 C   0  0  0  0  0  0  0  0  0  0  0  0
  131.9653  134.6558  161.6620 C   0  0  0  0  0  0  0  0  0  0  0  0
  133.0104  135.0975  162.7165 C   0  0  0  0  0  0  0  0  0  0  0  0
  132.8338  136.6359  162.7490 C   0  0  0  0  0  0  0  0  0  0  0  0
  132.5763  137.0183  161.2769 C   0  0  0  0  0  0  0  0  0  0  0  0
  128.7037  135.0450  158.8175 C   0  0  0  0  0  0  0  0  0  0  0  0
  127.5948  134.8024  159.6065 C   0  0  0  0  0  0  0  0  0  0  0  0
  126.3279  135.0542  159.1143 C   0  0  0  0  0  0  0  0  0  0  0  0
  126.1693  135.5408  157.8302 C   0  0  0  0  0  0  0  0  0  0  0  0
  127.2779  135.7785  157.0394 C   0  0  0  0  0  0  0  0  0  0  0  0
  128.5450  135.5304  157.5328 C   0  0  0  0  0  0  0  0  0  0  0  0
  131.0060  133.1315  156.2193 N   0  0  0  0  0  0  0  0  0  0  0  0
  131.4749  133.7813  155.6727 H   0  0  0  0  0  0  0  0  0  0  0  0
  131.4197  130.1753  154.2335 C   0  0  0  0  0  0  0  0  0  0  0  0
  131.5541  129.6587  152.9612 C   0  0  0  0  0  0  0  0  0  0  0  0
  129.8802  132.0248  151.2227 H   0  0  0  0  0  0  0  0  0  0  0  0
  129.6227  132.9525  153.4864 H   0  0  0  0  0  0  0  0  0  0  0  0
  129.5103  130.3261  156.8444 H   0  0  0  0  0  0  0  0  0  0  0  0
  131.7615  134.9355  158.0624 H   0  0  0  0  0  0  0  0  0  0  0  0
  130.6660  136.8487  159.3170 H   0  0  0  0  0  0  0  0  0  0  0  0
  129.9598  136.3116  160.8601 H   0  0  0  0  0  0  0  0  0  0  0  0
  132.6874  135.4568  159.7756 H   0  0  0  0  0  0  0  0  0  0  0  0
  130.9711  134.6089  162.1066 H   0  0  0  0  0  0  0  0  0  0  0  0
  132.2389  133.6911  161.2346 H   0  0  0  0  0  0  0  0  0  0  0  0
  134.0178  134.8310  162.3971 H   0  0  0  0  0  0  0  0  0  0  0  0
  132.7847  134.6622  163.6900 H   0  0  0  0  0  0  0  0  0  0  0  0
  133.7412  137.1165  163.1147 H   0  0  0  0  0  0  0  0  0  0  0  0
  131.9799  136.9089  163.3690 H   0  0  0  0  0  0  0  0  0  0  0  0
  133.5081  137.3263  160.8026 H   0  0  0  0  0  0  0  0  0  0  0  0
  131.8450  137.8249  161.2230 H   0  0  0  0  0  0  0  0  0  0  0  0
  127.7187  134.4191  160.6086 H   0  0  0  0  0  0  0  0  0  0  0  0
  125.4618  134.8681  159.7322 H   0  0  0  0  0  0  0  0  0  0  0  0
  125.1792  135.7350  157.4448 H   0  0  0  0  0  0  0  0  0  0  0  0
  127.1539  136.1584  156.0360 H   0  0  0  0  0  0  0  0  0  0  0  0
  129.4111  135.7162  156.9150 H   0  0  0  0  0  0  0  0  0  0  0  0
  131.8541  129.6578  155.0761 H   0  0  0  0  0  0  0  0  0  0  0  0
  132.0944  128.7361  152.8082 H   0  0  0  0  0  0  0  0  0  0  0  0
  1  2  1  0
  2 29  2  0
  2  3  1  0
  3  4  2  0
  3 30  1  0
  4  5  1  0
  4 31  1  0
  5  6  1  0
  5 28  2  0
  6 26  1  0
  6  7  2  0
  7  8  1  0
  7 32  1  0
  8  9  1  0
  8 10  1  0
 10 11  1  0
 10 26  2  0
 11 12  1  0
 11 33  1  0
 12 13  1  1
 12 14  1  0
 12 20  1  0
 14 15  1  0
 14 34  1  0
 14 35  1  0
 15 19  1  0
 15 16  1  0
 15 36  1  0
 16 17  1  0
 16 37  1  0
 16 38  1  0
 17 18  1  0
 17 39  1  0
 17 40  1  0
 18 19  1  0
 18 41  1  0
 18 42  1  0
 19 43  1  0
 19 44  1  0
 20 25  1  0
 20 21  2  0
 21 22  1  0
 21 45  1  0
 22 23  2  0
 22 46  1  0
 23 24  1  0
 23 47  1  0
 24 25  2  0
 24 48  1  0
 25 49  1  0
 26 27  1  0
 28 29  1  0
 28 50  1  0
 29 51  1  0
M  CHG  1  26   1
M  END
>  <DOCK_score>  (1) 
-59.268768

>  <SMILES>  (1) 
Fc1ccc(-c2c[nH]c(N[C@@H](CC3CCCC3)c3ccccc3)[nH+]2)cc1

$$$$
