CC=Cc1ccc(-c2c[nH]c(NC(C3[C@H](C)[C@H]3C)[C@@H](C(N)=O)c3ccc(F)cc3)[nH+]2)cc1
     RDKit          3D

 62 65  0  0  1  0  0  0  0  0999 V2000
  130.9716  129.9211  149.6588 C   0  0  0  0  0  0  0  0  0  0  0  0
  130.8295  130.5867  151.0034 C   0  0  0  0  0  0  0  0  0  0  0  0
  131.1039  129.9101  152.1108 C   0  0  0  0  0  0  0  0  0  0  0  0
  130.9646  130.5625  153.4285 C   0  0  0  0  0  0  0  0  0  0  0  0
  130.9588  131.9562  153.5210 C   0  0  0  0  0  0  0  0  0  0  0  0
  130.8284  132.5637  154.7495 C   0  0  0  0  0  0  0  0  0  0  0  0
  130.7021  131.7875  155.9021 C   0  0  0  0  0  0  0  0  0  0  0  0
  130.5624  132.4423  157.2245 C   0  0  0  0  0  0  0  0  0  0  0  0
  129.8906  131.9467  158.2941 C   0  0  0  0  0  0  0  0  0  0  0  0
  130.0144  132.8686  159.3045 N   0  0  0  0  0  0  0  0  0  0  0  0
  129.6408  132.7967  160.1968 H   0  0  0  0  0  0  0  0  0  0  0  0
  130.7585  133.9017  158.8232 C   0  0  0  0  0  0  0  0  0  0  0  0
  131.1124  135.0382  159.5298 N   0  0  0  0  0  0  0  0  0  0  0  0
  130.6788  135.2013  160.9196 C   0  0  2  0  0  0  0  0  0  0  0  0
  129.3252  135.9137  160.9513 C   0  0  0  0  0  0  0  0  0  0  0  0
  128.0677  135.0420  160.9418 C   0  0  2  0  0  0  0  0  0  0  0  0
  128.2048  133.9610  160.9131 H   0  0  0  0  0  0  0  0  0  0  0  0
  126.8455  135.5724  160.1896 C   0  0  0  0  0  0  0  0  0  0  0  0
  128.4823  135.7730  162.2204 C   0  0  1  0  0  0  0  0  0  0  0  0
  127.8846  136.6320  162.5254 H   0  0  0  0  0  0  0  0  0  0  0  0
  129.0571  134.9306  163.3610 C   0  0  0  0  0  0  0  0  0  0  0  0
  131.7115  136.0342  161.6815 C   0  0  1  0  0  0  0  0  0  0  0  0
  131.2513  136.4539  162.5762 H   0  0  0  0  0  0  0  0  0  0  0  0
  132.8711  135.1570  162.0775 C   0  0  0  0  0  0  0  0  0  0  0  0
  133.9077  135.6788  162.7627 N   0  0  0  0  0  0  0  0  0  0  0  0
  132.8714  133.9812  161.7796 O   0  0  0  0  0  0  0  0  0  0  0  0
  132.2054  137.1518  160.7993 C   0  0  0  0  0  0  0  0  0  0  0  0
  133.3091  136.9564  159.9899 C   0  0  0  0  0  0  0  0  0  0  0  0
  133.7594  137.9786  159.1763 C   0  0  0  0  0  0  0  0  0  0  0  0
  133.1114  139.2022  159.1799 C   0  0  0  0  0  0  0  0  0  0  0  0
  133.5541  140.2041  158.3889 F   0  0  0  0  0  0  0  0  0  0  0  0
  132.0096  139.3985  159.9950 C   0  0  0  0  0  0  0  0  0  0  0  0
  131.5578  138.3731  160.8040 C   0  0  0  0  0  0  0  0  0  0  0  0
  131.0800  133.6457  157.5786 N   0  0  0  0  0  0  0  0  0  0  0  0
  131.6058  134.2232  157.0033 H   0  0  0  0  0  0  0  0  0  0  0  0
  130.7132  130.3953  155.8111 C   0  0  0  0  0  0  0  0  0  0  0  0
  130.8381  129.7863  154.5828 C   0  0  0  0  0  0  0  0  0  0  0  0
  130.3100  129.0562  149.6099 H   0  0  0  0  0  0  0  0  0  0  0  0
  130.7042  130.6279  148.8733 H   0  0  0  0  0  0  0  0  0  0  0  0
  132.0032  129.5975  149.5208 H   0  0  0  0  0  0  0  0  0  0  0  0
  130.5040  131.6146  151.0652 H   0  0  0  0  0  0  0  0  0  0  0  0
  131.4294  128.8821  152.0490 H   0  0  0  0  0  0  0  0  0  0  0  0
  131.0561  132.5570  152.6289 H   0  0  0  0  0  0  0  0  0  0  0  0
  130.8242  133.6413  154.8212 H   0  0  0  0  0  0  0  0  0  0  0  0
  129.3602  131.0071  158.3419 H   0  0  0  0  0  0  0  0  0  0  0  0
  131.6474  135.7265  159.1046 H   0  0  0  0  0  0  0  0  0  0  0  0
  130.5849  134.2216  161.3882 H   0  0  0  0  0  0  0  0  0  0  0  0
  129.2819  136.8651  160.4213 H   0  0  0  0  0  0  0  0  0  0  0  0
  126.5357  136.5229  160.6241 H   0  0  0  0  0  0  0  0  0  0  0  0
  127.1002  135.7186  159.1399 H   0  0  0  0  0  0  0  0  0  0  0  0
  126.0300  134.8535  160.2688 H   0  0  0  0  0  0  0  0  0  0  0  0
  129.2235  133.9115  163.0119 H   0  0  0  0  0  0  0  0  0  0  0  0
  130.0031  135.3611  163.6895 H   0  0  0  0  0  0  0  0  0  0  0  0
  128.3542  134.9191  164.1941 H   0  0  0  0  0  0  0  0  0  0  0  0
  133.9075  136.6192  163.0009 H   0  0  0  0  0  0  0  0  0  0  0  0
  134.6541  135.1142  163.0175 H   0  0  0  0  0  0  0  0  0  0  0  0
  133.8170  136.0034  159.9906 H   0  0  0  0  0  0  0  0  0  0  0  0
  134.6188  137.8244  158.5405 H   0  0  0  0  0  0  0  0  0  0  0  0
  131.5029  140.3523  159.9984 H   0  0  0  0  0  0  0  0  0  0  0  0
  130.6984  138.5260  161.4399 H   0  0  0  0  0  0  0  0  0  0  0  0
  130.6199  129.7951  156.7042 H   0  0  0  0  0  0  0  0  0  0  0  0
  130.8423  128.7086  154.5120 H   0  0  0  0  0  0  0  0  0  0  0  0
  1  2  1  0
  1 38  1  0
  1 39  1  0
  1 40  1  0
  2  3  2  0
  2 41  1  0
  3  4  1  0
  3 42  1  0
  4 37  2  0
  4  5  1  0
  5  6  2  0
  5 43  1  0
  6  7  1  0
  6 44  1  0
  7  8  1  0
  7 36  2  0
  8 34  1  0
  8  9  2  0
  9 10  1  0
  9 45  1  0
 10 11  1  0
 10 12  1  0
 12 13  1  0
 12 34  2  0
 13 14  1  0
 13 46  1  0
 14 15  1  0
 14 22  1  0
 14 47  1  1
 15 19  1  0
 15 16  1  0
 15 48  1  0
 16 17  1  1
 16 18  1  0
 16 19  1  0
 18 49  1  0
 18 50  1  0
 18 51  1  0
 19 20  1  1
 19 21  1  0
 21 52  1  0
 21 53  1  0
 21 54  1  0
 22 23  1  1
 22 24  1  0
 22 27  1  0
 24 25  1  0
 24 26  2  0
 25 55  1  0
 25 56  1  0
 27 33  1  0
 27 28  2  0
 28 29  1  0
 28 57  1  0
 29 30  2  0
 29 58  1  0
 30 31  1  0
 30 32  1  0
 32 33  2  0
 32 59  1  0
 33 60  1  0
 34 35  1  0
 36 37  1  0
 36 61  1  0
 37 62  1  0
M  CHG  1  34   1
M  END
>  <DOCK_score>  (1) 
-61.242561

>  <SMILES>  (1) 
CC=Cc1ccc(-c2c[nH]c(NC(C3[C@H](C)[C@H]3C)[C@@H](C(N)=O)c3ccc(F)cc3)[nH+]2)cc1

$$$$
