[NH3+][C@H](Cc1cccc(-c2cccc(-c3ccccc3)c2)c1)C(=O)Nc1cccc(O)c1
     RDKit          3D

 56 59  0  0  1  0  0  0  0  0999 V2000
  131.2520  133.6462  157.6931 N   0  0  0  0  0  0  0  0  0  0  0  0
  130.6049  133.8561  156.9479 H   0  0  0  0  0  0  0  0  0  0  0  0
  132.1445  134.0725  157.4934 H   0  0  0  0  0  0  0  0  0  0  0  0
  131.3662  132.6465  157.7680 H   0  0  0  0  0  0  0  0  0  0  0  0
  130.7290  134.1756  158.9596 C   0  0  2  0  0  0  0  0  0  0  0  0
  130.6058  135.2557  158.8786 H   0  0  0  0  0  0  0  0  0  0  0  0
  131.7104  133.8576  160.0894 C   0  0  0  0  0  0  0  0  0  0  0  0
  131.1738  134.4007  161.3886 C   0  0  0  0  0  0  0  0  0  0  0  0
  130.3616  133.6121  162.1838 C   0  0  0  0  0  0  0  0  0  0  0  0
  129.8657  134.1041  163.3774 C   0  0  0  0  0  0  0  0  0  0  0  0
  130.1795  135.3861  163.7818 C   0  0  0  0  0  0  0  0  0  0  0  0
  130.9969  136.1847  162.9850 C   0  0  0  0  0  0  0  0  0  0  0  0
  131.3380  137.5636  163.4150 C   0  0  0  0  0  0  0  0  0  0  0  0
  130.4451  138.2914  164.2003 C   0  0  0  0  0  0  0  0  0  0  0  0
  130.7611  139.5744  164.6009 C   0  0  0  0  0  0  0  0  0  0  0  0
  131.9623  140.1443  164.2263 C   0  0  0  0  0  0  0  0  0  0  0  0
  132.8625  139.4261  163.4409 C   0  0  0  0  0  0  0  0  0  0  0  0
  134.1524  140.0399  163.0389 C   0  0  0  0  0  0  0  0  0  0  0  0
  134.7572  139.6728  161.8386 C   0  0  0  0  0  0  0  0  0  0  0  0
  135.9546  140.2503  161.4673 C   0  0  0  0  0  0  0  0  0  0  0  0
  136.5594  141.1838  162.2894 C   0  0  0  0  0  0  0  0  0  0  0  0
  135.9657  141.5484  163.4843 C   0  0  0  0  0  0  0  0  0  0  0  0
  134.7659  140.9810  163.8629 C   0  0  0  0  0  0  0  0  0  0  0  0
  132.5519  138.1302  163.0399 C   0  0  0  0  0  0  0  0  0  0  0  0
  131.4981  135.6819  161.7858 C   0  0  0  0  0  0  0  0  0  0  0  0
  129.3961  133.5389  159.2579 C   0  0  0  0  0  0  0  0  0  0  0  0
  129.3141  132.3357  159.3871 O   0  0  0  0  0  0  0  0  0  0  0  0
  128.2950  134.3065  159.3809 N   0  0  0  0  0  0  0  0  0  0  0  0
  127.0574  133.7153  159.6577 C   0  0  0  0  0  0  0  0  0  0  0  0
  126.7880  132.4261  159.2153 C   0  0  0  0  0  0  0  0  0  0  0  0
  125.5663  131.8426  159.4886 C   0  0  0  0  0  0  0  0  0  0  0  0
  124.6116  132.5364  160.2079 C   0  0  0  0  0  0  0  0  0  0  0  0
  124.8730  133.8264  160.6472 C   0  0  0  0  0  0  0  0  0  0  0  0
  123.9310  134.5097  161.3491 O   0  0  0  0  0  0  0  0  0  0  0  0
  126.0978  134.4156  160.3746 C   0  0  0  0  0  0  0  0  0  0  0  0
  131.8335  132.7775  160.1704 H   0  0  0  0  0  0  0  0  0  0  0  0
  132.6744  134.3182  159.8736 H   0  0  0  0  0  0  0  0  0  0  0  0
  130.1141  132.6083  161.8715 H   0  0  0  0  0  0  0  0  0  0  0  0
  129.2321  133.4842  163.9943 H   0  0  0  0  0  0  0  0  0  0  0  0
  129.7916  135.7694  164.7141 H   0  0  0  0  0  0  0  0  0  0  0  0
  129.5041  137.8510  164.4955 H   0  0  0  0  0  0  0  0  0  0  0  0
  130.0665  140.1346  165.2092 H   0  0  0  0  0  0  0  0  0  0  0  0
  132.2042  141.1483  164.5422 H   0  0  0  0  0  0  0  0  0  0  0  0
  134.2880  138.9406  161.1980 H   0  0  0  0  0  0  0  0  0  0  0  0
  136.4221  139.9697  160.5349 H   0  0  0  0  0  0  0  0  0  0  0  0
  137.4985  141.6299  161.9971 H   0  0  0  0  0  0  0  0  0  0  0  0
  136.4422  142.2779  164.1223 H   0  0  0  0  0  0  0  0  0  0  0  0
  134.3031  141.2664  164.7963 H   0  0  0  0  0  0  0  0  0  0  0  0
  133.2486  137.5683  162.4353 H   0  0  0  0  0  0  0  0  0  0  0  0
  132.1357  136.2952  161.1666 H   0  0  0  0  0  0  0  0  0  0  0  0
  128.3606  135.2687  159.2775 H   0  0  0  0  0  0  0  0  0  0  0  0
  127.5342  131.8801  158.6573 H   0  0  0  0  0  0  0  0  0  0  0  0
  125.3585  130.8405  159.1437 H   0  0  0  0  0  0  0  0  0  0  0  0
  123.6590  132.0755  160.4245 H   0  0  0  0  0  0  0  0  0  0  0  0
  124.2046  135.3993  161.6116 H   0  0  0  0  0  0  0  0  0  0  0  0
  126.3049  135.4178  160.7198 H   0  0  0  0  0  0  0  0  0  0  0  0
  1  2  1  0
  1  3  1  0
  1  4  1  0
  1  5  1  0
  5  6  1  6
  5  7  1  0
  5 26  1  0
  7  8  1  0
  7 36  1  0
  7 37  1  0
  8 25  1  0
  8  9  2  0
  9 10  1  0
  9 38  1  0
 10 11  2  0
 10 39  1  0
 11 12  1  0
 11 40  1  0
 12 13  1  0
 12 25  2  0
 13 24  1  0
 13 14  2  0
 14 15  1  0
 14 41  1  0
 15 16  2  0
 15 42  1  0
 16 17  1  0
 16 43  1  0
 17 18  1  0
 17 24  2  0
 18 23  1  0
 18 19  2  0
 19 20  1  0
 19 44  1  0
 20 21  2  0
 20 45  1  0
 21 22  1  0
 21 46  1  0
 22 23  2  0
 22 47  1  0
 23 48  1  0
 24 49  1  0
 25 50  1  0
 26 27  2  0
 26 28  1  0
 28 29  1  0
 28 51  1  0
 29 35  1  0
 29 30  2  0
 30 31  1  0
 30 52  1  0
 31 32  2  0
 31 53  1  0
 32 33  1  0
 32 54  1  0
 33 34  1  0
 33 35  2  0
 34 55  1  0
 35 56  1  0
M  CHG  1   1   1
M  END
>  <DOCK_score>  (1) 
-44.651009

>  <SMILES>  (1) 
[NH3+][C@H](Cc1cccc(-c2cccc(-c3ccccc3)c2)c1)C(=O)Nc1cccc(O)c1

$$$$
