CCc1ccc(-c2c[nH]c(N[C@@H](CO)c3ccccc3)[nH+]2)cc1
     RDKit          3D

 45 47  0  0  1  0  0  0  0  0999 V2000
  129.9295  128.7366  151.3784 C   0  0  0  0  0  0  0  0  0  0  0  0
  131.1235  129.6369  151.7013 C   0  0  0  0  0  0  0  0  0  0  0  0
  130.8717  130.3585  153.0002 C   0  0  0  0  0  0  0  0  0  0  0  0
  131.2737  129.7884  154.1942 C   0  0  0  0  0  0  0  0  0  0  0  0
  131.0502  130.4469  155.3862 C   0  0  0  0  0  0  0  0  0  0  0  0
  130.4083  131.6841  155.3862 C   0  0  0  0  0  0  0  0  0  0  0  0
  130.1606  132.3943  156.6647 C   0  0  0  0  0  0  0  0  0  0  0  0
  129.4311  131.9278  157.7083 C   0  0  0  0  0  0  0  0  0  0  0  0
  129.4607  132.8979  158.6805 N   0  0  0  0  0  0  0  0  0  0  0  0
  129.0283  132.8554  159.5478 H   0  0  0  0  0  0  0  0  0  0  0  0
  130.2081  133.9298  158.2021 C   0  0  0  0  0  0  0  0  0  0  0  0
  130.4825  135.1072  158.8764 N   0  0  0  0  0  0  0  0  0  0  0  0
  129.9507  135.3202  160.2248 C   0  0  1  0  0  0  0  0  0  0  0  0
  130.3253  134.5422  160.8900 H   0  0  0  0  0  0  0  0  0  0  0  0
  130.3979  136.6899  160.7390 C   0  0  0  0  0  0  0  0  0  0  0  0
  131.7423  136.6041  161.2157 O   0  0  0  0  0  0  0  0  0  0  0  0
  128.4451  135.2655  160.1853 C   0  0  0  0  0  0  0  0  0  0  0  0
  127.7407  134.8183  161.2875 C   0  0  0  0  0  0  0  0  0  0  0  0
  126.3595  134.7723  161.2528 C   0  0  0  0  0  0  0  0  0  0  0  0
  125.6833  135.1649  160.1130 C   0  0  0  0  0  0  0  0  0  0  0  0
  126.3880  135.6071  159.0090 C   0  0  0  0  0  0  0  0  0  0  0  0
  127.7689  135.6572  159.0451 C   0  0  0  0  0  0  0  0  0  0  0  0
  130.6288  133.6230  156.9992 N   0  0  0  0  0  0  0  0  0  0  0  0
  131.1845  134.1853  156.4373 H   0  0  0  0  0  0  0  0  0  0  0  0
  130.0007  132.2517  154.1804 C   0  0  0  0  0  0  0  0  0  0  0  0
  130.2342  131.5866  152.9939 C   0  0  0  0  0  0  0  0  0  0  0  0
  130.1117  128.2146  150.4389 H   0  0  0  0  0  0  0  0  0  0  0  0
  129.7970  128.0085  152.1787 H   0  0  0  0  0  0  0  0  0  0  0  0
  129.0296  129.3446  151.2878 H   0  0  0  0  0  0  0  0  0  0  0  0
  132.0234  129.0293  151.7917 H   0  0  0  0  0  0  0  0  0  0  0  0
  131.2559  130.3656  150.9007 H   0  0  0  0  0  0  0  0  0  0  0  0
  131.7671  128.8276  154.1934 H   0  0  0  0  0  0  0  0  0  0  0  0
  131.3687  130.0026  156.3178 H   0  0  0  0  0  0  0  0  0  0  0  0
  128.9238  130.9761  157.7644 H   0  0  0  0  0  0  0  0  0  0  0  0
  131.0267  135.7913  158.4562 H   0  0  0  0  0  0  0  0  0  0  0  0
  130.3454  137.4171  159.9288 H   0  0  0  0  0  0  0  0  0  0  0  0
  129.7435  137.0040  161.5522 H   0  0  0  0  0  0  0  0  0  0  0  0
  131.8638  135.9743  161.9393 H   0  0  0  0  0  0  0  0  0  0  0  0
  128.2692  134.5081  162.1768 H   0  0  0  0  0  0  0  0  0  0  0  0
  125.8089  134.4272  162.1155 H   0  0  0  0  0  0  0  0  0  0  0  0
  124.6043  135.1265  160.0850 H   0  0  0  0  0  0  0  0  0  0  0  0
  125.8596  135.9138  158.1183 H   0  0  0  0  0  0  0  0  0  0  0  0
  128.3195  136.0027  158.1826 H   0  0  0  0  0  0  0  0  0  0  0  0
  129.5026  133.2099  154.1744 H   0  0  0  0  0  0  0  0  0  0  0  0
  129.9183  132.0253  152.0589 H   0  0  0  0  0  0  0  0  0  0  0  0
  1  2  1  0
  1 27  1  0
  1 28  1  0
  1 29  1  0
  2  3  1  0
  2 30  1  0
  2 31  1  0
  3 26  2  0
  3  4  1  0
  4  5  2  0
  4 32  1  0
  5  6  1  0
  5 33  1  0
  6  7  1  0
  6 25  2  0
  7 23  1  0
  7  8  2  0
  8  9  1  0
  8 34  1  0
  9 10  1  0
  9 11  1  0
 11 12  1  0
 11 23  2  0
 12 13  1  0
 12 35  1  0
 13 14  1  1
 13 15  1  0
 13 17  1  0
 15 16  1  0
 15 36  1  0
 15 37  1  0
 16 38  1  0
 17 22  1  0
 17 18  2  0
 18 19  1  0
 18 39  1  0
 19 20  2  0
 19 40  1  0
 20 21  1  0
 20 41  1  0
 21 22  2  0
 21 42  1  0
 22 43  1  0
 23 24  1  0
 25 26  1  0
 25 44  1  0
 26 45  1  0
M  CHG  1  23   1
M  END
>  <DOCK_score>  (1) 
-57.79166

>  <SMILES>  (1) 
CCc1ccc(-c2c[nH]c(N[C@@H](CO)c3ccccc3)[nH+]2)cc1

$$$$
