CC/C=C\CNc1ccc(-c2n[nH]cc2C[NH2+]C2(C)CC=CC2)o1
     RDKit          3D

 51 53  0  0  1  0  0  0  0  0999 V2000
  127.4675  140.6678  164.8803 C   0  0  0  0  0  0  0  0  0  0  0  0
  127.4176  139.4203  163.9960 C   0  0  0  0  0  0  0  0  0  0  0  0
  126.4335  138.4352  164.5721 C   0  0  0  0  0  0  0  0  0  0  0  0
  126.2286  137.2881  163.9737 C   0  0  0  0  0  0  0  0  0  0  0  0
  127.0912  136.8823  162.8065 C   0  0  0  0  0  0  0  0  0  0  0  0
  126.3164  136.0324  161.8988 N   0  0  0  0  0  0  0  0  0  0  0  0
  126.9571  135.0575  161.1430 C   0  0  0  0  0  0  0  0  0  0  0  0
  126.3644  133.9757  160.5788 C   0  0  0  0  0  0  0  0  0  0  0  0
  127.3738  133.2570  159.9084 C   0  0  0  0  0  0  0  0  0  0  0  0
  128.5344  133.9385  160.0979 C   0  0  0  0  0  0  0  0  0  0  0  0
  129.8605  133.5521  159.5731 C   0  0  0  0  0  0  0  0  0  0  0  0
  130.1250  132.4904  158.8373 N   0  0  0  0  0  0  0  0  0  0  0  0
  131.4970  132.4879  158.5554 N   0  0  0  0  0  0  0  0  0  0  0  0
  131.9694  131.8200  158.0343 H   0  0  0  0  0  0  0  0  0  0  0  0
  132.0485  133.5765  159.1346 C   0  0  0  0  0  0  0  0  0  0  0  0
  131.0678  134.2559  159.7669 C   0  0  0  0  0  0  0  0  0  0  0  0
  131.2344  135.5349  160.5463 C   0  0  0  0  0  0  0  0  0  0  0  0
  131.0461  136.6829  159.6494 N   0  0  0  0  0  0  0  0  0  0  0  0
  130.1197  136.6501  159.2509 H   0  0  0  0  0  0  0  0  0  0  0  0
  131.7318  136.6480  158.9099 H   0  0  0  0  0  0  0  0  0  0  0  0
  131.2084  137.9296  160.4091 C   0  0  0  0  0  0  0  0  0  0  0  0
  130.2489  137.9723  161.6001 C   0  0  0  0  0  0  0  0  0  0  0  0
  132.6733  138.1123  160.8698 C   0  0  0  0  0  0  0  0  0  0  0  0
  133.3145  138.9486  159.7860 C   0  0  0  0  0  0  0  0  0  0  0  0
  132.4115  139.5217  159.0379 C   0  0  0  0  0  0  0  0  0  0  0  0
  131.0172  139.1641  159.4978 C   0  0  0  0  0  0  0  0  0  0  0  0
  128.2688  135.0254  160.8527 O   0  0  0  0  0  0  0  0  0  0  0  0
  126.4785  141.1241  164.9212 H   0  0  0  0  0  0  0  0  0  0  0  0
  127.7804  140.3878  165.8862 H   0  0  0  0  0  0  0  0  0  0  0  0
  128.1793  141.3804  164.4636 H   0  0  0  0  0  0  0  0  0  0  0  0
  128.4068  138.9641  163.9551 H   0  0  0  0  0  0  0  0  0  0  0  0
  127.1048  139.7003  162.9900 H   0  0  0  0  0  0  0  0  0  0  0  0
  125.8973  138.6748  165.4784 H   0  0  0  0  0  0  0  0  0  0  0  0
  125.4414  136.6330  164.3169 H   0  0  0  0  0  0  0  0  0  0  0  0
  127.9580  136.3304  163.1698 H   0  0  0  0  0  0  0  0  0  0  0  0
  127.4245  137.7732  162.2741 H   0  0  0  0  0  0  0  0  0  0  0  0
  125.3564  136.1501  161.8253 H   0  0  0  0  0  0  0  0  0  0  0  0
  125.3178  133.7149  160.6332 H   0  0  0  0  0  0  0  0  0  0  0  0
  127.2492  132.3408  159.3505 H   0  0  0  0  0  0  0  0  0  0  0  0
  133.0914  133.8548  159.0983 H   0  0  0  0  0  0  0  0  0  0  0  0
  132.2351  135.5703  160.9768 H   0  0  0  0  0  0  0  0  0  0  0  0
  130.4937  135.5726  161.3451 H   0  0  0  0  0  0  0  0  0  0  0  0
  130.4527  137.1301  162.2613 H   0  0  0  0  0  0  0  0  0  0  0  0
  130.3889  138.9051  162.1463 H   0  0  0  0  0  0  0  0  0  0  0  0
  129.2214  137.9121  161.2413 H   0  0  0  0  0  0  0  0  0  0  0  0
  132.7086  138.6366  161.8247 H   0  0  0  0  0  0  0  0  0  0  0  0
  133.1702  137.1453  160.9481 H   0  0  0  0  0  0  0  0  0  0  0  0
  134.3803  139.0573  159.6488 H   0  0  0  0  0  0  0  0  0  0  0  0
  132.6319  140.1669  158.2003 H   0  0  0  0  0  0  0  0  0  0  0  0
  130.3888  138.9117  158.6437 H   0  0  0  0  0  0  0  0  0  0  0  0
  130.5784  139.9876  160.0610 H   0  0  0  0  0  0  0  0  0  0  0  0
  1  2  1  0
  1 28  1  0
  1 29  1  0
  1 30  1  0
  2  3  1  0
  2 31  1  0
  2 32  1  0
  3  4  2  0
  3 33  1  0
  4  5  1  0
  4 34  1  0
  5  6  1  0
  5 35  1  0
  5 36  1  0
  6  7  1  0
  6 37  1  0
  7 27  1  0
  7  8  2  0
  8  9  1  0
  8 38  1  0
  9 10  2  0
  9 39  1  0
 10 11  1  0
 10 27  1  0
 11 16  1  0
 11 12  2  0
 12 13  1  0
 13 14  1  0
 13 15  1  0
 15 16  2  0
 15 40  1  0
 16 17  1  0
 17 18  1  0
 17 41  1  0
 17 42  1  0
 18 19  1  0
 18 20  1  0
 18 21  1  0
 21 26  1  0
 21 22  1  0
 21 23  1  0
 22 43  1  0
 22 44  1  0
 22 45  1  0
 23 24  1  0
 23 46  1  0
 23 47  1  0
 24 25  2  0
 24 48  1  0
 25 26  1  0
 25 49  1  0
 26 50  1  0
 26 51  1  0
M  CHG  1  18   1
M  END
>  <DOCK_score>  (1) 
-43.021992

>  <SMILES>  (1) 
CC/C=C\CNc1ccc(-c2n[nH]cc2C[NH2+]C2(C)CC=CC2)o1

$$$$
