Cc1cccc([C@@H](Nc2[nH]cc(-c3ccc(N)cc3)[nH+]2)c2ccc(SC3=CCCCC3)cc2)c1
     RDKit          3D

 65 69  0  0  1  0  0  0  0  0999 V2000
  125.6724  134.2391  162.4901 C   0  0  0  0  0  0  0  0  0  0  0  0
  126.3786  134.7027  161.2420 C   0  0  0  0  0  0  0  0  0  0  0  0
  125.6523  134.9770  160.0981 C   0  0  0  0  0  0  0  0  0  0  0  0
  126.3000  135.4017  158.9534 C   0  0  0  0  0  0  0  0  0  0  0  0
  127.6744  135.5521  158.9523 C   0  0  0  0  0  0  0  0  0  0  0  0
  128.4005  135.2778  160.0958 C   0  0  0  0  0  0  0  0  0  0  0  0
  129.8987  135.4414  160.0944 C   0  0  1  0  0  0  0  0  0  0  0  0
  130.3421  134.7328  160.7940 H   0  0  0  0  0  0  0  0  0  0  0  0
  130.4164  135.1871  158.7478 N   0  0  0  0  0  0  0  0  0  0  0  0
  130.2140  133.9552  158.1495 C   0  0  0  0  0  0  0  0  0  0  0  0
  129.5485  132.9052  158.7029 N   0  0  0  0  0  0  0  0  0  0  0  0
  129.1342  132.8852  159.5798 H   0  0  0  0  0  0  0  0  0  0  0  0
  129.5719  131.8778  157.7895 C   0  0  0  0  0  0  0  0  0  0  0  0
  130.2505  132.3302  156.7064 C   0  0  0  0  0  0  0  0  0  0  0  0
  130.5277  131.5634  155.4670 C   0  0  0  0  0  0  0  0  0  0  0  0
  130.0506  132.0229  154.2403 C   0  0  0  0  0  0  0  0  0  0  0  0
  130.3140  131.3112  153.0890 C   0  0  0  0  0  0  0  0  0  0  0  0
  131.0443  130.1310  153.1520 C   0  0  0  0  0  0  0  0  0  0  0  0
  131.3047  129.4089  151.9849 N   0  0  0  0  0  0  0  0  0  0  0  0
  131.5165  129.6678  154.3748 C   0  0  0  0  0  0  0  0  0  0  0  0
  131.2606  130.3791  155.5279 C   0  0  0  0  0  0  0  0  0  0  0  0
  130.6271  133.6096  156.9544 N   0  0  0  0  0  0  0  0  0  0  0  0
  131.1247  134.1776  156.3455 H   0  0  0  0  0  0  0  0  0  0  0  0
  130.2509  136.8461  160.5111 C   0  0  0  0  0  0  0  0  0  0  0  0
  129.7959  137.9206  159.7687 C   0  0  0  0  0  0  0  0  0  0  0  0
  130.1211  139.2088  160.1446 C   0  0  0  0  0  0  0  0  0  0  0  0
  130.8976  139.4255  161.2766 C   0  0  0  0  0  0  0  0  0  0  0  0
  131.3100  141.0679  161.7634 S   0  0  0  0  0  0  0  0  0  0  0  0
  130.6100  141.1908  163.3758 C   0  0  0  0  0  0  0  0  0  0  0  0
  131.4116  141.4439  164.3755 C   0  0  0  0  0  0  0  0  0  0  0  0
  130.9585  141.5726  165.8005 C   0  0  0  0  0  0  0  0  0  0  0  0
  129.4435  141.7798  165.8564 C   0  0  0  0  0  0  0  0  0  0  0  0
  128.7742  140.7129  164.9809 C   0  0  0  0  0  0  0  0  0  0  0  0
  129.1292  140.9926  163.5190 C   0  0  0  0  0  0  0  0  0  0  0  0
  131.3483  138.3437  162.0235 C   0  0  0  0  0  0  0  0  0  0  0  0
  131.0235  137.0580  161.6386 C   0  0  0  0  0  0  0  0  0  0  0  0
  127.7531  134.8480  161.2393 C   0  0  0  0  0  0  0  0  0  0  0  0
  125.6091  133.1510  162.4888 H   0  0  0  0  0  0  0  0  0  0  0  0
  126.2293  134.5697  163.3667 H   0  0  0  0  0  0  0  0  0  0  0  0
  124.6679  134.6615  162.5172 H   0  0  0  0  0  0  0  0  0  0  0  0
  124.5787  134.8591  160.0989 H   0  0  0  0  0  0  0  0  0  0  0  0
  125.7327  135.6156  158.0597 H   0  0  0  0  0  0  0  0  0  0  0  0
  128.1806  135.8836  158.0577 H   0  0  0  0  0  0  0  0  0  0  0  0
  130.9010  135.8820  158.2752 H   0  0  0  0  0  0  0  0  0  0  0  0
  129.1339  130.8982  157.9115 H   0  0  0  0  0  0  0  0  0  0  0  0
  129.4788  132.9379  154.1914 H   0  0  0  0  0  0  0  0  0  0  0  0
  129.9484  131.6694  152.1380 H   0  0  0  0  0  0  0  0  0  0  0  0
  131.8150  128.5844  152.0285 H   0  0  0  0  0  0  0  0  0  0  0  0
  130.9759  129.7307  151.1317 H   0  0  0  0  0  0  0  0  0  0  0  0
  132.0839  128.7500  154.4217 H   0  0  0  0  0  0  0  0  0  0  0  0
  131.6278  130.0192  156.4777 H   0  0  0  0  0  0  0  0  0  0  0  0
  129.1888  137.7517  158.8916 H   0  0  0  0  0  0  0  0  0  0  0  0
  129.7688  140.0473  159.5621 H   0  0  0  0  0  0  0  0  0  0  0  0
  132.4627  141.5725  164.1635 H   0  0  0  0  0  0  0  0  0  0  0  0
  131.4569  142.4231  166.2653 H   0  0  0  0  0  0  0  0  0  0  0  0
  131.2190  140.6633  166.3422 H   0  0  0  0  0  0  0  0  0  0  0  0
  129.1953  142.7717  165.4790 H   0  0  0  0  0  0  0  0  0  0  0  0
  129.0949  141.6814  166.8844 H   0  0  0  0  0  0  0  0  0  0  0  0
  127.6928  140.7584  165.1104 H   0  0  0  0  0  0  0  0  0  0  0  0
  129.1387  139.7255  165.2640 H   0  0  0  0  0  0  0  0  0  0  0  0
  128.6105  141.8918  163.1868 H   0  0  0  0  0  0  0  0  0  0  0  0
  128.8168  140.1477  162.9055 H   0  0  0  0  0  0  0  0  0  0  0  0
  131.9515  138.5084  162.9039 H   0  0  0  0  0  0  0  0  0  0  0  0
  131.3734  136.2168  162.2186 H   0  0  0  0  0  0  0  0  0  0  0  0
  128.3209  134.6295  162.1316 H   0  0  0  0  0  0  0  0  0  0  0  0
  1  2  1  0
  1 38  1  0
  1 39  1  0
  1 40  1  0
  2 37  2  0
  2  3  1  0
  3  4  2  0
  3 41  1  0
  4  5  1  0
  4 42  1  0
  5  6  2  0
  5 43  1  0
  6  7  1  0
  6 37  1  0
  7  8  1  1
  7  9  1  0
  7 24  1  0
  9 44  1  0
 10  9  1  0
 10 22  2  0
 10 11  1  0
 11 12  1  0
 11 13  1  0
 13 14  2  0
 13 45  1  0
 14 15  1  0
 14 22  1  0
 15 21  1  0
 15 16  2  0
 16 17  1  0
 16 46  1  0
 17 18  2  0
 17 47  1  0
 18 19  1  0
 18 20  1  0
 19 48  1  0
 19 49  1  0
 20 21  2  0
 20 50  1  0
 21 51  1  0
 22 23  1  0
 24 36  1  0
 24 25  2  0
 25 26  1  0
 25 52  1  0
 26 27  2  0
 26 53  1  0
 27 28  1  0
 27 35  1  0
 28 29  1  0
 29 34  1  0
 29 30  2  0
 30 31  1  0
 30 54  1  0
 31 32  1  0
 31 55  1  0
 31 56  1  0
 32 33  1  0
 32 57  1  0
 32 58  1  0
 33 34  1  0
 33 59  1  0
 33 60  1  0
 34 61  1  0
 34 62  1  0
 35 36  2  0
 35 63  1  0
 36 64  1  0
 37 65  1  0
M  CHG  1  22   1
M  END
>  <DOCK_score>  (1) 
-65.084152

>  <SMILES>  (1) 
Cc1cccc([C@@H](Nc2[nH]cc(-c3ccc(N)cc3)[nH+]2)c2ccc(SC3=CCCCC3)cc2)c1

$$$$
