Nc1ccc(-c2c[nH]c(Nc3cccc(N)c3O)[nH+]2)cc1
     RDKit          3D

 37 39  0  0  1  0  0  0  0  0999 V2000
  131.4843  129.5471  151.3047 N   0  0  0  0  0  0  0  0  0  0  0  0
  131.1699  130.2017  152.4980 C   0  0  0  0  0  0  0  0  0  0  0  0
  130.3541  131.3269  152.4782 C   0  0  0  0  0  0  0  0  0  0  0  0
  130.0423  131.9746  153.6548 C   0  0  0  0  0  0  0  0  0  0  0  0
  130.5460  131.5002  154.8650 C   0  0  0  0  0  0  0  0  0  0  0  0
  130.2120  132.1954  156.1323 C   0  0  0  0  0  0  0  0  0  0  0  0
  129.5703  131.6511  157.1959 C   0  0  0  0  0  0  0  0  0  0  0  0
  129.4631  132.6392  158.1451 N   0  0  0  0  0  0  0  0  0  0  0  0
  129.0474  132.5554  159.0176 H   0  0  0  0  0  0  0  0  0  0  0  0
  130.0482  133.7572  157.6348 C   0  0  0  0  0  0  0  0  0  0  0  0
  130.1514  134.9792  158.2785 N   0  0  0  0  0  0  0  0  0  0  0  0
  129.1726  135.3697  159.2008 C   0  0  0  0  0  0  0  0  0  0  0  0
  129.5246  135.6353  160.5181 C   0  0  0  0  0  0  0  0  0  0  0  0
  128.5598  136.0211  161.4289 C   0  0  0  0  0  0  0  0  0  0  0  0
  127.2406  136.1442  161.0345 C   0  0  0  0  0  0  0  0  0  0  0  0
  126.8791  135.8813  159.7202 C   0  0  0  0  0  0  0  0  0  0  0  0
  125.5430  136.0072  159.3219 N   0  0  0  0  0  0  0  0  0  0  0  0
  127.8477  135.4976  158.7982 C   0  0  0  0  0  0  0  0  0  0  0  0
  127.4989  135.2439  157.5072 O   0  0  0  0  0  0  0  0  0  0  0  0
  130.4975  133.4866  156.4333 N   0  0  0  0  0  0  0  0  0  0  0  0
  130.9571  134.1114  155.8509 H   0  0  0  0  0  0  0  0  0  0  0  0
  131.3688  130.3750  154.8819 C   0  0  0  0  0  0  0  0  0  0  0  0
  131.6729  129.7267  153.7034 C   0  0  0  0  0  0  0  0  0  0  0  0
  131.1336  129.8780  150.4630 H   0  0  0  0  0  0  0  0  0  0  0  0
  132.0537  128.7620  151.3176 H   0  0  0  0  0  0  0  0  0  0  0  0
  129.9644  131.6943  151.5404 H   0  0  0  0  0  0  0  0  0  0  0  0
  129.4081  132.8486  153.6390 H   0  0  0  0  0  0  0  0  0  0  0  0
  129.2086  130.6369  157.2791 H   0  0  0  0  0  0  0  0  0  0  0  0
  130.9017  135.5645  158.0905 H   0  0  0  0  0  0  0  0  0  0  0  0
  130.5539  135.5398  160.8308 H   0  0  0  0  0  0  0  0  0  0  0  0
  128.8372  136.2268  162.4522 H   0  0  0  0  0  0  0  0  0  0  0  0
  126.4899  136.4456  161.7500 H   0  0  0  0  0  0  0  0  0  0  0  0
  124.8688  136.2783  159.9645 H   0  0  0  0  0  0  0  0  0  0  0  0
  125.2914  135.8233  158.4033 H   0  0  0  0  0  0  0  0  0  0  0  0
  128.2397  134.9811  156.9440 H   0  0  0  0  0  0  0  0  0  0  0  0
  131.7640  130.0085  155.8179 H   0  0  0  0  0  0  0  0  0  0  0  0
  132.3063  128.8521  153.7166 H   0  0  0  0  0  0  0  0  0  0  0  0
  1  2  1  0
  1 24  1  0
  1 25  1  0
  2 23  2  0
  2  3  1  0
  3  4  2  0
  3 26  1  0
  4  5  1  0
  4 27  1  0
  5  6  1  0
  5 22  2  0
  6 20  1  0
  6  7  2  0
  7  8  1  0
  7 28  1  0
  8  9  1  0
  8 10  1  0
 10 11  1  0
 10 20  2  0
 11 12  1  0
 11 29  1  0
 12 18  1  0
 12 13  2  0
 13 14  1  0
 13 30  1  0
 14 15  2  0
 14 31  1  0
 15 16  1  0
 15 32  1  0
 16 17  1  0
 16 18  2  0
 17 33  1  0
 17 34  1  0
 18 19  1  0
 19 35  1  0
 20 21  1  0
 22 23  1  0
 22 36  1  0
 23 37  1  0
M  CHG  1  20   1
M  END
>  <DOCK_score>  (1) 
-52.512711

>  <SMILES>  (1) 
Nc1ccc(-c2c[nH]c(Nc3cccc(N)c3O)[nH+]2)cc1

$$$$
