CC=CSC[C@H](C=C(Cl)Cl)Nc1[nH]cc(-c2ccc(Br)cc2)[nH+]1
     RDKit          3D

 40 41  0  0  1  0  0  0  0  0999 V2000
  125.8677  133.1992  159.6328 C   0  0  0  0  0  0  0  0  0  0  0  0
  126.8859  134.2226  159.2004 C   0  0  0  0  0  0  0  0  0  0  0  0
  127.1004  135.2951  159.9414 C   0  0  0  0  0  0  0  0  0  0  0  0
  128.2909  136.4915  159.4357 S   0  0  0  0  0  0  0  0  0  0  0  0
  129.4726  136.4985  160.8119 C   0  0  0  0  0  0  0  0  0  0  0  0
  130.4216  135.3062  160.6753 C   0  0  2  0  0  0  0  0  0  0  0  0
  129.9285  134.4055  161.0411 H   0  0  0  0  0  0  0  0  0  0  0  0
  131.6674  135.5605  161.4843 C   0  0  0  0  0  0  0  0  0  0  0  0
  132.3271  134.5531  162.0082 C   0  0  0  0  0  0  0  0  0  0  0  0
  131.6866  132.9435  161.8960 Cl  0  0  0  0  0  0  0  0  0  0  0  0
  133.8400  134.8310  162.8133 Cl  0  0  0  0  0  0  0  0  0  0  0  0
  130.7819  135.1277  159.2666 N   0  0  0  0  0  0  0  0  0  0  0  0
  130.4811  133.9411  158.6201 C   0  0  0  0  0  0  0  0  0  0  0  0
  129.8506  132.8720  159.1783 N   0  0  0  0  0  0  0  0  0  0  0  0
  129.5342  132.8048  160.0928 H   0  0  0  0  0  0  0  0  0  0  0  0
  129.7455  131.9054  158.2077 C   0  0  0  0  0  0  0  0  0  0  0  0
  130.3143  132.4113  157.0854 C   0  0  0  0  0  0  0  0  0  0  0  0
  130.4326  131.7191  155.7787 C   0  0  0  0  0  0  0  0  0  0  0  0
  129.8382  132.2646  154.6422 C   0  0  0  0  0  0  0  0  0  0  0  0
  129.9562  131.6198  153.4278 C   0  0  0  0  0  0  0  0  0  0  0  0
  130.6535  130.4276  153.3396 C   0  0  0  0  0  0  0  0  0  0  0  0
  130.8034  129.5452  151.6738 Br  0  0  0  0  0  0  0  0  0  0  0  0
  131.2408  129.8785  154.4665 C   0  0  0  0  0  0  0  0  0  0  0  0
  131.1337  130.5183  155.6844 C   0  0  0  0  0  0  0  0  0  0  0  0
  130.7515  133.6642  157.3679 N   0  0  0  0  0  0  0  0  0  0  0  0
  131.1956  134.2590  156.7435 H   0  0  0  0  0  0  0  0  0  0  0  0
  124.8873  133.6700  159.7046 H   0  0  0  0  0  0  0  0  0  0  0  0
  125.8304  132.3921  158.9013 H   0  0  0  0  0  0  0  0  0  0  0  0
  126.1490  132.7953  160.6054 H   0  0  0  0  0  0  0  0  0  0  0  0
  127.4403  134.0793  158.2846 H   0  0  0  0  0  0  0  0  0  0  0  0
  126.5461  135.4383  160.8572 H   0  0  0  0  0  0  0  0  0  0  0  0
  130.0475  137.4244  160.7927 H   0  0  0  0  0  0  0  0  0  0  0  0
  128.9319  136.4262  161.7555 H   0  0  0  0  0  0  0  0  0  0  0  0
  132.0177  136.5711  161.6330 H   0  0  0  0  0  0  0  0  0  0  0  0
  131.2314  135.8410  158.7868 H   0  0  0  0  0  0  0  0  0  0  0  0
  129.2955  130.9298  158.3173 H   0  0  0  0  0  0  0  0  0  0  0  0
  129.2900  133.1927  154.7109 H   0  0  0  0  0  0  0  0  0  0  0  0
  129.4993  132.0437  152.5458 H   0  0  0  0  0  0  0  0  0  0  0  0
  131.7838  128.9479  154.3922 H   0  0  0  0  0  0  0  0  0  0  0  0
  131.5925  130.0893  156.5629 H   0  0  0  0  0  0  0  0  0  0  0  0
  1  2  1  0
  1 27  1  0
  1 28  1  0
  1 29  1  0
  2  3  2  0
  2 30  1  0
  3  4  1  0
  3 31  1  0
  4  5  1  0
  5  6  1  0
  5 32  1  0
  5 33  1  0
  6  7  1  1
  6  8  1  0
  6 12  1  0
  8  9  2  0
  8 34  1  0
  9 10  1  0
  9 11  1  0
 12 35  1  0
 13 12  1  0
 13 25  2  0
 13 14  1  0
 14 15  1  0
 14 16  1  0
 16 17  2  0
 16 36  1  0
 17 18  1  0
 17 25  1  0
 18 24  1  0
 18 19  2  0
 19 20  1  0
 19 37  1  0
 20 21  2  0
 20 38  1  0
 21 22  1  0
 21 23  1  0
 23 24  2  0
 23 39  1  0
 24 40  1  0
 25 26  1  0
M  CHG  1  25   1
M  END
>  <DOCK_score>  (1) 
-56.492271

>  <SMILES>  (1) 
CC=CSC[C@H](C=C(Cl)Cl)Nc1[nH]cc(-c2ccc(Br)cc2)[nH+]1

$$$$
