CCc1ccc(-c2c[nH]c(N[C@H](/C=C/C(=O)OC/C=C\CO)c3ccccc3)[nH+]2)cc1
     RDKit          3D

 59 61  0  0  1  0  0  0  0  0999 V2000
  130.1283  128.5758  151.3262 C   0  0  0  0  0  0  0  0  0  0  0  0
  131.2691  129.5333  151.6758 C   0  0  0  0  0  0  0  0  0  0  0  0
  130.9214  130.2922  152.9305 C   0  0  0  0  0  0  0  0  0  0  0  0
  131.2793  129.7827  154.1654 C   0  0  0  0  0  0  0  0  0  0  0  0
  130.9676  130.4759  155.3175 C   0  0  0  0  0  0  0  0  0  0  0  0
  130.2819  131.6865  155.2352 C   0  0  0  0  0  0  0  0  0  0  0  0
  129.9396  132.4335  156.4701 C   0  0  0  0  0  0  0  0  0  0  0  0
  129.1721  131.9784  157.4913 C   0  0  0  0  0  0  0  0  0  0  0  0
  129.1135  132.9843  158.4250 N   0  0  0  0  0  0  0  0  0  0  0  0
  128.6366  132.9574  159.2692 H   0  0  0  0  0  0  0  0  0  0  0  0
  129.8474  134.0257  157.9466 C   0  0  0  0  0  0  0  0  0  0  0  0
  130.0416  135.2371  158.5878 N   0  0  0  0  0  0  0  0  0  0  0  0
  129.4301  135.4793  159.8969 C   0  0  2  0  0  0  0  0  0  0  0  0
  128.3465  135.3967  159.8125 H   0  0  0  0  0  0  0  0  0  0  0  0
  129.7930  136.8624  160.3727 C   0  0  0  0  0  0  0  0  0  0  0  0
  128.8360  137.7544  160.6170 C   0  0  0  0  0  0  0  0  0  0  0  0
  129.1900  139.1031  161.0810 C   0  0  0  0  0  0  0  0  0  0  0  0
  128.3162  139.9179  161.3040 O   0  0  0  0  0  0  0  0  0  0  0  0
  130.4839  139.4366  161.2592 O   0  0  0  0  0  0  0  0  0  0  0  0
  130.7595  140.7860  161.7192 C   0  0  0  0  0  0  0  0  0  0  0  0
  132.2480  140.9745  161.8597 C   0  0  0  0  0  0  0  0  0  0  0  0
  132.7621  141.2827  163.0246 C   0  0  0  0  0  0  0  0  0  0  0  0
  131.8882  141.3041  164.2521 C   0  0  0  0  0  0  0  0  0  0  0  0
  132.6736  141.6659  165.3897 O   0  0  0  0  0  0  0  0  0  0  0  0
  129.9362  134.4594  160.8843 C   0  0  0  0  0  0  0  0  0  0  0  0
  129.1356  134.0617  161.9385 C   0  0  0  0  0  0  0  0  0  0  0  0
  129.5980  133.1229  162.8418 C   0  0  0  0  0  0  0  0  0  0  0  0
  130.8645  132.5888  162.6958 C   0  0  0  0  0  0  0  0  0  0  0  0
  131.6673  132.9903  161.6445 C   0  0  0  0  0  0  0  0  0  0  0  0
  131.2031  133.9259  160.7388 C   0  0  0  0  0  0  0  0  0  0  0  0
  130.3437  133.6910  156.7806 N   0  0  0  0  0  0  0  0  0  0  0  0
  130.9081  134.2531  156.2271 H   0  0  0  0  0  0  0  0  0  0  0  0
  129.9193  132.1927  153.9883 C   0  0  0  0  0  0  0  0  0  0  0  0
  130.2406  131.4935  152.8426 C   0  0  0  0  0  0  0  0  0  0  0  0
  129.2127  129.1448  151.1647 H   0  0  0  0  0  0  0  0  0  0  0  0
  130.3798  128.0269  150.4188 H   0  0  0  0  0  0  0  0  0  0  0  0
  129.9796  127.8733  152.1464 H   0  0  0  0  0  0  0  0  0  0  0  0
  132.1847  128.9646  151.8371 H   0  0  0  0  0  0  0  0  0  0  0  0
  131.4178  130.2360  150.8555 H   0  0  0  0  0  0  0  0  0  0  0  0
  131.8066  128.8423  154.2282 H   0  0  0  0  0  0  0  0  0  0  0  0
  131.2513  130.0791  156.2811 H   0  0  0  0  0  0  0  0  0  0  0  0
  128.6976  131.0105  157.5576 H   0  0  0  0  0  0  0  0  0  0  0  0
  130.5826  135.9256  158.1705 H   0  0  0  0  0  0  0  0  0  0  0  0
  130.8296  137.1297  160.5156 H   0  0  0  0  0  0  0  0  0  0  0  0
  127.7994  137.4873  160.4742 H   0  0  0  0  0  0  0  0  0  0  0  0
  130.3691  141.5028  160.9970 H   0  0  0  0  0  0  0  0  0  0  0  0
  130.2803  140.9455  162.6850 H   0  0  0  0  0  0  0  0  0  0  0  0
  132.8910  140.8554  161.0002 H   0  0  0  0  0  0  0  0  0  0  0  0
  133.8122  141.5216  163.1051 H   0  0  0  0  0  0  0  0  0  0  0  0
  131.0885  142.0322  164.1161 H   0  0  0  0  0  0  0  0  0  0  0  0
  131.4566  140.3153  164.4081 H   0  0  0  0  0  0  0  0  0  0  0  0
  133.4054  141.0605  165.5710 H   0  0  0  0  0  0  0  0  0  0  0  0
  128.1474  134.4818  162.0547 H   0  0  0  0  0  0  0  0  0  0  0  0
  128.9708  132.8088  163.6629 H   0  0  0  0  0  0  0  0  0  0  0  0
  131.2269  131.8572  163.4030 H   0  0  0  0  0  0  0  0  0  0  0  0
  132.6568  132.5730  161.5305 H   0  0  0  0  0  0  0  0  0  0  0  0
  131.8302  134.2398  159.9174 H   0  0  0  0  0  0  0  0  0  0  0  0
  129.3875  133.1301  153.9188 H   0  0  0  0  0  0  0  0  0  0  0  0
  129.9599  131.8847  151.8759 H   0  0  0  0  0  0  0  0  0  0  0  0
  1  2  1  0
  1 35  1  0
  1 36  1  0
  1 37  1  0
  2  3  1  0
  2 38  1  0
  2 39  1  0
  3 34  2  0
  3  4  1  0
  4  5  2  0
  4 40  1  0
  5  6  1  0
  5 41  1  0
  6  7  1  0
  6 33  2  0
  7 31  1  0
  7  8  2  0
  8  9  1  0
  8 42  1  0
  9 10  1  0
  9 11  1  0
 11 12  1  0
 11 31  2  0
 12 13  1  0
 12 43  1  0
 13 14  1  6
 13 15  1  0
 13 25  1  0
 15 16  2  0
 15 44  1  0
 16 17  1  0
 16 45  1  0
 17 18  2  0
 17 19  1  0
 19 20  1  0
 20 21  1  0
 20 46  1  0
 20 47  1  0
 21 22  2  0
 21 48  1  0
 22 23  1  0
 22 49  1  0
 23 24  1  0
 23 50  1  0
 23 51  1  0
 24 52  1  0
 25 30  1  0
 25 26  2  0
 26 27  1  0
 26 53  1  0
 27 28  2  0
 27 54  1  0
 28 29  1  0
 28 55  1  0
 29 30  2  0
 29 56  1  0
 30 57  1  0
 31 32  1  0
 33 34  1  0
 33 58  1  0
 34 59  1  0
M  CHG  1  31   1
M  END
>  <DOCK_score>  (1) 
-59.867561

>  <SMILES>  (1) 
CCc1ccc(-c2c[nH]c(N[C@H](/C=C/C(=O)OC/C=C\CO)c3ccccc3)[nH+]2)cc1

$$$$
