CC=CC(Nc1cc(N[C@H](C)c2cccc(O)c2)cc[nH+]1)c1ccccc1
     RDKit          3D

 53 55  0  0  1  0  0  0  0  0999 V2000
  133.4164  141.0000  164.0704 C   0  0  0  0  0  0  0  0  0  0  0  0
  133.1445  139.9225  163.0526 C   0  0  0  0  0  0  0  0  0  0  0  0
  133.9040  138.8560  163.0090 C   0  0  0  0  0  0  0  0  0  0  0  0
  133.6321  137.7784  161.9912 C   0  0  1  0  0  0  0  0  0  0  0  0
  132.2832  137.2442  162.1941 N   0  0  0  0  0  0  0  0  0  0  0  0
  131.8047  136.2327  161.3689 C   0  0  0  0  0  0  0  0  0  0  0  0
  130.5231  135.7357  161.5637 C   0  0  0  0  0  0  0  0  0  0  0  0
  130.0602  134.7196  160.7336 C   0  0  0  0  0  0  0  0  0  0  0  0
  128.7835  134.1899  160.8985 N   0  0  0  0  0  0  0  0  0  0  0  0
  128.0557  133.6596  159.7429 C   0  0  2  0  0  0  0  0  0  0  0  0
  128.6245  132.8426  159.2991 H   0  0  0  0  0  0  0  0  0  0  0  0
  127.8646  134.7695  158.7073 C   0  0  0  0  0  0  0  0  0  0  0  0
  126.7090  133.1505  160.1880 C   0  0  0  0  0  0  0  0  0  0  0  0
  126.3760  131.8216  159.9997 C   0  0  0  0  0  0  0  0  0  0  0  0
  125.1391  131.3528  160.4015 C   0  0  0  0  0  0  0  0  0  0  0  0
  124.2324  132.2115  160.9926 C   0  0  0  0  0  0  0  0  0  0  0  0
  124.5639  133.5449  161.1827 C   0  0  0  0  0  0  0  0  0  0  0  0
  123.6736  134.3915  161.7634 O   0  0  0  0  0  0  0  0  0  0  0  0
  125.8060  134.0129  160.7784 C   0  0  0  0  0  0  0  0  0  0  0  0
  130.9062  134.2483  159.7270 C   0  0  0  0  0  0  0  0  0  0  0  0
  132.1628  134.7962  159.5929 C   0  0  0  0  0  0  0  0  0  0  0  0
  132.5743  135.7567  160.4009 N   0  0  0  0  0  0  0  0  0  0  0  0
  133.4645  136.1234  160.2826 H   0  0  0  0  0  0  0  0  0  0  0  0
  133.7391  138.3587  160.6045 C   0  0  0  0  0  0  0  0  0  0  0  0
  132.6214  138.8916  159.9900 C   0  0  0  0  0  0  0  0  0  0  0  0
  132.7206  139.4281  158.7199 C   0  0  0  0  0  0  0  0  0  0  0  0
  133.9355  139.4225  158.0602 C   0  0  0  0  0  0  0  0  0  0  0  0
  135.0521  138.8850  158.6726 C   0  0  0  0  0  0  0  0  0  0  0  0
  134.9540  138.3531  159.9448 C   0  0  0  0  0  0  0  0  0  0  0  0
  134.4200  141.3974  163.9195 H   0  0  0  0  0  0  0  0  0  0  0  0
  132.6870  141.8017  163.9547 H   0  0  0  0  0  0  0  0  0  0  0  0
  133.3388  140.5803  165.0734 H   0  0  0  0  0  0  0  0  0  0  0  0
  132.3235  140.0295  162.3591 H   0  0  0  0  0  0  0  0  0  0  0  0
  134.7250  138.7491  163.7025 H   0  0  0  0  0  0  0  0  0  0  0  0
  134.3616  136.9769  162.1069 H   0  0  0  0  0  0  0  0  0  0  0  0
  131.7239  137.5961  162.9042 H   0  0  0  0  0  0  0  0  0  0  0  0
  129.8964  136.1288  162.3506 H   0  0  0  0  0  0  0  0  0  0  0  0
  128.3758  134.1720  161.7785 H   0  0  0  0  0  0  0  0  0  0  0  0
  127.3231  134.3749  157.8476 H   0  0  0  0  0  0  0  0  0  0  0  0
  127.2959  135.5867  159.1512 H   0  0  0  0  0  0  0  0  0  0  0  0
  128.8388  135.1378  158.3854 H   0  0  0  0  0  0  0  0  0  0  0  0
  127.0833  131.1488  159.5375 H   0  0  0  0  0  0  0  0  0  0  0  0
  124.8813  130.3146  160.2530 H   0  0  0  0  0  0  0  0  0  0  0  0
  123.2661  131.8449  161.3061 H   0  0  0  0  0  0  0  0  0  0  0  0
  123.9947  135.2992  161.8530 H   0  0  0  0  0  0  0  0  0  0  0  0
  126.0664  135.0508  160.9250 H   0  0  0  0  0  0  0  0  0  0  0  0
  130.5787  133.4636  159.0611 H   0  0  0  0  0  0  0  0  0  0  0  0
  132.8207  134.4356  158.8162 H   0  0  0  0  0  0  0  0  0  0  0  0
  131.6713  138.8918  160.5036 H   0  0  0  0  0  0  0  0  0  0  0  0
  131.8481  139.8477  158.2412 H   0  0  0  0  0  0  0  0  0  0  0  0
  134.0121  139.8377  157.0662 H   0  0  0  0  0  0  0  0  0  0  0  0
  136.0011  138.8802  158.1570 H   0  0  0  0  0  0  0  0  0  0  0  0
  135.8263  137.9328  160.4230 H   0  0  0  0  0  0  0  0  0  0  0  0
  1  2  1  0
  1 30  1  0
  1 31  1  0
  1 32  1  0
  2  3  2  0
  2 33  1  0
  3  4  1  0
  3 34  1  0
  4  5  1  0
  4 24  1  0
  4 35  1  6
  5 36  1  0
  6  5  1  0
  6 22  1  0
  6  7  2  0
  7  8  1  0
  7 37  1  0
  8  9  1  0
  8 20  2  0
  9 10  1  0
  9 38  1  0
 10 11  1  6
 10 12  1  0
 10 13  1  0
 12 39  1  0
 12 40  1  0
 12 41  1  0
 13 19  1  0
 13 14  2  0
 14 15  1  0
 14 42  1  0
 15 16  2  0
 15 43  1  0
 16 17  1  0
 16 44  1  0
 17 18  1  0
 17 19  2  0
 18 45  1  0
 19 46  1  0
 20 21  1  0
 20 47  1  0
 21 22  2  0
 21 48  1  0
 22 23  1  0
 24 29  1  0
 24 25  2  0
 25 26  1  0
 25 49  1  0
 26 27  2  0
 26 50  1  0
 27 28  1  0
 27 51  1  0
 28 29  2  0
 28 52  1  0
 29 53  1  0
M  CHG  1  22   1
M  END
>  <DOCK_score>  (1) 
-46.034153

>  <SMILES>  (1) 
CC=CC(Nc1cc(N[C@H](C)c2cccc(O)c2)cc[nH+]1)c1ccccc1

$$$$
