Cc1cc(F)c(F)cc1-c1cccc(N2CC[NH+](C(c3ccccc3)c3ccccc3)CC2)c1C
     RDKit          3D

 66 70  0  0  0  0  0  0  0  0999 V2000
  133.8274  140.6570  164.4868 C   0  0  0  0  0  0  0  0  0  0  0  0
  134.9919  139.8801  165.0448 C   0  0  0  0  0  0  0  0  0  0  0  0
  135.4449  140.1378  166.3230 C   0  0  0  0  0  0  0  0  0  0  0  0
  136.5147  139.4252  166.8376 C   0  0  0  0  0  0  0  0  0  0  0  0
  136.9545  139.6803  168.0894 F   0  0  0  0  0  0  0  0  0  0  0  0
  137.1401  138.4535  166.0691 C   0  0  0  0  0  0  0  0  0  0  0  0
  138.1872  137.7645  166.5732 F   0  0  0  0  0  0  0  0  0  0  0  0
  136.6892  138.1863  164.7909 C   0  0  0  0  0  0  0  0  0  0  0  0
  135.6122  138.9018  164.2709 C   0  0  0  0  0  0  0  0  0  0  0  0
  135.1280  138.6230  162.8962 C   0  0  0  0  0  0  0  0  0  0  0  0
  135.6570  139.3236  161.8134 C   0  0  0  0  0  0  0  0  0  0  0  0
  135.2094  139.0593  160.5346 C   0  0  0  0  0  0  0  0  0  0  0  0
  134.2283  138.1089  160.3239 C   0  0  0  0  0  0  0  0  0  0  0  0
  133.6914  137.4095  161.3979 C   0  0  0  0  0  0  0  0  0  0  0  0
  132.7005  136.4489  161.1812 N   0  0  0  0  0  0  0  0  0  0  0  0
  133.2151  135.3346  160.3725 C   0  0  0  0  0  0  0  0  0  0  0  0
  132.1194  134.2789  160.2086 C   0  0  0  0  0  0  0  0  0  0  0  0
  130.9513  134.8827  159.5543 N   0  0  0  0  0  0  0  0  0  0  0  0
  131.2210  135.2443  158.6518 H   0  0  0  0  0  0  0  0  0  0  0  0
  129.9068  133.8644  159.3808 C   0  0  0  0  0  0  0  0  0  0  0  0
  128.7081  134.4836  158.7095 C   0  0  0  0  0  0  0  0  0  0  0  0
  127.4417  133.9924  158.9662 C   0  0  0  0  0  0  0  0  0  0  0  0
  126.3417  134.5636  158.3541 C   0  0  0  0  0  0  0  0  0  0  0  0
  126.5090  135.6191  157.4772 C   0  0  0  0  0  0  0  0  0  0  0  0
  127.7760  136.1068  157.2165 C   0  0  0  0  0  0  0  0  0  0  0  0
  128.8755  135.5391  157.8326 C   0  0  0  0  0  0  0  0  0  0  0  0
  130.4368  132.7417  158.5266 C   0  0  0  0  0  0  0  0  0  0  0  0
  130.2874  132.7885  157.1532 C   0  0  0  0  0  0  0  0  0  0  0  0
  130.7778  131.7609  156.3693 C   0  0  0  0  0  0  0  0  0  0  0  0
  131.4081  130.6815  156.9596 C   0  0  0  0  0  0  0  0  0  0  0  0
  131.5526  130.6322  158.3335 C   0  0  0  0  0  0  0  0  0  0  0  0
  131.0670  131.6623  159.1170 C   0  0  0  0  0  0  0  0  0  0  0  0
  130.4339  135.9777  160.3855 C   0  0  0  0  0  0  0  0  0  0  0  0
  131.5155  137.0475  160.5509 C   0  0  0  0  0  0  0  0  0  0  0  0
  134.1401  137.6652  162.6855 C   0  0  0  0  0  0  0  0  0  0  0  0
  133.5596  136.9087  163.8524 C   0  0  0  0  0  0  0  0  0  0  0  0
  134.1866  141.5926  164.0582 H   0  0  0  0  0  0  0  0  0  0  0  0
  133.3353  140.0681  163.7127 H   0  0  0  0  0  0  0  0  0  0  0  0
  133.1177  140.8721  165.2857 H   0  0  0  0  0  0  0  0  0  0  0  0
  134.9638  140.8961  166.9229 H   0  0  0  0  0  0  0  0  0  0  0  0
  137.1729  137.4271  164.1943 H   0  0  0  0  0  0  0  0  0  0  0  0
  136.4206  140.0701  161.9746 H   0  0  0  0  0  0  0  0  0  0  0  0
  135.6238  139.6001  159.6966 H   0  0  0  0  0  0  0  0  0  0  0  0
  133.8782  137.9091  159.3220 H   0  0  0  0  0  0  0  0  0  0  0  0
  133.5132  135.7046  159.3915 H   0  0  0  0  0  0  0  0  0  0  0  0
  134.0764  134.8907  160.8713 H   0  0  0  0  0  0  0  0  0  0  0  0
  131.8312  133.8993  161.1888 H   0  0  0  0  0  0  0  0  0  0  0  0
  132.4945  133.4581  159.5971 H   0  0  0  0  0  0  0  0  0  0  0  0
  129.6155  133.4730  160.3556 H   0  0  0  0  0  0  0  0  0  0  0  0
  127.3114  133.1649  159.6479 H   0  0  0  0  0  0  0  0  0  0  0  0
  125.3518  134.1823  158.5576 H   0  0  0  0  0  0  0  0  0  0  0  0
  125.6499  136.0624  156.9955 H   0  0  0  0  0  0  0  0  0  0  0  0
  127.9068  136.9312  156.5311 H   0  0  0  0  0  0  0  0  0  0  0  0
  129.8653  135.9199  157.6286 H   0  0  0  0  0  0  0  0  0  0  0  0
  129.7910  133.6297  156.6923 H   0  0  0  0  0  0  0  0  0  0  0  0
  130.6645  131.7992  155.2959 H   0  0  0  0  0  0  0  0  0  0  0  0
  131.7872  129.8765  156.3475 H   0  0  0  0  0  0  0  0  0  0  0  0
  132.0448  129.7887  158.7948 H   0  0  0  0  0  0  0  0  0  0  0  0
  131.1797  131.6236  160.1904 H   0  0  0  0  0  0  0  0  0  0  0  0
  130.1541  135.5894  161.3649 H   0  0  0  0  0  0  0  0  0  0  0  0
  129.5593  136.4164  159.9053 H   0  0  0  0  0  0  0  0  0  0  0  0
  131.1368  137.8533  161.1800 H   0  0  0  0  0  0  0  0  0  0  0  0
  131.7856  137.4457  159.5729 H   0  0  0  0  0  0  0  0  0  0  0  0
  132.6525  137.4075  164.1937 H   0  0  0  0  0  0  0  0  0  0  0  0
  133.3202  135.8912  163.5430 H   0  0  0  0  0  0  0  0  0  0  0  0
  134.2860  136.8800  164.6644 H   0  0  0  0  0  0  0  0  0  0  0  0
  1  2  1  0
  1 37  1  0
  1 38  1  0
  1 39  1  0
  2  9  2  0
  2  3  1  0
  3  4  2  0
  3 40  1  0
  4  5  1  0
  4  6  1  0
  6  7  1  0
  6  8  2  0
  8  9  1  0
  8 41  1  0
  9 10  1  0
 10 35  1  0
 10 11  2  0
 11 12  1  0
 11 42  1  0
 12 13  2  0
 12 43  1  0
 13 14  1  0
 13 44  1  0
 14 15  1  0
 14 35  2  0
 15 34  1  0
 15 16  1  0
 16 17  1  0
 16 45  1  0
 16 46  1  0
 17 18  1  0
 17 47  1  0
 17 48  1  0
 18 19  1  0
 18 20  1  0
 18 33  1  0
 20 21  1  0
 20 27  1  0
 20 49  1  0
 21 26  1  0
 21 22  2  0
 22 23  1  0
 22 50  1  0
 23 24  2  0
 23 51  1  0
 24 25  1  0
 24 52  1  0
 25 26  2  0
 25 53  1  0
 26 54  1  0
 27 32  1  0
 27 28  2  0
 28 29  1  0
 28 55  1  0
 29 30  2  0
 29 56  1  0
 30 31  1  0
 30 57  1  0
 31 32  2  0
 31 58  1  0
 32 59  1  0
 33 34  1  0
 33 60  1  0
 33 61  1  0
 34 62  1  0
 34 63  1  0
 35 36  1  0
 36 64  1  0
 36 65  1  0
 36 66  1  0
M  CHG  1  18   1
M  END
>  <DOCK_score>  (1) 
-56.404846

>  <SMILES>  (1) 
Cc1cc(F)c(F)cc1-c1cccc(N2CC[NH+](C(c3ccccc3)c3ccccc3)CC2)c1C

$$$$
