CCc1ccc2c(c1)C[C@H](NC(NC1CC1)=[NH+][C@H]1CCC(=O)NC1)C2
     RDKit          3D

 54 57  0  0  1  0  0  0  0  0999 V2000
  135.7393  140.3843  163.3332 C   0  0  0  0  0  0  0  0  0  0  0  0
  135.5647  140.4490  161.8146 C   0  0  0  0  0  0  0  0  0  0  0  0
  134.3024  139.7250  161.4229 C   0  0  0  0  0  0  0  0  0  0  0  0
  133.1034  140.4104  161.3577 C   0  0  0  0  0  0  0  0  0  0  0  0
  131.9478  139.7449  160.9989 C   0  0  0  0  0  0  0  0  0  0  0  0
  131.9854  138.3921  160.7043 C   0  0  0  0  0  0  0  0  0  0  0  0
  133.1840  137.7069  160.7694 C   0  0  0  0  0  0  0  0  0  0  0  0
  134.3420  138.3761  161.1291 C   0  0  0  0  0  0  0  0  0  0  0  0
  132.9636  136.2543  160.4051 C   0  0  0  0  0  0  0  0  0  0  0  0
  131.4405  136.0304  160.5349 C   0  0  2  0  0  0  0  0  0  0  0  0
  131.1849  135.6779  161.5341 H   0  0  0  0  0  0  0  0  0  0  0  0
  130.9605  135.0968  159.5130 N   0  0  0  0  0  0  0  0  0  0  0  0
  129.6277  134.7639  159.4578 C   0  0  0  0  0  0  0  0  0  0  0  0
  129.1772  133.8877  158.4988 N   0  0  0  0  0  0  0  0  0  0  0  0
  130.0643  132.8382  157.9908 C   0  0  0  0  0  0  0  0  0  0  0  0
  129.5340  131.4031  157.9920 C   0  0  0  0  0  0  0  0  0  0  0  0
  130.6079  131.8235  158.9987 C   0  0  0  0  0  0  0  0  0  0  0  0
  128.7912  135.2787  160.3146 N   0  0  0  0  0  0  0  0  0  0  0  0
  129.1090  135.8968  160.9913 H   0  0  0  0  0  0  0  0  0  0  0  0
  127.3710  134.9238  160.2557 C   0  0  1  0  0  0  0  0  0  0  0  0
  126.9625  135.2102  159.2865 H   0  0  0  0  0  0  0  0  0  0  0  0
  127.2096  133.4121  160.4557 C   0  0  0  0  0  0  0  0  0  0  0  0
  125.7440  133.0454  160.2120 C   0  0  0  0  0  0  0  0  0  0  0  0
  124.8477  133.9747  160.9790 C   0  0  0  0  0  0  0  0  0  0  0  0
  123.6961  133.6408  161.1616 O   0  0  0  0  0  0  0  0  0  0  0  0
  125.2503  135.1471  161.4706 N   0  0  0  0  0  0  0  0  0  0  0  0
  126.6137  135.6518  161.3670 C   0  0  0  0  0  0  0  0  0  0  0  0
  130.8774  137.4467  160.2920 C   0  0  0  0  0  0  0  0  0  0  0  0
  135.8057  139.3427  163.6471 H   0  0  0  0  0  0  0  0  0  0  0  0
  136.6523  140.9080  163.6166 H   0  0  0  0  0  0  0  0  0  0  0  0
  134.8845  140.8560  163.8177 H   0  0  0  0  0  0  0  0  0  0  0  0
  136.4194  139.9774  161.3300 H   0  0  0  0  0  0  0  0  0  0  0  0
  135.4983  141.4908  161.5006 H   0  0  0  0  0  0  0  0  0  0  0  0
  133.0706  141.4653  161.5871 H   0  0  0  0  0  0  0  0  0  0  0  0
  131.0116  140.2810  160.9478 H   0  0  0  0  0  0  0  0  0  0  0  0
  135.2788  137.8414  161.1802 H   0  0  0  0  0  0  0  0  0  0  0  0
  133.2859  136.0683  159.3805 H   0  0  0  0  0  0  0  0  0  0  0  0
  133.5035  135.6054  161.0945 H   0  0  0  0  0  0  0  0  0  0  0  0
  131.5828  134.7135  158.8754 H   0  0  0  0  0  0  0  0  0  0  0  0
  128.2720  133.9643  158.1586 H   0  0  0  0  0  0  0  0  0  0  0  0
  130.7186  133.1324  157.1701 H   0  0  0  0  0  0  0  0  0  0  0  0
  128.5251  131.2397  158.3708 H   0  0  0  0  0  0  0  0  0  0  0  0
  129.8397  130.7529  157.1724 H   0  0  0  0  0  0  0  0  0  0  0  0
  131.6195  131.4497  158.8409 H   0  0  0  0  0  0  0  0  0  0  0  0
  130.3053  131.9368  160.0398 H   0  0  0  0  0  0  0  0  0  0  0  0
  127.8458  132.8786  159.7494 H   0  0  0  0  0  0  0  0  0  0  0  0
  127.4878  133.1451  161.4752 H   0  0  0  0  0  0  0  0  0  0  0  0
  125.5675  132.0205  160.5385 H   0  0  0  0  0  0  0  0  0  0  0  0
  125.5261  133.1288  159.1473 H   0  0  0  0  0  0  0  0  0  0  0  0
  124.5947  135.6987  161.9253 H   0  0  0  0  0  0  0  0  0  0  0  0
  127.1285  135.4965  162.3152 H   0  0  0  0  0  0  0  0  0  0  0  0
  126.5871  136.7188  161.1456 H   0  0  0  0  0  0  0  0  0  0  0  0
  129.9916  137.6119  160.9053 H   0  0  0  0  0  0  0  0  0  0  0  0
  130.6372  137.5826  159.2375 H   0  0  0  0  0  0  0  0  0  0  0  0
  1  2  1  0
  1 29  1  0
  1 30  1  0
  1 31  1  0
  2  3  1  0
  2 32  1  0
  2 33  1  0
  3  8  2  0
  3  4  1  0
  4  5  2  0
  4 34  1  0
  5  6  1  0
  5 35  1  0
  6 28  1  0
  6  7  2  0
  7  8  1  0
  7  9  1  0
  8 36  1  0
  9 10  1  0
  9 37  1  0
  9 38  1  0
 10 11  1  1
 10 12  1  0
 10 28  1  0
 12 39  1  0
 13 12  1  0
 13 14  1  0
 13 18  2  0
 14 15  1  0
 14 40  1  0
 15 17  1  0
 15 16  1  0
 15 41  1  0
 16 17  1  0
 16 42  1  0
 16 43  1  0
 17 44  1  0
 17 45  1  0
 18 19  1  0
 18 20  1  0
 20 21  1  6
 20 27  1  0
 20 22  1  0
 22 23  1  0
 22 46  1  0
 22 47  1  0
 23 24  1  0
 23 48  1  0
 23 49  1  0
 24 25  2  0
 24 26  1  0
 26 27  1  0
 26 50  1  0
 27 51  1  0
 27 52  1  0
 28 53  1  0
 28 54  1  0
M  CHG  1  18   1
M  END
>  <DOCK_score>  (1) 
-42.193966

>  <SMILES>  (1) 
CCc1ccc2c(c1)C[C@H](NC(NC1CC1)=[NH+][C@H]1CCC(=O)NC1)C2

$$$$
