Cc1ccccc1CC(C)[N@H+]1CCC(C(O)c2cnn3ccccc23)=C(c2cccc(CO)c2)C1
     RDKit          3D

 69 73  0  0  1  0  0  0  0  0999 V2000
  134.9805  135.7924  162.9176 C   0  0  0  0  0  0  0  0  0  0  0  0
  135.0690  137.2298  162.4735 C   0  0  0  0  0  0  0  0  0  0  0  0
  135.7376  138.1546  163.2540 C   0  0  0  0  0  0  0  0  0  0  0  0
  135.8228  139.4719  162.8444 C   0  0  0  0  0  0  0  0  0  0  0  0
  135.2310  139.8667  161.6589 C   0  0  0  0  0  0  0  0  0  0  0  0
  134.5578  138.9434  160.8814 C   0  0  0  0  0  0  0  0  0  0  0  0
  134.4770  137.6247  161.2887 C   0  0  0  0  0  0  0  0  0  0  0  0
  133.7430  136.6180  160.4408 C   0  0  0  0  0  0  0  0  0  0  0  0
  132.2728  136.5714  160.8625 C   0  0  1  0  0  0  0  0  0  0  0  0
  131.6439  137.9532  160.6729 C   0  0  0  0  0  0  0  0  0  0  0  0
  131.5573  135.5902  160.0359 N   0  0  1  0  0  0  0  0  0  0  0  0
  131.8792  135.6536  159.0818 H   0  0  0  0  0  0  0  0  0  0  0  0
  131.8089  134.2351  160.5515 C   0  0  0  0  0  0  0  0  0  0  0  0
  131.2760  133.2199  159.5374 C   0  0  0  0  0  0  0  0  0  0  0  0
  129.8661  133.5803  159.1573 C   0  0  0  0  0  0  0  0  0  0  0  0
  129.0122  132.5463  158.4695 C   0  0  2  0  0  0  0  0  0  0  0  0
  128.3075  131.7819  159.4500 O   0  0  0  0  0  0  0  0  0  0  0  0
  129.8897  131.6315  157.6547 C   0  0  0  0  0  0  0  0  0  0  0  0
  130.4778  130.4562  158.0936 C   0  0  0  0  0  0  0  0  0  0  0  0
  131.1672  129.9276  157.1066 N   0  0  0  0  0  0  0  0  0  0  0  0
  131.0581  130.7555  155.9824 N   0  0  0  0  0  0  0  0  0  0  0  0
  131.5760  130.6705  154.7219 C   0  0  0  0  0  0  0  0  0  0  0  0
  131.3128  131.6239  153.8041 C   0  0  0  0  0  0  0  0  0  0  0  0
  130.4998  132.7217  154.1317 C   0  0  0  0  0  0  0  0  0  0  0  0
  129.9752  132.8197  155.3832 C   0  0  0  0  0  0  0  0  0  0  0  0
  130.2609  131.8162  156.3287 C   0  0  0  0  0  0  0  0  0  0  0  0
  129.3515  134.7655  159.4041 C   0  0  0  0  0  0  0  0  0  0  0  0
  127.9579  135.0303  158.9887 C   0  0  0  0  0  0  0  0  0  0  0  0
  127.6915  135.5553  157.7234 C   0  0  0  0  0  0  0  0  0  0  0  0
  126.3881  135.7943  157.3396 C   0  0  0  0  0  0  0  0  0  0  0  0
  125.3471  135.5262  158.2106 C   0  0  0  0  0  0  0  0  0  0  0  0
  125.6048  135.0113  159.4683 C   0  0  0  0  0  0  0  0  0  0  0  0
  124.4647  134.7225  160.4105 C   0  0  0  0  0  0  0  0  0  0  0  0
  124.7884  135.2113  161.7137 O   0  0  0  0  0  0  0  0  0  0  0  0
  126.9036  134.7620  159.8621 C   0  0  0  0  0  0  0  0  0  0  0  0
  130.1162  135.8628  160.0872 C   0  0  0  0  0  0  0  0  0  0  0  0
  135.7750  135.2161  162.4434 H   0  0  0  0  0  0  0  0  0  0  0  0
  135.0901  135.7394  164.0008 H   0  0  0  0  0  0  0  0  0  0  0  0
  134.0126  135.3822  162.6298 H   0  0  0  0  0  0  0  0  0  0  0  0
  136.1964  137.8469  164.1822 H   0  0  0  0  0  0  0  0  0  0  0  0
  136.3485  140.1934  163.4520 H   0  0  0  0  0  0  0  0  0  0  0  0
  135.2944  140.8969  161.3406 H   0  0  0  0  0  0  0  0  0  0  0  0
  134.0952  139.2520  159.9556 H   0  0  0  0  0  0  0  0  0  0  0  0
  133.8112  136.9073  159.3922 H   0  0  0  0  0  0  0  0  0  0  0  0
  134.1910  135.6335  160.5761 H   0  0  0  0  0  0  0  0  0  0  0  0
  132.2047  136.2820  161.9111 H   0  0  0  0  0  0  0  0  0  0  0  0
  130.5967  137.9200  160.9733 H   0  0  0  0  0  0  0  0  0  0  0  0
  132.1750  138.6813  161.2861 H   0  0  0  0  0  0  0  0  0  0  0  0
  131.7122  138.2428  159.6243 H   0  0  0  0  0  0  0  0  0  0  0  0
  132.8804  134.0885  160.6875 H   0  0  0  0  0  0  0  0  0  0  0  0
  131.2979  134.1059  161.5056 H   0  0  0  0  0  0  0  0  0  0  0  0
  131.9058  133.2305  158.6478 H   0  0  0  0  0  0  0  0  0  0  0  0
  131.2891  132.2238  159.9796 H   0  0  0  0  0  0  0  0  0  0  0  0
  128.2974  133.0433  157.8137 H   0  0  0  0  0  0  0  0  0  0  0  0
  127.7220  132.3075  160.0122 H   0  0  0  0  0  0  0  0  0  0  0  0
  130.3829  130.0400  159.0857 H   0  0  0  0  0  0  0  0  0  0  0  0
  132.2030  129.8320  154.4570 H   0  0  0  0  0  0  0  0  0  0  0  0
  131.7301  131.5428  152.8114 H   0  0  0  0  0  0  0  0  0  0  0  0
  130.2917  133.4829  153.3942 H   0  0  0  0  0  0  0  0  0  0  0  0
  129.3481  133.6578  155.6487 H   0  0  0  0  0  0  0  0  0  0  0  0
  128.5035  135.7693  157.0444 H   0  0  0  0  0  0  0  0  0  0  0  0
  126.1803  136.1956  156.3586 H   0  0  0  0  0  0  0  0  0  0  0  0
  124.3287  135.7196  157.9071 H   0  0  0  0  0  0  0  0  0  0  0  0
  123.5621  135.2166  160.0510 H   0  0  0  0  0  0  0  0  0  0  0  0
  124.2958  133.6467  160.4576 H   0  0  0  0  0  0  0  0  0  0  0  0
  124.9519  136.1638  161.7470 H   0  0  0  0  0  0  0  0  0  0  0  0
  127.1034  134.3594  160.8442 H   0  0  0  0  0  0  0  0  0  0  0  0
  129.7984  135.9280  161.1278 H   0  0  0  0  0  0  0  0  0  0  0  0
  129.9107  136.8109  159.5903 H   0  0  0  0  0  0  0  0  0  0  0  0
  1  2  1  0
  1 37  1  0
  1 38  1  0
  1 39  1  0
  2  7  2  0
  2  3  1  0
  3  4  2  0
  3 40  1  0
  4  5  1  0
  4 41  1  0
  5  6  2  0
  5 42  1  0
  6  7  1  0
  6 43  1  0
  7  8  1  0
  8  9  1  0
  8 44  1  0
  8 45  1  0
  9 10  1  0
  9 11  1  0
  9 46  1  1
 10 47  1  0
 10 48  1  0
 10 49  1  0
 11 12  1  6
 11 36  1  0
 11 13  1  0
 13 14  1  0
 13 50  1  0
 13 51  1  0
 14 15  1  0
 14 52  1  0
 14 53  1  0
 15 16  1  0
 15 27  2  0
 16 17  1  0
 16 18  1  0
 16 54  1  6
 17 55  1  0
 18 26  2  0
 18 19  1  0
 19 20  2  0
 19 56  1  0
 20 21  1  0
 21 26  1  0
 21 22  1  0
 22 23  2  0
 22 57  1  0
 23 24  1  0
 23 58  1  0
 24 25  2  0
 24 59  1  0
 25 26  1  0
 25 60  1  0
 27 28  1  0
 27 36  1  0
 28 35  1  0
 28 29  2  0
 29 30  1  0
 29 61  1  0
 30 31  2  0
 30 62  1  0
 31 32  1  0
 31 63  1  0
 32 33  1  0
 32 35  2  0
 33 34  1  0
 33 64  1  0
 33 65  1  0
 34 66  1  0
 35 67  1  0
 36 68  1  0
 36 69  1  0
M  CHG  1  11   1
M  END
>  <DOCK_score>  (1) 
-55.745964

>  <SMILES>  (1) 
Cc1ccccc1CC(C)[N@H+]1CCC(C(O)c2cnn3ccccc23)=C(c2cccc(CO)c2)C1

$$$$
