Oc1cc(C[NH+]=C(NCc2cncs2)NC2CC=CC2)cc(O[C@@H]2CC=CCC2)c1
     RDKit          3D

 59 62  0  0  1  0  0  0  0  0999 V2000
  124.5038  135.5876  163.2594 O   0  0  0  0  0  0  0  0  0  0  0  0
  125.7242  135.7538  163.8337 C   0  0  0  0  0  0  0  0  0  0  0  0
  126.7870  136.2322  163.0802 C   0  0  0  0  0  0  0  0  0  0  0  0
  128.0280  136.4010  163.6635 C   0  0  0  0  0  0  0  0  0  0  0  0
  129.1805  136.9204  162.8429 C   0  0  0  0  0  0  0  0  0  0  0  0
  129.2106  136.2300  161.5512 N   0  0  0  0  0  0  0  0  0  0  0  0
  128.5455  135.5543  161.3467 H   0  0  0  0  0  0  0  0  0  0  0  0
  130.1314  136.5237  160.6767 C   0  0  0  0  0  0  0  0  0  0  0  0
  131.0743  137.4814  160.9666 N   0  0  0  0  0  0  0  0  0  0  0  0
  132.1093  137.8115  159.9837 C   0  0  0  0  0  0  0  0  0  0  0  0
  133.0097  138.8827  160.5430 C   0  0  0  0  0  0  0  0  0  0  0  0
  134.0643  139.4242  159.9262 C   0  0  0  0  0  0  0  0  0  0  0  0
  134.6906  140.3493  160.6252 N   0  0  0  0  0  0  0  0  0  0  0  0
  134.2291  140.6111  161.8014 C   0  0  0  0  0  0  0  0  0  0  0  0
  132.8625  139.6369  162.1285 S   0  0  0  0  0  0  0  0  0  0  0  0
  130.1599  135.8758  159.4644 N   0  0  0  0  0  0  0  0  0  0  0  0
  129.1552  134.8552  159.1556 C   0  0  0  0  0  0  0  0  0  0  0  0
  129.3422  133.6049  160.0461 C   0  0  0  0  0  0  0  0  0  0  0  0
  129.0240  132.4377  159.1398 C   0  0  0  0  0  0  0  0  0  0  0  0
  129.0445  132.7971  157.8851 C   0  0  0  0  0  0  0  0  0  0  0  0
  129.3804  134.2636  157.7448 C   0  0  0  0  0  0  0  0  0  0  0  0
  128.2143  136.0945  164.9981 C   0  0  0  0  0  0  0  0  0  0  0  0
  127.1548  135.6160  165.7556 C   0  0  0  0  0  0  0  0  0  0  0  0
  127.3386  135.3144  167.0679 O   0  0  0  0  0  0  0  0  0  0  0  0
  127.7679  136.3753  167.9234 C   0  0  2  0  0  0  0  0  0  0  0  0
  127.8792  137.2915  167.3433 H   0  0  0  0  0  0  0  0  0  0  0  0
  129.1069  136.0078  168.5665 C   0  0  0  0  0  0  0  0  0  0  0  0
  129.4397  136.9809  169.6596 C   0  0  0  0  0  0  0  0  0  0  0  0
  128.5784  137.7737  170.2117 C   0  0  0  0  0  0  0  0  0  0  0  0
  127.1288  137.8380  169.8291 C   0  0  0  0  0  0  0  0  0  0  0  0
  126.7363  136.5880  169.0385 C   0  0  0  0  0  0  0  0  0  0  0  0
  125.9098  135.4403  165.1712 C   0  0  0  0  0  0  0  0  0  0  0  0
  124.4724  135.8328  162.3244 H   0  0  0  0  0  0  0  0  0  0  0  0
  126.6438  136.4729  162.0372 H   0  0  0  0  0  0  0  0  0  0  0  0
  129.0567  137.9911  162.6799 H   0  0  0  0  0  0  0  0  0  0  0  0
  130.1151  136.7394  163.3737 H   0  0  0  0  0  0  0  0  0  0  0  0
  131.0542  137.9385  161.8219 H   0  0  0  0  0  0  0  0  0  0  0  0
  132.6977  136.9210  159.7626 H   0  0  0  0  0  0  0  0  0  0  0  0
  131.6395  138.1728  159.0689 H   0  0  0  0  0  0  0  0  0  0  0  0
  134.3760  139.1301  158.9349 H   0  0  0  0  0  0  0  0  0  0  0  0
  134.6461  141.3394  162.4811 H   0  0  0  0  0  0  0  0  0  0  0  0
  130.8451  136.0942  158.8136 H   0  0  0  0  0  0  0  0  0  0  0  0
  128.1475  135.2588  159.2544 H   0  0  0  0  0  0  0  0  0  0  0  0
  130.3711  133.5411  160.4000 H   0  0  0  0  0  0  0  0  0  0  0  0
  128.6509  133.6319  160.8884 H   0  0  0  0  0  0  0  0  0  0  0  0
  128.8076  131.4375  159.4852 H   0  0  0  0  0  0  0  0  0  0  0  0
  128.8469  132.1336  157.0562 H   0  0  0  0  0  0  0  0  0  0  0  0
  128.7153  134.7382  157.0234 H   0  0  0  0  0  0  0  0  0  0  0  0
  130.4199  134.3895  157.4418 H   0  0  0  0  0  0  0  0  0  0  0  0
  129.1851  136.2279  165.4519 H   0  0  0  0  0  0  0  0  0  0  0  0
  129.8905  136.0333  167.8092 H   0  0  0  0  0  0  0  0  0  0  0  0
  129.0410  135.0034  168.9846 H   0  0  0  0  0  0  0  0  0  0  0  0
  130.4614  137.0222  170.0068 H   0  0  0  0  0  0  0  0  0  0  0  0
  128.9235  138.4265  170.9998 H   0  0  0  0  0  0  0  0  0  0  0  0
  126.5195  137.9014  170.7306 H   0  0  0  0  0  0  0  0  0  0  0  0
  126.9559  138.7224  169.2157 H   0  0  0  0  0  0  0  0  0  0  0  0
  125.7474  136.7263  168.6014 H   0  0  0  0  0  0  0  0  0  0  0  0
  126.7268  135.7210  169.6991 H   0  0  0  0  0  0  0  0  0  0  0  0
  125.0849  135.0641  165.7581 H   0  0  0  0  0  0  0  0  0  0  0  0
  1  2  1  0
  1 33  1  0
  2 32  2  0
  2  3  1  0
  3  4  2  0
  3 34  1  0
  4  5  1  0
  4 22  1  0
  5  6  1  0
  5 35  1  0
  5 36  1  0
  6  7  1  0
  8  6  2  0
  8  9  1  0
  8 16  1  0
  9 10  1  0
  9 37  1  0
 10 11  1  0
 10 38  1  0
 10 39  1  0
 11 15  1  0
 11 12  2  0
 12 13  1  0
 12 40  1  0
 13 14  2  0
 14 15  1  0
 14 41  1  0
 16 17  1  0
 16 42  1  0
 17 21  1  0
 17 18  1  0
 17 43  1  0
 18 19  1  0
 18 44  1  0
 18 45  1  0
 19 20  2  0
 19 46  1  0
 20 21  1  0
 20 47  1  0
 21 48  1  0
 21 49  1  0
 22 23  2  0
 22 50  1  0
 23 24  1  0
 23 32  1  0
 24 25  1  0
 25 26  1  6
 25 31  1  0
 25 27  1  0
 27 28  1  0
 27 51  1  0
 27 52  1  0
 28 29  2  0
 28 53  1  0
 29 30  1  0
 29 54  1  0
 30 31  1  0
 30 55  1  0
 30 56  1  0
 31 57  1  0
 31 58  1  0
 32 59  1  0
M  CHG  1   6   1
M  END
>  <DOCK_score>  (1) 
-43.740349

>  <SMILES>  (1) 
Oc1cc(C[NH+]=C(NCc2cncs2)NC2CC=CC2)cc(O[C@@H]2CC=CCC2)c1

$$$$
