CCn1ccc(NC(=O)C(=O)NC2CC[C@@H]3C(CCC[NH+]3CC(OC)C3CCC3)C2)n1
     RDKit          3D

 69 72  0  0  1  0  0  0  0  0999 V2000
  126.9727  144.4431  166.9893 C   0  0  0  0  0  0  0  0  0  0  0  0
  126.8263  142.9965  167.4657 C   0  0  0  0  0  0  0  0  0  0  0  0
  126.8318  142.0983  166.3083 N   0  0  0  0  0  0  0  0  0  0  0  0
  125.7476  141.6943  165.6130 C   0  0  0  0  0  0  0  0  0  0  0  0
  126.1704  140.8744  164.6245 C   0  0  0  0  0  0  0  0  0  0  0  0
  127.5682  140.7720  164.7177 C   0  0  0  0  0  0  0  0  0  0  0  0
  128.3948  140.0166  163.8786 N   0  0  0  0  0  0  0  0  0  0  0  0
  127.8590  139.3054  162.8669 C   0  0  0  0  0  0  0  0  0  0  0  0
  126.6592  139.3203  162.6835 O   0  0  0  0  0  0  0  0  0  0  0  0
  128.7413  138.4993  161.9714 C   0  0  0  0  0  0  0  0  0  0  0  0
  129.9409  138.4845  162.1547 O   0  0  0  0  0  0  0  0  0  0  0  0
  128.2054  137.7883  160.9596 N   0  0  0  0  0  0  0  0  0  0  0  0
  129.0710  136.9976  160.0811 C   0  0  2  0  0  0  0  0  0  0  0  0
  128.2180  136.2930  159.0243 C   0  0  0  0  0  0  0  0  0  0  0  0
  129.1185  135.4666  158.1098 C   0  0  0  0  0  0  0  0  0  0  0  0
  129.8717  134.4223  158.9362 C   0  0  2  0  0  0  0  0  0  0  0  0
  129.1545  133.7656  159.4284 H   0  0  0  0  0  0  0  0  0  0  0  0
  130.7252  135.1274  159.9926 C   0  0  2  0  0  0  0  0  0  0  0  0
  131.4747  134.0788  160.8196 C   0  0  0  0  0  0  0  0  0  0  0  0
  132.3146  133.2080  159.8809 C   0  0  0  0  0  0  0  0  0  0  0  0
  131.4027  132.5742  158.8282 C   0  0  0  0  0  0  0  0  0  0  0  0
  130.7358  133.6284  158.0545 N   0  0  1  0  0  0  0  0  0  0  0  0
  131.4310  134.2294  157.6379 H   0  0  0  0  0  0  0  0  0  0  0  0
  129.9222  133.0162  156.9956 C   0  0  0  0  0  0  0  0  0  0  0  0
  130.6773  131.8292  156.3939 C   0  0  1  0  0  0  0  0  0  0  0  0
  130.5344  130.6919  157.2471 O   0  0  0  0  0  0  0  0  0  0  0  0
  131.5294  129.6860  157.0463 C   0  0  0  0  0  0  0  0  0  0  0  0
  130.1029  131.5065  155.0130 C   0  0  0  0  0  0  0  0  0  0  0  0
  131.0779  130.7395  154.1043 C   0  0  0  0  0  0  0  0  0  0  0  0
  130.5701  131.6224  152.9498 C   0  0  0  0  0  0  0  0  0  0  0  0
  130.2082  132.6713  154.0145 C   0  0  0  0  0  0  0  0  0  0  0  0
  129.8214  135.9531  160.9102 C   0  0  0  0  0  0  0  0  0  0  0  0
  127.9626  141.5044  165.7332 N   0  0  0  0  0  0  0  0  0  0  0  0
  126.9686  145.1113  167.8505 H   0  0  0  0  0  0  0  0  0  0  0  0
  127.9121  144.5540  166.4478 H   0  0  0  0  0  0  0  0  0  0  0  0
  126.1417  144.6945  166.3304 H   0  0  0  0  0  0  0  0  0  0  0  0
  125.8868  142.8857  168.0072 H   0  0  0  0  0  0  0  0  0  0  0  0
  127.6574  142.7451  168.1246 H   0  0  0  0  0  0  0  0  0  0  0  0
  124.7240  141.9760  165.8112 H   0  0  0  0  0  0  0  0  0  0  0  0
  125.5444  140.3849  163.8929 H   0  0  0  0  0  0  0  0  0  0  0  0
  129.3536  140.0047  164.0251 H   0  0  0  0  0  0  0  0  0  0  0  0
  127.2466  137.8002  160.8130 H   0  0  0  0  0  0  0  0  0  0  0  0
  129.7883  137.6551  159.5899 H   0  0  0  0  0  0  0  0  0  0  0  0
  127.5005  135.6357  159.5155 H   0  0  0  0  0  0  0  0  0  0  0  0
  127.6837  137.0371  158.4336 H   0  0  0  0  0  0  0  0  0  0  0  0
  129.8337  136.1262  157.6185 H   0  0  0  0  0  0  0  0  0  0  0  0
  128.5106  134.9647  157.3570 H   0  0  0  0  0  0  0  0  0  0  0  0
  131.4433  135.7842  159.5016 H   0  0  0  0  0  0  0  0  0  0  0  0
  130.7572  133.4542  161.3518 H   0  0  0  0  0  0  0  0  0  0  0  0
  132.1276  134.5773  161.5361 H   0  0  0  0  0  0  0  0  0  0  0  0
  132.8072  132.4235  160.4555 H   0  0  0  0  0  0  0  0  0  0  0  0
  133.0663  133.8245  159.3877 H   0  0  0  0  0  0  0  0  0  0  0  0
  131.9982  131.9540  158.1582 H   0  0  0  0  0  0  0  0  0  0  0  0
  130.6521  131.9574  159.3224 H   0  0  0  0  0  0  0  0  0  0  0  0
  128.9782  132.6704  157.4169 H   0  0  0  0  0  0  0  0  0  0  0  0
  129.7244  133.7532  156.2173 H   0  0  0  0  0  0  0  0  0  0  0  0
  131.7333  132.0814  156.2982 H   0  0  0  0  0  0  0  0  0  0  0  0
  131.2850  128.8086  157.6449 H   0  0  0  0  0  0  0  0  0  0  0  0
  131.5592  129.4097  155.9923 H   0  0  0  0  0  0  0  0  0  0  0  0
  132.5027  130.0725  157.3484 H   0  0  0  0  0  0  0  0  0  0  0  0
  129.1091  131.0614  155.0614 H   0  0  0  0  0  0  0  0  0  0  0  0
  132.1266  130.9044  154.3514 H   0  0  0  0  0  0  0  0  0  0  0  0
  130.8299  129.6843  153.9898 H   0  0  0  0  0  0  0  0  0  0  0  0
  129.7045  131.2080  152.4330 H   0  0  0  0  0  0  0  0  0  0  0  0
  131.3557  131.9464  152.2669 H   0  0  0  0  0  0  0  0  0  0  0  0
  129.2589  133.1734  153.8276 H   0  0  0  0  0  0  0  0  0  0  0  0
  131.0187  133.3653  154.2370 H   0  0  0  0  0  0  0  0  0  0  0  0
  129.1041  135.2954  161.4013 H   0  0  0  0  0  0  0  0  0  0  0  0
  130.4290  136.4549  161.6631 H   0  0  0  0  0  0  0  0  0  0  0  0
  1  2  1  0
  1 34  1  0
  1 35  1  0
  1 36  1  0
  2  3  1  0
  2 37  1  0
  2 38  1  0
  3 33  1  0
  3  4  1  0
  4  5  2  0
  4 39  1  0
  5  6  1  0
  5 40  1  0
  6  7  1  0
  6 33  2  0
  7  8  1  0
  7 41  1  0
  8  9  2  0
  8 10  1  0
 10 11  2  0
 10 12  1  0
 12 13  1  0
 12 42  1  0
 13 32  1  0
 13 14  1  0
 13 43  1  6
 14 15  1  0
 14 44  1  0
 14 45  1  0
 15 16  1  0
 15 46  1  0
 15 47  1  0
 16 17  1  1
 16 22  1  0
 16 18  1  0
 18 19  1  0
 18 32  1  0
 18 48  1  6
 19 20  1  0
 19 49  1  0
 19 50  1  0
 20 21  1  0
 20 51  1  0
 20 52  1  0
 21 22  1  0
 21 53  1  0
 21 54  1  0
 22 23  1  6
 22 24  1  0
 24 25  1  0
 24 55  1  0
 24 56  1  0
 25 26  1  0
 25 28  1  0
 25 57  1  6
 26 27  1  0
 27 58  1  0
 27 59  1  0
 27 60  1  0
 28 31  1  0
 28 29  1  0
 28 61  1  0
 29 30  1  0
 29 62  1  0
 29 63  1  0
 30 31  1  0
 30 64  1  0
 30 65  1  0
 31 66  1  0
 31 67  1  0
 32 68  1  0
 32 69  1  0
M  CHG  1  22   1
M  END
>  <DOCK_score>  (1) 
-45.7966

>  <SMILES>  (1) 
CCn1ccc(NC(=O)C(=O)NC2CC[C@@H]3C(CCC[NH+]3CC(OC)C3CCC3)C2)n1

$$$$
