FCC[NH2+]Cc1c[nH]nc1-c1ccc(NCc2ccc(F)cc2F)o1
     RDKit          3D

 43 45  0  0  0  0  0  0  0  0999 V2000
  131.9120  139.6914  158.7227 F   0  0  0  0  0  0  0  0  0  0  0  0
  130.9945  139.6600  159.7783 C   0  0  0  0  0  0  0  0  0  0  0  0
  131.1499  138.3482  160.5503 C   0  0  0  0  0  0  0  0  0  0  0  0
  130.8977  137.2165  159.6483 N   0  0  0  0  0  0  0  0  0  0  0  0
  131.5594  137.2392  158.8870 H   0  0  0  0  0  0  0  0  0  0  0  0
  129.9601  137.2816  159.2811 H   0  0  0  0  0  0  0  0  0  0  0  0
  131.0468  135.9571  160.3895 C   0  0  0  0  0  0  0  0  0  0  0  0
  130.7880  134.7960  159.4643 C   0  0  0  0  0  0  0  0  0  0  0  0
  131.7097  134.1590  158.7106 C   0  0  0  0  0  0  0  0  0  0  0  0
  131.0841  133.1770  158.0260 N   0  0  0  0  0  0  0  0  0  0  0  0
  131.5035  132.5587  157.4073 H   0  0  0  0  0  0  0  0  0  0  0  0
  129.7239  133.2100  158.3589 N   0  0  0  0  0  0  0  0  0  0  0  0
  129.5386  134.1852  159.2268 C   0  0  0  0  0  0  0  0  0  0  0  0
  128.2513  134.5697  159.8418 C   0  0  0  0  0  0  0  0  0  0  0  0
  127.0510  133.9743  159.6141 C   0  0  0  0  0  0  0  0  0  0  0  0
  126.1018  134.6555  160.4016 C   0  0  0  0  0  0  0  0  0  0  0  0
  126.7678  135.6304  161.0692 C   0  0  0  0  0  0  0  0  0  0  0  0
  126.2028  136.5369  161.9588 N   0  0  0  0  0  0  0  0  0  0  0  0
  127.0494  137.2358  162.9287 C   0  0  0  0  0  0  0  0  0  0  0  0
  127.1322  136.4272  164.1978 C   0  0  0  0  0  0  0  0  0  0  0  0
  128.1281  135.4809  164.3504 C   0  0  0  0  0  0  0  0  0  0  0  0
  128.2086  134.7427  165.5158 C   0  0  0  0  0  0  0  0  0  0  0  0
  127.2838  134.9422  166.5277 C   0  0  0  0  0  0  0  0  0  0  0  0
  127.3604  134.2170  167.6650 F   0  0  0  0  0  0  0  0  0  0  0  0
  126.2837  135.8857  166.3739 C   0  0  0  0  0  0  0  0  0  0  0  0
  126.2073  136.6286  165.2083 C   0  0  0  0  0  0  0  0  0  0  0  0
  125.2304  137.5494  165.0565 F   0  0  0  0  0  0  0  0  0  0  0  0
  128.0669  135.5687  160.7304 O   0  0  0  0  0  0  0  0  0  0  0  0
  129.9817  139.7304  159.3817 H   0  0  0  0  0  0  0  0  0  0  0  0
  131.1818  140.4998  160.4475 H   0  0  0  0  0  0  0  0  0  0  0  0
  130.4352  138.3237  161.3727 H   0  0  0  0  0  0  0  0  0  0  0  0
  132.1627  138.2780  160.9469 H   0  0  0  0  0  0  0  0  0  0  0  0
  130.3319  135.9325  161.2120 H   0  0  0  0  0  0  0  0  0  0  0  0
  132.0596  135.8867  160.7863 H   0  0  0  0  0  0  0  0  0  0  0  0
  132.7632  134.3924  158.6649 H   0  0  0  0  0  0  0  0  0  0  0  0
  126.8612  133.1395  158.9558 H   0  0  0  0  0  0  0  0  0  0  0  0
  125.0449  134.4418  160.4623 H   0  0  0  0  0  0  0  0  0  0  0  0
  125.2481  136.7067  161.9372 H   0  0  0  0  0  0  0  0  0  0  0  0
  128.0490  137.3632  162.5133 H   0  0  0  0  0  0  0  0  0  0  0  0
  126.6199  138.2134  163.1483 H   0  0  0  0  0  0  0  0  0  0  0  0
  128.8463  135.3211  163.5597 H   0  0  0  0  0  0  0  0  0  0  0  0
  128.9896  134.0064  165.6355 H   0  0  0  0  0  0  0  0  0  0  0  0
  125.5628  136.0424  167.1627 H   0  0  0  0  0  0  0  0  0  0  0  0
  1  2  1  0
  2  3  1  0
  2 29  1  0
  2 30  1  0
  3  4  1  0
  3 31  1  0
  3 32  1  0
  4  5  1  0
  4  6  1  0
  4  7  1  0
  7  8  1  0
  7 33  1  0
  7 34  1  0
  8 13  1  0
  8  9  2  0
  9 10  1  0
  9 35  1  0
 10 11  1  0
 10 12  1  0
 12 13  2  0
 13 14  1  0
 14 28  1  0
 14 15  2  0
 15 16  1  0
 15 36  1  0
 16 17  2  0
 16 37  1  0
 17 18  1  0
 17 28  1  0
 18 19  1  0
 18 38  1  0
 19 20  1  0
 19 39  1  0
 19 40  1  0
 20 26  1  0
 20 21  2  0
 21 22  1  0
 21 41  1  0
 22 23  2  0
 22 42  1  0
 23 24  1  0
 23 25  1  0
 25 26  2  0
 25 43  1  0
 26 27  1  0
M  CHG  1   4   1
M  END
>  <DOCK_score>  (1) 
-41.844818

>  <SMILES>  (1) 
FCC[NH2+]Cc1c[nH]nc1-c1ccc(NCc2ccc(F)cc2F)o1

$$$$
