C[C@H](NC(NC1CC1)=[NH+][C@H]1CCC(=O)NC1)c1ccc(N2CC=C(Br)CC2)cc1
     RDKit          3D

 60 63  0  0  1  0  0  0  0  0999 V2000
  132.7964  134.2367  162.0412 C   0  0  0  0  0  0  0  0  0  0  0  0
  131.7185  135.0506  161.3225 C   0  0  2  0  0  0  0  0  0  0  0  0
  130.8243  135.0981  161.9439 H   0  0  0  0  0  0  0  0  0  0  0  0
  131.3927  134.4099  160.0460 N   0  0  0  0  0  0  0  0  0  0  0  0
  130.1280  134.5288  159.5201 C   0  0  0  0  0  0  0  0  0  0  0  0
  129.8223  133.9275  158.3223 N   0  0  0  0  0  0  0  0  0  0  0  0
  130.8441  133.1600  157.6059 C   0  0  0  0  0  0  0  0  0  0  0  0
  131.0959  131.7212  158.0607 C   0  0  0  0  0  0  0  0  0  0  0  0
  130.3718  131.9906  156.7402 C   0  0  0  0  0  0  0  0  0  0  0  0
  129.2187  135.2116  160.1575 N   0  0  0  0  0  0  0  0  0  0  0  0
  129.4779  135.9605  160.7167 H   0  0  0  0  0  0  0  0  0  0  0  0
  127.8054  134.8478  160.0289 C   0  0  1  0  0  0  0  0  0  0  0  0
  127.5028  134.9200  158.9843 H   0  0  0  0  0  0  0  0  0  0  0  0
  127.5956  133.4141  160.5310 C   0  0  0  0  0  0  0  0  0  0  0  0
  126.1563  132.9977  160.2172 C   0  0  0  0  0  0  0  0  0  0  0  0
  125.2044  134.0660  160.6731 C   0  0  0  0  0  0  0  0  0  0  0  0
  124.0342  133.7749  160.8026 O   0  0  0  0  0  0  0  0  0  0  0  0
  125.5771  135.3175  160.9436 N   0  0  0  0  0  0  0  0  0  0  0  0
  126.9532  135.7931  160.8765 C   0  0  0  0  0  0  0  0  0  0  0  0
  132.2284  136.4458  161.0685 C   0  0  0  0  0  0  0  0  0  0  0  0
  133.3613  136.6370  160.2988 C   0  0  0  0  0  0  0  0  0  0  0  0
  133.8279  137.9146  160.0595 C   0  0  0  0  0  0  0  0  0  0  0  0
  133.1645  139.0077  160.6021 C   0  0  0  0  0  0  0  0  0  0  0  0
  133.6366  140.3008  160.3667 N   0  0  0  0  0  0  0  0  0  0  0  0
  134.7982  140.2813  159.4683 C   0  0  0  0  0  0  0  0  0  0  0  0
  136.0028  139.7459  160.1871 C   0  0  0  0  0  0  0  0  0  0  0  0
  136.0826  139.6642  161.4816 C   0  0  0  0  0  0  0  0  0  0  0  0
  137.6687  138.9767  162.2480 Br  0  0  0  0  0  0  0  0  0  0  0  0
  134.9694  140.0925  162.3963 C   0  0  0  0  0  0  0  0  0  0  0  0
  133.9814  140.9751  161.6293 C   0  0  0  0  0  0  0  0  0  0  0  0
  132.0299  138.8118  161.3796 C   0  0  0  0  0  0  0  0  0  0  0  0
  131.5653  137.5318  161.6102 C   0  0  0  0  0  0  0  0  0  0  0  0
  133.6907  134.1893  161.4197 H   0  0  0  0  0  0  0  0  0  0  0  0
  133.0389  134.7135  162.9910 H   0  0  0  0  0  0  0  0  0  0  0  0
  132.4277  133.2276  162.2248 H   0  0  0  0  0  0  0  0  0  0  0  0
  132.0693  133.9017  159.5717 H   0  0  0  0  0  0  0  0  0  0  0  0
  128.9300  134.0115  157.9512 H   0  0  0  0  0  0  0  0  0  0  0  0
  131.7014  133.7336  157.2530 H   0  0  0  0  0  0  0  0  0  0  0  0
  132.1186  131.3479  158.0070 H   0  0  0  0  0  0  0  0  0  0  0  0
  130.5012  131.3451  158.8932 H   0  0  0  0  0  0  0  0  0  0  0  0
  129.3008  131.7916  156.7037 H   0  0  0  0  0  0  0  0  0  0  0  0
  130.9182  131.7944  155.8175 H   0  0  0  0  0  0  0  0  0  0  0  0
  128.2902  132.7429  160.0259 H   0  0  0  0  0  0  0  0  0  0  0  0
  127.7631  133.3741  161.6074 H   0  0  0  0  0  0  0  0  0  0  0  0
  125.9284  132.0652  160.7336 H   0  0  0  0  0  0  0  0  0  0  0  0
  126.0492  132.8518  159.1424 H   0  0  0  0  0  0  0  0  0  0  0  0
  124.8891  135.9511  161.2011 H   0  0  0  0  0  0  0  0  0  0  0  0
  127.3660  135.8449  161.8839 H   0  0  0  0  0  0  0  0  0  0  0  0
  126.9662  136.7876  160.4304 H   0  0  0  0  0  0  0  0  0  0  0  0
  133.8793  135.7863  159.8812 H   0  0  0  0  0  0  0  0  0  0  0  0
  134.7102  138.0634  159.4547 H   0  0  0  0  0  0  0  0  0  0  0  0
  134.5793  139.6477  158.6088 H   0  0  0  0  0  0  0  0  0  0  0  0
  135.0048  141.2945  159.1234 H   0  0  0  0  0  0  0  0  0  0  0  0
  136.8447  139.4117  159.5989 H   0  0  0  0  0  0  0  0  0  0  0  0
  135.3838  140.6549  163.2331 H   0  0  0  0  0  0  0  0  0  0  0  0
  134.4509  139.2113  162.7739 H   0  0  0  0  0  0  0  0  0  0  0  0
  134.4414  141.9398  161.4158 H   0  0  0  0  0  0  0  0  0  0  0  0
  133.0802  141.1195  162.2252 H   0  0  0  0  0  0  0  0  0  0  0  0
  131.5120  139.6595  161.8033 H   0  0  0  0  0  0  0  0  0  0  0  0
  130.6837  137.3788  162.2149 H   0  0  0  0  0  0  0  0  0  0  0  0
  1  2  1  0
  1 33  1  0
  1 34  1  0
  1 35  1  0
  2  3  1  1
  2  4  1  0
  2 20  1  0
  4 36  1  0
  5  4  1  0
  5  6  1  0
  5 10  2  0
  6  7  1  0
  6 37  1  0
  7  9  1  0
  7  8  1  0
  7 38  1  0
  8  9  1  0
  8 39  1  0
  8 40  1  0
  9 41  1  0
  9 42  1  0
 10 11  1  0
 10 12  1  0
 12 13  1  6
 12 19  1  0
 12 14  1  0
 14 15  1  0
 14 43  1  0
 14 44  1  0
 15 16  1  0
 15 45  1  0
 15 46  1  0
 16 17  2  0
 16 18  1  0
 18 19  1  0
 18 47  1  0
 19 48  1  0
 19 49  1  0
 20 32  1  0
 20 21  2  0
 21 22  1  0
 21 50  1  0
 22 23  2  0
 22 51  1  0
 23 24  1  0
 23 31  1  0
 24 30  1  0
 24 25  1  0
 25 26  1  0
 25 52  1  0
 25 53  1  0
 26 27  2  0
 26 54  1  0
 27 28  1  0
 27 29  1  0
 29 30  1  0
 29 55  1  0
 29 56  1  0
 30 57  1  0
 30 58  1  0
 31 32  2  0
 31 59  1  0
 32 60  1  0
M  CHG  1  10   1
M  END
>  <DOCK_score>  (1) 
-46.736969

>  <SMILES>  (1) 
C[C@H](NC(NC1CC1)=[NH+][C@H]1CCC(=O)NC1)c1ccc(N2CC=C(Br)CC2)cc1

$$$$
