O=C(c1cccc2c[nH+]cn12)N1C[C@H]1CNc1ncnc2c1ncn2-c1cccnc1
     RDKit          3D

 49 54  0  0  1  0  0  0  0  0999 V2000
  130.1276  131.1398  160.1025 O   0  0  0  0  0  0  0  0  0  0  0  0
  130.1993  132.2974  159.7336 C   0  0  0  0  0  0  0  0  0  0  0  0
  130.5530  133.3516  160.6904 C   0  0  0  0  0  0  0  0  0  0  0  0
  129.7702  133.5651  161.7894 C   0  0  0  0  0  0  0  0  0  0  0  0
  130.0977  134.5674  162.7094 C   0  0  0  0  0  0  0  0  0  0  0  0
  131.2036  135.3397  162.5123 C   0  0  0  0  0  0  0  0  0  0  0  0
  132.0099  135.1210  161.3810 C   0  0  0  0  0  0  0  0  0  0  0  0
  133.1644  135.7109  160.9028 C   0  0  0  0  0  0  0  0  0  0  0  0
  133.4997  135.0773  159.7798 N   0  0  0  0  0  0  0  0  0  0  0  0
  134.2732  135.2851  159.2325 H   0  0  0  0  0  0  0  0  0  0  0  0
  132.6222  134.1399  159.5179 C   0  0  0  0  0  0  0  0  0  0  0  0
  131.6825  134.1242  160.4807 N   0  0  0  0  0  0  0  0  0  0  0  0
  129.9535  132.6107  158.4461 N   0  0  0  0  0  0  0  0  0  0  0  0
  129.5916  132.1655  157.0908 C   0  0  0  0  0  0  0  0  0  0  0  0
  129.8603  133.6384  157.4060 C   0  0  1  0  0  0  0  0  0  0  0  0
  130.7904  134.0725  157.0393 H   0  0  0  0  0  0  0  0  0  0  0  0
  128.6595  134.5856  157.4495 C   0  0  0  0  0  0  0  0  0  0  0  0
  128.9004  135.6339  158.4440 N   0  0  0  0  0  0  0  0  0  0  0  0
  128.0401  135.7794  159.5183 C   0  0  0  0  0  0  0  0  0  0  0  0
  126.9909  134.9765  159.6628 N   0  0  0  0  0  0  0  0  0  0  0  0
  126.1646  135.1080  160.6844 C   0  0  0  0  0  0  0  0  0  0  0  0
  126.3268  136.0298  161.6101 N   0  0  0  0  0  0  0  0  0  0  0  0
  127.3474  136.8783  161.5495 C   0  0  0  0  0  0  0  0  0  0  0  0
  128.2555  136.7795  160.4814 C   0  0  0  0  0  0  0  0  0  0  0  0
  129.1865  137.7481  160.6569 N   0  0  0  0  0  0  0  0  0  0  0  0
  128.9130  138.4236  161.7352 C   0  0  0  0  0  0  0  0  0  0  0  0
  127.7892  137.9220  162.3265 N   0  0  0  0  0  0  0  0  0  0  0  0
  127.1925  138.3895  163.5058 C   0  0  0  0  0  0  0  0  0  0  0  0
  127.7462  139.4616  164.2007 C   0  0  0  0  0  0  0  0  0  0  0  0
  127.1209  139.8873  165.3610 C   0  0  0  0  0  0  0  0  0  0  0  0
  125.9763  139.2394  165.7878 C   0  0  0  0  0  0  0  0  0  0  0  0
  125.4773  138.2267  165.1066 N   0  0  0  0  0  0  0  0  0  0  0  0
  126.0414  137.7900  163.9982 C   0  0  0  0  0  0  0  0  0  0  0  0
  128.8929  132.9560  161.9495 H   0  0  0  0  0  0  0  0  0  0  0  0
  129.4736  134.7295  163.5759 H   0  0  0  0  0  0  0  0  0  0  0  0
  131.4588  136.1146  163.2199 H   0  0  0  0  0  0  0  0  0  0  0  0
  133.7032  136.5267  161.3619 H   0  0  0  0  0  0  0  0  0  0  0  0
  132.6489  133.4821  158.6617 H   0  0  0  0  0  0  0  0  0  0  0  0
  128.5585  131.8666  156.9133 H   0  0  0  0  0  0  0  0  0  0  0  0
  130.3441  131.6260  156.5156 H   0  0  0  0  0  0  0  0  0  0  0  0
  127.7647  134.0256  157.7213 H   0  0  0  0  0  0  0  0  0  0  0  0
  128.5198  135.0402  156.4688 H   0  0  0  0  0  0  0  0  0  0  0  0
  129.6629  136.2262  158.3496 H   0  0  0  0  0  0  0  0  0  0  0  0
  125.3245  134.4339  160.7636 H   0  0  0  0  0  0  0  0  0  0  0  0
  129.4911  139.2559  162.1088 H   0  0  0  0  0  0  0  0  0  0  0  0
  128.6414  139.9492  163.8439 H   0  0  0  0  0  0  0  0  0  0  0  0
  127.5225  140.7156  165.9258 H   0  0  0  0  0  0  0  0  0  0  0  0
  125.4842  139.5675  166.6915 H   0  0  0  0  0  0  0  0  0  0  0  0
  125.6033  136.9577  163.4673 H   0  0  0  0  0  0  0  0  0  0  0  0
  1  2  2  0
  2  3  1  0
  2 13  1  0
  3 12  1  0
  3  4  2  0
  4  5  1  0
  4 34  1  0
  5  6  2  0
  5 35  1  0
  6  7  1  0
  6 36  1  0
  7 12  1  0
  7  8  2  0
  8  9  1  0
  8 37  1  0
  9 10  1  0
  9 11  2  0
 11 12  1  0
 11 38  1  0
 13 15  1  0
 13 14  1  0
 14 15  1  0
 14 39  1  0
 14 40  1  0
 15 16  1  6
 15 17  1  0
 17 18  1  0
 17 41  1  0
 17 42  1  0
 18 19  1  0
 18 43  1  0
 19 24  1  0
 19 20  2  0
 20 21  1  0
 21 22  2  0
 21 44  1  0
 22 23  1  0
 23 27  1  0
 23 24  2  0
 24 25  1  0
 25 26  2  0
 26 27  1  0
 26 45  1  0
 27 28  1  0
 28 33  1  0
 28 29  2  0
 29 30  1  0
 29 46  1  0
 30 31  2  0
 30 47  1  0
 31 32  1  0
 31 48  1  0
 32 33  2  0
 33 49  1  0
M  CHG  1   9   1
M  END
>  <DOCK_score>  (1) 
-45.718964

>  <SMILES>  (1) 
O=C(c1cccc2c[nH+]cn12)N1C[C@H]1CNc1ncnc2c1ncn2-c1cccnc1

$$$$
