O=C(NC[C@@H](O)c1cccc2ccccc12)[C@@H]1[NH2+]CC[C@H](O)[C@@H]1O
     RDKit          3D

 47 49  0  0  1  0  0  0  0  0999 V2000
  133.2007  133.8850  160.6113 O   0  0  0  0  0  0  0  0  0  0  0  0
  132.2175  134.4140  160.1376 C   0  0  0  0  0  0  0  0  0  0  0  0
  131.9543  135.7087  160.4044 N   0  0  0  0  0  0  0  0  0  0  0  0
  132.8558  136.4769  161.2665 C   0  0  0  0  0  0  0  0  0  0  0  0
  133.4166  137.6674  160.4860 C   0  0  1  0  0  0  0  0  0  0  0  0
  133.9657  137.3058  159.6167 H   0  0  0  0  0  0  0  0  0  0  0  0
  132.3409  138.5042  160.0558 O   0  0  0  0  0  0  0  0  0  0  0  0
  134.3439  138.4577  161.3729 C   0  0  0  0  0  0  0  0  0  0  0  0
  134.5635  138.0634  162.6571 C   0  0  0  0  0  0  0  0  0  0  0  0
  135.4176  138.7814  163.4919 C   0  0  0  0  0  0  0  0  0  0  0  0
  136.0577  139.8973  163.0472 C   0  0  0  0  0  0  0  0  0  0  0  0
  135.8561  140.3347  161.7273 C   0  0  0  0  0  0  0  0  0  0  0  0
  136.4998  141.4819  161.2322 C   0  0  0  0  0  0  0  0  0  0  0  0
  136.2850  141.8725  159.9464 C   0  0  0  0  0  0  0  0  0  0  0  0
  135.4263  141.1577  159.1131 C   0  0  0  0  0  0  0  0  0  0  0  0
  134.7859  140.0422  159.5577 C   0  0  0  0  0  0  0  0  0  0  0  0
  134.9870  139.6047  160.8782 C   0  0  0  0  0  0  0  0  0  0  0  0
  131.2901  133.6239  159.2508 C   0  0  2  0  0  0  0  0  0  0  0  0
  131.3098  132.5753  159.5477 H   0  0  0  0  0  0  0  0  0  0  0  0
  131.7283  133.7442  157.8551 N   0  0  0  0  0  0  0  0  0  0  0  0
  131.6631  134.7083  157.5650 H   0  0  0  0  0  0  0  0  0  0  0  0
  132.6857  133.4354  157.7764 H   0  0  0  0  0  0  0  0  0  0  0  0
  130.8765  132.9165  156.9925 C   0  0  0  0  0  0  0  0  0  0  0  0
  129.4367  133.4317  157.0457 C   0  0  0  0  0  0  0  0  0  0  0  0
  128.9276  133.3603  158.4882 C   0  0  2  0  0  0  0  0  0  0  0  0
  128.9090  132.3212  158.8171 H   0  0  0  0  0  0  0  0  0  0  0  0
  127.6100  133.9089  158.5577 O   0  0  0  0  0  0  0  0  0  0  0  0
  129.8661  134.1663  159.3908 C   0  0  2  0  0  0  0  0  0  0  0  0
  129.5423  134.0752  160.4276 H   0  0  0  0  0  0  0  0  0  0  0  0
  129.8387  135.5410  159.0013 O   0  0  0  0  0  0  0  0  0  0  0  0
  131.1680  136.1319  160.0255 H   0  0  0  0  0  0  0  0  0  0  0  0
  133.6763  135.8387  161.5946 H   0  0  0  0  0  0  0  0  0  0  0  0
  132.3068  136.8385  162.1359 H   0  0  0  0  0  0  0  0  0  0  0  0
  131.7034  138.0603  159.4800 H   0  0  0  0  0  0  0  0  0  0  0  0
  134.0679  137.1814  163.0349 H   0  0  0  0  0  0  0  0  0  0  0  0
  135.5742  138.4472  164.5068 H   0  0  0  0  0  0  0  0  0  0  0  0
  136.7173  140.4434  163.7053 H   0  0  0  0  0  0  0  0  0  0  0  0
  137.1651  142.0479  161.8675 H   0  0  0  0  0  0  0  0  0  0  0  0
  136.7840  142.7521  159.5673 H   0  0  0  0  0  0  0  0  0  0  0  0
  135.2703  141.4914  158.0979 H   0  0  0  0  0  0  0  0  0  0  0  0
  134.1264  139.4963  158.8995 H   0  0  0  0  0  0  0  0  0  0  0  0
  130.9051  131.8831  157.3381 H   0  0  0  0  0  0  0  0  0  0  0  0
  131.2421  132.9664  155.9668 H   0  0  0  0  0  0  0  0  0  0  0  0
  128.8055  132.8149  156.4060 H   0  0  0  0  0  0  0  0  0  0  0  0
  129.4061  134.4650  156.6996 H   0  0  0  0  0  0  0  0  0  0  0  0
  127.2272  133.9014  159.4457 H   0  0  0  0  0  0  0  0  0  0  0  0
  130.1142  135.6964  158.0876 H   0  0  0  0  0  0  0  0  0  0  0  0
  1  2  2  0
  2  3  1  0
  2 18  1  0
  3  4  1  0
  3 31  1  0
  4  5  1  0
  4 32  1  0
  4 33  1  0
  5  6  1  6
  5  7  1  0
  5  8  1  0
  7 34  1  0
  8 17  1  0
  8  9  2  0
  9 10  1  0
  9 35  1  0
 10 11  2  0
 10 36  1  0
 11 12  1  0
 11 37  1  0
 12 17  2  0
 12 13  1  0
 13 14  2  0
 13 38  1  0
 14 15  1  0
 14 39  1  0
 15 16  2  0
 15 40  1  0
 16 17  1  0
 16 41  1  0
 18 19  1  1
 18 28  1  0
 18 20  1  0
 20 21  1  0
 20 22  1  0
 20 23  1  0
 23 24  1  0
 23 42  1  0
 23 43  1  0
 24 25  1  0
 24 44  1  0
 24 45  1  0
 25 26  1  1
 25 27  1  0
 25 28  1  0
 27 46  1  0
 28 29  1  1
 28 30  1  0
 30 47  1  0
M  CHG  1  20   1
M  END
>  <DOCK_score>  (1) 
-56.979389

>  <SMILES>  (1) 
O=C(NC[C@@H](O)c1cccc2ccccc12)[C@@H]1[NH2+]CC[C@H](O)[C@@H]1O

$$$$
