CCc1ccc(-c2c[nH]c(N[C@@H](C=C3/C=C\CCCCC3)Cc3ccccc3)[nH+]2)cc1
     RDKit          3D

 65 68  0  0  1  0  0  0  0  0999 V2000
  130.5800  128.7450  151.9949 C   0  0  0  0  0  0  0  0  0  0  0  0
  131.8038  129.5310  152.4699 C   0  0  0  0  0  0  0  0  0  0  0  0
  131.4356  130.3526  153.6785 C   0  0  0  0  0  0  0  0  0  0  0  0
  131.5762  129.8152  154.9452 C   0  0  0  0  0  0  0  0  0  0  0  0
  131.2394  130.5621  156.0557 C   0  0  0  0  0  0  0  0  0  0  0  0
  130.7569  131.8602  155.8991 C   0  0  0  0  0  0  0  0  0  0  0  0
  130.3933  132.6679  157.0889 C   0  0  0  0  0  0  0  0  0  0  0  0
  129.9253  132.1870  158.2673 C   0  0  0  0  0  0  0  0  0  0  0  0
  129.7195  133.2704  159.0864 N   0  0  0  0  0  0  0  0  0  0  0  0
  129.3871  133.2470  159.9974 H   0  0  0  0  0  0  0  0  0  0  0  0
  130.0681  134.3826  158.3840 C   0  0  0  0  0  0  0  0  0  0  0  0
  130.0080  135.6840  158.8524 N   0  0  0  0  0  0  0  0  0  0  0  0
  129.5367  135.9516  160.2135 C   0  0  1  0  0  0  0  0  0  0  0  0
  129.9322  135.1941  160.8904 H   0  0  0  0  0  0  0  0  0  0  0  0
  130.0113  137.3133  160.6510 C   0  0  0  0  0  0  0  0  0  0  0  0
  130.7915  137.4333  161.7197 C   0  0  0  0  0  0  0  0  0  0  0  0
  131.1869  136.2376  162.4793 C   0  0  0  0  0  0  0  0  0  0  0  0
  132.1364  135.4487  161.9510 C   0  0  0  0  0  0  0  0  0  0  0  0
  132.6998  135.8712  160.6181 C   0  0  0  0  0  0  0  0  0  0  0  0
  133.7383  136.9348  160.7432 C   0  0  0  0  0  0  0  0  0  0  0  0
  133.2955  138.3731  160.7738 C   0  0  0  0  0  0  0  0  0  0  0  0
  132.8155  138.7769  162.1746 C   0  0  0  0  0  0  0  0  0  0  0  0
  131.2656  138.7941  162.1565 C   0  0  0  0  0  0  0  0  0  0  0  0
  128.0074  135.9114  160.2408 C   0  0  0  0  0  0  0  0  0  0  0  0
  127.5434  134.4784  160.2915 C   0  0  0  0  0  0  0  0  0  0  0  0
  127.3099  133.7855  159.1183 C   0  0  0  0  0  0  0  0  0  0  0  0
  126.8839  132.4713  159.1649 C   0  0  0  0  0  0  0  0  0  0  0  0
  126.6915  131.8499  160.3846 C   0  0  0  0  0  0  0  0  0  0  0  0
  126.9256  132.5426  161.5577 C   0  0  0  0  0  0  0  0  0  0  0  0
  127.3511  133.8569  161.5112 C   0  0  0  0  0  0  0  0  0  0  0  0
  130.4650  134.0191  157.1889 N   0  0  0  0  0  0  0  0  0  0  0  0
  130.7644  134.6198  156.4887 H   0  0  0  0  0  0  0  0  0  0  0  0
  130.6118  132.3945  154.6200 C   0  0  0  0  0  0  0  0  0  0  0  0
  130.9566  131.6402  153.5168 C   0  0  0  0  0  0  0  0  0  0  0  0
  129.7811  129.4389  151.7332 H   0  0  0  0  0  0  0  0  0  0  0  0
  130.8464  128.1511  151.1206 H   0  0  0  0  0  0  0  0  0  0  0  0
  130.2404  128.0846  152.7929 H   0  0  0  0  0  0  0  0  0  0  0  0
  132.1429  130.1919  151.6715 H   0  0  0  0  0  0  0  0  0  0  0  0
  132.6024  128.8375  152.7312 H   0  0  0  0  0  0  0  0  0  0  0  0
  131.9501  128.8092  155.0654 H   0  0  0  0  0  0  0  0  0  0  0  0
  131.3501  130.1415  157.0445 H   0  0  0  0  0  0  0  0  0  0  0  0
  129.7477  131.1507  158.5142 H   0  0  0  0  0  0  0  0  0  0  0  0
  130.2780  136.4187  158.2795 H   0  0  0  0  0  0  0  0  0  0  0  0
  129.7172  138.1917  160.0956 H   0  0  0  0  0  0  0  0  0  0  0  0
  130.7302  136.0066  163.4303 H   0  0  0  0  0  0  0  0  0  0  0  0
  132.4776  134.5567  162.4555 H   0  0  0  0  0  0  0  0  0  0  0  0
  131.8873  136.2442  159.9948 H   0  0  0  0  0  0  0  0  0  0  0  0
  133.1436  135.0014  160.1335 H   0  0  0  0  0  0  0  0  0  0  0  0
  134.4300  136.8204  159.9086 H   0  0  0  0  0  0  0  0  0  0  0  0
  134.2989  136.7426  161.6581 H   0  0  0  0  0  0  0  0  0  0  0  0
  132.4806  138.5110  160.0634 H   0  0  0  0  0  0  0  0  0  0  0  0
  134.1320  139.0096  160.4856 H   0  0  0  0  0  0  0  0  0  0  0  0
  133.1929  139.7691  162.4225 H   0  0  0  0  0  0  0  0  0  0  0  0
  133.1683  138.0526  162.9089 H   0  0  0  0  0  0  0  0  0  0  0  0
  130.9135  139.5499  161.4547 H   0  0  0  0  0  0  0  0  0  0  0  0
  130.8878  139.0130  163.1553 H   0  0  0  0  0  0  0  0  0  0  0  0
  127.6154  136.3886  159.3428 H   0  0  0  0  0  0  0  0  0  0  0  0
  127.6458  136.4417  161.1217 H   0  0  0  0  0  0  0  0  0  0  0  0
  127.4599  134.2711  158.1654 H   0  0  0  0  0  0  0  0  0  0  0  0
  126.7010  131.9301  158.2483 H   0  0  0  0  0  0  0  0  0  0  0  0
  126.3541  130.8246  160.4210 H   0  0  0  0  0  0  0  0  0  0  0  0
  126.7749  132.0572  162.5107 H   0  0  0  0  0  0  0  0  0  0  0  0
  127.5333  134.3984  162.4277 H   0  0  0  0  0  0  0  0  0  0  0  0
  130.2338  133.3981  154.4926 H   0  0  0  0  0  0  0  0  0  0  0  0
  130.8484  132.0547  152.5255 H   0  0  0  0  0  0  0  0  0  0  0  0
  1  2  1  0
  1 35  1  0
  1 36  1  0
  1 37  1  0
  2  3  1  0
  2 38  1  0
  2 39  1  0
  3 34  2  0
  3  4  1  0
  4  5  2  0
  4 40  1  0
  5  6  1  0
  5 41  1  0
  6  7  1  0
  6 33  2  0
  7 31  1  0
  7  8  2  0
  8  9  1  0
  8 42  1  0
  9 10  1  0
  9 11  1  0
 11 12  1  0
 11 31  2  0
 12 13  1  0
 12 43  1  0
 13 14  1  1
 13 15  1  0
 13 24  1  0
 15 16  2  0
 15 44  1  0
 16 23  1  0
 16 17  1  0
 17 18  2  0
 17 45  1  0
 18 19  1  0
 18 46  1  0
 19 20  1  0
 19 47  1  0
 19 48  1  0
 20 21  1  0
 20 49  1  0
 20 50  1  0
 21 22  1  0
 21 51  1  0
 21 52  1  0
 22 23  1  0
 22 53  1  0
 22 54  1  0
 23 55  1  0
 23 56  1  0
 24 25  1  0
 24 57  1  0
 24 58  1  0
 25 30  1  0
 25 26  2  0
 26 27  1  0
 26 59  1  0
 27 28  2  0
 27 60  1  0
 28 29  1  0
 28 61  1  0
 29 30  2  0
 29 62  1  0
 30 63  1  0
 31 32  1  0
 33 34  1  0
 33 64  1  0
 34 65  1  0
M  CHG  1  31   1
M  END
>  <DOCK_score>  (1) 
-56.709007

>  <SMILES>  (1) 
CCc1ccc(-c2c[nH]c(N[C@@H](C=C3/C=C\CCCCC3)Cc3ccccc3)[nH+]2)cc1

$$$$
