Cc1cccc2c1CCC2[NH2+][C@@H]1CCCc2sc(C3(O)C=C(c4ccccc4)CC3)cc21
     RDKit          3D

 64 69  0  0  1  0  0  0  0  0999 V2000
  135.4058  137.7468  164.0039 C   0  0  0  0  0  0  0  0  0  0  0  0
  134.7217  137.7480  162.6611 C   0  0  0  0  0  0  0  0  0  0  0  0
  134.6857  138.9055  161.9078 C   0  0  0  0  0  0  0  0  0  0  0  0
  134.0590  138.9076  160.6760 C   0  0  0  0  0  0  0  0  0  0  0  0
  133.4697  137.7522  160.2003 C   0  0  0  0  0  0  0  0  0  0  0  0
  133.5047  136.5912  160.9538 C   0  0  0  0  0  0  0  0  0  0  0  0
  134.1317  136.5890  162.1862 C   0  0  0  0  0  0  0  0  0  0  0  0
  134.0353  135.2119  162.8069 C   0  0  0  0  0  0  0  0  0  0  0  0
  132.9122  134.4952  162.0275 C   0  0  0  0  0  0  0  0  0  0  0  0
  132.9444  135.2154  160.6627 C   0  0  1  0  0  0  0  0  0  0  0  0
  131.5870  135.3242  160.1117 N   0  0  0  0  0  0  0  0  0  0  0  0
  131.6132  135.8571  159.2553 H   0  0  0  0  0  0  0  0  0  0  0  0
  130.9893  135.7889  160.7788 H   0  0  0  0  0  0  0  0  0  0  0  0
  131.0612  133.9804  159.8362 C   0  0  2  0  0  0  0  0  0  0  0  0
  131.3520  133.3028  160.6389 H   0  0  0  0  0  0  0  0  0  0  0  0
  131.6232  133.4723  158.5073 C   0  0  0  0  0  0  0  0  0  0  0  0
  130.9041  132.1783  158.1151 C   0  0  0  0  0  0  0  0  0  0  0  0
  129.4641  132.5112  157.7132 C   0  0  0  0  0  0  0  0  0  0  0  0
  128.8480  133.3797  158.7897 C   0  0  0  0  0  0  0  0  0  0  0  0
  127.1272  133.6806  158.9893 S   0  0  0  0  0  0  0  0  0  0  0  0
  127.4345  134.7081  160.3813 C   0  0  0  0  0  0  0  0  0  0  0  0
  126.3771  135.4133  161.1910 C   0  0  2  0  0  0  0  0  0  0  0  0
  125.2745  135.7772  160.3580 O   0  0  0  0  0  0  0  0  0  0  0  0
  126.9507  136.6399  161.8615 C   0  0  0  0  0  0  0  0  0  0  0  0
  126.5597  136.7127  163.1220 C   0  0  0  0  0  0  0  0  0  0  0  0
  126.9450  137.7889  164.0591 C   0  0  0  0  0  0  0  0  0  0  0  0
  126.0806  138.1643  165.0882 C   0  0  0  0  0  0  0  0  0  0  0  0
  126.4459  139.1700  165.9595 C   0  0  0  0  0  0  0  0  0  0  0  0
  127.6658  139.8061  165.8140 C   0  0  0  0  0  0  0  0  0  0  0  0
  128.5272  139.4386  164.7957 C   0  0  0  0  0  0  0  0  0  0  0  0
  128.1741  138.4342  163.9181 C   0  0  0  0  0  0  0  0  0  0  0  0
  125.6605  135.5502  163.4737 C   0  0  0  0  0  0  0  0  0  0  0  0
  125.8993  134.5126  162.3530 C   0  0  0  0  0  0  0  0  0  0  0  0
  128.7427  134.7727  160.6072 C   0  0  0  0  0  0  0  0  0  0  0  0
  129.5427  134.0370  159.7373 C   0  0  0  0  0  0  0  0  0  0  0  0
  134.6863  138.0123  164.7784 H   0  0  0  0  0  0  0  0  0  0  0  0
  135.8074  136.7538  164.2061 H   0  0  0  0  0  0  0  0  0  0  0  0
  136.2184  138.4732  163.9984 H   0  0  0  0  0  0  0  0  0  0  0  0
  135.1472  139.8079  162.2810 H   0  0  0  0  0  0  0  0  0  0  0  0
  134.0303  139.8114  160.0856 H   0  0  0  0  0  0  0  0  0  0  0  0
  132.9799  137.7546  159.2378 H   0  0  0  0  0  0  0  0  0  0  0  0
  134.9777  134.6772  162.6895 H   0  0  0  0  0  0  0  0  0  0  0  0
  133.7729  135.2903  163.8619 H   0  0  0  0  0  0  0  0  0  0  0  0
  131.9491  134.6370  162.5177 H   0  0  0  0  0  0  0  0  0  0  0  0
  133.1369  133.4350  161.9115 H   0  0  0  0  0  0  0  0  0  0  0  0
  133.5927  134.6823  159.9672 H   0  0  0  0  0  0  0  0  0  0  0  0
  132.6903  133.2775  158.6143 H   0  0  0  0  0  0  0  0  0  0  0  0
  131.4665  134.2244  157.7341 H   0  0  0  0  0  0  0  0  0  0  0  0
  130.8972  131.4934  158.9630 H   0  0  0  0  0  0  0  0  0  0  0  0
  131.4197  131.7148  157.2741 H   0  0  0  0  0  0  0  0  0  0  0  0
  128.8900  131.5900  157.6135 H   0  0  0  0  0  0  0  0  0  0  0  0
  129.4642  133.0490  156.7651 H   0  0  0  0  0  0  0  0  0  0  0  0
  124.5779  136.2650  160.8183 H   0  0  0  0  0  0  0  0  0  0  0  0
  127.5949  137.3587  161.3772 H   0  0  0  0  0  0  0  0  0  0  0  0
  125.1277  137.6690  165.2025 H   0  0  0  0  0  0  0  0  0  0  0  0
  125.7779  139.4614  166.7564 H   0  0  0  0  0  0  0  0  0  0  0  0
  127.9449  140.5959  166.4955 H   0  0  0  0  0  0  0  0  0  0  0  0
  129.4781  139.9389  164.6875 H   0  0  0  0  0  0  0  0  0  0  0  0
  128.8474  138.1480  163.1238 H   0  0  0  0  0  0  0  0  0  0  0  0
  125.9395  135.1341  164.4417 H   0  0  0  0  0  0  0  0  0  0  0  0
  124.6175  135.8665  163.4820 H   0  0  0  0  0  0  0  0  0  0  0  0
  126.6732  133.8003  162.6387 H   0  0  0  0  0  0  0  0  0  0  0  0
  124.9741  133.9978  162.0939 H   0  0  0  0  0  0  0  0  0  0  0  0
  129.1582  135.3556  161.4159 H   0  0  0  0  0  0  0  0  0  0  0  0
  1  2  1  0
  1 36  1  0
  1 37  1  0
  1 38  1  0
  2  7  2  0
  2  3  1  0
  3  4  2  0
  3 39  1  0
  4  5  1  0
  4 40  1  0
  5  6  2  0
  5 41  1  0
  6 10  1  0
  6  7  1  0
  7  8  1  0
  8  9  1  0
  8 42  1  0
  8 43  1  0
  9 10  1  0
  9 44  1  0
  9 45  1  0
 10 11  1  0
 10 46  1  6
 11 12  1  0
 11 13  1  0
 11 14  1  0
 14 15  1  1
 14 35  1  0
 14 16  1  0
 16 17  1  0
 16 47  1  0
 16 48  1  0
 17 18  1  0
 17 49  1  0
 17 50  1  0
 18 19  1  0
 18 51  1  0
 18 52  1  0
 19 35  2  0
 19 20  1  0
 20 21  1  0
 21 22  1  0
 21 34  2  0
 22 33  1  0
 22 23  1  6
 22 24  1  0
 23 53  1  0
 24 25  2  0
 24 54  1  0
 25 26  1  0
 25 32  1  0
 26 31  1  0
 26 27  2  0
 27 28  1  0
 27 55  1  0
 28 29  2  0
 28 56  1  0
 29 30  1  0
 29 57  1  0
 30 31  2  0
 30 58  1  0
 31 59  1  0
 32 33  1  0
 32 60  1  0
 32 61  1  0
 33 62  1  0
 33 63  1  0
 34 35  1  0
 34 64  1  0
M  CHG  1  11   1
M  END
>  <DOCK_score>  (1) 
-43.480911

>  <SMILES>  (1) 
Cc1cccc2c1CCC2[NH2+][C@@H]1CCCc2sc(C3(O)C=C(c4ccccc4)CC3)cc21

$$$$
