Nc1ccc(-c2c[nH]c(NC(c3ccccc3)c3ccccc3)[nH+]2)cc1
     RDKit          3D

 47 50  0  0  1  0  0  0  0  0999 V2000
  131.1367  129.3435  152.1885 N   0  0  0  0  0  0  0  0  0  0  0  0
  130.8720  130.1206  153.3187 C   0  0  0  0  0  0  0  0  0  0  0  0
  130.1488  131.3012  153.1956 C   0  0  0  0  0  0  0  0  0  0  0  0
  129.8869  132.0698  154.3101 C   0  0  0  0  0  0  0  0  0  0  0  0
  130.3477  131.6619  155.5609 C   0  0  0  0  0  0  0  0  0  0  0  0
  130.0671  132.4871  156.7614 C   0  0  0  0  0  0  0  0  0  0  0  0
  129.3784  132.0896  157.8595 C   0  0  0  0  0  0  0  0  0  0  0  0
  129.3595  133.1567  158.7261 N   0  0  0  0  0  0  0  0  0  0  0  0
  128.9431  133.1785  159.6020 H   0  0  0  0  0  0  0  0  0  0  0  0
  130.0300  134.1778  158.1268 C   0  0  0  0  0  0  0  0  0  0  0  0
  130.2354  135.4353  158.6683 N   0  0  0  0  0  0  0  0  0  0  0  0
  129.7098  135.7552  159.9978 C   0  0  0  0  0  0  0  0  0  0  0  0
  130.0671  137.1759  160.3510 C   0  0  0  0  0  0  0  0  0  0  0  0
  130.2548  137.5332  161.6731 C   0  0  0  0  0  0  0  0  0  0  0  0
  130.5873  138.8352  161.9967 C   0  0  0  0  0  0  0  0  0  0  0  0
  130.7220  139.7827  160.9990 C   0  0  0  0  0  0  0  0  0  0  0  0
  130.5292  139.4265  159.6772 C   0  0  0  0  0  0  0  0  0  0  0  0
  130.2018  138.1231  159.3533 C   0  0  0  0  0  0  0  0  0  0  0  0
  128.2108  135.5998  159.9961 C   0  0  0  0  0  0  0  0  0  0  0  0
  127.5531  135.2274  161.1536 C   0  0  0  0  0  0  0  0  0  0  0  0
  126.1777  135.0896  161.1533 C   0  0  0  0  0  0  0  0  0  0  0  0
  125.4608  135.3141  159.9928 C   0  0  0  0  0  0  0  0  0  0  0  0
  126.1190  135.6814  158.8340 C   0  0  0  0  0  0  0  0  0  0  0  0
  127.4939  135.8242  158.8356 C   0  0  0  0  0  0  0  0  0  0  0  0
  130.4543  133.7728  156.9546 N   0  0  0  0  0  0  0  0  0  0  0  0
  130.9637  134.3073  156.3255 H   0  0  0  0  0  0  0  0  0  0  0  0
  131.0775  130.4802  155.6811 C   0  0  0  0  0  0  0  0  0  0  0  0
  131.3322  129.7118  154.5648 C   0  0  0  0  0  0  0  0  0  0  0  0
  130.8156  129.6283  151.3182 H   0  0  0  0  0  0  0  0  0  0  0  0
  131.6413  128.5198  152.2733 H   0  0  0  0  0  0  0  0  0  0  0  0
  129.7921  131.6167  152.2264 H   0  0  0  0  0  0  0  0  0  0  0  0
  129.3248  132.9870  154.2140 H   0  0  0  0  0  0  0  0  0  0  0  0
  128.9337  131.1192  158.0240 H   0  0  0  0  0  0  0  0  0  0  0  0
  130.7238  136.1060  158.1657 H   0  0  0  0  0  0  0  0  0  0  0  0
  130.1443  135.0777  160.7330 H   0  0  0  0  0  0  0  0  0  0  0  0
  130.1453  136.7941  162.4530 H   0  0  0  0  0  0  0  0  0  0  0  0
  130.7375  139.1136  163.0294 H   0  0  0  0  0  0  0  0  0  0  0  0
  130.9774  140.8009  161.2521 H   0  0  0  0  0  0  0  0  0  0  0  0
  130.6340  140.1666  158.8978 H   0  0  0  0  0  0  0  0  0  0  0  0
  130.0509  137.8450  158.3207 H   0  0  0  0  0  0  0  0  0  0  0  0
  128.1136  135.0478  162.0591 H   0  0  0  0  0  0  0  0  0  0  0  0
  125.6636  134.8023  162.0585 H   0  0  0  0  0  0  0  0  0  0  0  0
  124.3867  135.2022  159.9913 H   0  0  0  0  0  0  0  0  0  0  0  0
  125.5590  135.8564  157.9273 H   0  0  0  0  0  0  0  0  0  0  0  0
  128.0081  136.1108  157.9302 H   0  0  0  0  0  0  0  0  0  0  0  0
  131.4395  130.1647  156.6484 H   0  0  0  0  0  0  0  0  0  0  0  0
  131.8937  128.7940  154.6581 H   0  0  0  0  0  0  0  0  0  0  0  0
  1  2  1  0
  1 29  1  0
  1 30  1  0
  2 28  2  0
  2  3  1  0
  3  4  2  0
  3 31  1  0
  4  5  1  0
  4 32  1  0
  5  6  1  0
  5 27  2  0
  6 25  1  0
  6  7  2  0
  7  8  1  0
  7 33  1  0
  8  9  1  0
  8 10  1  0
 10 11  1  0
 10 25  2  0
 11 12  1  0
 11 34  1  0
 12 13  1  0
 12 19  1  0
 12 35  1  0
 13 18  1  0
 13 14  2  0
 14 15  1  0
 14 36  1  0
 15 16  2  0
 15 37  1  0
 16 17  1  0
 16 38  1  0
 17 18  2  0
 17 39  1  0
 18 40  1  0
 19 24  1  0
 19 20  2  0
 20 21  1  0
 20 41  1  0
 21 22  2  0
 21 42  1  0
 22 23  1  0
 22 43  1  0
 23 24  2  0
 23 44  1  0
 24 45  1  0
 25 26  1  0
 27 28  1  0
 27 46  1  0
 28 47  1  0
M  CHG  1  25   1
M  END
>  <DOCK_score>  (1) 
-59.110455

>  <SMILES>  (1) 
Nc1ccc(-c2c[nH]c(NC(c3ccccc3)c3ccccc3)[nH+]2)cc1

$$$$
