CC1(C)C(Nc2ccc(-c3n[nH]cc3C[NH2+]C3CC34CCCC4)o2)C[C@@H]1O
     RDKit          3D

 58 62  0  0  1  0  0  0  0  0999 V2000
  125.7736  138.0714  165.0158 C   0  0  0  0  0  0  0  0  0  0  0  0
  126.5061  136.8356  164.4894 C   0  0  0  0  0  0  0  0  0  0  0  0
  125.7038  135.5455  164.6708 C   0  0  0  0  0  0  0  0  0  0  0  0
  127.0742  137.0136  163.0715 C   0  0  2  0  0  0  0  0  0  0  0  0
  126.3126  136.3040  162.0407 N   0  0  0  0  0  0  0  0  0  0  0  0
  126.9316  135.3297  161.2663 C   0  0  0  0  0  0  0  0  0  0  0  0
  126.3250  134.2437  160.7256 C   0  0  0  0  0  0  0  0  0  0  0  0
  127.3143  133.5275  160.0233 C   0  0  0  0  0  0  0  0  0  0  0  0
  128.4775  134.2145  160.1714 C   0  0  0  0  0  0  0  0  0  0  0  0
  129.7867  133.8324  159.6031 C   0  0  0  0  0  0  0  0  0  0  0  0
  130.0318  132.7675  158.8652 N   0  0  0  0  0  0  0  0  0  0  0  0
  131.3921  132.7735  158.5315 N   0  0  0  0  0  0  0  0  0  0  0  0
  131.8490  132.1074  157.9945 H   0  0  0  0  0  0  0  0  0  0  0  0
  131.9575  133.8674  159.0865 C   0  0  0  0  0  0  0  0  0  0  0  0
  130.9968  134.5418  159.7539 C   0  0  0  0  0  0  0  0  0  0  0  0
  131.1850  135.8214  160.5274 C   0  0  0  0  0  0  0  0  0  0  0  0
  130.9592  136.9687  159.6383 N   0  0  0  0  0  0  0  0  0  0  0  0
  131.6181  136.9373  158.8747 H   0  0  0  0  0  0  0  0  0  0  0  0
  130.0193  136.9316  159.2731 H   0  0  0  0  0  0  0  0  0  0  0  0
  131.1427  138.2161  160.3922 C   0  0  2  0  0  0  0  0  0  0  0  0
  131.6796  139.4305  159.6301 C   0  0  0  0  0  0  0  0  0  0  0  0
  132.5722  138.6950  160.6251 C   0  0  0  0  0  0  0  0  0  0  0  0
  133.7717  137.8617  160.1409 C   0  0  0  0  0  0  0  0  0  0  0  0
  134.9907  138.5139  160.8414 C   0  0  0  0  0  0  0  0  0  0  0  0
  134.4281  138.8839  162.2366 C   0  0  0  0  0  0  0  0  0  0  0  0
  132.9832  139.3471  161.9523 C   0  0  0  0  0  0  0  0  0  0  0  0
  128.2328  135.3023  160.9317 O   0  0  0  0  0  0  0  0  0  0  0  0
  128.3156  136.2470  163.5577 C   0  0  0  0  0  0  0  0  0  0  0  0
  127.9615  136.7290  164.9743 C   0  0  2  0  0  0  0  0  0  0  0  0
  128.4066  137.6896  165.2341 H   0  0  0  0  0  0  0  0  0  0  0  0
  128.1578  135.7358  165.9827 O   0  0  0  0  0  0  0  0  0  0  0  0
  124.9373  138.3059  164.3573 H   0  0  0  0  0  0  0  0  0  0  0  0
  125.4004  137.8722  166.0203 H   0  0  0  0  0  0  0  0  0  0  0  0
  126.4614  138.9166  165.0448 H   0  0  0  0  0  0  0  0  0  0  0  0
  126.3444  134.6875  164.4669 H   0  0  0  0  0  0  0  0  0  0  0  0
  125.3345  135.4882  165.6946 H   0  0  0  0  0  0  0  0  0  0  0  0
  124.8608  135.5418  163.9796 H   0  0  0  0  0  0  0  0  0  0  0  0
  127.2758  138.0522  162.8091 H   0  0  0  0  0  0  0  0  0  0  0  0
  125.3764  136.5142  161.8986 H   0  0  0  0  0  0  0  0  0  0  0  0
  125.2819  133.9785  160.8161 H   0  0  0  0  0  0  0  0  0  0  0  0
  127.1750  132.6085  159.4734 H   0  0  0  0  0  0  0  0  0  0  0  0
  132.9963  134.1526  159.0101 H   0  0  0  0  0  0  0  0  0  0  0  0
  130.4733  135.8553  161.3522 H   0  0  0  0  0  0  0  0  0  0  0  0
  132.2004  135.8616  160.9216 H   0  0  0  0  0  0  0  0  0  0  0  0
  130.4153  138.3987  161.1831 H   0  0  0  0  0  0  0  0  0  0  0  0
  131.8968  139.3036  158.5695 H   0  0  0  0  0  0  0  0  0  0  0  0
  131.3053  140.4123  159.9196 H   0  0  0  0  0  0  0  0  0  0  0  0
  133.6644  136.8221  160.4505 H   0  0  0  0  0  0  0  0  0  0  0  0
  133.8719  137.9300  159.0577 H   0  0  0  0  0  0  0  0  0  0  0  0
  135.3117  139.4070  160.3053 H   0  0  0  0  0  0  0  0  0  0  0  0
  135.8127  137.8038  160.9324 H   0  0  0  0  0  0  0  0  0  0  0  0
  135.0083  139.6936  162.6792 H   0  0  0  0  0  0  0  0  0  0  0  0
  134.4275  138.0134  162.8928 H   0  0  0  0  0  0  0  0  0  0  0  0
  132.9495  140.4328  161.8619 H   0  0  0  0  0  0  0  0  0  0  0  0
  132.3204  139.0172  162.7523 H   0  0  0  0  0  0  0  0  0  0  0  0
  128.2386  135.1670  163.4320 H   0  0  0  0  0  0  0  0  0  0  0  0
  129.2545  136.6522  163.1804 H   0  0  0  0  0  0  0  0  0  0  0  0
  129.0712  135.6641  166.2918 H   0  0  0  0  0  0  0  0  0  0  0  0
  1  2  1  0
  1 32  1  0
  1 33  1  0
  1 34  1  0
  2 29  1  0
  2  3  1  0
  2  4  1  0
  3 35  1  0
  3 36  1  0
  3 37  1  0
  4  5  1  0
  4 28  1  0
  4 38  1  6
  5  6  1  0
  5 39  1  0
  6 27  1  0
  6  7  2  0
  7  8  1  0
  7 40  1  0
  8  9  2  0
  8 41  1  0
  9 10  1  0
  9 27  1  0
 10 15  1  0
 10 11  2  0
 11 12  1  0
 12 13  1  0
 12 14  1  0
 14 15  2  0
 14 42  1  0
 15 16  1  0
 16 17  1  0
 16 43  1  0
 16 44  1  0
 17 18  1  0
 17 19  1  0
 17 20  1  0
 20 22  1  0
 20 21  1  0
 20 45  1  1
 21 22  1  0
 21 46  1  0
 21 47  1  0
 22 26  1  0
 22 23  1  0
 23 24  1  0
 23 48  1  0
 23 49  1  0
 24 25  1  0
 24 50  1  0
 24 51  1  0
 25 26  1  0
 25 52  1  0
 25 53  1  0
 26 54  1  0
 26 55  1  0
 28 29  1  0
 28 56  1  0
 28 57  1  0
 29 30  1  1
 29 31  1  0
 31 58  1  0
M  CHG  1  17   1
M  END
>  <DOCK_score>  (1) 
-44.483677

>  <SMILES>  (1) 
CC1(C)C(Nc2ccc(-c3n[nH]cc3C[NH2+]C3CC34CCCC4)o2)C[C@@H]1O

$$$$
