c1ccc([C@@H]2C[C@H]2Nc2cnccc2C[NH2+][C@@H]2CCC23CCC3)cc1
     RDKit          3D

 53 57  0  0  1  0  0  0  0  0999 V2000
  131.2033  130.0523  155.2087 C   0  0  0  0  0  0  0  0  0  0  0  0
  130.9653  129.6797  156.5185 C   0  0  0  0  0  0  0  0  0  0  0  0
  130.6091  130.6328  157.4542 C   0  0  0  0  0  0  0  0  0  0  0  0
  130.4917  131.9584  157.0806 C   0  0  0  0  0  0  0  0  0  0  0  0
  130.1036  132.9974  158.1008 C   0  0  2  0  0  0  0  0  0  0  0  0
  130.8184  133.1528  158.9090 H   0  0  0  0  0  0  0  0  0  0  0  0
  128.6172  133.1388  158.4350 C   0  0  0  0  0  0  0  0  0  0  0  0
  129.3207  134.2153  157.6062 C   0  0  1  0  0  0  0  0  0  0  0  0
  129.0868  134.2653  156.5427 H   0  0  0  0  0  0  0  0  0  0  0  0
  129.5889  135.5011  158.2552 N   0  0  0  0  0  0  0  0  0  0  0  0
  128.8488  135.8857  159.3760 C   0  0  0  0  0  0  0  0  0  0  0  0
  127.4682  136.0197  159.2972 C   0  0  0  0  0  0  0  0  0  0  0  0
  126.7675  136.3874  160.3511 N   0  0  0  0  0  0  0  0  0  0  0  0
  127.3391  136.6360  161.5133 C   0  0  0  0  0  0  0  0  0  0  0  0
  128.7073  136.5190  161.6718 C   0  0  0  0  0  0  0  0  0  0  0  0
  129.4834  136.1350  160.5903 C   0  0  0  0  0  0  0  0  0  0  0  0
  130.9782  135.9970  160.7232 C   0  0  0  0  0  0  0  0  0  0  0  0
  131.6184  137.2822  160.4126 N   0  0  0  0  0  0  0  0  0  0  0  0
  131.2874  137.9866  161.0546 H   0  0  0  0  0  0  0  0  0  0  0  0
  131.3881  137.5530  159.4682 H   0  0  0  0  0  0  0  0  0  0  0  0
  133.0754  137.1475  160.5420 C   0  0  2  0  0  0  0  0  0  0  0  0
  133.4942  136.3977  159.8706 H   0  0  0  0  0  0  0  0  0  0  0  0
  133.5564  137.0107  161.9980 C   0  0  0  0  0  0  0  0  0  0  0  0
  133.6595  138.5464  162.0313 C   0  0  0  0  0  0  0  0  0  0  0  0
  133.8202  138.4825  160.5119 C   0  0  0  0  0  0  0  0  0  0  0  0
  133.3499  139.6305  159.6182 C   0  0  0  0  0  0  0  0  0  0  0  0
  134.8238  140.0697  159.5497 C   0  0  0  0  0  0  0  0  0  0  0  0
  135.1977  138.6078  159.8553 C   0  0  0  0  0  0  0  0  0  0  0  0
  130.7246  132.3302  155.7697 C   0  0  0  0  0  0  0  0  0  0  0  0
  131.0851  131.3779  154.8347 C   0  0  0  0  0  0  0  0  0  0  0  0
  131.4823  129.3078  154.4777 H   0  0  0  0  0  0  0  0  0  0  0  0
  131.0578  128.6441  156.8106 H   0  0  0  0  0  0  0  0  0  0  0  0
  130.4232  130.3418  158.4777 H   0  0  0  0  0  0  0  0  0  0  0  0
  128.3538  133.3871  159.4631 H   0  0  0  0  0  0  0  0  0  0  0  0
  127.9200  132.4802  157.9168 H   0  0  0  0  0  0  0  0  0  0  0  0
  130.2804  136.0853  157.9067 H   0  0  0  0  0  0  0  0  0  0  0  0
  126.9646  135.8247  158.3618 H   0  0  0  0  0  0  0  0  0  0  0  0
  126.7295  136.9351  162.3533 H   0  0  0  0  0  0  0  0  0  0  0  0
  129.1660  136.7249  162.6276 H   0  0  0  0  0  0  0  0  0  0  0  0
  131.3357  135.2359  160.0295 H   0  0  0  0  0  0  0  0  0  0  0  0
  131.2269  135.7042  161.7433 H   0  0  0  0  0  0  0  0  0  0  0  0
  134.5182  136.5069  162.0939 H   0  0  0  0  0  0  0  0  0  0  0  0
  132.7990  136.6098  162.6715 H   0  0  0  0  0  0  0  0  0  0  0  0
  134.5449  138.9141  162.5497 H   0  0  0  0  0  0  0  0  0  0  0  0
  132.7434  139.0409  162.3539 H   0  0  0  0  0  0  0  0  0  0  0  0
  132.7037  140.3453  160.1279 H   0  0  0  0  0  0  0  0  0  0  0  0
  132.9462  139.3022  158.6604 H   0  0  0  0  0  0  0  0  0  0  0  0
  135.1345  140.4011  158.5587 H   0  0  0  0  0  0  0  0  0  0  0  0
  135.1080  140.7675  160.3372 H   0  0  0  0  0  0  0  0  0  0  0  0
  135.3138  137.9906  158.9646 H   0  0  0  0  0  0  0  0  0  0  0  0
  136.0286  138.5056  160.5533 H   0  0  0  0  0  0  0  0  0  0  0  0
  130.6285  133.3653  155.4766 H   0  0  0  0  0  0  0  0  0  0  0  0
  131.2713  131.6689  153.8115 H   0  0  0  0  0  0  0  0  0  0  0  0
  1 30  2  0
  1  2  1  0
  1 31  1  0
  2  3  2  0
  2 32  1  0
  3  4  1  0
  3 33  1  0
  4  5  1  0
  4 29  2  0
  5  6  1  1
  5  8  1  0
  5  7  1  0
  7  8  1  0
  7 34  1  0
  7 35  1  0
  8  9  1  6
  8 10  1  0
 10 11  1  0
 10 36  1  0
 11 16  1  0
 11 12  2  0
 12 13  1  0
 12 37  1  0
 13 14  2  0
 14 15  1  0
 14 38  1  0
 15 16  2  0
 15 39  1  0
 16 17  1  0
 17 18  1  0
 17 40  1  0
 17 41  1  0
 18 19  1  0
 18 20  1  0
 18 21  1  0
 21 22  1  6
 21 25  1  0
 21 23  1  0
 23 24  1  0
 23 42  1  0
 23 43  1  0
 24 25  1  0
 24 44  1  0
 24 45  1  0
 25 28  1  0
 25 26  1  0
 26 27  1  0
 26 46  1  0
 26 47  1  0
 27 28  1  0
 27 48  1  0
 27 49  1  0
 28 50  1  0
 28 51  1  0
 29 30  1  0
 29 52  1  0
 30 53  1  0
M  CHG  1  18   1
M  END
>  <DOCK_score>  (1) 
-46.857502

>  <SMILES>  (1) 
c1ccc([C@@H]2C[C@H]2Nc2cnccc2C[NH2+][C@@H]2CCC23CCC3)cc1

$$$$
