O=C1CC[C@H]([NH+]=C(NC[C@H]2CC=CCC2)NC2CC2)CN1
     RDKit          3D

 48 50  0  0  1  0  0  0  0  0999 V2000
  124.1715  133.5928  162.0932 O   0  0  0  0  0  0  0  0  0  0  0  0
  125.2817  134.0062  161.8336 C   0  0  0  0  0  0  0  0  0  0  0  0
  126.4538  133.1021  162.0863 C   0  0  0  0  0  0  0  0  0  0  0  0
  127.7476  133.9187  162.1169 C   0  0  0  0  0  0  0  0  0  0  0  0
  127.7740  134.8331  160.8862 C   0  0  2  0  0  0  0  0  0  0  0  0
  127.6057  134.2407  159.9869 H   0  0  0  0  0  0  0  0  0  0  0  0
  129.0745  135.5015  160.7984 N   0  0  0  0  0  0  0  0  0  0  0  0
  129.3752  136.0747  161.5210 H   0  0  0  0  0  0  0  0  0  0  0  0
  129.8279  135.3263  159.7492 C   0  0  0  0  0  0  0  0  0  0  0  0
  129.2542  135.0779  158.5248 N   0  0  0  0  0  0  0  0  0  0  0  0
  129.9654  134.2663  157.5338 C   0  0  0  0  0  0  0  0  0  0  0  0
  129.5948  132.7936  157.7199 C   0  0  1  0  0  0  0  0  0  0  0  0
  128.5203  132.6667  157.5877 H   0  0  0  0  0  0  0  0  0  0  0  0
  130.3436  131.9410  156.6932 C   0  0  0  0  0  0  0  0  0  0  0  0
  130.2005  130.4850  157.0275 C   0  0  0  0  0  0  0  0  0  0  0  0
  129.8223  130.0400  158.1827 C   0  0  0  0  0  0  0  0  0  0  0  0
  129.4641  130.9179  159.3459 C   0  0  0  0  0  0  0  0  0  0  0  0
  130.0040  132.3325  159.1245 C   0  0  0  0  0  0  0  0  0  0  0  0
  131.1962  135.3896  159.8672 N   0  0  0  0  0  0  0  0  0  0  0  0
  131.8075  135.6543  161.1719 C   0  0  0  0  0  0  0  0  0  0  0  0
  133.2649  135.2316  161.3680 C   0  0  0  0  0  0  0  0  0  0  0  0
  132.1425  134.4489  162.0527 C   0  0  0  0  0  0  0  0  0  0  0  0
  126.6676  135.8795  161.0257 C   0  0  0  0  0  0  0  0  0  0  0  0
  125.3962  135.2392  161.3383 N   0  0  0  0  0  0  0  0  0  0  0  0
  126.3214  132.5965  163.0428 H   0  0  0  0  0  0  0  0  0  0  0  0
  126.5173  132.3603  161.2903 H   0  0  0  0  0  0  0  0  0  0  0  0
  128.6074  133.2490  162.0951 H   0  0  0  0  0  0  0  0  0  0  0  0
  127.7754  134.5229  163.0238 H   0  0  0  0  0  0  0  0  0  0  0  0
  128.3786  135.4399  158.3170 H   0  0  0  0  0  0  0  0  0  0  0  0
  131.0401  134.3901  157.6665 H   0  0  0  0  0  0  0  0  0  0  0  0
  129.6838  134.5880  156.5311 H   0  0  0  0  0  0  0  0  0  0  0  0
  131.3995  132.2112  156.7004 H   0  0  0  0  0  0  0  0  0  0  0  0
  129.9299  132.1264  155.7021 H   0  0  0  0  0  0  0  0  0  0  0  0
  130.4270  129.7638  156.2563 H   0  0  0  0  0  0  0  0  0  0  0  0
  129.7560  128.9703  158.3163 H   0  0  0  0  0  0  0  0  0  0  0  0
  128.3797  130.9570  159.4486 H   0  0  0  0  0  0  0  0  0  0  0  0
  129.8966  130.5045  160.2571 H   0  0  0  0  0  0  0  0  0  0  0  0
  131.0910  132.3267  159.2060 H   0  0  0  0  0  0  0  0  0  0  0  0
  129.5843  133.0090  159.8690 H   0  0  0  0  0  0  0  0  0  0  0  0
  131.7569  135.2591  159.0863 H   0  0  0  0  0  0  0  0  0  0  0  0
  131.4759  136.5652  161.6703 H   0  0  0  0  0  0  0  0  0  0  0  0
  133.7686  134.7566  160.5263 H   0  0  0  0  0  0  0  0  0  0  0  0
  133.8924  135.8644  161.9955 H   0  0  0  0  0  0  0  0  0  0  0  0
  132.0316  134.5668  163.1305 H   0  0  0  0  0  0  0  0  0  0  0  0
  131.9076  133.4590  161.6615 H   0  0  0  0  0  0  0  0  0  0  0  0
  126.9273  136.5741  161.8247 H   0  0  0  0  0  0  0  0  0  0  0  0
  126.5706  136.4282  160.0889 H   0  0  0  0  0  0  0  0  0  0  0  0
  124.5823  135.7413  161.1764 H   0  0  0  0  0  0  0  0  0  0  0  0
  1  2  2  0
  2 24  1  0
  2  3  1  0
  3  4  1  0
  3 25  1  0
  3 26  1  0
  4  5  1  0
  4 27  1  0
  4 28  1  0
  5  6  1  6
  5  7  1  0
  5 23  1  0
  7  8  1  0
  9  7  2  0
  9 10  1  0
  9 19  1  0
 10 11  1  0
 10 29  1  0
 11 12  1  0
 11 30  1  0
 11 31  1  0
 12 13  1  1
 12 18  1  0
 12 14  1  0
 14 15  1  0
 14 32  1  0
 14 33  1  0
 15 16  2  0
 15 34  1  0
 16 17  1  0
 16 35  1  0
 17 18  1  0
 17 36  1  0
 17 37  1  0
 18 38  1  0
 18 39  1  0
 19 20  1  0
 19 40  1  0
 20 22  1  0
 20 21  1  0
 20 41  1  0
 21 22  1  0
 21 42  1  0
 21 43  1  0
 22 44  1  0
 22 45  1  0
 23 24  1  0
 23 46  1  0
 23 47  1  0
 24 48  1  0
M  CHG  1   7   1
M  END
>  <DOCK_score>  (1) 
-43.002342

>  <SMILES>  (1) 
O=C1CC[C@H]([NH+]=C(NC[C@H]2CC=CCC2)NC2CC2)CN1

$$$$
