Brc1ccc([C@H](Nc2[nH]cc(-c3ccc(-c4ccccc4)cc3)[nH+]2)c2ccccc2)cc1
     RDKit          3D

 55 59  0  0  1  0  0  0  0  0999 V2000
  136.3249  140.1742  161.9286 Br  0  0  0  0  0  0  0  0  0  0  0  0
  135.0602  138.7836  161.7231 C   0  0  0  0  0  0  0  0  0  0  0  0
  134.2807  138.3931  162.7975 C   0  0  0  0  0  0  0  0  0  0  0  0
  133.3566  137.3764  162.6472 C   0  0  0  0  0  0  0  0  0  0  0  0
  133.2111  136.7496  161.4236 C   0  0  0  0  0  0  0  0  0  0  0  0
  132.2035  135.6410  161.2604 C   0  0  2  0  0  0  0  0  0  0  0  0
  132.6733  134.6856  161.4936 H   0  0  0  0  0  0  0  0  0  0  0  0
  131.7180  135.6220  159.8783 N   0  0  0  0  0  0  0  0  0  0  0  0
  131.3143  134.4295  159.3027 C   0  0  0  0  0  0  0  0  0  0  0  0
  130.7784  133.3699  159.9679 N   0  0  0  0  0  0  0  0  0  0  0  0
  130.6115  133.3152  160.9219 H   0  0  0  0  0  0  0  0  0  0  0  0
  130.5168  132.3925  159.0392 C   0  0  0  0  0  0  0  0  0  0  0  0
  130.9003  132.8824  157.8335 C   0  0  0  0  0  0  0  0  0  0  0  0
  130.8062  132.1750  156.5342 C   0  0  0  0  0  0  0  0  0  0  0  0
  130.0429  132.7155  155.4993 C   0  0  0  0  0  0  0  0  0  0  0  0
  129.9558  132.0582  154.2920 C   0  0  0  0  0  0  0  0  0  0  0  0
  130.6308  130.8524  154.1042 C   0  0  0  0  0  0  0  0  0  0  0  0
  130.5373  130.1444  152.8045 C   0  0  0  0  0  0  0  0  0  0  0  0
  130.6374  128.7555  152.7551 C   0  0  0  0  0  0  0  0  0  0  0  0
  130.5450  128.1021  151.5429 C   0  0  0  0  0  0  0  0  0  0  0  0
  130.3634  128.8237  150.3774 C   0  0  0  0  0  0  0  0  0  0  0  0
  130.2680  130.2036  150.4193 C   0  0  0  0  0  0  0  0  0  0  0  0
  130.3541  130.8672  151.6262 C   0  0  0  0  0  0  0  0  0  0  0  0
  131.3893  130.3090  155.1407 C   0  0  0  0  0  0  0  0  0  0  0  0
  131.4812  130.9688  156.3462 C   0  0  0  0  0  0  0  0  0  0  0  0
  131.3906  134.1325  158.0285 N   0  0  0  0  0  0  0  0  0  0  0  0
  131.7399  134.7142  157.3353 H   0  0  0  0  0  0  0  0  0  0  0  0
  131.0455  135.8730  162.1964 C   0  0  0  0  0  0  0  0  0  0  0  0
  131.0708  135.3416  163.4724 C   0  0  0  0  0  0  0  0  0  0  0  0
  130.0105  135.5581  164.3324 C   0  0  0  0  0  0  0  0  0  0  0  0
  128.9209  136.2984  163.9136 C   0  0  0  0  0  0  0  0  0  0  0  0
  128.8932  136.8255  162.6360 C   0  0  0  0  0  0  0  0  0  0  0  0
  129.9553  136.6125  161.7773 C   0  0  0  0  0  0  0  0  0  0  0  0
  133.9937  137.1357  160.3514 C   0  0  0  0  0  0  0  0  0  0  0  0
  134.9140  138.1561  160.4993 C   0  0  0  0  0  0  0  0  0  0  0  0
  134.3946  138.8826  163.7535 H   0  0  0  0  0  0  0  0  0  0  0  0
  132.7480  137.0717  163.4857 H   0  0  0  0  0  0  0  0  0  0  0  0
  131.6795  136.4451  159.3664 H   0  0  0  0  0  0  0  0  0  0  0  0
  130.0881  131.4201  159.2317 H   0  0  0  0  0  0  0  0  0  0  0  0
  129.5199  133.6492  155.6448 H   0  0  0  0  0  0  0  0  0  0  0  0
  129.3652  132.4770  153.4906 H   0  0  0  0  0  0  0  0  0  0  0  0
  130.7833  128.1911  153.6642 H   0  0  0  0  0  0  0  0  0  0  0  0
  130.6190  127.0253  151.5041 H   0  0  0  0  0  0  0  0  0  0  0  0
  130.2954  128.3085  149.4306 H   0  0  0  0  0  0  0  0  0  0  0  0
  130.1267  130.7622  149.5058 H   0  0  0  0  0  0  0  0  0  0  0  0
  130.2801  131.9442  151.6580 H   0  0  0  0  0  0  0  0  0  0  0  0
  131.9084  129.3729  154.9965 H   0  0  0  0  0  0  0  0  0  0  0  0
  132.0721  130.5501  157.1473 H   0  0  0  0  0  0  0  0  0  0  0  0
  131.9205  134.7601  163.7982 H   0  0  0  0  0  0  0  0  0  0  0  0
  130.0322  135.1466  165.3307 H   0  0  0  0  0  0  0  0  0  0  0  0
  128.0912  136.4654  164.5847 H   0  0  0  0  0  0  0  0  0  0  0  0
  128.0418  137.4038  162.3087 H   0  0  0  0  0  0  0  0  0  0  0  0
  129.9337  137.0243  160.7792 H   0  0  0  0  0  0  0  0  0  0  0  0
  133.8830  136.6424  159.3971 H   0  0  0  0  0  0  0  0  0  0  0  0
  135.5220  138.4609  159.6603 H   0  0  0  0  0  0  0  0  0  0  0  0
  1  2  1  0
  2 35  2  0
  2  3  1  0
  3  4  2  0
  3 36  1  0
  4  5  1  0
  4 37  1  0
  5  6  1  0
  5 34  2  0
  6  7  1  1
  6  8  1  0
  6 28  1  0
  8 38  1  0
  9  8  1  0
  9 26  2  0
  9 10  1  0
 10 11  1  0
 10 12  1  0
 12 13  2  0
 12 39  1  0
 13 14  1  0
 13 26  1  0
 14 25  1  0
 14 15  2  0
 15 16  1  0
 15 40  1  0
 16 17  2  0
 16 41  1  0
 17 18  1  0
 17 24  1  0
 18 23  1  0
 18 19  2  0
 19 20  1  0
 19 42  1  0
 20 21  2  0
 20 43  1  0
 21 22  1  0
 21 44  1  0
 22 23  2  0
 22 45  1  0
 23 46  1  0
 24 25  2  0
 24 47  1  0
 25 48  1  0
 26 27  1  0
 28 33  1  0
 28 29  2  0
 29 30  1  0
 29 49  1  0
 30 31  2  0
 30 50  1  0
 31 32  1  0
 31 51  1  0
 32 33  2  0
 32 52  1  0
 33 53  1  0
 34 35  1  0
 34 54  1  0
 35 55  1  0
M  CHG  1  26   1
M  END
>  <DOCK_score>  (1) 
-62.90382

>  <SMILES>  (1) 
Brc1ccc([C@H](Nc2[nH]cc(-c3ccc(-c4ccccc4)cc3)[nH+]2)c2ccccc2)cc1

$$$$
