CC1C[C@@H]1[NH+]=C(N[C@H]1CCC(=O)NC1)N[C@@H]1C=C[C@@H](O)[C@H]1O
     RDKit          3D

 47 49  0  0  1  0  0  0  0  0999 V2000
  130.9402  136.8889  163.2431 C   0  0  0  0  0  0  0  0  0  0  0  0
  131.0984  136.8030  161.7237 C   0  0  1  0  0  0  0  0  0  0  0  0
  132.5199  136.7106  161.1655 C   0  0  0  0  0  0  0  0  0  0  0  0
  131.6067  135.4833  161.1397 C   0  0  2  0  0  0  0  0  0  0  0  0
  131.8288  134.6761  161.8378 H   0  0  0  0  0  0  0  0  0  0  0  0
  131.0701  135.0666  159.8419 N   0  0  0  0  0  0  0  0  0  0  0  0
  131.6675  134.9384  159.0886 H   0  0  0  0  0  0  0  0  0  0  0  0
  129.7891  134.8732  159.6980 C   0  0  0  0  0  0  0  0  0  0  0  0
  128.9416  135.0604  160.7643 N   0  0  0  0  0  0  0  0  0  0  0  0
  127.5018  134.8431  160.6026 C   0  0  1  0  0  0  0  0  0  0  0  0
  127.2116  135.0651  159.5757 H   0  0  0  0  0  0  0  0  0  0  0  0
  127.1612  133.3850  160.9333 C   0  0  0  0  0  0  0  0  0  0  0  0
  125.6917  133.1397  160.5824 C   0  0  0  0  0  0  0  0  0  0  0  0
  124.8381  134.2282  161.1669 C   0  0  0  0  0  0  0  0  0  0  0  0
  123.6458  134.0305  161.2683 O   0  0  0  0  0  0  0  0  0  0  0  0
  125.3209  135.4005  161.5802 N   0  0  0  0  0  0  0  0  0  0  0  0
  126.7346  135.7547  161.5611 C   0  0  0  0  0  0  0  0  0  0  0  0
  129.2855  134.4821  158.4801 N   0  0  0  0  0  0  0  0  0  0  0  0
  130.1049  133.6733  157.5742 C   0  0  2  0  0  0  0  0  0  0  0  0
  131.0180  134.2070  157.3108 H   0  0  0  0  0  0  0  0  0  0  0  0
  129.3231  133.3219  156.3297 C   0  0  0  0  0  0  0  0  0  0  0  0
  129.4779  132.0640  156.0169 C   0  0  0  0  0  0  0  0  0  0  0  0
  130.3887  131.3671  157.0007 C   0  0  1  0  0  0  0  0  0  0  0  0
  129.9731  130.3998  157.2834 H   0  0  0  0  0  0  0  0  0  0  0  0
  131.6933  131.2029  156.4411 O   0  0  0  0  0  0  0  0  0  0  0  0
  130.4447  132.3125  158.2252 C   0  0  1  0  0  0  0  0  0  0  0  0
  129.6959  132.0359  158.9674 H   0  0  0  0  0  0  0  0  0  0  0  0
  131.7522  132.3322  158.8017 O   0  0  0  0  0  0  0  0  0  0  0  0
  131.9054  136.7162  163.7192 H   0  0  0  0  0  0  0  0  0  0  0  0
  130.5729  137.8785  163.5148 H   0  0  0  0  0  0  0  0  0  0  0  0
  130.2296  136.1332  163.5776 H   0  0  0  0  0  0  0  0  0  0  0  0
  130.3645  137.3611  161.1421 H   0  0  0  0  0  0  0  0  0  0  0  0
  133.3425  136.7111  161.8808 H   0  0  0  0  0  0  0  0  0  0  0  0
  132.7213  137.2081  160.2167 H   0  0  0  0  0  0  0  0  0  0  0  0
  129.2970  135.3362  161.6237 H   0  0  0  0  0  0  0  0  0  0  0  0
  127.7947  132.7184  160.3480 H   0  0  0  0  0  0  0  0  0  0  0  0
  127.3196  133.2032  161.9962 H   0  0  0  0  0  0  0  0  0  0  0  0
  125.3787  132.1772  160.9870 H   0  0  0  0  0  0  0  0  0  0  0  0
  125.5761  133.1315  159.4985 H   0  0  0  0  0  0  0  0  0  0  0  0
  124.6918  136.0587  161.9147 H   0  0  0  0  0  0  0  0  0  0  0  0
  127.1460  135.6497  162.5651 H   0  0  0  0  0  0  0  0  0  0  0  0
  126.8423  136.7899  161.2375 H   0  0  0  0  0  0  0  0  0  0  0  0
  128.3876  134.7417  158.2205 H   0  0  0  0  0  0  0  0  0  0  0  0
  128.7163  134.0199  155.7720 H   0  0  0  0  0  0  0  0  0  0  0  0
  129.0160  131.5847  155.1666 H   0  0  0  0  0  0  0  0  0  0  0  0
  132.1177  132.0324  156.1826 H   0  0  0  0  0  0  0  0  0  0  0  0
  132.4591  132.5134  158.1672 H   0  0  0  0  0  0  0  0  0  0  0  0
  1  2  1  0
  1 29  1  0
  1 30  1  0
  1 31  1  0
  2  4  1  0
  2  3  1  0
  2 32  1  6
  3  4  1  0
  3 33  1  0
  3 34  1  0
  4  5  1  1
  4  6  1  0
  6  7  1  0
  8  6  2  0
  8  9  1  0
  8 18  1  0
  9 10  1  0
  9 35  1  0
 10 11  1  6
 10 17  1  0
 10 12  1  0
 12 13  1  0
 12 36  1  0
 12 37  1  0
 13 14  1  0
 13 38  1  0
 13 39  1  0
 14 15  2  0
 14 16  1  0
 16 17  1  0
 16 40  1  0
 17 41  1  0
 17 42  1  0
 18 19  1  0
 18 43  1  0
 19 20  1  6
 19 26  1  0
 19 21  1  0
 21 22  2  0
 21 44  1  0
 22 23  1  0
 22 45  1  0
 23 24  1  1
 23 25  1  0
 23 26  1  0
 25 46  1  0
 26 27  1  1
 26 28  1  0
 28 47  1  0
M  CHG  1   6   1
M  END
>  <DOCK_score>  (1) 
-43.243282

>  <SMILES>  (1) 
CC1C[C@@H]1[NH+]=C(N[C@H]1CCC(=O)NC1)N[C@@H]1C=C[C@@H](O)[C@H]1O

$$$$
