C1=CCC(C[NH2+]Cc2c[nH]nc2-c2ccc(NC[C@H]3C[C@H]4CC[C@H]4C3)o2)C1
     RDKit          3D

 58 62  0  0  1  0  0  0  0  0999 V2000
  134.6327  140.0240  161.1451 C   0  0  0  0  0  0  0  0  0  0  0  0
  135.0282  139.2077  160.2066 C   0  0  0  0  0  0  0  0  0  0  0  0
  133.9115  138.2811  159.7851 C   0  0  0  0  0  0  0  0  0  0  0  0
  132.8667  138.3829  160.9207 C   0  0  0  0  0  0  0  0  0  0  0  0
  131.4428  138.3342  160.3627 C   0  0  0  0  0  0  0  0  0  0  0  0
  131.2399  137.0667  159.6486 N   0  0  0  0  0  0  0  0  0  0  0  0
  131.9011  136.9987  158.8895 H   0  0  0  0  0  0  0  0  0  0  0  0
  130.3009  137.0344  159.2808 H   0  0  0  0  0  0  0  0  0  0  0  0
  131.4414  135.9449  160.5755 C   0  0  0  0  0  0  0  0  0  0  0  0
  131.2332  134.6445  159.8430 C   0  0  0  0  0  0  0  0  0  0  0  0
  132.1818  133.9375  159.1924 C   0  0  0  0  0  0  0  0  0  0  0  0
  131.5992  132.8358  158.6717 N   0  0  0  0  0  0  0  0  0  0  0  0
  132.0452  132.1472  158.1542 H   0  0  0  0  0  0  0  0  0  0  0  0
  130.2386  132.8628  159.0028 N   0  0  0  0  0  0  0  0  0  0  0  0
  130.0110  133.9522  159.7098 C   0  0  0  0  0  0  0  0  0  0  0  0
  128.7079  134.3730  160.2645 C   0  0  0  0  0  0  0  0  0  0  0  0
  127.5341  133.6995  160.1385 C   0  0  0  0  0  0  0  0  0  0  0  0
  126.5558  134.4541  160.8158 C   0  0  0  0  0  0  0  0  0  0  0  0
  127.1791  135.5480  161.3204 C   0  0  0  0  0  0  0  0  0  0  0  0
  126.5751  136.5571  162.0615 N   0  0  0  0  0  0  0  0  0  0  0  0
  127.3718  137.6866  162.5469 C   0  0  0  0  0  0  0  0  0  0  0  0
  126.4725  138.6469  163.3279 C   0  0  1  0  0  0  0  0  0  0  0  0
  125.6776  139.0189  162.6815 H   0  0  0  0  0  0  0  0  0  0  0  0
  125.8657  137.9252  164.5402 C   0  0  0  0  0  0  0  0  0  0  0  0
  125.9579  138.9146  165.7174 C   0  0  1  0  0  0  0  0  0  0  0  0
  125.0284  139.4281  165.9634 H   0  0  0  0  0  0  0  0  0  0  0  0
  126.7832  138.3637  166.8940 C   0  0  0  0  0  0  0  0  0  0  0  0
  128.0389  138.7410  166.0904 C   0  0  0  0  0  0  0  0  0  0  0  0
  127.1790  139.8060  165.3956 C   0  0  1  0  0  0  0  0  0  0  0  0
  127.1851  140.7900  165.8646 H   0  0  0  0  0  0  0  0  0  0  0  0
  127.3040  139.8192  163.8670 C   0  0  0  0  0  0  0  0  0  0  0  0
  128.4800  135.4892  160.9884 O   0  0  0  0  0  0  0  0  0  0  0  0
  133.1861  139.7780  161.5061 C   0  0  0  0  0  0  0  0  0  0  0  0
  135.2574  140.7762  161.6038 H   0  0  0  0  0  0  0  0  0  0  0  0
  136.0232  139.1958  159.7867 H   0  0  0  0  0  0  0  0  0  0  0  0
  134.2791  137.2587  159.6977 H   0  0  0  0  0  0  0  0  0  0  0  0
  133.4794  138.6123  158.8407 H   0  0  0  0  0  0  0  0  0  0  0  0
  133.0201  137.6013  161.6646 H   0  0  0  0  0  0  0  0  0  0  0  0
  131.2934  139.1667  159.6751 H   0  0  0  0  0  0  0  0  0  0  0  0
  130.7287  138.4078  161.1828 H   0  0  0  0  0  0  0  0  0  0  0  0
  132.4557  135.9796  160.9729 H   0  0  0  0  0  0  0  0  0  0  0  0
  130.7271  136.0183  161.3956 H   0  0  0  0  0  0  0  0  0  0  0  0
  133.2245  134.2052  159.1053 H   0  0  0  0  0  0  0  0  0  0  0  0
  127.3807  132.7654  159.6187 H   0  0  0  0  0  0  0  0  0  0  0  0
  125.5090  134.2081  160.9146 H   0  0  0  0  0  0  0  0  0  0  0  0
  125.6261  136.5134  162.2573 H   0  0  0  0  0  0  0  0  0  0  0  0
  128.1638  137.3189  163.1993 H   0  0  0  0  0  0  0  0  0  0  0  0
  127.8134  138.2107  161.6992 H   0  0  0  0  0  0  0  0  0  0  0  0
  124.8238  137.6726  164.3433 H   0  0  0  0  0  0  0  0  0  0  0  0
  126.4344  137.0223  164.7625 H   0  0  0  0  0  0  0  0  0  0  0  0
  126.6661  138.9353  167.8148 H   0  0  0  0  0  0  0  0  0  0  0  0
  126.6672  137.2903  167.0436 H   0  0  0  0  0  0  0  0  0  0  0  0
  128.3824  137.9524  165.4211 H   0  0  0  0  0  0  0  0  0  0  0  0
  128.8406  139.1572  166.7007 H   0  0  0  0  0  0  0  0  0  0  0  0
  128.3481  139.6956  163.5798 H   0  0  0  0  0  0  0  0  0  0  0  0
  126.9183  140.7592  163.4721 H   0  0  0  0  0  0  0  0  0  0  0  0
  132.5473  140.5356  161.0521 H   0  0  0  0  0  0  0  0  0  0  0  0
  133.0604  139.7733  162.5887 H   0  0  0  0  0  0  0  0  0  0  0  0
  1 33  1  0
  1  2  2  0
  1 34  1  0
  2  3  1  0
  2 35  1  0
  3  4  1  0
  3 36  1  0
  3 37  1  0
  4  5  1  0
  4 33  1  0
  4 38  1  0
  5  6  1  0
  5 39  1  0
  5 40  1  0
  6  7  1  0
  6  8  1  0
  6  9  1  0
  9 10  1  0
  9 41  1  0
  9 42  1  0
 10 15  1  0
 10 11  2  0
 11 12  1  0
 11 43  1  0
 12 13  1  0
 12 14  1  0
 14 15  2  0
 15 16  1  0
 16 32  1  0
 16 17  2  0
 17 18  1  0
 17 44  1  0
 18 19  2  0
 18 45  1  0
 19 20  1  0
 19 32  1  0
 20 21  1  0
 20 46  1  0
 21 22  1  0
 21 47  1  0
 21 48  1  0
 22 23  1  6
 22 31  1  0
 22 24  1  0
 24 25  1  0
 24 49  1  0
 24 50  1  0
 25 26  1  1
 25 29  1  0
 25 27  1  0
 27 28  1  0
 27 51  1  0
 27 52  1  0
 28 29  1  0
 28 53  1  0
 28 54  1  0
 29 30  1  1
 29 31  1  0
 31 55  1  0
 31 56  1  0
 33 57  1  0
 33 58  1  0
M  CHG  1   6   1
M  END
>  <DOCK_score>  (1) 
-44.351353

>  <SMILES>  (1) 
C1=CCC(C[NH2+]Cc2c[nH]nc2-c2ccc(NC[C@H]3C[C@H]4CC[C@H]4C3)o2)C1

$$$$
