ClC(=CCCNc1ccccc1)Nc1ccc(Nc2[nH]c3ccccc3[nH+]2)cc1
     RDKit          3D

 52 55  0  0  0  0  0  0  0  0999 V2000
  128.3022  135.1897  163.4505 Cl  0  0  0  0  0  0  0  0  0  0  0  0
  127.1118  136.4436  163.2944 C   0  0  0  0  0  0  0  0  0  0  0  0
  126.8205  137.2113  164.3307 C   0  0  0  0  0  0  0  0  0  0  0  0
  127.5219  136.9980  165.6474 C   0  0  0  0  0  0  0  0  0  0  0  0
  128.2738  138.2722  166.0370 C   0  0  0  0  0  0  0  0  0  0  0  0
  129.2618  138.5915  165.0035 N   0  0  0  0  0  0  0  0  0  0  0  0
  130.0750  139.7191  165.1393 C   0  0  0  0  0  0  0  0  0  0  0  0
  131.0119  140.0235  164.1600 C   0  0  0  0  0  0  0  0  0  0  0  0
  131.8140  141.1394  164.2971 C   0  0  0  0  0  0  0  0  0  0  0  0
  131.6851  141.9532  165.4076 C   0  0  0  0  0  0  0  0  0  0  0  0
  130.7534  141.6530  166.3844 C   0  0  0  0  0  0  0  0  0  0  0  0
  129.9482  140.5387  166.2536 C   0  0  0  0  0  0  0  0  0  0  0  0
  126.4654  136.6400  162.0808 N   0  0  0  0  0  0  0  0  0  0  0  0
  127.1214  136.3398  160.8815 C   0  0  0  0  0  0  0  0  0  0  0  0
  126.5924  135.3870  160.0202 C   0  0  0  0  0  0  0  0  0  0  0  0
  127.2373  135.0938  158.8354 C   0  0  0  0  0  0  0  0  0  0  0  0
  128.4203  135.7439  158.5093 C   0  0  0  0  0  0  0  0  0  0  0  0
  129.0771  135.4429  157.3092 N   0  0  0  0  0  0  0  0  0  0  0  0
  129.5131  134.1605  157.0666 C   0  0  0  0  0  0  0  0  0  0  0  0
  129.3685  133.1349  157.9030 N   0  0  0  0  0  0  0  0  0  0  0  0
  128.9432  133.1691  158.7741 H   0  0  0  0  0  0  0  0  0  0  0  0
  129.9197  132.0224  157.3240 C   0  0  0  0  0  0  0  0  0  0  0  0
  130.0560  130.6961  157.7237 C   0  0  0  0  0  0  0  0  0  0  0  0
  130.6834  129.7918  156.8943 C   0  0  0  0  0  0  0  0  0  0  0  0
  131.1805  130.1937  155.6632 C   0  0  0  0  0  0  0  0  0  0  0  0
  131.0540  131.5029  155.2521 C   0  0  0  0  0  0  0  0  0  0  0  0
  130.4230  132.4294  156.0775 C   0  0  0  0  0  0  0  0  0  0  0  0
  130.1460  133.7661  155.9636 N   0  0  0  0  0  0  0  0  0  0  0  0
  130.3728  134.3299  155.2076 H   0  0  0  0  0  0  0  0  0  0  0  0
  128.9519  136.6931  159.3725 C   0  0  0  0  0  0  0  0  0  0  0  0
  128.3046  136.9900  160.5552 C   0  0  0  0  0  0  0  0  0  0  0  0
  126.0799  137.9914  164.2336 H   0  0  0  0  0  0  0  0  0  0  0  0
  128.2286  136.1734  165.5531 H   0  0  0  0  0  0  0  0  0  0  0  0
  126.7868  136.7603  166.4163 H   0  0  0  0  0  0  0  0  0  0  0  0
  128.7813  138.1178  166.9894 H   0  0  0  0  0  0  0  0  0  0  0  0
  127.5671  139.0966  166.1313 H   0  0  0  0  0  0  0  0  0  0  0  0
  129.3513  138.0199  164.2249 H   0  0  0  0  0  0  0  0  0  0  0  0
  131.1161  139.3860  163.2945 H   0  0  0  0  0  0  0  0  0  0  0  0
  132.5427  141.3768  163.5360 H   0  0  0  0  0  0  0  0  0  0  0  0
  132.3136  142.8252  165.5125 H   0  0  0  0  0  0  0  0  0  0  0  0
  130.6551  142.2909  167.2504 H   0  0  0  0  0  0  0  0  0  0  0  0
  129.2209  140.3047  167.0169 H   0  0  0  0  0  0  0  0  0  0  0  0
  125.5591  136.9859  162.0643 H   0  0  0  0  0  0  0  0  0  0  0  0
  125.6746  134.8781  160.2760 H   0  0  0  0  0  0  0  0  0  0  0  0
  126.8240  134.3557  158.1639 H   0  0  0  0  0  0  0  0  0  0  0  0
  129.2248  136.1383  156.6493 H   0  0  0  0  0  0  0  0  0  0  0  0
  129.6709  130.3764  158.6807 H   0  0  0  0  0  0  0  0  0  0  0  0
  130.7885  128.7628  157.2050 H   0  0  0  0  0  0  0  0  0  0  0  0
  131.6699  129.4754  155.0222 H   0  0  0  0  0  0  0  0  0  0  0  0
  131.4429  131.8093  154.2923 H   0  0  0  0  0  0  0  0  0  0  0  0
  129.8719  137.1987  159.1187 H   0  0  0  0  0  0  0  0  0  0  0  0
  128.7184  137.7276  161.2268 H   0  0  0  0  0  0  0  0  0  0  0  0
  1  2  1  0
  2  3  2  0
  2 13  1  0
  3  4  1  0
  3 32  1  0
  4  5  1  0
  4 33  1  0
  4 34  1  0
  5  6  1  0
  5 35  1  0
  5 36  1  0
  6  7  1  0
  6 37  1  0
  7 12  1  0
  7  8  2  0
  8  9  1  0
  8 38  1  0
  9 10  2  0
  9 39  1  0
 10 11  1  0
 10 40  1  0
 11 12  2  0
 11 41  1  0
 12 42  1  0
 13 14  1  0
 13 43  1  0
 14 31  1  0
 14 15  2  0
 15 16  1  0
 15 44  1  0
 16 17  2  0
 16 45  1  0
 17 18  1  0
 17 30  1  0
 18 19  1  0
 18 46  1  0
 19 28  1  0
 19 20  2  0
 20 21  1  0
 20 22  1  0
 22 27  2  0
 22 23  1  0
 23 24  2  0
 23 47  1  0
 24 25  1  0
 24 48  1  0
 25 26  2  0
 25 49  1  0
 26 27  1  0
 26 50  1  0
 27 28  1  0
 28 29  1  0
 30 31  2  0
 30 51  1  0
 31 52  1  0
M  CHG  1  20   1
M  END
>  <DOCK_score>  (1) 
-48.337742

>  <SMILES>  (1) 
ClC(=CCCNc1ccccc1)Nc1ccc(Nc2[nH]c3ccccc3[nH+]2)cc1

$$$$
