Oc1cccc([C@H](Nc2[nH]cc(-c3ccc(Br)cc3)[nH+]2)c2cccc(F)c2)c1
     RDKit          3D

 46 49  0  0  1  0  0  0  0  0999 V2000
  131.1580  140.0106  159.2850 O   0  0  0  0  0  0  0  0  0  0  0  0
  130.4804  139.1502  160.0896 C   0  0  0  0  0  0  0  0  0  0  0  0
  130.1123  139.5394  161.3695 C   0  0  0  0  0  0  0  0  0  0  0  0
  129.4232  138.6632  162.1850 C   0  0  0  0  0  0  0  0  0  0  0  0
  129.1000  137.3990  161.7271 C   0  0  0  0  0  0  0  0  0  0  0  0
  129.4611  137.0108  160.4503 C   0  0  0  0  0  0  0  0  0  0  0  0
  129.1024  135.6343  159.9522 C   0  0  2  0  0  0  0  0  0  0  0  0
  129.0708  134.9407  160.7925 H   0  0  0  0  0  0  0  0  0  0  0  0
  130.1097  135.1865  158.9871 N   0  0  0  0  0  0  0  0  0  0  0  0
  129.9915  133.9431  158.3901 C   0  0  0  0  0  0  0  0  0  0  0  0
  129.4048  132.8487  158.9472 N   0  0  0  0  0  0  0  0  0  0  0  0
  128.9979  132.8000  159.8263 H   0  0  0  0  0  0  0  0  0  0  0  0
  129.4956  131.8258  158.0346 C   0  0  0  0  0  0  0  0  0  0  0  0
  130.1347  132.3240  156.9473 C   0  0  0  0  0  0  0  0  0  0  0  0
  130.4582  131.5777  155.7069 C   0  0  0  0  0  0  0  0  0  0  0  0
  129.9440  132.0005  154.4822 C   0  0  0  0  0  0  0  0  0  0  0  0
  130.2528  131.3059  153.3304 C   0  0  0  0  0  0  0  0  0  0  0  0
  131.0617  130.1847  153.3913 C   0  0  0  0  0  0  0  0  0  0  0  0
  131.4736  129.2332  151.8098 Br  0  0  0  0  0  0  0  0  0  0  0  0
  131.5705  129.7574  154.6058 C   0  0  0  0  0  0  0  0  0  0  0  0
  131.2727  130.4480  155.7626 C   0  0  0  0  0  0  0  0  0  0  0  0
  130.4214  133.6271  157.1929 N   0  0  0  0  0  0  0  0  0  0  0  0
  130.8746  134.2283  156.5812 H   0  0  0  0  0  0  0  0  0  0  0  0
  127.7518  135.6776  159.2852 C   0  0  0  0  0  0  0  0  0  0  0  0
  127.6579  135.9399  157.9311 C   0  0  0  0  0  0  0  0  0  0  0  0
  126.4197  135.9795  157.3178 C   0  0  0  0  0  0  0  0  0  0  0  0
  125.2739  135.7568  158.0581 C   0  0  0  0  0  0  0  0  0  0  0  0
  125.3667  135.4946  159.4142 C   0  0  0  0  0  0  0  0  0  0  0  0
  124.2473  135.2772  160.1388 F   0  0  0  0  0  0  0  0  0  0  0  0
  126.6081  135.4496  160.0264 C   0  0  0  0  0  0  0  0  0  0  0  0
  130.1552  137.8815  159.6324 C   0  0  0  0  0  0  0  0  0  0  0  0
  131.3698  139.6499  158.4132 H   0  0  0  0  0  0  0  0  0  0  0  0
  130.3640  140.5267  161.7276 H   0  0  0  0  0  0  0  0  0  0  0  0
  129.1361  138.9658  163.1814 H   0  0  0  0  0  0  0  0  0  0  0  0
  128.5612  136.7154  162.3663 H   0  0  0  0  0  0  0  0  0  0  0  0
  130.8591  135.7612  158.7664 H   0  0  0  0  0  0  0  0  0  0  0  0
  129.1280  130.8180  158.1591 H   0  0  0  0  0  0  0  0  0  0  0  0
  129.3089  132.8726  154.4343 H   0  0  0  0  0  0  0  0  0  0  0  0
  129.8583  131.6351  152.3804 H   0  0  0  0  0  0  0  0  0  0  0  0
  132.2016  128.8820  154.6478 H   0  0  0  0  0  0  0  0  0  0  0  0
  131.6702  130.1140  156.7095 H   0  0  0  0  0  0  0  0  0  0  0  0
  128.5527  136.1136  157.3516 H   0  0  0  0  0  0  0  0  0  0  0  0
  126.3476  136.1840  156.2597 H   0  0  0  0  0  0  0  0  0  0  0  0
  124.3066  135.7871  157.5786 H   0  0  0  0  0  0  0  0  0  0  0  0
  126.6819  135.2400  161.0832 H   0  0  0  0  0  0  0  0  0  0  0  0
  130.4403  137.5765  158.6363 H   0  0  0  0  0  0  0  0  0  0  0  0
  1  2  1  0
  1 32  1  0
  2 31  2  0
  2  3  1  0
  3  4  2  0
  3 33  1  0
  4  5  1  0
  4 34  1  0
  5  6  2  0
  5 35  1  0
  6  7  1  0
  6 31  1  0
  7  8  1  1
  7  9  1  0
  7 24  1  0
  9 36  1  0
 10  9  1  0
 10 22  2  0
 10 11  1  0
 11 12  1  0
 11 13  1  0
 13 14  2  0
 13 37  1  0
 14 15  1  0
 14 22  1  0
 15 21  1  0
 15 16  2  0
 16 17  1  0
 16 38  1  0
 17 18  2  0
 17 39  1  0
 18 19  1  0
 18 20  1  0
 20 21  2  0
 20 40  1  0
 21 41  1  0
 22 23  1  0
 24 30  1  0
 24 25  2  0
 25 26  1  0
 25 42  1  0
 26 27  2  0
 26 43  1  0
 27 28  1  0
 27 44  1  0
 28 29  1  0
 28 30  2  0
 30 45  1  0
 31 46  1  0
M  CHG  1  22   1
M  END
>  <DOCK_score>  (1) 
-61.350365

>  <SMILES>  (1) 
Oc1cccc([C@H](Nc2[nH]cc(-c3ccc(Br)cc3)[nH+]2)c2cccc(F)c2)c1

$$$$
