c1nc(NC2CC2)c2ncn(C[C@H]3CCC[NH2+]3)c2n1
     RDKit          3D

 38 41  0  0  1  0  0  0  0  0999 V2000
  126.3356  135.6457  161.2464 C   0  0  0  0  0  0  0  0  0  0  0  0
  126.6822  136.4796  162.2101 N   0  0  0  0  0  0  0  0  0  0  0  0
  127.7200  137.2979  162.0720 C   0  0  0  0  0  0  0  0  0  0  0  0
  128.0745  138.1694  163.0868 N   0  0  0  0  0  0  0  0  0  0  0  0
  129.2218  139.0645  162.9162 C   0  0  0  0  0  0  0  0  0  0  0  0
  129.2801  140.3139  163.7973 C   0  0  0  0  0  0  0  0  0  0  0  0
  128.9581  140.4427  162.3064 C   0  0  0  0  0  0  0  0  0  0  0  0
  128.4400  137.2684  160.8653 C   0  0  0  0  0  0  0  0  0  0  0  0
  129.5085  137.9428  160.3768 N   0  0  0  0  0  0  0  0  0  0  0  0
  129.7766  137.5182  159.1760 C   0  0  0  0  0  0  0  0  0  0  0  0
  128.8941  136.5425  158.8195 N   0  0  0  0  0  0  0  0  0  0  0  0
  128.8694  135.8195  157.5454 C   0  0  0  0  0  0  0  0  0  0  0  0
  129.7436  134.5683  157.6521 C   0  0  1  0  0  0  0  0  0  0  0  0
  130.6516  134.7875  158.2139 H   0  0  0  0  0  0  0  0  0  0  0  0
  128.9585  133.4148  158.3248 C   0  0  0  0  0  0  0  0  0  0  0  0
  129.7078  132.1686  157.7840 C   0  0  0  0  0  0  0  0  0  0  0  0
  130.0853  132.5863  156.3472 C   0  0  0  0  0  0  0  0  0  0  0  0
  130.0815  134.0601  156.3055 N   0  0  0  0  0  0  0  0  0  0  0  0
  129.3937  134.3792  155.6397 H   0  0  0  0  0  0  0  0  0  0  0  0
  130.9943  134.3946  156.0355 H   0  0  0  0  0  0  0  0  0  0  0  0
  128.0296  136.3658  159.8700 C   0  0  0  0  0  0  0  0  0  0  0  0
  126.9829  135.5799  160.1022 N   0  0  0  0  0  0  0  0  0  0  0  0
  125.4896  134.9928  161.4030 H   0  0  0  0  0  0  0  0  0  0  0  0
  127.5635  138.1879  163.9109 H   0  0  0  0  0  0  0  0  0  0  0  0
  130.1655  138.5775  162.6703 H   0  0  0  0  0  0  0  0  0  0  0  0
  128.4650  140.4700  164.5039 H   0  0  0  0  0  0  0  0  0  0  0  0
  130.2623  140.6492  164.1308 H   0  0  0  0  0  0  0  0  0  0  0  0
  129.7285  140.8625  161.6596 H   0  0  0  0  0  0  0  0  0  0  0  0
  127.9311  140.6833  162.0316 H   0  0  0  0  0  0  0  0  0  0  0  0
  130.5796  137.8851  158.5540 H   0  0  0  0  0  0  0  0  0  0  0  0
  129.2525  136.4640  156.7543 H   0  0  0  0  0  0  0  0  0  0  0  0
  127.8451  135.5282  157.3127 H   0  0  0  0  0  0  0  0  0  0  0  0
  129.0318  133.4738  159.4107 H   0  0  0  0  0  0  0  0  0  0  0  0
  127.9164  133.4131  158.0049 H   0  0  0  0  0  0  0  0  0  0  0  0
  129.0510  131.2988  157.7726 H   0  0  0  0  0  0  0  0  0  0  0  0
  130.6018  131.9670  158.3742 H   0  0  0  0  0  0  0  0  0  0  0  0
  129.3527  132.1934  155.6423 H   0  0  0  0  0  0  0  0  0  0  0  0
  131.0778  132.2109  156.0981 H   0  0  0  0  0  0  0  0  0  0  0  0
  1 22  2  0
  1  2  1  0
  1 23  1  0
  2  3  2  0
  3  4  1  0
  3  8  1  0
  4  5  1  0
  4 24  1  0
  5  7  1  0
  5  6  1  0
  5 25  1  0
  6  7  1  0
  6 26  1  0
  6 27  1  0
  7 28  1  0
  7 29  1  0
  8 21  2  0
  8  9  1  0
  9 10  2  0
 10 11  1  0
 10 30  1  0
 11 12  1  0
 11 21  1  0
 12 13  1  0
 12 31  1  0
 12 32  1  0
 13 14  1  1
 13 18  1  0
 13 15  1  0
 15 16  1  0
 15 33  1  0
 15 34  1  0
 16 17  1  0
 16 35  1  0
 16 36  1  0
 17 18  1  0
 17 37  1  0
 17 38  1  0
 18 19  1  0
 18 20  1  0
 21 22  1  0
M  CHG  1  18   1
M  END
>  <DOCK_score>  (1) 
-42.06992

>  <SMILES>  (1) 
c1nc(NC2CC2)c2ncn(C[C@H]3CCC[NH2+]3)c2n1

$$$$
