CC=C[C@]1(O)C=CC(=O)CC1Nc1[nH]cc(-c2ccc(CC)cc2)[nH+]1
     RDKit          3D

 49 51  0  0  1  0  0  0  0  0999 V2000
  133.1449  135.9911  163.2298 C   0  0  0  0  0  0  0  0  0  0  0  0
  131.8117  136.2267  162.5679 C   0  0  0  0  0  0  0  0  0  0  0  0
  131.7576  136.5395  161.2971 C   0  0  0  0  0  0  0  0  0  0  0  0
  130.4243  136.7752  160.6351 C   0  0  2  0  0  0  0  0  0  0  0  0
  130.5914  137.7059  159.5638 O   0  0  0  0  0  0  0  0  0  0  0  0
  129.4718  137.3494  161.6413 C   0  0  0  0  0  0  0  0  0  0  0  0
  128.1841  137.0301  161.6877 C   0  0  0  0  0  0  0  0  0  0  0  0
  127.6186  136.0676  160.7365 C   0  0  0  0  0  0  0  0  0  0  0  0
  126.5042  135.6134  160.8915 O   0  0  0  0  0  0  0  0  0  0  0  0
  128.4725  135.6571  159.5548 C   0  0  0  0  0  0  0  0  0  0  0  0
  129.9030  135.4531  160.0738 C   0  0  1  0  0  0  0  0  0  0  0  0
  130.7654  135.0136  158.9742 N   0  0  0  0  0  0  0  0  0  0  0  0
  130.4883  133.8328  158.3067 C   0  0  0  0  0  0  0  0  0  0  0  0
  129.8842  132.7397  158.8472 N   0  0  0  0  0  0  0  0  0  0  0  0
  129.5735  132.6482  159.7615 H   0  0  0  0  0  0  0  0  0  0  0  0
  129.7964  131.7893  157.8591 C   0  0  0  0  0  0  0  0  0  0  0  0
  130.3488  132.3285  156.7442 C   0  0  0  0  0  0  0  0  0  0  0  0
  130.4757  131.6642  155.4242 C   0  0  0  0  0  0  0  0  0  0  0  0
  129.8645  132.2180  154.3008 C   0  0  0  0  0  0  0  0  0  0  0  0
  129.9907  131.5987  153.0739 C   0  0  0  0  0  0  0  0  0  0  0  0
  130.7126  130.4245  152.9599 C   0  0  0  0  0  0  0  0  0  0  0  0
  130.8407  129.7488  151.6190 C   0  0  0  0  0  0  0  0  0  0  0  0
  129.6886  128.7593  151.4338 C   0  0  0  0  0  0  0  0  0  0  0  0
  131.3167  129.8669  154.0728 C   0  0  0  0  0  0  0  0  0  0  0  0
  131.2018  130.4806  155.3036 C   0  0  0  0  0  0  0  0  0  0  0  0
  130.7644  133.5834  157.0499 N   0  0  0  0  0  0  0  0  0  0  0  0
  131.1936  134.1990  156.4354 H   0  0  0  0  0  0  0  0  0  0  0  0
  133.7525  136.8929  163.1545 H   0  0  0  0  0  0  0  0  0  0  0  0
  132.9906  135.7439  164.2802 H   0  0  0  0  0  0  0  0  0  0  0  0
  133.6562  135.1661  162.7337 H   0  0  0  0  0  0  0  0  0  0  0  0
  130.9009  136.1378  163.1415 H   0  0  0  0  0  0  0  0  0  0  0  0
  132.6684  136.6285  160.7235 H   0  0  0  0  0  0  0  0  0  0  0  0
  131.2149  137.4156  158.8841 H   0  0  0  0  0  0  0  0  0  0  0  0
  129.8518  138.0573  162.3630 H   0  0  0  0  0  0  0  0  0  0  0  0
  127.5470  137.4836  162.4326 H   0  0  0  0  0  0  0  0  0  0  0  0
  128.4604  136.4432  158.7997 H   0  0  0  0  0  0  0  0  0  0  0  0
  128.0964  134.7268  159.1290 H   0  0  0  0  0  0  0  0  0  0  0  0
  129.9015  134.6983  160.8602 H   0  0  0  0  0  0  0  0  0  0  0  0
  131.5306  135.5499  158.7137 H   0  0  0  0  0  0  0  0  0  0  0  0
  129.3695  130.8017  157.9525 H   0  0  0  0  0  0  0  0  0  0  0  0
  129.2968  133.1326  154.3892 H   0  0  0  0  0  0  0  0  0  0  0  0
  129.5208  132.0292  152.2019 H   0  0  0  0  0  0  0  0  0  0  0  0
  130.8055  130.4994  150.8295 H   0  0  0  0  0  0  0  0  0  0  0  0
  131.7897  129.2148  151.5706 H   0  0  0  0  0  0  0  0  0  0  0  0
  129.7238  128.0086  152.2233 H   0  0  0  0  0  0  0  0  0  0  0  0
  128.7395  129.2933  151.4822 H   0  0  0  0  0  0  0  0  0  0  0  0
  129.7816  128.2709  150.4636 H   0  0  0  0  0  0  0  0  0  0  0  0
  131.8790  128.9497  153.9781 H   0  0  0  0  0  0  0  0  0  0  0  0
  131.6741  130.0448  156.1715 H   0  0  0  0  0  0  0  0  0  0  0  0
  1  2  1  0
  1 28  1  0
  1 29  1  0
  1 30  1  0
  2  3  2  0
  2 31  1  0
  3 32  1  0
  4  3  1  0
  4 11  1  0
  4  5  1  6
  4  6  1  0
  5 33  1  0
  6  7  2  0
  6 34  1  0
  7  8  1  0
  7 35  1  0
  8  9  2  0
  8 10  1  0
 10 11  1  0
 10 36  1  0
 10 37  1  0
 11 12  1  0
 11 38  1  1
 12 39  1  0
 13 12  1  0
 13 26  2  0
 13 14  1  0
 14 15  1  0
 14 16  1  0
 16 17  2  0
 16 40  1  0
 17 18  1  0
 17 26  1  0
 18 25  1  0
 18 19  2  0
 19 20  1  0
 19 41  1  0
 20 21  2  0
 20 42  1  0
 21 22  1  0
 21 24  1  0
 22 23  1  0
 22 43  1  0
 22 44  1  0
 23 45  1  0
 23 46  1  0
 23 47  1  0
 24 25  2  0
 24 48  1  0
 25 49  1  0
 26 27  1  0
M  CHG  1  26   1
M  END
>  <DOCK_score>  (1) 
-58.061188

>  <SMILES>  (1) 
CC=C[C@]1(O)C=CC(=O)CC1Nc1[nH]cc(-c2ccc(CC)cc2)[nH+]1

$$$$
