CC(C)C(C=C1C=C[C@@H](O)C1)[NH2+]Cc1ccccc1
     RDKit          3D

 43 44  0  0  1  0  0  0  0  0999 V2000
  129.1244  136.9962  157.9687 C   0  0  0  0  0  0  0  0  0  0  0  0
  129.3187  136.3489  159.3413 C   0  0  0  0  0  0  0  0  0  0  0  0
  128.5592  137.1547  160.3973 C   0  0  0  0  0  0  0  0  0  0  0  0
  128.7825  134.9162  159.3100 C   0  0  1  0  0  0  0  0  0  0  0  0
  127.3151  134.9363  158.9673 C   0  0  0  0  0  0  0  0  0  0  0  0
  126.4271  134.4344  159.8186 C   0  0  0  0  0  0  0  0  0  0  0  0
  126.7185  133.8356  161.1265 C   0  0  0  0  0  0  0  0  0  0  0  0
  125.6263  133.4227  161.7403 C   0  0  0  0  0  0  0  0  0  0  0  0
  124.4049  133.7071  160.9031 C   0  0  1  0  0  0  0  0  0  0  0  0
  123.8911  132.7772  160.6589 H   0  0  0  0  0  0  0  0  0  0  0  0
  123.5230  134.5893  161.6002 O   0  0  0  0  0  0  0  0  0  0  0  0
  124.9268  134.3804  159.6216 C   0  0  0  0  0  0  0  0  0  0  0  0
  129.5116  134.1425  158.2962 N   0  0  0  0  0  0  0  0  0  0  0  0
  129.1376  134.3491  157.3822 H   0  0  0  0  0  0  0  0  0  0  0  0
  130.4894  134.3902  158.3232 H   0  0  0  0  0  0  0  0  0  0  0  0
  129.3621  132.7079  158.5739 C   0  0  0  0  0  0  0  0  0  0  0  0
  130.1101  131.9142  157.5338 C   0  0  0  0  0  0  0  0  0  0  0  0
  130.6552  130.6867  157.8609 C   0  0  0  0  0  0  0  0  0  0  0  0
  131.3375  129.9567  156.9057 C   0  0  0  0  0  0  0  0  0  0  0  0
  131.4826  130.4585  155.6258 C   0  0  0  0  0  0  0  0  0  0  0  0
  130.9420  131.6883  155.3001 C   0  0  0  0  0  0  0  0  0  0  0  0
  130.2559  132.4163  156.2541 C   0  0  0  0  0  0  0  0  0  0  0  0
  128.0630  137.0108  157.7208 H   0  0  0  0  0  0  0  0  0  0  0  0
  129.5064  138.0168  157.9910 H   0  0  0  0  0  0  0  0  0  0  0  0
  129.6655  136.4221  157.2164 H   0  0  0  0  0  0  0  0  0  0  0  0
  130.3800  136.3343  159.5892 H   0  0  0  0  0  0  0  0  0  0  0  0
  128.6976  136.6935  161.3751 H   0  0  0  0  0  0  0  0  0  0  0  0
  128.9412  138.1753  160.4195 H   0  0  0  0  0  0  0  0  0  0  0  0
  127.4979  137.1692  160.1492 H   0  0  0  0  0  0  0  0  0  0  0  0
  128.9208  134.4551  160.2879 H   0  0  0  0  0  0  0  0  0  0  0  0
  126.9854  135.3588  158.0295 H   0  0  0  0  0  0  0  0  0  0  0  0
  127.7128  133.7415  161.5377 H   0  0  0  0  0  0  0  0  0  0  0  0
  125.6088  132.9502  162.7113 H   0  0  0  0  0  0  0  0  0  0  0  0
  123.9227  135.4368  161.8395 H   0  0  0  0  0  0  0  0  0  0  0  0
  124.6779  133.7803  158.7464 H   0  0  0  0  0  0  0  0  0  0  0  0
  124.5180  135.3862  159.5249 H   0  0  0  0  0  0  0  0  0  0  0  0
  129.7662  132.4847  159.5613 H   0  0  0  0  0  0  0  0  0  0  0  0
  128.3058  132.4403  158.5447 H   0  0  0  0  0  0  0  0  0  0  0  0
  130.5450  130.2965  158.8619 H   0  0  0  0  0  0  0  0  0  0  0  0
  131.7595  128.9958  157.1601 H   0  0  0  0  0  0  0  0  0  0  0  0
  132.0180  129.8894  154.8803 H   0  0  0  0  0  0  0  0  0  0  0  0
  131.0553  132.0802  154.3001 H   0  0  0  0  0  0  0  0  0  0  0  0
  129.8336  133.3771  155.9996 H   0  0  0  0  0  0  0  0  0  0  0  0
  1  2  1  0
  1 23  1  0
  1 24  1  0
  1 25  1  0
  2  3  1  0
  2  4  1  0
  2 26  1  0
  3 27  1  0
  3 28  1  0
  3 29  1  0
  4  5  1  0
  4 13  1  0
  4 30  1  1
  5  6  2  0
  5 31  1  0
  6 12  1  0
  6  7  1  0
  7  8  2  0
  7 32  1  0
  8  9  1  0
  8 33  1  0
  9 10  1  6
  9 11  1  0
  9 12  1  0
 11 34  1  0
 12 35  1  0
 12 36  1  0
 13 14  1  0
 13 15  1  0
 13 16  1  0
 16 17  1  0
 16 37  1  0
 16 38  1  0
 17 22  1  0
 17 18  2  0
 18 19  1  0
 18 39  1  0
 19 20  2  0
 19 40  1  0
 20 21  1  0
 20 41  1  0
 21 22  2  0
 21 42  1  0
 22 43  1  0
M  CHG  1  13   1
M  END
>  <DOCK_score>  (1) 
-41.964912

>  <SMILES>  (1) 
CC(C)C(C=C1C=C[C@@H](O)C1)[NH2+]Cc1ccccc1

$$$$
