CCc1ccc(-c2c[nH]c(N[C@@H](CC3=CCCCC3)c3ccnn3C)[nH+]2)cc1
     RDKit          3D

 58 61  0  0  1  0  0  0  0  0999 V2000
  130.4032  128.4729  151.6068 C   0  0  0  0  0  0  0  0  0  0  0  0
  131.4481  129.5474  151.9140 C   0  0  0  0  0  0  0  0  0  0  0  0
  131.0881  130.2450  153.2005 C   0  0  0  0  0  0  0  0  0  0  0  0
  131.5685  129.7618  154.4037 C   0  0  0  0  0  0  0  0  0  0  0  0
  131.2468  130.3998  155.5845 C   0  0  0  0  0  0  0  0  0  0  0  0
  130.4268  131.5266  155.5637 C   0  0  0  0  0  0  0  0  0  0  0  0
  130.0730  132.2134  156.8299 C   0  0  0  0  0  0  0  0  0  0  0  0
  129.4197  131.6608  157.8820 C   0  0  0  0  0  0  0  0  0  0  0  0
  129.3010  132.6411  158.8370 N   0  0  0  0  0  0  0  0  0  0  0  0
  128.8781  132.5492  159.7051 H   0  0  0  0  0  0  0  0  0  0  0  0
  129.8858  133.7651  158.3401 C   0  0  0  0  0  0  0  0  0  0  0  0
  129.9790  134.9818  158.9937 N   0  0  0  0  0  0  0  0  0  0  0  0
  129.4189  135.1357  160.3387 C   0  0  1  0  0  0  0  0  0  0  0  0
  129.6226  134.2378  160.9220 H   0  0  0  0  0  0  0  0  0  0  0  0
  130.0599  136.3448  161.0228 C   0  0  0  0  0  0  0  0  0  0  0  0
  131.4140  135.9587  161.5599 C   0  0  0  0  0  0  0  0  0  0  0  0
  131.8445  136.5697  162.6168 C   0  0  0  0  0  0  0  0  0  0  0  0
  133.1733  136.3015  163.2605 C   0  0  0  0  0  0  0  0  0  0  0  0
  133.7329  134.9622  162.7756 C   0  0  0  0  0  0  0  0  0  0  0  0
  133.6536  134.9292  161.2440 C   0  0  0  0  0  0  0  0  0  0  0  0
  132.1767  134.8855  160.8398 C   0  0  0  0  0  0  0  0  0  0  0  0
  127.9296  135.3446  160.2416 C   0  0  0  0  0  0  0  0  0  0  0  0
  127.2721  135.9362  159.2176 C   0  0  0  0  0  0  0  0  0  0  0  0
  125.9063  135.9261  159.5200 C   0  0  0  0  0  0  0  0  0  0  0  0
  125.7505  135.3559  160.6872 N   0  0  0  0  0  0  0  0  0  0  0  0
  127.0135  134.9803  161.1630 N   0  0  0  0  0  0  0  0  0  0  0  0
  127.2906  134.3106  162.4361 C   0  0  0  0  0  0  0  0  0  0  0  0
  130.3511  133.5039  157.1429 N   0  0  0  0  0  0  0  0  0  0  0  0
  130.8175  134.1334  156.5711 H   0  0  0  0  0  0  0  0  0  0  0  0
  129.9409  132.0060  154.3486 C   0  0  0  0  0  0  0  0  0  0  0  0
  130.2737  131.3633  153.1734 C   0  0  0  0  0  0  0  0  0  0  0  0
  130.3797  127.7468  152.4194 H   0  0  0  0  0  0  0  0  0  0  0  0
  129.4224  128.9375  151.5062 H   0  0  0  0  0  0  0  0  0  0  0  0
  130.6635  127.9685  150.6763 H   0  0  0  0  0  0  0  0  0  0  0  0
  132.4286  129.0833  152.0142 H   0  0  0  0  0  0  0  0  0  0  0  0
  131.4713  130.2740  151.1010 H   0  0  0  0  0  0  0  0  0  0  0  0
  132.1999  128.8858  154.4191 H   0  0  0  0  0  0  0  0  0  0  0  0
  131.6263  130.0242  156.5233 H   0  0  0  0  0  0  0  0  0  0  0  0
  129.0611  130.6447  157.9550 H   0  0  0  0  0  0  0  0  0  0  0  0
  130.4154  135.7325  158.5613 H   0  0  0  0  0  0  0  0  0  0  0  0
  130.1725  137.1535  160.3008 H   0  0  0  0  0  0  0  0  0  0  0  0
  129.4245  136.6768  161.8440 H   0  0  0  0  0  0  0  0  0  0  0  0
  131.2076  137.3191  163.0632 H   0  0  0  0  0  0  0  0  0  0  0  0
  133.8687  137.0992  162.9998 H   0  0  0  0  0  0  0  0  0  0  0  0
  133.0507  136.2711  164.3431 H   0  0  0  0  0  0  0  0  0  0  0  0
  134.7717  134.8636  163.0909 H   0  0  0  0  0  0  0  0  0  0  0  0
  133.1440  134.1460  163.1939 H   0  0  0  0  0  0  0  0  0  0  0  0
  134.1233  135.8230  160.8335 H   0  0  0  0  0  0  0  0  0  0  0  0
  134.1613  134.0401  160.8701 H   0  0  0  0  0  0  0  0  0  0  0  0
  131.7577  133.9118  161.0941 H   0  0  0  0  0  0  0  0  0  0  0  0
  132.0935  135.0427  159.7645 H   0  0  0  0  0  0  0  0  0  0  0  0
  127.7219  136.3425  158.3238 H   0  0  0  0  0  0  0  0  0  0  0  0
  125.1173  136.3235  158.8990 H   0  0  0  0  0  0  0  0  0  0  0  0
  127.4579  135.0585  163.2113 H   0  0  0  0  0  0  0  0  0  0  0  0
  126.4405  133.6863  162.7110 H   0  0  0  0  0  0  0  0  0  0  0  0
  128.1798  133.6886  162.3336 H   0  0  0  0  0  0  0  0  0  0  0  0
  129.3049  132.8787  154.3265 H   0  0  0  0  0  0  0  0  0  0  0  0
  129.8974  131.7338  152.2312 H   0  0  0  0  0  0  0  0  0  0  0  0
  1  2  1  0
  1 32  1  0
  1 33  1  0
  1 34  1  0
  2  3  1  0
  2 35  1  0
  2 36  1  0
  3 31  2  0
  3  4  1  0
  4  5  2  0
  4 37  1  0
  5  6  1  0
  5 38  1  0
  6  7  1  0
  6 30  2  0
  7 28  1  0
  7  8  2  0
  8  9  1  0
  8 39  1  0
  9 10  1  0
  9 11  1  0
 11 12  1  0
 11 28  2  0
 12 13  1  0
 12 40  1  0
 13 14  1  1
 13 15  1  0
 13 22  1  0
 15 16  1  0
 15 41  1  0
 15 42  1  0
 16 21  1  0
 16 17  2  0
 17 18  1  0
 17 43  1  0
 18 19  1  0
 18 44  1  0
 18 45  1  0
 19 20  1  0
 19 46  1  0
 19 47  1  0
 20 21  1  0
 20 48  1  0
 20 49  1  0
 21 50  1  0
 21 51  1  0
 22 26  1  0
 22 23  2  0
 23 24  1  0
 23 52  1  0
 24 25  2  0
 24 53  1  0
 25 26  1  0
 26 27  1  0
 27 54  1  0
 27 55  1  0
 27 56  1  0
 28 29  1  0
 30 31  1  0
 30 57  1  0
 31 58  1  0
M  CHG  1  28   1
M  END
>  <DOCK_score>  (1) 
-56.856163

>  <SMILES>  (1) 
CCc1ccc(-c2c[nH]c(N[C@@H](CC3=CCCCC3)c3ccnn3C)[nH+]2)cc1

$$$$
