OC[C@H]1C[C@@H](Nc2ccc(-c3n[nH]cc3C[NH2+]CC3=CCCC3)o2)C1
     RDKit          3D

 52 55  0  0  1  0  0  0  0  0999 V2000
  127.3689  135.3316  166.9394 O   0  0  0  0  0  0  0  0  0  0  0  0
  126.3231  136.0035  166.2344 C   0  0  0  0  0  0  0  0  0  0  0  0
  126.8977  136.6688  164.9823 C   0  0  1  0  0  0  0  0  0  0  0  0
  127.6703  137.4033  165.2099 H   0  0  0  0  0  0  0  0  0  0  0  0
  127.2986  135.6707  163.8833 C   0  0  0  0  0  0  0  0  0  0  0  0
  126.7187  136.6727  162.8712 C   0  0  1  0  0  0  0  0  0  0  0  0
  127.4423  137.4083  162.5194 H   0  0  0  0  0  0  0  0  0  0  0  0
  125.9742  136.0400  161.7795 N   0  0  0  0  0  0  0  0  0  0  0  0
  126.6109  135.1373  160.9358 C   0  0  0  0  0  0  0  0  0  0  0  0
  126.0213  134.0918  160.3041 C   0  0  0  0  0  0  0  0  0  0  0  0
  127.0236  133.4472  159.5526 C   0  0  0  0  0  0  0  0  0  0  0  0
  128.1788  134.1292  159.7705 C   0  0  0  0  0  0  0  0  0  0  0  0
  129.4969  133.8080  159.1853 C   0  0  0  0  0  0  0  0  0  0  0  0
  129.7592  132.8122  158.3620 N   0  0  0  0  0  0  0  0  0  0  0  0
  131.1224  132.8586  158.0438 N   0  0  0  0  0  0  0  0  0  0  0  0
  131.5907  132.2447  157.4566 H   0  0  0  0  0  0  0  0  0  0  0  0
  131.6709  133.9094  158.6912 C   0  0  0  0  0  0  0  0  0  0  0  0
  130.6987  134.5126  159.4083 C   0  0  0  0  0  0  0  0  0  0  0  0
  130.8663  135.7264  160.2857 C   0  0  0  0  0  0  0  0  0  0  0  0
  130.6407  136.9406  159.4901 N   0  0  0  0  0  0  0  0  0  0  0  0
  129.7055  136.9257  159.1116 H   0  0  0  0  0  0  0  0  0  0  0  0
  131.3088  136.9767  158.7348 H   0  0  0  0  0  0  0  0  0  0  0  0
  130.8042  138.1237  160.3454 C   0  0  0  0  0  0  0  0  0  0  0  0
  132.2009  138.1458  160.9106 C   0  0  0  0  0  0  0  0  0  0  0  0
  132.4822  138.1212  162.1850 C   0  0  0  0  0  0  0  0  0  0  0  0
  133.9755  138.1537  162.4133 C   0  0  0  0  0  0  0  0  0  0  0  0
  134.5905  137.7799  161.0446 C   0  0  0  0  0  0  0  0  0  0  0  0
  133.4598  138.1986  160.0766 C   0  0  0  0  0  0  0  0  0  0  0  0
  127.9143  135.1534  160.6086 O   0  0  0  0  0  0  0  0  0  0  0  0
  125.8231  137.1858  164.0112 C   0  0  0  0  0  0  0  0  0  0  0  0
  128.0851  135.9134  167.2287 H   0  0  0  0  0  0  0  0  0  0  0  0
  125.8803  136.7631  166.8788 H   0  0  0  0  0  0  0  0  0  0  0  0
  125.5588  135.2824  165.9445 H   0  0  0  0  0  0  0  0  0  0  0  0
  126.7513  134.7291  163.9279 H   0  0  0  0  0  0  0  0  0  0  0  0
  128.3758  135.5313  163.7917 H   0  0  0  0  0  0  0  0  0  0  0  0
  125.0370  136.2511  161.6456 H   0  0  0  0  0  0  0  0  0  0  0  0
  124.9805  133.8094  160.3630 H   0  0  0  0  0  0  0  0  0  0  0  0
  126.8984  132.5770  158.9254 H   0  0  0  0  0  0  0  0  0  0  0  0
  132.7064  134.2127  158.6453 H   0  0  0  0  0  0  0  0  0  0  0  0
  131.8766  135.7424  160.6945 H   0  0  0  0  0  0  0  0  0  0  0  0
  130.1447  135.6873  161.1017 H   0  0  0  0  0  0  0  0  0  0  0  0
  130.0826  138.0846  161.1614 H   0  0  0  0  0  0  0  0  0  0  0  0
  130.6367  139.0247  159.7551 H   0  0  0  0  0  0  0  0  0  0  0  0
  131.7444  138.0825  162.9728 H   0  0  0  0  0  0  0  0  0  0  0  0
  134.2599  137.4223  163.1698 H   0  0  0  0  0  0  0  0  0  0  0  0
  134.2940  139.1521  162.7128 H   0  0  0  0  0  0  0  0  0  0  0  0
  135.4994  138.3509  160.8550 H   0  0  0  0  0  0  0  0  0  0  0  0
  134.7831  136.7089  160.9815 H   0  0  0  0  0  0  0  0  0  0  0  0
  133.6298  139.2106  159.7093 H   0  0  0  0  0  0  0  0  0  0  0  0
  133.3934  137.4978  159.2443 H   0  0  0  0  0  0  0  0  0  0  0  0
  125.7092  138.2698  164.0228 H   0  0  0  0  0  0  0  0  0  0  0  0
  124.8726  136.6585  164.0908 H   0  0  0  0  0  0  0  0  0  0  0  0
  1  2  1  0
  1 31  1  0
  2  3  1  0
  2 32  1  0
  2 33  1  0
  3  4  1  1
  3 30  1  0
  3  5  1  0
  5  6  1  0
  5 34  1  0
  5 35  1  0
  6  7  1  6
  6  8  1  0
  6 30  1  0
  8  9  1  0
  8 36  1  0
  9 29  1  0
  9 10  2  0
 10 11  1  0
 10 37  1  0
 11 12  2  0
 11 38  1  0
 12 13  1  0
 12 29  1  0
 13 18  1  0
 13 14  2  0
 14 15  1  0
 15 16  1  0
 15 17  1  0
 17 18  2  0
 17 39  1  0
 18 19  1  0
 19 20  1  0
 19 40  1  0
 19 41  1  0
 20 21  1  0
 20 22  1  0
 20 23  1  0
 23 24  1  0
 23 42  1  0
 23 43  1  0
 24 28  1  0
 24 25  2  0
 25 26  1  0
 25 44  1  0
 26 27  1  0
 26 45  1  0
 26 46  1  0
 27 28  1  0
 27 47  1  0
 27 48  1  0
 28 49  1  0
 28 50  1  0
 30 51  1  0
 30 52  1  0
M  CHG  1  20   1
M  END
>  <DOCK_score>  (1) 
-43.115189

>  <SMILES>  (1) 
OC[C@H]1C[C@@H](Nc2ccc(-c3n[nH]cc3C[NH2+]CC3=CCCC3)o2)C1

$$$$
