CCc1ccccc1C[N@H+]1CCN(c2cc(O)cc(-c3cccc(O)c3)c2)CCC12CC2
     RDKit          3D

 65 69  0  0  1  0  0  0  0  0999 V2000
  135.7966  140.6505  162.1067 C   0  0  0  0  0  0  0  0  0  0  0  0
  135.2324  139.3217  161.6000 C   0  0  0  0  0  0  0  0  0  0  0  0
  135.3677  138.2753  162.6760 C   0  0  0  0  0  0  0  0  0  0  0  0
  136.5119  137.5026  162.7488 C   0  0  0  0  0  0  0  0  0  0  0  0
  136.6364  136.5434  163.7359 C   0  0  0  0  0  0  0  0  0  0  0  0
  135.6166  136.3564  164.6506 C   0  0  0  0  0  0  0  0  0  0  0  0
  134.4727  137.1287  164.5779 C   0  0  0  0  0  0  0  0  0  0  0  0
  134.3505  138.0920  163.5936 C   0  0  0  0  0  0  0  0  0  0  0  0
  133.1060  138.9386  163.5180 C   0  0  0  0  0  0  0  0  0  0  0  0
  132.1160  138.2777  162.6572 N   0  0  1  0  0  0  0  0  0  0  0  0
  132.5187  138.1705  161.7383 H   0  0  0  0  0  0  0  0  0  0  0  0
  131.8492  136.9213  163.2077 C   0  0  0  0  0  0  0  0  0  0  0  0
  130.5499  136.3199  162.6303 C   0  0  0  0  0  0  0  0  0  0  0  0
  130.4101  136.6154  161.2281 N   0  0  0  0  0  0  0  0  0  0  0  0
  129.8973  135.5171  160.5337 C   0  0  0  0  0  0  0  0  0  0  0  0
  130.6333  134.9401  159.5066 C   0  0  0  0  0  0  0  0  0  0  0  0
  130.1294  133.8464  158.8192 C   0  0  0  0  0  0  0  0  0  0  0  0
  130.8549  133.2807  157.8189 O   0  0  0  0  0  0  0  0  0  0  0  0
  128.8848  133.3326  159.1476 C   0  0  0  0  0  0  0  0  0  0  0  0
  128.1414  133.9118  160.1731 C   0  0  0  0  0  0  0  0  0  0  0  0
  126.8086  133.3629  160.5266 C   0  0  0  0  0  0  0  0  0  0  0  0
  126.5430  132.0060  160.3517 C   0  0  0  0  0  0  0  0  0  0  0  0
  125.3029  131.4977  160.6816 C   0  0  0  0  0  0  0  0  0  0  0  0
  124.3218  132.3311  161.1857 C   0  0  0  0  0  0  0  0  0  0  0  0
  124.5782  133.6837  161.3624 C   0  0  0  0  0  0  0  0  0  0  0  0
  123.6107  134.4997  161.8574 O   0  0  0  0  0  0  0  0  0  0  0  0
  125.8222  134.2010  161.0392 C   0  0  0  0  0  0  0  0  0  0  0  0
  128.6511  135.0067  160.8664 C   0  0  0  0  0  0  0  0  0  0  0  0
  129.5198  137.7792  161.1048 C   0  0  0  0  0  0  0  0  0  0  0  0
  130.2211  139.0609  161.1823 C   0  0  0  0  0  0  0  0  0  0  0  0
  130.9659  139.1365  162.5494 C   0  0  0  0  0  0  0  0  0  0  0  0
  130.9761  140.5045  163.2316 C   0  0  0  0  0  0  0  0  0  0  0  0
  130.0889  139.3832  163.7771 C   0  0  0  0  0  0  0  0  0  0  0  0
  135.6985  141.4073  161.3284 H   0  0  0  0  0  0  0  0  0  0  0  0
  136.8490  140.5248  162.3610 H   0  0  0  0  0  0  0  0  0  0  0  0
  135.2441  140.9659  162.9918 H   0  0  0  0  0  0  0  0  0  0  0  0
  134.1799  139.4472  161.3456 H   0  0  0  0  0  0  0  0  0  0  0  0
  135.7849  139.0063  160.7149 H   0  0  0  0  0  0  0  0  0  0  0  0
  137.3087  137.6490  162.0345 H   0  0  0  0  0  0  0  0  0  0  0  0
  137.5303  135.9400  163.7930 H   0  0  0  0  0  0  0  0  0  0  0  0
  135.7139  135.6070  165.4221 H   0  0  0  0  0  0  0  0  0  0  0  0
  133.6763  136.9830  165.2925 H   0  0  0  0  0  0  0  0  0  0  0  0
  132.6913  139.0648  164.5181 H   0  0  0  0  0  0  0  0  0  0  0  0
  133.3553  139.9147  163.1021 H   0  0  0  0  0  0  0  0  0  0  0  0
  132.6849  136.2663  162.9611 H   0  0  0  0  0  0  0  0  0  0  0  0
  131.7590  136.9886  164.2919 H   0  0  0  0  0  0  0  0  0  0  0  0
  129.6963  136.7325  163.1682 H   0  0  0  0  0  0  0  0  0  0  0  0
  130.5665  135.2386  162.7665 H   0  0  0  0  0  0  0  0  0  0  0  0
  131.6016  135.3414  159.2458 H   0  0  0  0  0  0  0  0  0  0  0  0
  131.7070  133.7093  157.6602 H   0  0  0  0  0  0  0  0  0  0  0  0
  128.4915  132.4835  158.6083 H   0  0  0  0  0  0  0  0  0  0  0  0
  127.3074  131.3522  159.9585 H   0  0  0  0  0  0  0  0  0  0  0  0
  125.0983  130.4460  160.5453 H   0  0  0  0  0  0  0  0  0  0  0  0
  123.3530  131.9287  161.4425 H   0  0  0  0  0  0  0  0  0  0  0  0
  123.8820  135.4237  161.9448 H   0  0  0  0  0  0  0  0  0  0  0  0
  126.0246  135.2524  161.1803 H   0  0  0  0  0  0  0  0  0  0  0  0
  128.0770  135.4577  161.6622 H   0  0  0  0  0  0  0  0  0  0  0  0
  128.7787  137.7379  161.9030 H   0  0  0  0  0  0  0  0  0  0  0  0
  129.0014  137.7222  160.1476 H   0  0  0  0  0  0  0  0  0  0  0  0
  129.5015  139.8767  161.1117 H   0  0  0  0  0  0  0  0  0  0  0  0
  130.9420  139.1336  160.3680 H   0  0  0  0  0  0  0  0  0  0  0  0
  131.8610  140.7722  163.8092 H   0  0  0  0  0  0  0  0  0  0  0  0
  130.4848  141.3285  162.7144 H   0  0  0  0  0  0  0  0  0  0  0  0
  129.0140  139.4698  163.6186 H   0  0  0  0  0  0  0  0  0  0  0  0
  130.3901  138.9134  164.7133 H   0  0  0  0  0  0  0  0  0  0  0  0
  1  2  1  0
  1 34  1  0
  1 35  1  0
  1 36  1  0
  2  3  1  0
  2 37  1  0
  2 38  1  0
  3  8  2  0
  3  4  1  0
  4  5  2  0
  4 39  1  0
  5  6  1  0
  5 40  1  0
  6  7  2  0
  6 41  1  0
  7  8  1  0
  7 42  1  0
  8  9  1  0
  9 10  1  0
  9 43  1  0
  9 44  1  0
 10 11  1  6
 10 31  1  0
 10 12  1  0
 12 13  1  0
 12 45  1  0
 12 46  1  0
 13 14  1  0
 13 47  1  0
 13 48  1  0
 14 15  1  0
 14 29  1  0
 15 28  1  0
 15 16  2  0
 16 17  1  0
 16 49  1  0
 17 18  1  0
 17 19  2  0
 18 50  1  0
 19 20  1  0
 19 51  1  0
 20 21  1  0
 20 28  2  0
 21 27  1  0
 21 22  2  0
 22 23  1  0
 22 52  1  0
 23 24  2  0
 23 53  1  0
 24 25  1  0
 24 54  1  0
 25 26  1  0
 25 27  2  0
 26 55  1  0
 27 56  1  0
 28 57  1  0
 29 30  1  0
 29 58  1  0
 29 59  1  0
 30 31  1  0
 30 60  1  0
 30 61  1  0
 31 33  1  0
 31 32  1  0
 32 33  1  0
 32 62  1  0
 32 63  1  0
 33 64  1  0
 33 65  1  0
M  CHG  1  10   1
M  END
>  <DOCK_score>  (1) 
-41.732178

>  <SMILES>  (1) 
CCc1ccccc1C[N@H+]1CCN(c2cc(O)cc(-c3cccc(O)c3)c2)CCC12CC2

$$$$
