Cc1ccc([C@H](Nc2[nH]cc(-c3ccc(-c4ccccc4)cc3)[nH+]2)C2CC2)cc1
     RDKit          3D

 55 59  0  0  1  0  0  0  0  0999 V2000
  136.1986  134.6564  164.5317 C   0  0  0  0  0  0  0  0  0  0  0  0
  134.9305  135.0761  163.8341 C   0  0  0  0  0  0  0  0  0  0  0  0
  133.7145  134.9602  164.4815 C   0  0  0  0  0  0  0  0  0  0  0  0
  132.5512  135.3451  163.8415 C   0  0  0  0  0  0  0  0  0  0  0  0
  132.6039  135.8460  162.5542 C   0  0  0  0  0  0  0  0  0  0  0  0
  131.3356  136.2653  161.8564 C   0  0  2  0  0  0  0  0  0  0  0  0
  130.5041  135.6615  162.2201 H   0  0  0  0  0  0  0  0  0  0  0  0
  131.4856  136.0703  160.4122 N   0  0  0  0  0  0  0  0  0  0  0  0
  131.1293  134.8631  159.8360 C   0  0  0  0  0  0  0  0  0  0  0  0
  130.6308  133.7845  160.4998 N   0  0  0  0  0  0  0  0  0  0  0  0
  130.4623  133.7242  161.4532 H   0  0  0  0  0  0  0  0  0  0  0  0
  130.4053  132.7991  159.5701 C   0  0  0  0  0  0  0  0  0  0  0  0
  130.7802  133.3004  158.3664 C   0  0  0  0  0  0  0  0  0  0  0  0
  130.7175  132.5892  157.0672 C   0  0  0  0  0  0  0  0  0  0  0  0
  129.9436  133.1037  156.0269 C   0  0  0  0  0  0  0  0  0  0  0  0
  129.8857  132.4429  154.8198 C   0  0  0  0  0  0  0  0  0  0  0  0
  130.6010  131.2593  154.6377 C   0  0  0  0  0  0  0  0  0  0  0  0
  130.5389  130.5479  153.3380 C   0  0  0  0  0  0  0  0  0  0  0  0
  130.6848  129.1630  153.2906 C   0  0  0  0  0  0  0  0  0  0  0  0
  130.6218  128.5060  152.0784 C   0  0  0  0  0  0  0  0  0  0  0  0
  130.4240  129.2203  150.9111 C   0  0  0  0  0  0  0  0  0  0  0  0
  130.2834  130.5964  150.9510 C   0  0  0  0  0  0  0  0  0  0  0  0
  130.3399  131.2634  152.1578 C   0  0  0  0  0  0  0  0  0  0  0  0
  131.3751  130.7452  155.6774 C   0  0  0  0  0  0  0  0  0  0  0  0
  131.4329  131.4057  156.8847 C   0  0  0  0  0  0  0  0  0  0  0  0
  131.2171  134.5702  158.5616 N   0  0  0  0  0  0  0  0  0  0  0  0
  131.5422  135.1660  157.8685 H   0  0  0  0  0  0  0  0  0  0  0  0
  131.0586  137.7420  162.1457 C   0  0  0  0  0  0  0  0  0  0  0  0
  130.3450  138.5522  161.0615 C   0  0  0  0  0  0  0  0  0  0  0  0
  131.8339  138.7790  161.3307 C   0  0  0  0  0  0  0  0  0  0  0  0
  133.8191  135.9571  161.9048 C   0  0  0  0  0  0  0  0  0  0  0  0
  134.9830  135.5774  162.5469 C   0  0  0  0  0  0  0  0  0  0  0  0
  136.3957  133.6044  164.3255 H   0  0  0  0  0  0  0  0  0  0  0  0
  137.0302  135.2600  164.1680 H   0  0  0  0  0  0  0  0  0  0  0  0
  136.0871  134.8014  165.6062 H   0  0  0  0  0  0  0  0  0  0  0  0
  133.6734  134.5685  165.4871 H   0  0  0  0  0  0  0  0  0  0  0  0
  131.6012  135.2542  164.3472 H   0  0  0  0  0  0  0  0  0  0  0  0
  131.8344  136.7872  159.8596 H   0  0  0  0  0  0  0  0  0  0  0  0
  130.0074  131.8133  159.7608 H   0  0  0  0  0  0  0  0  0  0  0  0
  129.3936  134.0227  156.1664 H   0  0  0  0  0  0  0  0  0  0  0  0
  129.2865  132.8412  154.0143 H   0  0  0  0  0  0  0  0  0  0  0  0
  130.8432  128.6043  154.2012 H   0  0  0  0  0  0  0  0  0  0  0  0
  130.7311  127.4322  152.0411 H   0  0  0  0  0  0  0  0  0  0  0  0
  130.3791  128.7025  149.9644 H   0  0  0  0  0  0  0  0  0  0  0  0
  130.1298  131.1495  150.0361 H   0  0  0  0  0  0  0  0  0  0  0  0
  130.2306  132.3374  152.1880 H   0  0  0  0  0  0  0  0  0  0  0  0
  131.9289  129.8290  155.5361 H   0  0  0  0  0  0  0  0  0  0  0  0
  132.0322  131.0072  157.6900 H   0  0  0  0  0  0  0  0  0  0  0  0
  130.8343  137.9835  163.1846 H   0  0  0  0  0  0  0  0  0  0  0  0
  130.0729  138.0334  160.1424 H   0  0  0  0  0  0  0  0  0  0  0  0
  129.6510  139.3271  161.3874 H   0  0  0  0  0  0  0  0  0  0  0  0
  132.1196  139.7030  161.8334 H   0  0  0  0  0  0  0  0  0  0  0  0
  132.5418  138.4093  160.5888 H   0  0  0  0  0  0  0  0  0  0  0  0
  133.8598  136.3444  160.8975 H   0  0  0  0  0  0  0  0  0  0  0  0
  135.9330  135.6683  162.0412 H   0  0  0  0  0  0  0  0  0  0  0  0
  1  2  1  0
  1 33  1  0
  1 34  1  0
  1 35  1  0
  2 32  2  0
  2  3  1  0
  3  4  2  0
  3 36  1  0
  4  5  1  0
  4 37  1  0
  5  6  1  0
  5 31  2  0
  6  7  1  1
  6  8  1  0
  6 28  1  0
  8 38  1  0
  9  8  1  0
  9 26  2  0
  9 10  1  0
 10 11  1  0
 10 12  1  0
 12 13  2  0
 12 39  1  0
 13 14  1  0
 13 26  1  0
 14 25  1  0
 14 15  2  0
 15 16  1  0
 15 40  1  0
 16 17  2  0
 16 41  1  0
 17 18  1  0
 17 24  1  0
 18 23  1  0
 18 19  2  0
 19 20  1  0
 19 42  1  0
 20 21  2  0
 20 43  1  0
 21 22  1  0
 21 44  1  0
 22 23  2  0
 22 45  1  0
 23 46  1  0
 24 25  2  0
 24 47  1  0
 25 48  1  0
 26 27  1  0
 28 30  1  0
 28 29  1  0
 28 49  1  0
 29 30  1  0
 29 50  1  0
 29 51  1  0
 30 52  1  0
 30 53  1  0
 31 32  1  0
 31 54  1  0
 32 55  1  0
M  CHG  1  26   1
M  END
>  <DOCK_score>  (1) 
-57.274052

>  <SMILES>  (1) 
Cc1ccc([C@H](Nc2[nH]cc(-c3ccc(-c4ccccc4)cc3)[nH+]2)C2CC2)cc1

$$$$
