c1ccc(C(Nc2[nH]cc(-c3cnc4ccccc4n3)[nH+]2)c2ccccc2)cc1
     RDKit          3D

 49 53  0  0  1  0  0  0  0  0999 V2000
  129.7275  139.7750  161.0434 C   0  0  0  0  0  0  0  0  0  0  0  0
  128.9487  138.9676  161.8512 C   0  0  0  0  0  0  0  0  0  0  0  0
  128.6462  137.6786  161.4539 C   0  0  0  0  0  0  0  0  0  0  0  0
  129.1225  137.1969  160.2489 C   0  0  0  0  0  0  0  0  0  0  0  0
  128.7932  135.7914  159.8162 C   0  0  0  0  0  0  0  0  0  0  0  0
  129.8848  135.2655  158.9928 N   0  0  0  0  0  0  0  0  0  0  0  0
  129.8067  133.9836  158.4770 C   0  0  0  0  0  0  0  0  0  0  0  0
  129.1537  132.9359  159.0518 N   0  0  0  0  0  0  0  0  0  0  0  0
  128.6639  132.9545  159.8889 H   0  0  0  0  0  0  0  0  0  0  0  0
  129.3110  131.8520  158.2278 C   0  0  0  0  0  0  0  0  0  0  0  0
  130.0642  132.2630  157.1747 C   0  0  0  0  0  0  0  0  0  0  0  0
  130.4923  131.4274  156.0303 C   0  0  0  0  0  0  0  0  0  0  0  0
  131.2841  130.2845  156.2560 C   0  0  0  0  0  0  0  0  0  0  0  0
  131.6763  129.5367  155.2534 N   0  0  0  0  0  0  0  0  0  0  0  0
  131.3139  129.8528  154.0033 C   0  0  0  0  0  0  0  0  0  0  0  0
  131.7175  129.0641  152.9130 C   0  0  0  0  0  0  0  0  0  0  0  0
  131.3405  129.4112  151.6517 C   0  0  0  0  0  0  0  0  0  0  0  0
  130.5580  130.5414  151.4227 C   0  0  0  0  0  0  0  0  0  0  0  0
  130.1478  131.3290  152.4541 C   0  0  0  0  0  0  0  0  0  0  0  0
  130.5174  131.0022  153.7707 C   0  0  0  0  0  0  0  0  0  0  0  0
  130.1290  131.7592  154.8024 N   0  0  0  0  0  0  0  0  0  0  0  0
  130.3496  133.5781  157.3555 N   0  0  0  0  0  0  0  0  0  0  0  0
  130.8720  134.1290  156.7517 H   0  0  0  0  0  0  0  0  0  0  0  0
  127.5175  135.7989  159.0140 C   0  0  0  0  0  0  0  0  0  0  0  0
  126.3006  135.6358  159.6492 C   0  0  0  0  0  0  0  0  0  0  0  0
  125.1301  135.6473  158.9140 C   0  0  0  0  0  0  0  0  0  0  0  0
  125.1770  135.8117  157.5423 C   0  0  0  0  0  0  0  0  0  0  0  0
  126.3943  135.9695  156.9064 C   0  0  0  0  0  0  0  0  0  0  0  0
  127.5645  135.9632  157.6422 C   0  0  0  0  0  0  0  0  0  0  0  0
  129.9057  138.0024  159.4437 C   0  0  0  0  0  0  0  0  0  0  0  0
  130.2039  139.2933  159.8383 C   0  0  0  0  0  0  0  0  0  0  0  0
  129.9641  140.7820  161.3538 H   0  0  0  0  0  0  0  0  0  0  0  0
  128.5769  139.3439  162.7926 H   0  0  0  0  0  0  0  0  0  0  0  0
  128.0380  137.0477  162.0851 H   0  0  0  0  0  0  0  0  0  0  0  0
  128.6654  135.1609  160.6960 H   0  0  0  0  0  0  0  0  0  0  0  0
  130.6623  135.8157  158.8091 H   0  0  0  0  0  0  0  0  0  0  0  0
  128.9143  130.8603  158.3867 H   0  0  0  0  0  0  0  0  0  0  0  0
  131.5743  130.0247  157.2634 H   0  0  0  0  0  0  0  0  0  0  0  0
  132.3247  128.1857  153.0748 H   0  0  0  0  0  0  0  0  0  0  0  0
  131.6529  128.8022  150.8163 H   0  0  0  0  0  0  0  0  0  0  0  0
  130.2726  130.7955  150.4125 H   0  0  0  0  0  0  0  0  0  0  0  0
  129.5410  132.2016  152.2619 H   0  0  0  0  0  0  0  0  0  0  0  0
  126.2642  135.5029  160.7204 H   0  0  0  0  0  0  0  0  0  0  0  0
  124.1790  135.5237  159.4108 H   0  0  0  0  0  0  0  0  0  0  0  0
  124.2628  135.8163  156.9673 H   0  0  0  0  0  0  0  0  0  0  0  0
  126.4311  136.0975  155.8346 H   0  0  0  0  0  0  0  0  0  0  0  0
  128.5154  136.0861  157.1453 H   0  0  0  0  0  0  0  0  0  0  0  0
  130.2816  137.6246  158.5043 H   0  0  0  0  0  0  0  0  0  0  0  0
  130.8125  139.9238  159.2074 H   0  0  0  0  0  0  0  0  0  0  0  0
  1 31  2  0
  1  2  1  0
  1 32  1  0
  2  3  2  0
  2 33  1  0
  3  4  1  0
  3 34  1  0
  4  5  1  0
  4 30  2  0
  5  6  1  0
  5 24  1  0
  5 35  1  0
  6 36  1  0
  7  6  1  0
  7 22  2  0
  7  8  1  0
  8  9  1  0
  8 10  1  0
 10 11  2  0
 10 37  1  0
 11 12  1  0
 11 22  1  0
 12 21  1  0
 12 13  2  0
 13 14  1  0
 13 38  1  0
 14 15  2  0
 15 20  1  0
 15 16  1  0
 16 17  2  0
 16 39  1  0
 17 18  1  0
 17 40  1  0
 18 19  2  0
 18 41  1  0
 19 20  1  0
 19 42  1  0
 20 21  2  0
 22 23  1  0
 24 29  1  0
 24 25  2  0
 25 26  1  0
 25 43  1  0
 26 27  2  0
 26 44  1  0
 27 28  1  0
 27 45  1  0
 28 29  2  0
 28 46  1  0
 29 47  1  0
 30 31  1  0
 30 48  1  0
 31 49  1  0
M  CHG  1  22   1
M  END
>  <DOCK_score>  (1) 
-61.98011

>  <SMILES>  (1) 
c1ccc(C(Nc2[nH]cc(-c3cnc4ccccc4n3)[nH+]2)c2ccccc2)cc1

$$$$
