CCc1ccc(-c2c[nH]c(N[C@@H](Cc3ccccc3)c3cccc(Cl)c3)[nH+]2)cc1
     RDKit          3D

 54 57  0  0  1  0  0  0  0  0999 V2000
  130.2797  128.1715  151.4145 C   0  0  0  0  0  0  0  0  0  0  0  0
  131.1847  129.3913  151.5980 C   0  0  0  0  0  0  0  0  0  0  0  0
  130.8784  130.0502  152.9183 C   0  0  0  0  0  0  0  0  0  0  0  0
  131.5608  129.6617  154.0565 C   0  0  0  0  0  0  0  0  0  0  0  0
  131.2886  130.2655  155.2674 C   0  0  0  0  0  0  0  0  0  0  0  0
  130.3158  131.2606  155.3438 C   0  0  0  0  0  0  0  0  0  0  0  0
  130.0148  131.9093  156.6433 C   0  0  0  0  0  0  0  0  0  0  0  0
  129.5760  131.2849  157.7644 C   0  0  0  0  0  0  0  0  0  0  0  0
  129.4269  132.2531  158.7274 N   0  0  0  0  0  0  0  0  0  0  0  0
  129.1257  132.1150  159.6390 H   0  0  0  0  0  0  0  0  0  0  0  0
  129.7792  133.4418  158.1662 C   0  0  0  0  0  0  0  0  0  0  0  0
  129.7688  134.6698  158.8054 N   0  0  0  0  0  0  0  0  0  0  0  0
  129.3522  134.7626  160.2069 C   0  0  1  0  0  0  0  0  0  0  0  0
  129.7514  133.9135  160.7615 H   0  0  0  0  0  0  0  0  0  0  0  0
  129.8846  136.0631  160.8120 C   0  0  0  0  0  0  0  0  0  0  0  0
  131.3336  135.8868  161.1863 C   0  0  0  0  0  0  0  0  0  0  0  0
  131.8665  136.6010  162.2431 C   0  0  0  0  0  0  0  0  0  0  0  0
  133.1945  136.4356  162.5895 C   0  0  0  0  0  0  0  0  0  0  0  0
  133.9922  135.5641  161.8730 C   0  0  0  0  0  0  0  0  0  0  0  0
  133.4608  134.8535  160.8121 C   0  0  0  0  0  0  0  0  0  0  0  0
  132.1315  135.0149  160.4691 C   0  0  0  0  0  0  0  0  0  0  0  0
  127.8473  134.7512  160.2853 C   0  0  0  0  0  0  0  0  0  0  0  0
  127.1146  135.7386  159.6530 C   0  0  0  0  0  0  0  0  0  0  0  0
  125.7344  135.7288  159.7245 C   0  0  0  0  0  0  0  0  0  0  0  0
  125.0855  134.7317  160.4286 C   0  0  0  0  0  0  0  0  0  0  0  0
  125.8180  133.7436  161.0617 C   0  0  0  0  0  0  0  0  0  0  0  0
  125.0040  132.4912  161.9465 Cl  0  0  0  0  0  0  0  0  0  0  0  0
  127.1996  133.7506  160.9849 C   0  0  0  0  0  0  0  0  0  0  0  0
  130.1355  133.2315  156.9225 N   0  0  0  0  0  0  0  0  0  0  0  0
  130.4352  133.9127  156.3004 H   0  0  0  0  0  0  0  0  0  0  0  0
  129.6271  131.6443  154.1944 C   0  0  0  0  0  0  0  0  0  0  0  0
  129.9115  131.0377  152.9878 C   0  0  0  0  0  0  0  0  0  0  0  0
  130.4572  127.4631  152.2237 H   0  0  0  0  0  0  0  0  0  0  0  0
  129.2364  128.4869  151.4301 H   0  0  0  0  0  0  0  0  0  0  0  0
  130.5011  127.6951  150.4596 H   0  0  0  0  0  0  0  0  0  0  0  0
  132.2274  129.0765  151.5820 H   0  0  0  0  0  0  0  0  0  0  0  0
  131.0067  130.1002  150.7883 H   0  0  0  0  0  0  0  0  0  0  0  0
  132.3110  128.8872  153.9971 H   0  0  0  0  0  0  0  0  0  0  0  0
  131.8254  129.9645  156.1549 H   0  0  0  0  0  0  0  0  0  0  0  0
  129.3808  130.2288  157.8780 H   0  0  0  0  0  0  0  0  0  0  0  0
  130.0375  135.4687  158.3253 H   0  0  0  0  0  0  0  0  0  0  0  0
  129.7930  136.8676  160.0824 H   0  0  0  0  0  0  0  0  0  0  0  0
  129.3071  136.3126  161.7023 H   0  0  0  0  0  0  0  0  0  0  0  0
  131.2442  137.2854  162.8005 H   0  0  0  0  0  0  0  0  0  0  0  0
  133.6097  136.9908  163.4174 H   0  0  0  0  0  0  0  0  0  0  0  0
  135.0310  135.4379  162.1400 H   0  0  0  0  0  0  0  0  0  0  0  0
  134.0843  134.1725  160.2517 H   0  0  0  0  0  0  0  0  0  0  0  0
  131.7164  134.4603  159.6407 H   0  0  0  0  0  0  0  0  0  0  0  0
  127.6211  136.5176  159.1025 H   0  0  0  0  0  0  0  0  0  0  0  0
  125.1626  136.5001  159.2300 H   0  0  0  0  0  0  0  0  0  0  0  0
  124.0071  134.7239  160.4842 H   0  0  0  0  0  0  0  0  0  0  0  0
  127.7718  132.9771  161.4752 H   0  0  0  0  0  0  0  0  0  0  0  0
  128.8721  132.4148  154.2478 H   0  0  0  0  0  0  0  0  0  0  0  0
  129.3783  131.3340  152.0966 H   0  0  0  0  0  0  0  0  0  0  0  0
  1  2  1  0
  1 33  1  0
  1 34  1  0
  1 35  1  0
  2  3  1  0
  2 36  1  0
  2 37  1  0
  3 32  2  0
  3  4  1  0
  4  5  2  0
  4 38  1  0
  5  6  1  0
  5 39  1  0
  6  7  1  0
  6 31  2  0
  7 29  1  0
  7  8  2  0
  8  9  1  0
  8 40  1  0
  9 10  1  0
  9 11  1  0
 11 12  1  0
 11 29  2  0
 12 13  1  0
 12 41  1  0
 13 14  1  1
 13 15  1  0
 13 22  1  0
 15 16  1  0
 15 42  1  0
 15 43  1  0
 16 21  1  0
 16 17  2  0
 17 18  1  0
 17 44  1  0
 18 19  2  0
 18 45  1  0
 19 20  1  0
 19 46  1  0
 20 21  2  0
 20 47  1  0
 21 48  1  0
 22 28  1  0
 22 23  2  0
 23 24  1  0
 23 49  1  0
 24 25  2  0
 24 50  1  0
 25 26  1  0
 25 51  1  0
 26 27  1  0
 26 28  2  0
 28 52  1  0
 29 30  1  0
 31 32  1  0
 31 53  1  0
 32 54  1  0
M  CHG  1  29   1
M  END
>  <DOCK_score>  (1) 
-56.443523

>  <SMILES>  (1) 
CCc1ccc(-c2c[nH]c(N[C@@H](Cc3ccccc3)c3cccc(Cl)c3)[nH+]2)cc1

$$$$
