Oc1ccc2c(c1)[C@H](Nc1[nH]cc(-c3ccc(-c4ccc(CF)cc4)cc3)[nH+]1)c1ccccc1-2
     RDKit          3D

 57 62  0  0  1  0  0  0  0  0999 V2000
  124.4564  134.8445  161.6939 O   0  0  0  0  0  0  0  0  0  0  0  0
  125.3919  134.1026  161.0455 C   0  0  0  0  0  0  0  0  0  0  0  0
  125.1283  132.7773  160.7261 C   0  0  0  0  0  0  0  0  0  0  0  0
  126.0744  132.0213  160.0686 C   0  0  0  0  0  0  0  0  0  0  0  0
  127.3029  132.5872  159.7203 C   0  0  0  0  0  0  0  0  0  0  0  0
  127.5603  133.9170  160.0438 C   0  0  0  0  0  0  0  0  0  0  0  0
  126.6119  134.6695  160.7016 C   0  0  0  0  0  0  0  0  0  0  0  0
  128.9481  134.2447  159.5494 C   0  0  2  0  0  0  0  0  0  0  0  0
  129.5852  134.5353  160.3847 H   0  0  0  0  0  0  0  0  0  0  0  0
  128.8894  135.3245  158.5610 N   0  0  0  0  0  0  0  0  0  0  0  0
  129.5626  136.5118  158.7921 C   0  0  0  0  0  0  0  0  0  0  0  0
  129.5858  137.5856  157.9562 N   0  0  0  0  0  0  0  0  0  0  0  0
  129.1378  137.6558  157.0986 H   0  0  0  0  0  0  0  0  0  0  0  0
  130.3562  138.5534  158.5529 C   0  0  0  0  0  0  0  0  0  0  0  0
  130.7883  138.0408  159.7324 C   0  0  0  0  0  0  0  0  0  0  0  0
  131.6546  138.7300  160.7184 C   0  0  0  0  0  0  0  0  0  0  0  0
  131.5398  138.4321  162.0762 C   0  0  0  0  0  0  0  0  0  0  0  0
  132.3452  139.0722  162.9920 C   0  0  0  0  0  0  0  0  0  0  0  0
  133.2754  140.0181  162.5618 C   0  0  0  0  0  0  0  0  0  0  0  0
  134.1421  140.7075  163.5480 C   0  0  0  0  0  0  0  0  0  0  0  0
  135.4168  141.1356  163.1806 C   0  0  0  0  0  0  0  0  0  0  0  0
  136.2190  141.7763  164.1027 C   0  0  0  0  0  0  0  0  0  0  0  0
  135.7608  141.9934  165.3896 C   0  0  0  0  0  0  0  0  0  0  0  0
  136.6420  142.6932  166.3922 C   0  0  0  0  0  0  0  0  0  0  0  0
  137.8616  143.0228  165.7912 F   0  0  0  0  0  0  0  0  0  0  0  0
  134.4990  141.5658  165.7615 C   0  0  0  0  0  0  0  0  0  0  0  0
  133.6855  140.9295  164.8462 C   0  0  0  0  0  0  0  0  0  0  0  0
  133.3866  140.3198  161.2048 C   0  0  0  0  0  0  0  0  0  0  0  0
  132.5851  139.6761  160.2881 C   0  0  0  0  0  0  0  0  0  0  0  0
  130.2821  136.7875  159.8523 N   0  0  0  0  0  0  0  0  0  0  0  0
  130.4296  136.1907  160.6027 H   0  0  0  0  0  0  0  0  0  0  0  0
  129.4733  132.9830  158.9098 C   0  0  0  0  0  0  0  0  0  0  0  0
  130.6684  132.6846  158.2935 C   0  0  0  0  0  0  0  0  0  0  0  0
  130.8887  131.4168  157.7841 C   0  0  0  0  0  0  0  0  0  0  0  0
  129.9090  130.4465  157.8909 C   0  0  0  0  0  0  0  0  0  0  0  0
  128.7082  130.7357  158.5057 C   0  0  0  0  0  0  0  0  0  0  0  0
  128.4793  132.0122  159.0222 C   0  0  0  0  0  0  0  0  0  0  0  0
  124.7306  135.7545  161.8725 H   0  0  0  0  0  0  0  0  0  0  0  0
  124.1789  132.3375  160.9942 H   0  0  0  0  0  0  0  0  0  0  0  0
  125.8657  130.9907  159.8222 H   0  0  0  0  0  0  0  0  0  0  0  0
  126.8176  135.7002  160.9503 H   0  0  0  0  0  0  0  0  0  0  0  0
  128.3788  135.2075  157.7446 H   0  0  0  0  0  0  0  0  0  0  0  0
  130.5773  139.5340  158.1580 H   0  0  0  0  0  0  0  0  0  0  0  0
  130.8197  137.6993  162.4094 H   0  0  0  0  0  0  0  0  0  0  0  0
  132.2567  138.8413  164.0434 H   0  0  0  0  0  0  0  0  0  0  0  0
  135.7755  140.9666  162.1760 H   0  0  0  0  0  0  0  0  0  0  0  0
  137.2069  142.1084  163.8191 H   0  0  0  0  0  0  0  0  0  0  0  0
  136.8217  142.0334  167.2410 H   0  0  0  0  0  0  0  0  0  0  0  0
  136.1493  143.6024  166.7368 H   0  0  0  0  0  0  0  0  0  0  0  0
  134.1482  141.7336  166.7691 H   0  0  0  0  0  0  0  0  0  0  0  0
  132.6987  140.6001  165.1363 H   0  0  0  0  0  0  0  0  0  0  0  0
  134.1039  141.0556  160.8721 H   0  0  0  0  0  0  0  0  0  0  0  0
  132.6743  139.9065  159.2367 H   0  0  0  0  0  0  0  0  0  0  0  0
  131.4349  133.4408  158.2090 H   0  0  0  0  0  0  0  0  0  0  0  0
  131.8270  131.1848  157.3021 H   0  0  0  0  0  0  0  0  0  0  0  0
  130.0847  129.4585  157.4919 H   0  0  0  0  0  0  0  0  0  0  0  0
  127.9458  129.9751  158.5870 H   0  0  0  0  0  0  0  0  0  0  0  0
  1  2  1  0
  1 38  1  0
  2  7  2  0
  2  3  1  0
  3  4  2  0
  3 39  1  0
  4  5  1  0
  4 40  1  0
  5 37  1  0
  5  6  2  0
  6  7  1  0
  6  8  1  0
  7 41  1  0
  8  9  1  1
  8 10  1  0
  8 32  1  0
 10 42  1  0
 11 10  1  0
 11 30  2  0
 11 12  1  0
 12 13  1  0
 12 14  1  0
 14 15  2  0
 14 43  1  0
 15 16  1  0
 15 30  1  0
 16 29  1  0
 16 17  2  0
 17 18  1  0
 17 44  1  0
 18 19  2  0
 18 45  1  0
 19 20  1  0
 19 28  1  0
 20 27  1  0
 20 21  2  0
 21 22  1  0
 21 46  1  0
 22 23  2  0
 22 47  1  0
 23 24  1  0
 23 26  1  0
 24 25  1  0
 24 48  1  0
 24 49  1  0
 26 27  2  0
 26 50  1  0
 27 51  1  0
 28 29  2  0
 28 52  1  0
 29 53  1  0
 30 31  1  0
 32 37  2  0
 32 33  1  0
 33 34  2  0
 33 54  1  0
 34 35  1  0
 34 55  1  0
 35 36  2  0
 35 56  1  0
 36 37  1  0
 36 57  1  0
M  CHG  1  30   1
M  END
>  <DOCK_score>  (1) 
-45.439877

>  <SMILES>  (1) 
Oc1ccc2c(c1)[C@H](Nc1[nH]cc(-c3ccc(-c4ccc(CF)cc4)cc3)[nH+]1)c1ccccc1-2

$$$$
