CC(Sc1csc(Nc2ccc([C@H](C)[NH+]3CCCC3)cc2)n1)c1ncc(C2=CCC=CC2)cn1
     RDKit          3D

 66 70  0  0  1  0  0  0  0  0999 V2000
  130.2450  130.0179  159.1240 C   0  0  0  0  0  0  0  0  0  0  0  0
  129.1073  130.8252  159.7524 C   0  0  2  0  0  0  0  0  0  0  0  0
  128.1984  131.7032  158.4509 S   0  0  0  0  0  0  0  0  0  0  0  0
  126.9499  132.5621  159.3500 C   0  0  0  0  0  0  0  0  0  0  0  0
  125.7464  132.0328  159.6061 C   0  0  0  0  0  0  0  0  0  0  0  0
  124.8137  133.2133  160.5224 S   0  0  0  0  0  0  0  0  0  0  0  0
  126.1243  134.3094  160.4685 C   0  0  0  0  0  0  0  0  0  0  0  0
  126.1229  135.5757  161.0334 N   0  0  0  0  0  0  0  0  0  0  0  0
  127.2546  136.3889  160.9286 C   0  0  0  0  0  0  0  0  0  0  0  0
  127.5392  137.3172  161.9224 C   0  0  0  0  0  0  0  0  0  0  0  0
  128.6618  138.1148  161.8188 C   0  0  0  0  0  0  0  0  0  0  0  0
  129.4958  137.9985  160.7214 C   0  0  0  0  0  0  0  0  0  0  0  0
  130.7167  138.8744  160.6085 C   0  0  2  0  0  0  0  0  0  0  0  0
  131.0840  139.1158  161.6069 H   0  0  0  0  0  0  0  0  0  0  0  0
  130.3517  140.1659  159.8736 C   0  0  0  0  0  0  0  0  0  0  0  0
  131.7620  138.1643  159.8609 N   0  0  0  0  0  0  0  0  0  0  0  0
  131.4331  137.9358  158.9348 H   0  0  0  0  0  0  0  0  0  0  0  0
  132.9891  138.9971  159.7790 C   0  0  0  0  0  0  0  0  0  0  0  0
  134.1048  137.9583  159.5021 C   0  0  0  0  0  0  0  0  0  0  0  0
  133.6695  136.7470  160.3586 C   0  0  0  0  0  0  0  0  0  0  0  0
  132.1570  136.9332  160.5790 C   0  0  0  0  0  0  0  0  0  0  0  0
  129.2119  137.0800  159.7277 C   0  0  0  0  0  0  0  0  0  0  0  0
  128.0944  136.2749  159.8280 C   0  0  0  0  0  0  0  0  0  0  0  0
  127.1211  133.7856  159.8237 N   0  0  0  0  0  0  0  0  0  0  0  0
  129.6780  131.8228  160.7270 C   0  0  0  0  0  0  0  0  0  0  0  0
  129.3140  131.7587  161.9926 N   0  0  0  0  0  0  0  0  0  0  0  0
  129.7899  132.6136  162.8812 C   0  0  0  0  0  0  0  0  0  0  0  0
  130.6923  133.5960  162.4593 C   0  0  0  0  0  0  0  0  0  0  0  0
  131.2525  134.5743  163.4155 C   0  0  0  0  0  0  0  0  0  0  0  0
  132.5560  134.6199  163.5805 C   0  0  0  0  0  0  0  0  0  0  0  0
  133.2182  135.5765  164.5262 C   0  0  0  0  0  0  0  0  0  0  0  0
  132.3114  136.7217  164.8621 C   0  0  0  0  0  0  0  0  0  0  0  0
  131.0249  136.6765  164.6996 C   0  0  0  0  0  0  0  0  0  0  0  0
  130.3120  135.4788  164.1536 C   0  0  0  0  0  0  0  0  0  0  0  0
  131.0503  133.6257  161.1072 C   0  0  0  0  0  0  0  0  0  0  0  0
  130.5257  132.7317  160.2871 N   0  0  0  0  0  0  0  0  0  0  0  0
  129.8322  129.2963  158.4190 H   0  0  0  0  0  0  0  0  0  0  0  0
  130.9221  130.6919  158.5993 H   0  0  0  0  0  0  0  0  0  0  0  0
  130.7910  129.4902  159.9059 H   0  0  0  0  0  0  0  0  0  0  0  0
  128.4301  130.1511  160.2770 H   0  0  0  0  0  0  0  0  0  0  0  0
  125.4075  131.0526  159.3049 H   0  0  0  0  0  0  0  0  0  0  0  0
  125.3364  135.8971  161.5013 H   0  0  0  0  0  0  0  0  0  0  0  0
  126.8860  137.4115  162.7772 H   0  0  0  0  0  0  0  0  0  0  0  0
  128.8864  138.8332  162.5933 H   0  0  0  0  0  0  0  0  0  0  0  0
  129.5064  140.6408  160.3717 H   0  0  0  0  0  0  0  0  0  0  0  0
  131.2058  140.8434  159.8837 H   0  0  0  0  0  0  0  0  0  0  0  0
  130.0829  139.9345  158.8439 H   0  0  0  0  0  0  0  0  0  0  0  0
  132.9158  139.7107  158.9584 H   0  0  0  0  0  0  0  0  0  0  0  0
  133.1684  139.5118  160.7229 H   0  0  0  0  0  0  0  0  0  0  0  0
  135.0731  138.3352  159.8313 H   0  0  0  0  0  0  0  0  0  0  0  0
  134.1317  137.6934  158.4451 H   0  0  0  0  0  0  0  0  0  0  0  0
  134.1949  136.7504  161.3135 H   0  0  0  0  0  0  0  0  0  0  0  0
  133.8617  135.8159  159.8252 H   0  0  0  0  0  0  0  0  0  0  0  0
  131.9483  137.0420  161.6434 H   0  0  0  0  0  0  0  0  0  0  0  0
  131.6141  136.0778  160.1771 H   0  0  0  0  0  0  0  0  0  0  0  0
  129.8652  136.9918  158.8722 H   0  0  0  0  0  0  0  0  0  0  0  0
  127.8734  135.5576  159.0514 H   0  0  0  0  0  0  0  0  0  0  0  0
  129.4868  132.5550  163.9161 H   0  0  0  0  0  0  0  0  0  0  0  0
  133.1745  133.9409  163.0125 H   0  0  0  0  0  0  0  0  0  0  0  0
  133.4812  135.0483  165.4428 H   0  0  0  0  0  0  0  0  0  0  0  0
  134.1262  135.9645  164.0645 H   0  0  0  0  0  0  0  0  0  0  0  0
  132.7491  137.6262  165.2581 H   0  0  0  0  0  0  0  0  0  0  0  0
  130.4412  137.5451  164.9666 H   0  0  0  0  0  0  0  0  0  0  0  0
  129.5256  135.8076  163.4742 H   0  0  0  0  0  0  0  0  0  0  0  0
  129.8619  134.9287  164.9800 H   0  0  0  0  0  0  0  0  0  0  0  0
  131.7439  134.3674  160.7393 H   0  0  0  0  0  0  0  0  0  0  0  0
  1  2  1  0
  1 37  1  0
  1 38  1  0
  1 39  1  0
  2  3  1  0
  2 25  1  0
  2 40  1  1
  3  4  1  0
  4 24  1  0
  4  5  2  0
  5  6  1  0
  5 41  1  0
  6  7  1  0
  7  8  1  0
  7 24  2  0
  8  9  1  0
  8 42  1  0
  9 23  1  0
  9 10  2  0
 10 11  1  0
 10 43  1  0
 11 12  2  0
 11 44  1  0
 12 13  1  0
 12 22  1  0
 13 14  1  1
 13 15  1  0
 13 16  1  0
 15 45  1  0
 15 46  1  0
 15 47  1  0
 16 17  1  0
 16 21  1  0
 16 18  1  0
 18 19  1  0
 18 48  1  0
 18 49  1  0
 19 20  1  0
 19 50  1  0
 19 51  1  0
 20 21  1  0
 20 52  1  0
 20 53  1  0
 21 54  1  0
 21 55  1  0
 22 23  2  0
 22 56  1  0
 23 57  1  0
 25 36  1  0
 25 26  2  0
 26 27  1  0
 27 28  2  0
 27 58  1  0
 28 29  1  0
 28 35  1  0
 29 34  1  0
 29 30  2  0
 30 31  1  0
 30 59  1  0
 31 32  1  0
 31 60  1  0
 31 61  1  0
 32 33  2  0
 32 62  1  0
 33 34  1  0
 33 63  1  0
 34 64  1  0
 34 65  1  0
 35 36  2  0
 35 66  1  0
M  CHG  1  16   1
M  END
>  <DOCK_score>  (1) 
-44.656002

>  <SMILES>  (1) 
CC(Sc1csc(Nc2ccc([C@H](C)[NH+]3CCCC3)cc2)n1)c1ncc(C2=CCC=CC2)cn1

$$$$
