c1ccc(-c2c[nH]c(NC(c3ccccc3)c3ccccc3)[nH+]2)cc1
     RDKit          3D

 45 48  0  0  1  0  0  0  0  0999 V2000
  130.8988  130.2468  153.3108 C   0  0  0  0  0  0  0  0  0  0  0  0
  130.1626  131.4145  153.2255 C   0  0  0  0  0  0  0  0  0  0  0  0
  129.9006  132.1530  154.3616 C   0  0  0  0  0  0  0  0  0  0  0  0
  130.3799  131.7200  155.5967 C   0  0  0  0  0  0  0  0  0  0  0  0
  130.1015  132.5093  156.8214 C   0  0  0  0  0  0  0  0  0  0  0  0
  129.4260  132.0753  157.9142 C   0  0  0  0  0  0  0  0  0  0  0  0
  129.3991  133.1190  158.8069 N   0  0  0  0  0  0  0  0  0  0  0  0
  128.9852  133.1142  159.6841 H   0  0  0  0  0  0  0  0  0  0  0  0
  130.0595  134.1613  158.2328 C   0  0  0  0  0  0  0  0  0  0  0  0
  130.2564  135.4057  158.8070 N   0  0  0  0  0  0  0  0  0  0  0  0
  129.7323  135.6856  160.1460 C   0  0  0  0  0  0  0  0  0  0  0  0
  130.0793  137.0993  160.5359 C   0  0  0  0  0  0  0  0  0  0  0  0
  130.2680  137.4228  161.8666 C   0  0  0  0  0  0  0  0  0  0  0  0
  130.5910  138.7185  162.2238 C   0  0  0  0  0  0  0  0  0  0  0  0
  130.7148  139.6931  161.2514 C   0  0  0  0  0  0  0  0  0  0  0  0
  130.5209  139.3708  159.9212 C   0  0  0  0  0  0  0  0  0  0  0  0
  130.2031  138.0739  159.5635 C   0  0  0  0  0  0  0  0  0  0  0  0
  128.2346  135.5182  160.1446 C   0  0  0  0  0  0  0  0  0  0  0  0
  127.5837  135.1100  161.2937 C   0  0  0  0  0  0  0  0  0  0  0  0
  126.2093  134.9611  161.2937 C   0  0  0  0  0  0  0  0  0  0  0  0
  125.4871  135.2104  160.1416 C   0  0  0  0  0  0  0  0  0  0  0  0
  126.1387  135.6135  158.9911 C   0  0  0  0  0  0  0  0  0  0  0  0
  127.5123  135.7675  158.9925 C   0  0  0  0  0  0  0  0  0  0  0  0
  130.4736  133.7948  157.0446 N   0  0  0  0  0  0  0  0  0  0  0  0
  130.9686  134.3528  156.4245 H   0  0  0  0  0  0  0  0  0  0  0  0
  131.1265  130.5457  155.6761 C   0  0  0  0  0  0  0  0  0  0  0  0
  131.3766  129.8118  154.5342 C   0  0  0  0  0  0  0  0  0  0  0  0
  131.1012  129.6722  152.4191 H   0  0  0  0  0  0  0  0  0  0  0  0
  129.7918  131.7490  152.2679 H   0  0  0  0  0  0  0  0  0  0  0  0
  129.3251  133.0643  154.2938 H   0  0  0  0  0  0  0  0  0  0  0  0
  128.9918  131.0965  158.0555 H   0  0  0  0  0  0  0  0  0  0  0  0
  130.7377  136.0934  158.3210 H   0  0  0  0  0  0  0  0  0  0  0  0
  130.1746  134.9925  160.8616 H   0  0  0  0  0  0  0  0  0  0  0  0
  130.1667  136.6623  162.6268 H   0  0  0  0  0  0  0  0  0  0  0  0
  130.7420  138.9704  163.2631 H   0  0  0  0  0  0  0  0  0  0  0  0
  130.9627  140.7065  161.5309 H   0  0  0  0  0  0  0  0  0  0  0  0
  130.6174  140.1324  159.1615 H   0  0  0  0  0  0  0  0  0  0  0  0
  130.0513  137.8222  158.5242 H   0  0  0  0  0  0  0  0  0  0  0  0
  128.1484  134.9110  162.1925 H   0  0  0  0  0  0  0  0  0  0  0  0
  125.7004  134.6459  162.1925 H   0  0  0  0  0  0  0  0  0  0  0  0
  124.4139  135.0897  160.1404 H   0  0  0  0  0  0  0  0  0  0  0  0
  125.5745  135.8079  158.0909 H   0  0  0  0  0  0  0  0  0  0  0  0
  128.0214  136.0821  158.0934 H   0  0  0  0  0  0  0  0  0  0  0  0
  131.5043  130.2081  156.6298 H   0  0  0  0  0  0  0  0  0  0  0  0
  131.9506  128.8991  154.5952 H   0  0  0  0  0  0  0  0  0  0  0  0
  1 27  2  0
  1  2  1  0
  1 28  1  0
  2  3  2  0
  2 29  1  0
  3  4  1  0
  3 30  1  0
  4  5  1  0
  4 26  2  0
  5 24  1  0
  5  6  2  0
  6  7  1  0
  6 31  1  0
  7  8  1  0
  7  9  1  0
  9 10  1  0
  9 24  2  0
 10 11  1  0
 10 32  1  0
 11 12  1  0
 11 18  1  0
 11 33  1  0
 12 17  1  0
 12 13  2  0
 13 14  1  0
 13 34  1  0
 14 15  2  0
 14 35  1  0
 15 16  1  0
 15 36  1  0
 16 17  2  0
 16 37  1  0
 17 38  1  0
 18 23  1  0
 18 19  2  0
 19 20  1  0
 19 39  1  0
 20 21  2  0
 20 40  1  0
 21 22  1  0
 21 41  1  0
 22 23  2  0
 22 42  1  0
 23 43  1  0
 24 25  1  0
 26 27  1  0
 26 44  1  0
 27 45  1  0
M  CHG  1  24   1
M  END
>  <DOCK_score>  (1) 
-57.386551

>  <SMILES>  (1) 
c1ccc(-c2c[nH]c(NC(c3ccccc3)c3ccccc3)[nH+]2)cc1

$$$$
