Fc1c(C2=CC[N@H+](Cc3cccc4cccnc34)CC2)cccc1N(c1ccccc1)c1ccccc1
     RDKit          3D

 66 71  0  0  1  0  0  0  0  0999 V2000
  133.2883  137.3246  163.5247 F   0  0  0  0  0  0  0  0  0  0  0  0
  134.1688  137.8644  162.6538 C   0  0  0  0  0  0  0  0  0  0  0  0
  134.0092  137.6644  161.2816 C   0  0  0  0  0  0  0  0  0  0  0  0
  132.8765  136.8608  160.7761 C   0  0  0  0  0  0  0  0  0  0  0  0
  131.7437  137.4677  160.4951 C   0  0  0  0  0  0  0  0  0  0  0  0
  130.5336  136.7418  159.9819 C   0  0  0  0  0  0  0  0  0  0  0  0
  130.9131  135.4292  159.4466 N   0  0  2  0  0  0  0  0  0  0  0  0
  131.4721  135.5507  158.6156 H   0  0  0  0  0  0  0  0  0  0  0  0
  129.7030  134.6639  159.1177 C   0  0  0  0  0  0  0  0  0  0  0  0
  130.0513  133.5667  158.1452 C   0  0  0  0  0  0  0  0  0  0  0  0
  129.9935  133.7979  156.8052 C   0  0  0  0  0  0  0  0  0  0  0  0
  130.3122  132.7981  155.8888 C   0  0  0  0  0  0  0  0  0  0  0  0
  130.6898  131.5592  156.3095 C   0  0  0  0  0  0  0  0  0  0  0  0
  130.7609  131.2854  157.6846 C   0  0  0  0  0  0  0  0  0  0  0  0
  131.1477  130.0182  158.1606 C   0  0  0  0  0  0  0  0  0  0  0  0
  131.1940  129.8241  159.5117 C   0  0  0  0  0  0  0  0  0  0  0  0
  130.8632  130.8661  160.3757 C   0  0  0  0  0  0  0  0  0  0  0  0
  130.4988  132.0433  159.9290 N   0  0  0  0  0  0  0  0  0  0  0  0
  130.4377  132.3009  158.6186 C   0  0  0  0  0  0  0  0  0  0  0  0
  131.6927  134.7048  160.4629 C   0  0  0  0  0  0  0  0  0  0  0  0
  133.0605  135.3783  160.6008 C   0  0  0  0  0  0  0  0  0  0  0  0
  134.9265  138.2211  160.3889 C   0  0  0  0  0  0  0  0  0  0  0  0
  135.9801  138.9764  160.8627 C   0  0  0  0  0  0  0  0  0  0  0  0
  136.1393  139.1749  162.2216 C   0  0  0  0  0  0  0  0  0  0  0  0
  135.2361  138.6209  163.1202 C   0  0  0  0  0  0  0  0  0  0  0  0
  135.4012  138.8256  164.4949 N   0  0  0  0  0  0  0  0  0  0  0  0
  134.3996  139.4640  165.2319 C   0  0  0  0  0  0  0  0  0  0  0  0
  133.7806  138.8018  166.2849 C   0  0  0  0  0  0  0  0  0  0  0  0
  132.7955  139.4376  167.0144 C   0  0  0  0  0  0  0  0  0  0  0  0
  132.4167  140.7277  166.6907 C   0  0  0  0  0  0  0  0  0  0  0  0
  133.0267  141.3877  165.6395 C   0  0  0  0  0  0  0  0  0  0  0  0
  134.0166  140.7600  164.9093 C   0  0  0  0  0  0  0  0  0  0  0  0
  136.5679  138.3915  165.1309 C   0  0  0  0  0  0  0  0  0  0  0  0
  137.0503  139.0728  166.2415 C   0  0  0  0  0  0  0  0  0  0  0  0
  138.1999  138.6377  166.8708 C   0  0  0  0  0  0  0  0  0  0  0  0
  138.8773  137.5320  166.3898 C   0  0  0  0  0  0  0  0  0  0  0  0
  138.4030  136.8549  165.2811 C   0  0  0  0  0  0  0  0  0  0  0  0
  137.2508  137.2811  164.6504 C   0  0  0  0  0  0  0  0  0  0  0  0
  131.6812  138.5361  160.6402 H   0  0  0  0  0  0  0  0  0  0  0  0
  130.0671  137.3317  159.1929 H   0  0  0  0  0  0  0  0  0  0  0  0
  129.8217  136.6071  160.7962 H   0  0  0  0  0  0  0  0  0  0  0  0
  128.9647  135.3275  158.6676 H   0  0  0  0  0  0  0  0  0  0  0  0
  129.2916  134.2262  160.0273 H   0  0  0  0  0  0  0  0  0  0  0  0
  129.6961  134.7722  156.4465 H   0  0  0  0  0  0  0  0  0  0  0  0
  130.2585  133.0082  154.8308 H   0  0  0  0  0  0  0  0  0  0  0  0
  130.9341  130.7923  155.5895 H   0  0  0  0  0  0  0  0  0  0  0  0
  131.4004  129.2217  157.4765 H   0  0  0  0  0  0  0  0  0  0  0  0
  131.4863  128.8638  159.9101 H   0  0  0  0  0  0  0  0  0  0  0  0
  130.9040  130.6980  161.4417 H   0  0  0  0  0  0  0  0  0  0  0  0
  131.1697  134.7396  161.4186 H   0  0  0  0  0  0  0  0  0  0  0  0
  131.8247  133.6684  160.1525 H   0  0  0  0  0  0  0  0  0  0  0  0
  133.5795  134.9717  161.4688 H   0  0  0  0  0  0  0  0  0  0  0  0
  133.6503  135.1892  159.7039 H   0  0  0  0  0  0  0  0  0  0  0  0
  134.8094  138.0646  159.3267 H   0  0  0  0  0  0  0  0  0  0  0  0
  136.6857  139.4100  160.1695 H   0  0  0  0  0  0  0  0  0  0  0  0
  136.9688  139.7629  162.5859 H   0  0  0  0  0  0  0  0  0  0  0  0
  134.0727  137.7927  166.5355 H   0  0  0  0  0  0  0  0  0  0  0  0
  132.3167  138.9250  167.8358 H   0  0  0  0  0  0  0  0  0  0  0  0
  131.6427  141.2208  167.2600 H   0  0  0  0  0  0  0  0  0  0  0  0
  132.7284  142.3950  165.3892 H   0  0  0  0  0  0  0  0  0  0  0  0
  134.4923  141.2757  164.0883 H   0  0  0  0  0  0  0  0  0  0  0  0
  136.5243  139.9390  166.6149 H   0  0  0  0  0  0  0  0  0  0  0  0
  138.5732  139.1645  167.7366 H   0  0  0  0  0  0  0  0  0  0  0  0
  139.7788  137.1968  166.8809 H   0  0  0  0  0  0  0  0  0  0  0  0
  138.9346  135.9920  164.9080 H   0  0  0  0  0  0  0  0  0  0  0  0
  136.8812  136.7520  163.7843 H   0  0  0  0  0  0  0  0  0  0  0  0
  1  2  1  0
  2 25  2  0
  2  3  1  0
  3  4  1  0
  3 22  2  0
  4 21  1  0
  4  5  2  0
  5  6  1  0
  5 39  1  0
  6  7  1  0
  6 40  1  0
  6 41  1  0
  7  8  1  6
  7  9  1  0
  7 20  1  0
  9 10  1  0
  9 42  1  0
  9 43  1  0
 10 19  1  0
 10 11  2  0
 11 12  1  0
 11 44  1  0
 12 13  2  0
 12 45  1  0
 13 14  1  0
 13 46  1  0
 14 19  2  0
 14 15  1  0
 15 16  2  0
 15 47  1  0
 16 17  1  0
 16 48  1  0
 17 18  2  0
 17 49  1  0
 18 19  1  0
 20 21  1  0
 20 50  1  0
 20 51  1  0
 21 52  1  0
 21 53  1  0
 22 23  1  0
 22 54  1  0
 23 24  2  0
 23 55  1  0
 24 25  1  0
 24 56  1  0
 25 26  1  0
 26 27  1  0
 26 33  1  0
 27 32  1  0
 27 28  2  0
 28 29  1  0
 28 57  1  0
 29 30  2  0
 29 58  1  0
 30 31  1  0
 30 59  1  0
 31 32  2  0
 31 60  1  0
 32 61  1  0
 33 38  1  0
 33 34  2  0
 34 35  1  0
 34 62  1  0
 35 36  2  0
 35 63  1  0
 36 37  1  0
 36 64  1  0
 37 38  2  0
 37 65  1  0
 38 66  1  0
M  CHG  1   7   1
M  END
>  <DOCK_score>  (1) 
-56.181976

>  <SMILES>  (1) 
Fc1c(C2=CC[N@H+](Cc3cccc4cccnc34)CC2)cccc1N(c1ccccc1)c1ccccc1

$$$$
