Oc1ccc(-c2c[nH]c(Nc3cccc(O)c3)[nH+]2)cc1
     RDKit          3D

 34 36  0  0  1  0  0  0  0  0999 V2000
  131.4013  129.8159  151.9881 O   0  0  0  0  0  0  0  0  0  0  0  0
  131.0875  130.4692  153.1378 C   0  0  0  0  0  0  0  0  0  0  0  0
  130.3911  131.6686  153.0848 C   0  0  0  0  0  0  0  0  0  0  0  0
  130.0664  132.3313  154.2501 C   0  0  0  0  0  0  0  0  0  0  0  0
  130.4431  131.7979  155.4816 C   0  0  0  0  0  0  0  0  0  0  0  0
  130.0959  132.5083  156.7369 C   0  0  0  0  0  0  0  0  0  0  0  0
  129.3399  132.0161  157.7495 C   0  0  0  0  0  0  0  0  0  0  0  0
  129.2705  132.9977  158.7086 N   0  0  0  0  0  0  0  0  0  0  0  0
  128.7982  132.9425  159.5541 H   0  0  0  0  0  0  0  0  0  0  0  0
  129.9869  134.0614  158.2532 C   0  0  0  0  0  0  0  0  0  0  0  0
  130.1670  135.2599  158.9243 N   0  0  0  0  0  0  0  0  0  0  0  0
  129.1792  135.7287  159.7949 C   0  0  0  0  0  0  0  0  0  0  0  0
  129.5298  136.5117  160.8882 C   0  0  0  0  0  0  0  0  0  0  0  0
  128.5535  136.9751  161.7482 C   0  0  0  0  0  0  0  0  0  0  0  0
  127.2260  136.6617  161.5242 C   0  0  0  0  0  0  0  0  0  0  0  0
  126.8699  135.8798  160.4344 C   0  0  0  0  0  0  0  0  0  0  0  0
  125.5644  135.5727  160.2157 O   0  0  0  0  0  0  0  0  0  0  0  0
  127.8461  135.4175  159.5657 C   0  0  0  0  0  0  0  0  0  0  0  0
  130.4832  133.7626  157.0772 N   0  0  0  0  0  0  0  0  0  0  0  0
  131.0368  134.3466  156.5356 H   0  0  0  0  0  0  0  0  0  0  0  0
  131.1469  130.5959  155.5311 C   0  0  0  0  0  0  0  0  0  0  0  0
  131.4686  129.9380  154.3623 C   0  0  0  0  0  0  0  0  0  0  0  0
  131.0948  130.2614  151.1863 H   0  0  0  0  0  0  0  0  0  0  0  0
  130.0991  132.0812  152.1304 H   0  0  0  0  0  0  0  0  0  0  0  0
  129.5206  133.2623  154.2086 H   0  0  0  0  0  0  0  0  0  0  0  0
  128.8804  131.0398  157.7935 H   0  0  0  0  0  0  0  0  0  0  0  0
  130.9785  135.7739  158.7899 H   0  0  0  0  0  0  0  0  0  0  0  0
  130.5663  136.7583  161.0653 H   0  0  0  0  0  0  0  0  0  0  0  0
  128.8277  137.5838  162.5972 H   0  0  0  0  0  0  0  0  0  0  0  0
  126.4649  137.0256  162.1984 H   0  0  0  0  0  0  0  0  0  0  0  0
  124.9579  135.9431  160.8715 H   0  0  0  0  0  0  0  0  0  0  0  0
  127.5704  134.8132  158.7140 H   0  0  0  0  0  0  0  0  0  0  0  0
  131.4405  130.1803  156.4838 H   0  0  0  0  0  0  0  0  0  0  0  0
  132.0139  129.0065  154.4000 H   0  0  0  0  0  0  0  0  0  0  0  0
  1  2  1  0
  1 23  1  0
  2 22  2  0
  2  3  1  0
  3  4  2  0
  3 24  1  0
  4  5  1  0
  4 25  1  0
  5  6  1  0
  5 21  2  0
  6 19  1  0
  6  7  2  0
  7  8  1  0
  7 26  1  0
  8  9  1  0
  8 10  1  0
 10 11  1  0
 10 19  2  0
 11 12  1  0
 11 27  1  0
 12 18  1  0
 12 13  2  0
 13 14  1  0
 13 28  1  0
 14 15  2  0
 14 29  1  0
 15 16  1  0
 15 30  1  0
 16 17  1  0
 16 18  2  0
 17 31  1  0
 18 32  1  0
 19 20  1  0
 21 22  1  0
 21 33  1  0
 22 34  1  0
M  CHG  1  19   1
M  END
>  <DOCK_score>  (1) 
-48.459389

>  <SMILES>  (1) 
Oc1ccc(-c2c[nH]c(Nc3cccc(O)c3)[nH+]2)cc1

$$$$
