Nc1ccc2c(c1)C[C@@H](NC(N[C@H]1CCC(=O)NC1)=[NH+]C1COc3cc(Cl)ccc3C1)C2
     RDKit          3D

 61 65  0  0  1  0  0  0  0  0999 V2000
  134.9332  141.9965  161.4337 N   0  0  0  0  0  0  0  0  0  0  0  0
  134.6773  140.6332  161.2698 C   0  0  0  0  0  0  0  0  0  0  0  0
  135.7225  139.7188  161.3043 C   0  0  0  0  0  0  0  0  0  0  0  0
  135.4638  138.3734  161.1417 C   0  0  0  0  0  0  0  0  0  0  0  0
  134.1661  137.9296  160.9432 C   0  0  0  0  0  0  0  0  0  0  0  0
  133.1235  138.8373  160.9084 C   0  0  0  0  0  0  0  0  0  0  0  0
  133.3780  140.1877  161.0714 C   0  0  0  0  0  0  0  0  0  0  0  0
  131.8128  138.1072  160.6846 C   0  0  0  0  0  0  0  0  0  0  0  0
  132.1154  136.6308  161.0172 C   0  0  1  0  0  0  0  0  0  0  0  0
  131.8965  136.4165  162.0635 H   0  0  0  0  0  0  0  0  0  0  0  0
  131.3639  135.7337  160.1361 N   0  0  0  0  0  0  0  0  0  0  0  0
  130.1100  135.3034  160.5007 C   0  0  0  0  0  0  0  0  0  0  0  0
  129.5615  135.7149  161.6923 N   0  0  0  0  0  0  0  0  0  0  0  0
  128.2254  135.2563  162.0807 C   0  0  1  0  0  0  0  0  0  0  0  0
  128.0414  134.2678  161.6597 H   0  0  0  0  0  0  0  0  0  0  0  0
  128.1244  135.1913  163.6094 C   0  0  0  0  0  0  0  0  0  0  0  0
  126.7906  134.5374  163.9788 C   0  0  0  0  0  0  0  0  0  0  0  0
  125.6744  135.1894  163.2141 C   0  0  0  0  0  0  0  0  0  0  0  0
  124.5390  135.0335  163.6109 O   0  0  0  0  0  0  0  0  0  0  0  0
  125.8647  135.9261  162.1190 N   0  0  0  0  0  0  0  0  0  0  0  0
  127.1747  136.2388  161.5620 C   0  0  0  0  0  0  0  0  0  0  0  0
  129.4415  134.5052  159.7166 N   0  0  0  0  0  0  0  0  0  0  0  0
  128.4720  134.5345  159.7071 H   0  0  0  0  0  0  0  0  0  0  0  0
  130.1544  133.5639  158.8494 C   0  0  1  0  0  0  0  0  0  0  0  0
  129.7197  132.1293  159.1756 C   0  0  0  0  0  0  0  0  0  0  0  0
  130.5044  131.2312  158.3898 O   0  0  0  0  0  0  0  0  0  0  0  0
  130.6118  131.4797  157.0586 C   0  0  0  0  0  0  0  0  0  0  0  0
  131.0523  130.4559  156.2258 C   0  0  0  0  0  0  0  0  0  0  0  0
  131.1773  130.6705  154.8676 C   0  0  0  0  0  0  0  0  0  0  0  0
  131.7262  129.3894  153.8324 Cl  0  0  0  0  0  0  0  0  0  0  0  0
  130.8651  131.9080  154.3322 C   0  0  0  0  0  0  0  0  0  0  0  0
  130.4269  132.9254  155.1566 C   0  0  0  0  0  0  0  0  0  0  0  0
  130.2972  132.7148  156.5194 C   0  0  0  0  0  0  0  0  0  0  0  0
  129.8110  133.8496  157.3852 C   0  0  0  0  0  0  0  0  0  0  0  0
  133.6306  136.5279  160.7418 C   0  0  0  0  0  0  0  0  0  0  0  0
  134.2021  142.6336  161.4091 H   0  0  0  0  0  0  0  0  0  0  0  0
  135.8418  142.3061  161.5724 H   0  0  0  0  0  0  0  0  0  0  0  0
  136.7354  140.0602  161.4587 H   0  0  0  0  0  0  0  0  0  0  0  0
  136.2765  137.6626  161.1689 H   0  0  0  0  0  0  0  0  0  0  0  0
  132.5637  140.8965  161.0437 H   0  0  0  0  0  0  0  0  0  0  0  0
  131.4995  138.2040  159.6451 H   0  0  0  0  0  0  0  0  0  0  0  0
  131.0417  138.4946  161.3506 H   0  0  0  0  0  0  0  0  0  0  0  0
  131.7508  135.4434  159.2953 H   0  0  0  0  0  0  0  0  0  0  0  0
  130.0591  136.3089  162.2758 H   0  0  0  0  0  0  0  0  0  0  0  0
  128.9471  134.5968  164.0066 H   0  0  0  0  0  0  0  0  0  0  0  0
  128.1660  136.1989  164.0232 H   0  0  0  0  0  0  0  0  0  0  0  0
  126.8287  133.4753  163.7360 H   0  0  0  0  0  0  0  0  0  0  0  0
  126.6123  134.6571  165.0475 H   0  0  0  0  0  0  0  0  0  0  0  0
  125.0825  136.2792  161.6671 H   0  0  0  0  0  0  0  0  0  0  0  0
  127.1283  136.1757  160.4747 H   0  0  0  0  0  0  0  0  0  0  0  0
  127.4576  137.2506  161.8523 H   0  0  0  0  0  0  0  0  0  0  0  0
  131.2289  133.6658  159.0015 H   0  0  0  0  0  0  0  0  0  0  0  0
  129.8819  131.9283  160.2345 H   0  0  0  0  0  0  0  0  0  0  0  0
  128.6642  132.0019  158.9352 H   0  0  0  0  0  0  0  0  0  0  0  0
  131.2968  129.4902  156.6431 H   0  0  0  0  0  0  0  0  0  0  0  0
  130.9643  132.0780  153.2702 H   0  0  0  0  0  0  0  0  0  0  0  0
  130.1838  133.8903  154.7365 H   0  0  0  0  0  0  0  0  0  0  0  0
  128.7308  133.9493  157.2788 H   0  0  0  0  0  0  0  0  0  0  0  0
  130.2927  134.7765  157.0739 H   0  0  0  0  0  0  0  0  0  0  0  0
  134.0973  135.8398  161.4466 H   0  0  0  0  0  0  0  0  0  0  0  0
  133.8073  136.1991  159.7177 H   0  0  0  0  0  0  0  0  0  0  0  0
  1  2  1  0
  1 36  1  0
  1 37  1  0
  2  7  2  0
  2  3  1  0
  3  4  2  0
  3 38  1  0
  4  5  1  0
  4 39  1  0
  5 35  1  0
  5  6  2  0
  6  7  1  0
  6  8  1  0
  7 40  1  0
  8  9  1  0
  8 41  1  0
  8 42  1  0
  9 10  1  1
  9 11  1  0
  9 35  1  0
 11 43  1  0
 12 11  1  0
 12 13  1  0
 12 22  2  0
 13 14  1  0
 13 44  1  0
 14 15  1  6
 14 21  1  0
 14 16  1  0
 16 17  1  0
 16 45  1  0
 16 46  1  0
 17 18  1  0
 17 47  1  0
 17 48  1  0
 18 19  2  0
 18 20  1  0
 20 21  1  0
 20 49  1  0
 21 50  1  0
 21 51  1  0
 22 23  1  0
 22 24  1  0
 24 34  1  0
 24 25  1  0
 24 52  1  6
 25 26  1  0
 25 53  1  0
 25 54  1  0
 26 27  1  0
 27 33  2  0
 27 28  1  0
 28 29  2  0
 28 55  1  0
 29 30  1  0
 29 31  1  0
 31 32  2  0
 31 56  1  0
 32 33  1  0
 32 57  1  0
 33 34  1  0
 34 58  1  0
 34 59  1  0
 35 60  1  0
 35 61  1  0
M  CHG  1  22   1
M  END
>  <DOCK_score>  (1) 
-49.220333

>  <SMILES>  (1) 
Nc1ccc2c(c1)C[C@@H](NC(N[C@H]1CCC(=O)NC1)=[NH+]C1COc3cc(Cl)ccc3C1)C2

$$$$
