C[C@H]([NH+]=C(NCC1CC(Cc2ccccc2)C1)NC1CC=CC1)c1ccccc1C1CCCCC1
     RDKit          3D

 79 83  0  0  1  0  0  0  0  0999 V2000
  129.4819  134.5639  157.7718 C   0  0  0  0  0  0  0  0  0  0  0  0
  129.8876  134.3823  159.2358 C   0  0  2  0  0  0  0  0  0  0  0  0
  129.0400  134.6175  159.8797 H   0  0  0  0  0  0  0  0  0  0  0  0
  131.0023  135.2798  159.5486 N   0  0  0  0  0  0  0  0  0  0  0  0
  131.3613  135.8648  158.8630 H   0  0  0  0  0  0  0  0  0  0  0  0
  131.5120  135.2926  160.7483 C   0  0  0  0  0  0  0  0  0  0  0  0
  132.5582  136.1348  161.0417 N   0  0  0  0  0  0  0  0  0  0  0  0
  133.1002  137.0180  160.0060 C   0  0  0  0  0  0  0  0  0  0  0  0
  134.2483  137.8438  160.5898 C   0  0  2  0  0  0  0  0  0  0  0  0
  133.8176  138.7729  161.7371 C   0  0  0  0  0  0  0  0  0  0  0  0
  134.7620  139.8268  161.1309 C   0  0  1  0  0  0  0  0  0  0  0  0
  136.1937  139.7463  161.6646 C   0  0  0  0  0  0  0  0  0  0  0  0
  136.2247  140.2240  163.0936 C   0  0  0  0  0  0  0  0  0  0  0  0
  136.4483  141.5596  163.3711 C   0  0  0  0  0  0  0  0  0  0  0  0
  136.4720  141.9985  164.6817 C   0  0  0  0  0  0  0  0  0  0  0  0
  136.2821  141.1003  165.7150 C   0  0  0  0  0  0  0  0  0  0  0  0
  136.0641  139.7638  165.4377 C   0  0  0  0  0  0  0  0  0  0  0  0
  136.0352  139.3255  164.1269 C   0  0  0  0  0  0  0  0  0  0  0  0
  134.5663  139.1136  159.7826 C   0  0  0  0  0  0  0  0  0  0  0  0
  131.0034  134.4635  161.7199 N   0  0  0  0  0  0  0  0  0  0  0  0
  131.0516  134.8687  163.1270 C   0  0  0  0  0  0  0  0  0  0  0  0
  130.2530  133.8863  164.0150 C   0  0  0  0  0  0  0  0  0  0  0  0
  129.5963  134.7594  165.0590 C   0  0  0  0  0  0  0  0  0  0  0  0
  129.6077  136.0135  164.6976 C   0  0  0  0  0  0  0  0  0  0  0  0
  130.2739  136.1861  163.3524 C   0  0  0  0  0  0  0  0  0  0  0  0
  130.3122  132.9547  159.4660 C   0  0  0  0  0  0  0  0  0  0  0  0
  131.6350  132.5908  159.2951 C   0  0  0  0  0  0  0  0  0  0  0  0
  132.0252  131.2825  159.5109 C   0  0  0  0  0  0  0  0  0  0  0  0
  131.0909  130.3358  159.8875 C   0  0  0  0  0  0  0  0  0  0  0  0
  129.7675  130.6985  160.0533 C   0  0  0  0  0  0  0  0  0  0  0  0
  129.3782  132.0081  159.8425 C   0  0  0  0  0  0  0  0  0  0  0  0
  127.9352  132.4035  160.0229 C   0  0  0  0  0  0  0  0  0  0  0  0
  127.7023  132.8371  161.4715 C   0  0  0  0  0  0  0  0  0  0  0  0
  126.2373  133.2385  161.6545 C   0  0  0  0  0  0  0  0  0  0  0  0
  125.3369  132.0451  161.3285 C   0  0  0  0  0  0  0  0  0  0  0  0
  125.5697  131.6115  159.8798 C   0  0  0  0  0  0  0  0  0  0  0  0
  127.0349  131.2101  159.6967 C   0  0  0  0  0  0  0  0  0  0  0  0
  129.1748  135.5964  157.6053 H   0  0  0  0  0  0  0  0  0  0  0  0
  130.3294  134.3285  157.1280 H   0  0  0  0  0  0  0  0  0  0  0  0
  128.6524  133.8962  157.5392 H   0  0  0  0  0  0  0  0  0  0  0  0
  132.9376  136.1443  161.9344 H   0  0  0  0  0  0  0  0  0  0  0  0
  133.4702  136.4184  159.1744 H   0  0  0  0  0  0  0  0  0  0  0  0
  132.3156  137.6863  159.6515 H   0  0  0  0  0  0  0  0  0  0  0  0
  135.1272  137.2424  160.8215 H   0  0  0  0  0  0  0  0  0  0  0  0
  132.7656  139.0556  161.6986 H   0  0  0  0  0  0  0  0  0  0  0  0
  134.1271  138.4229  162.7219 H   0  0  0  0  0  0  0  0  0  0  0  0
  134.3589  140.8393  161.1518 H   0  0  0  0  0  0  0  0  0  0  0  0
  136.5409  138.7140  161.6190 H   0  0  0  0  0  0  0  0  0  0  0  0
  136.8439  140.3754  161.0569 H   0  0  0  0  0  0  0  0  0  0  0  0
  136.6008  142.2607  162.5638 H   0  0  0  0  0  0  0  0  0  0  0  0
  136.6426  143.0428  164.8984 H   0  0  0  0  0  0  0  0  0  0  0  0
  136.3042  141.4426  166.7391 H   0  0  0  0  0  0  0  0  0  0  0  0
  135.9160  139.0618  166.2451 H   0  0  0  0  0  0  0  0  0  0  0  0
  135.8650  138.2813  163.9102 H   0  0  0  0  0  0  0  0  0  0  0  0
  135.4791  139.0383  159.1918 H   0  0  0  0  0  0  0  0  0  0  0  0
  133.7193  139.4896  159.2087 H   0  0  0  0  0  0  0  0  0  0  0  0
  130.6089  133.6124  161.4734 H   0  0  0  0  0  0  0  0  0  0  0  0
  132.0819  134.9586  163.4709 H   0  0  0  0  0  0  0  0  0  0  0  0
  129.4980  133.3681  163.4239 H   0  0  0  0  0  0  0  0  0  0  0  0
  130.9246  133.1695  164.4874 H   0  0  0  0  0  0  0  0  0  0  0  0
  129.1733  134.3936  165.9829 H   0  0  0  0  0  0  0  0  0  0  0  0
  129.1954  136.8219  165.2833 H   0  0  0  0  0  0  0  0  0  0  0  0
  130.9599  137.0329  163.3742 H   0  0  0  0  0  0  0  0  0  0  0  0
  129.5264  136.3241  162.5714 H   0  0  0  0  0  0  0  0  0  0  0  0
  132.3641  133.3295  158.9965 H   0  0  0  0  0  0  0  0  0  0  0  0
  133.0592  130.9991  159.3810 H   0  0  0  0  0  0  0  0  0  0  0  0
  131.3951  129.3124  160.0518 H   0  0  0  0  0  0  0  0  0  0  0  0
  129.0376  129.9586  160.3472 H   0  0  0  0  0  0  0  0  0  0  0  0
  127.6987  133.2306  159.3535 H   0  0  0  0  0  0  0  0  0  0  0  0
  127.9388  132.0101  162.1408 H   0  0  0  0  0  0  0  0  0  0  0  0
  128.3437  133.6873  161.7038 H   0  0  0  0  0  0  0  0  0  0  0  0
  126.0009  134.0656  160.9852 H   0  0  0  0  0  0  0  0  0  0  0  0
  126.0714  133.5475  162.6866 H   0  0  0  0  0  0  0  0  0  0  0  0
  124.2933  132.3312  161.4588 H   0  0  0  0  0  0  0  0  0  0  0  0
  125.5735  131.2180  161.9978 H   0  0  0  0  0  0  0  0  0  0  0  0
  125.3333  132.4387  159.2104 H   0  0  0  0  0  0  0  0  0  0  0  0
  124.9285  130.7614  159.6475 H   0  0  0  0  0  0  0  0  0  0  0  0
  127.2007  130.9011  158.6647 H   0  0  0  0  0  0  0  0  0  0  0  0
  127.2713  130.3830  160.3661 H   0  0  0  0  0  0  0  0  0  0  0  0
  1  2  1  0
  1 38  1  0
  1 39  1  0
  1 40  1  0
  2  3  1  1
  2  4  1  0
  2 26  1  0
  4  5  1  0
  6  4  2  0
  6  7  1  0
  6 20  1  0
  7  8  1  0
  7 41  1  0
  8  9  1  0
  8 42  1  0
  8 43  1  0
  9 19  1  0
  9 10  1  0
  9 44  1  1
 10 11  1  0
 10 45  1  0
 10 46  1  0
 11 12  1  0
 11 19  1  0
 11 47  1  6
 12 13  1  0
 12 48  1  0
 12 49  1  0
 13 18  1  0
 13 14  2  0
 14 15  1  0
 14 50  1  0
 15 16  2  0
 15 51  1  0
 16 17  1  0
 16 52  1  0
 17 18  2  0
 17 53  1  0
 18 54  1  0
 19 55  1  0
 19 56  1  0
 20 21  1  0
 20 57  1  0
 21 25  1  0
 21 22  1  0
 21 58  1  0
 22 23  1  0
 22 59  1  0
 22 60  1  0
 23 24  2  0
 23 61  1  0
 24 25  1  0
 24 62  1  0
 25 63  1  0
 25 64  1  0
 26 31  1  0
 26 27  2  0
 27 28  1  0
 27 65  1  0
 28 29  2  0
 28 66  1  0
 29 30  1  0
 29 67  1  0
 30 31  2  0
 30 68  1  0
 31 32  1  0
 32 37  1  0
 32 33  1  0
 32 69  1  0
 33 34  1  0
 33 70  1  0
 33 71  1  0
 34 35  1  0
 34 72  1  0
 34 73  1  0
 35 36  1  0
 35 74  1  0
 35 75  1  0
 36 37  1  0
 36 76  1  0
 36 77  1  0
 37 78  1  0
 37 79  1  0
M  CHG  1   4   1
M  END
>  <DOCK_score>  (1) 
-57.093891

>  <SMILES>  (1) 
C[C@H]([NH+]=C(NCC1CC(Cc2ccccc2)C1)NC1CC=CC1)c1ccccc1C1CCCCC1

$$$$
