CCc1ccc(-c2c[nH]c(Nc3ccc(C)c(O)c3)[nH+]2)cc1
     RDKit          3D

 42 44  0  0  1  0  0  0  0  0999 V2000
  130.2816  128.5595  151.7121 C   0  0  0  0  0  0  0  0  0  0  0  0
  131.4436  129.4957  152.0494 C   0  0  0  0  0  0  0  0  0  0  0  0
  131.1060  130.2915  153.2839 C   0  0  0  0  0  0  0  0  0  0  0  0
  131.4423  129.8005  154.5327 C   0  0  0  0  0  0  0  0  0  0  0  0
  131.1408  130.5271  155.6666 C   0  0  0  0  0  0  0  0  0  0  0  0
  130.4862  131.7521  155.5525 C   0  0  0  0  0  0  0  0  0  0  0  0
  130.1544  132.5350  156.7681 C   0  0  0  0  0  0  0  0  0  0  0  0
  129.3689  132.1220  157.7937 C   0  0  0  0  0  0  0  0  0  0  0  0
  129.3285  133.1497  158.7036 N   0  0  0  0  0  0  0  0  0  0  0  0
  128.8452  133.1538  159.5446 H   0  0  0  0  0  0  0  0  0  0  0  0
  130.0912  134.1619  158.2072 C   0  0  0  0  0  0  0  0  0  0  0  0
  130.3118  135.3831  158.8233 N   0  0  0  0  0  0  0  0  0  0  0  0
  129.7268  135.6562  160.0628 C   0  0  0  0  0  0  0  0  0  0  0  0
  130.5271  135.9483  161.1608 C   0  0  0  0  0  0  0  0  0  0  0  0
  129.9487  136.2186  162.3856 C   0  0  0  0  0  0  0  0  0  0  0  0
  128.5735  136.1989  162.5228 C   0  0  0  0  0  0  0  0  0  0  0  0
  127.9467  136.4946  163.8609 C   0  0  0  0  0  0  0  0  0  0  0  0
  127.7692  135.9080  161.4299 C   0  0  0  0  0  0  0  0  0  0  0  0
  126.4173  135.8896  161.5665 O   0  0  0  0  0  0  0  0  0  0  0  0
  128.3455  135.6418  160.1976 C   0  0  0  0  0  0  0  0  0  0  0  0
  130.5877  133.7883  157.0531 N   0  0  0  0  0  0  0  0  0  0  0  0
  131.1700  134.3234  156.4915 H   0  0  0  0  0  0  0  0  0  0  0  0
  130.1447  132.2391  154.2920 C   0  0  0  0  0  0  0  0  0  0  0  0
  130.4562  131.5067  153.1646 C   0  0  0  0  0  0  0  0  0  0  0  0
  129.3817  129.1474  151.5311 H   0  0  0  0  0  0  0  0  0  0  0  0
  130.5257  127.9844  150.8191 H   0  0  0  0  0  0  0  0  0  0  0  0
  130.1095  127.8795  152.5466 H   0  0  0  0  0  0  0  0  0  0  0  0
  132.3434  128.9084  152.2301 H   0  0  0  0  0  0  0  0  0  0  0  0
  131.6156  130.1763  151.2147 H   0  0  0  0  0  0  0  0  0  0  0  0
  131.9456  128.8490  154.6201 H   0  0  0  0  0  0  0  0  0  0  0  0
  131.4078  130.1449  156.6409 H   0  0  0  0  0  0  0  0  0  0  0  0
  128.8703  131.1678  157.8784 H   0  0  0  0  0  0  0  0  0  0  0  0
  130.8724  136.0484  158.3943 H   0  0  0  0  0  0  0  0  0  0  0  0
  131.6019  135.9643  161.0562 H   0  0  0  0  0  0  0  0  0  0  0  0
  130.5723  136.4462  163.2375 H   0  0  0  0  0  0  0  0  0  0  0  0
  127.7575  137.5647  163.9452 H   0  0  0  0  0  0  0  0  0  0  0  0
  127.0059  135.9511  163.9494 H   0  0  0  0  0  0  0  0  0  0  0  0
  128.6232  136.1815  164.6561 H   0  0  0  0  0  0  0  0  0  0  0  0
  125.9425  135.6773  160.7514 H   0  0  0  0  0  0  0  0  0  0  0  0
  127.7209  135.4194  159.3451 H   0  0  0  0  0  0  0  0  0  0  0  0
  129.6370  133.1877  154.1979 H   0  0  0  0  0  0  0  0  0  0  0  0
  130.1923  131.8833  152.1874 H   0  0  0  0  0  0  0  0  0  0  0  0
  1  2  1  0
  1 25  1  0
  1 26  1  0
  1 27  1  0
  2  3  1  0
  2 28  1  0
  2 29  1  0
  3 24  2  0
  3  4  1  0
  4  5  2  0
  4 30  1  0
  5  6  1  0
  5 31  1  0
  6  7  1  0
  6 23  2  0
  7 21  1  0
  7  8  2  0
  8  9  1  0
  8 32  1  0
  9 10  1  0
  9 11  1  0
 11 12  1  0
 11 21  2  0
 12 13  1  0
 12 33  1  0
 13 20  1  0
 13 14  2  0
 14 15  1  0
 14 34  1  0
 15 16  2  0
 15 35  1  0
 16 17  1  0
 16 18  1  0
 17 36  1  0
 17 37  1  0
 17 38  1  0
 18 19  1  0
 18 20  2  0
 19 39  1  0
 20 40  1  0
 21 22  1  0
 23 24  1  0
 23 41  1  0
 24 42  1  0
M  CHG  1  21   1
M  END
>  <DOCK_score>  (1) 
-50.020947

>  <SMILES>  (1) 
CCc1ccc(-c2c[nH]c(Nc3ccc(C)c(O)c3)[nH+]2)cc1

$$$$
