O=C1CC[C@H](NC(N[C@H]2[C@@H]3CC=CC[C@@H]32)=[NH+][C@@H]2C=C[C@@H](O)[C@H]2O)CN1
     RDKit          3D

 52 55  0  0  1  0  0  0  0  0999 V2000
  133.9678  138.8844  160.4157 O   0  0  0  0  0  0  0  0  0  0  0  0
  132.9015  138.3081  160.3760 C   0  0  0  0  0  0  0  0  0  0  0  0
  131.6562  139.1288  160.2002 C   0  0  0  0  0  0  0  0  0  0  0  0
  130.4297  138.3076  160.6055 C   0  0  0  0  0  0  0  0  0  0  0  0
  130.5119  136.9406  159.9156 C   0  0  2  0  0  0  0  0  0  0  0  0
  130.6638  137.0771  158.8449 H   0  0  0  0  0  0  0  0  0  0  0  0
  129.2695  136.1987  160.1451 N   0  0  0  0  0  0  0  0  0  0  0  0
  129.1139  134.9386  159.6178 C   0  0  0  0  0  0  0  0  0  0  0  0
  129.7462  134.6015  158.4444 N   0  0  0  0  0  0  0  0  0  0  0  0
  129.5804  133.2588  157.8825 C   0  0  1  0  0  0  0  0  0  0  0  0
  128.5569  132.9758  157.6362 H   0  0  0  0  0  0  0  0  0  0  0  0
  130.6956  132.7297  156.9786 C   0  0  2  0  0  0  0  0  0  0  0  0
  131.5540  133.3739  156.7887 H   0  0  0  0  0  0  0  0  0  0  0  0
  130.2803  131.8026  155.8250 C   0  0  0  0  0  0  0  0  0  0  0  0
  130.7457  130.4030  156.1434 C   0  0  0  0  0  0  0  0  0  0  0  0
  130.5770  129.9040  157.3426 C   0  0  0  0  0  0  0  0  0  0  0  0
  129.9150  130.7216  158.4246 C   0  0  0  0  0  0  0  0  0  0  0  0
  130.5122  132.1593  158.3959 C   0  0  2  0  0  0  0  0  0  0  0  0
  131.2476  132.4209  159.1567 H   0  0  0  0  0  0  0  0  0  0  0  0
  128.3669  134.0635  160.2303 N   0  0  0  0  0  0  0  0  0  0  0  0
  128.2572  133.1744  159.8582 H   0  0  0  0  0  0  0  0  0  0  0  0
  127.6934  134.4226  161.4808 C   0  0  2  0  0  0  0  0  0  0  0  0
  128.2760  135.1658  162.0251 H   0  0  0  0  0  0  0  0  0  0  0  0
  127.4754  133.1940  162.3330 C   0  0  0  0  0  0  0  0  0  0  0  0
  126.2375  132.7862  162.2616 C   0  0  0  0  0  0  0  0  0  0  0  0
  125.4235  133.6749  161.3500 C   0  0  1  0  0  0  0  0  0  0  0  0
  125.2779  133.1946  160.3825 H   0  0  0  0  0  0  0  0  0  0  0  0
  124.1632  133.9817  161.9494 O   0  0  0  0  0  0  0  0  0  0  0  0
  126.2717  134.9581  161.1923 C   0  0  1  0  0  0  0  0  0  0  0  0
  126.2005  135.3528  160.1787 H   0  0  0  0  0  0  0  0  0  0  0  0
  125.8911  135.9459  162.1521 O   0  0  0  0  0  0  0  0  0  0  0  0
  131.6895  136.1641  160.5061 C   0  0  0  0  0  0  0  0  0  0  0  0
  132.8976  136.9794  160.4901 N   0  0  0  0  0  0  0  0  0  0  0  0
  131.7183  140.0195  160.8254 H   0  0  0  0  0  0  0  0  0  0  0  0
  131.5633  139.4268  159.1559 H   0  0  0  0  0  0  0  0  0  0  0  0
  129.5224  138.8233  160.2911 H   0  0  0  0  0  0  0  0  0  0  0  0
  130.4198  138.1729  161.6871 H   0  0  0  0  0  0  0  0  0  0  0  0
  128.5568  136.5966  160.6690 H   0  0  0  0  0  0  0  0  0  0  0  0
  130.3053  135.2515  157.9906 H   0  0  0  0  0  0  0  0  0  0  0  0
  129.1955  131.8127  155.7197 H   0  0  0  0  0  0  0  0  0  0  0  0
  130.7413  132.1429  154.8978 H   0  0  0  0  0  0  0  0  0  0  0  0
  131.2215  129.8087  155.3772 H   0  0  0  0  0  0  0  0  0  0  0  0
  130.9142  128.9011  157.5587 H   0  0  0  0  0  0  0  0  0  0  0  0
  128.8403  130.7617  158.2473 H   0  0  0  0  0  0  0  0  0  0  0  0
  130.1090  130.2681  159.3966 H   0  0  0  0  0  0  0  0  0  0  0  0
  128.2431  132.7158  162.9232 H   0  0  0  0  0  0  0  0  0  0  0  0
  125.8464  131.9263  162.7852 H   0  0  0  0  0  0  0  0  0  0  0  0
  124.2318  134.3782  162.8286 H   0  0  0  0  0  0  0  0  0  0  0  0
  125.0067  136.3107  162.0115 H   0  0  0  0  0  0  0  0  0  0  0  0
  131.4575  135.8840  161.5336 H   0  0  0  0  0  0  0  0  0  0  0  0
  131.8565  135.2612  159.9188 H   0  0  0  0  0  0  0  0  0  0  0  0
  133.7522  136.5273  160.5676 H   0  0  0  0  0  0  0  0  0  0  0  0
  1  2  2  0
  2 33  1  0
  2  3  1  0
  3  4  1  0
  3 34  1  0
  3 35  1  0
  4  5  1  0
  4 36  1  0
  4 37  1  0
  5  6  1  6
  5  7  1  0
  5 32  1  0
  7 38  1  0
  8  7  1  0
  8  9  1  0
  8 20  2  0
  9 10  1  0
  9 39  1  0
 10 11  1  6
 10 18  1  0
 10 12  1  0
 12 13  1  6
 12 18  1  0
 12 14  1  0
 14 15  1  0
 14 40  1  0
 14 41  1  0
 15 16  2  0
 15 42  1  0
 16 17  1  0
 16 43  1  0
 17 18  1  0
 17 44  1  0
 17 45  1  0
 18 19  1  1
 20 21  1  0
 20 22  1  0
 22 23  1  1
 22 29  1  0
 22 24  1  0
 24 25  2  0
 24 46  1  0
 25 26  1  0
 25 47  1  0
 26 27  1  6
 26 28  1  0
 26 29  1  0
 28 48  1  0
 29 30  1  6
 29 31  1  0
 31 49  1  0
 32 33  1  0
 32 50  1  0
 32 51  1  0
 33 52  1  0
M  CHG  1  20   1
M  END
>  <DOCK_score>  (1) 
-44.77845

>  <SMILES>  (1) 
O=C1CC[C@H](NC(N[C@H]2[C@@H]3CC=CC[C@@H]32)=[NH+][C@@H]2C=C[C@@H](O)[C@H]2O)CN1

$$$$
