C=C[NH2+]C[C@@H]1C=CCCC12CC(CN(C(=O)C(F)F)c1ccc(-c3ccc(N)cc3)cc1)C2
     RDKit          3D

 65 68  0  0  1  0  0  0  0  0999 V2000
  130.8669  133.2353  152.9516 C   0  0  0  0  0  0  0  0  0  0  0  0
  130.4967  132.4575  153.9385 C   0  0  0  0  0  0  0  0  0  0  0  0
  130.9843  132.6855  155.2288 N   0  0  0  0  0  0  0  0  0  0  0  0
  131.6035  133.4821  155.2184 H   0  0  0  0  0  0  0  0  0  0  0  0
  131.4888  131.8714  155.5463 H   0  0  0  0  0  0  0  0  0  0  0  0
  129.8606  132.9505  156.1372 C   0  0  0  0  0  0  0  0  0  0  0  0
  130.3943  133.2000  157.5492 C   0  0  2  0  0  0  0  0  0  0  0  0
  131.0629  134.0607  157.5364 H   0  0  0  0  0  0  0  0  0  0  0  0
  131.1482  131.9884  158.0200 C   0  0  0  0  0  0  0  0  0  0  0  0
  130.6997  131.1514  158.8973 C   0  0  0  0  0  0  0  0  0  0  0  0
  129.3758  131.2595  159.5927 C   0  0  0  0  0  0  0  0  0  0  0  0
  128.4464  132.2071  158.8292 C   0  0  0  0  0  0  0  0  0  0  0  0
  129.2264  133.4785  158.4913 C   0  0  1  0  0  0  0  0  0  0  0  0
  129.6066  134.3118  159.7200 C   0  0  0  0  0  0  0  0  0  0  0  0
  128.2640  135.0410  159.5378 C   0  0  1  0  0  0  0  0  0  0  0  0
  128.3490  136.5498  159.7770 C   0  0  0  0  0  0  0  0  0  0  0  0
  128.8013  136.8022  161.1474 N   0  0  0  0  0  0  0  0  0  0  0  0
  127.9007  136.9229  162.1429 C   0  0  0  0  0  0  0  0  0  0  0  0
  126.7158  136.8225  161.9043 O   0  0  0  0  0  0  0  0  0  0  0  0
  128.3661  137.1825  163.5526 C   0  0  0  0  0  0  0  0  0  0  0  0
  127.3920  137.9170  164.2373 F   0  0  0  0  0  0  0  0  0  0  0  0
  128.5764  135.9637  164.2062 F   0  0  0  0  0  0  0  0  0  0  0  0
  130.1677  136.9179  161.4227 C   0  0  0  0  0  0  0  0  0  0  0  0
  130.7718  136.0429  162.3174 C   0  0  0  0  0  0  0  0  0  0  0  0
  132.1195  136.1519  162.5867 C   0  0  0  0  0  0  0  0  0  0  0  0
  132.8743  137.1479  161.9686 C   0  0  0  0  0  0  0  0  0  0  0  0
  134.3233  137.2706  162.2605 C   0  0  0  0  0  0  0  0  0  0  0  0
  134.9458  138.5162  162.1932 C   0  0  0  0  0  0  0  0  0  0  0  0
  136.2918  138.6289  162.4701 C   0  0  0  0  0  0  0  0  0  0  0  0
  137.0303  137.4998  162.8049 C   0  0  0  0  0  0  0  0  0  0  0  0
  138.3944  137.6153  163.0791 N   0  0  0  0  0  0  0  0  0  0  0  0
  136.4129  136.2560  162.8675 C   0  0  0  0  0  0  0  0  0  0  0  0
  135.0659  136.1397  162.5970 C   0  0  0  0  0  0  0  0  0  0  0  0
  132.2650  138.0280  161.0755 C   0  0  0  0  0  0  0  0  0  0  0  0
  130.9180  137.9116  160.8055 C   0  0  0  0  0  0  0  0  0  0  0  0
  128.3389  134.6477  158.0520 C   0  0  0  0  0  0  0  0  0  0  0  0
  130.4902  133.0593  151.9548 H   0  0  0  0  0  0  0  0  0  0  0  0
  131.5485  134.0527  153.1347 H   0  0  0  0  0  0  0  0  0  0  0  0
  129.8150  131.6402  153.7555 H   0  0  0  0  0  0  0  0  0  0  0  0
  129.1917  132.0899  156.1483 H   0  0  0  0  0  0  0  0  0  0  0  0
  129.3157  133.8299  155.7941 H   0  0  0  0  0  0  0  0  0  0  0  0
  132.1257  131.8051  157.5989 H   0  0  0  0  0  0  0  0  0  0  0  0
  131.3268  130.3089  159.1485 H   0  0  0  0  0  0  0  0  0  0  0  0
  129.5296  131.6412  160.6020 H   0  0  0  0  0  0  0  0  0  0  0  0
  128.9165  130.2727  159.6498 H   0  0  0  0  0  0  0  0  0  0  0  0
  127.5866  132.4578  159.4506 H   0  0  0  0  0  0  0  0  0  0  0  0
  128.1081  131.7284  157.9102 H   0  0  0  0  0  0  0  0  0  0  0  0
  129.6671  133.7310  160.6405 H   0  0  0  0  0  0  0  0  0  0  0  0
  130.4758  134.9506  159.5631 H   0  0  0  0  0  0  0  0  0  0  0  0
  127.4363  134.5740  160.0717 H   0  0  0  0  0  0  0  0  0  0  0  0
  129.0563  136.9898  159.0741 H   0  0  0  0  0  0  0  0  0  0  0  0
  127.3657  136.9969  159.6309 H   0  0  0  0  0  0  0  0  0  0  0  0
  129.2977  137.7479  163.5293 H   0  0  0  0  0  0  0  0  0  0  0  0
  130.1858  135.2741  162.7991 H   0  0  0  0  0  0  0  0  0  0  0  0
  132.5893  135.4692  163.2793 H   0  0  0  0  0  0  0  0  0  0  0  0
  134.3735  139.3929  161.9285 H   0  0  0  0  0  0  0  0  0  0  0  0
  136.7737  139.5942  162.4220 H   0  0  0  0  0  0  0  0  0  0  0  0
  138.9104  136.8280  163.3131 H   0  0  0  0  0  0  0  0  0  0  0  0
  138.8261  138.4829  163.0357 H   0  0  0  0  0  0  0  0  0  0  0  0
  136.9884  135.3802  163.1278 H   0  0  0  0  0  0  0  0  0  0  0  0
  134.5863  135.1733  162.6461 H   0  0  0  0  0  0  0  0  0  0  0  0
  132.8477  138.8005  160.5958 H   0  0  0  0  0  0  0  0  0  0  0  0
  130.4456  138.5929  160.1132 H   0  0  0  0  0  0  0  0  0  0  0  0
  128.8559  135.3798  157.4317 H   0  0  0  0  0  0  0  0  0  0  0  0
  127.3824  134.3366  157.6320 H   0  0  0  0  0  0  0  0  0  0  0  0
  1  2  2  0
  1 37  1  0
  1 38  1  0
  2  3  1  0
  2 39  1  0
  3  4  1  0
  3  5  1  0
  3  6  1  0
  6  7  1  0
  6 40  1  0
  6 41  1  0
  7  8  1  6
  7 13  1  0
  7  9  1  0
  9 10  2  0
  9 42  1  0
 10 11  1  0
 10 43  1  0
 11 12  1  0
 11 44  1  0
 11 45  1  0
 12 46  1  0
 12 47  1  0
 13 12  1  1
 13 36  1  0
 13 14  1  0
 14 15  1  0
 14 48  1  0
 14 49  1  0
 15 16  1  0
 15 36  1  0
 15 50  1  1
 16 17  1  0
 16 51  1  0
 16 52  1  0
 17 18  1  0
 17 23  1  0
 18 19  2  0
 18 20  1  0
 20 21  1  0
 20 22  1  0
 20 53  1  0
 23 35  1  0
 23 24  2  0
 24 25  1  0
 24 54  1  0
 25 26  2  0
 25 55  1  0
 26 27  1  0
 26 34  1  0
 27 33  1  0
 27 28  2  0
 28 29  1  0
 28 56  1  0
 29 30  2  0
 29 57  1  0
 30 31  1  0
 30 32  1  0
 31 58  1  0
 31 59  1  0
 32 33  2  0
 32 60  1  0
 33 61  1  0
 34 35  2  0
 34 62  1  0
 35 63  1  0
 36 64  1  0
 36 65  1  0
M  CHG  1   3   1
M  END
>  <DOCK_score>  (1) 
-44.711437

>  <SMILES>  (1) 
C=C[NH2+]C[C@@H]1C=CCCC12CC(CN(C(=O)C(F)F)c1ccc(-c3ccc(N)cc3)cc1)C2

$$$$
