CC=C[C@H](CC=CCc1ccc(C)cc1)Nc1[nH]cc(-c2ccc(N)cc2)[nH+]1
     RDKit          3D

 57 59  0  0  1  0  0  0  0  0999 V2000
  125.6727  135.0918  161.0526 C   0  0  0  0  0  0  0  0  0  0  0  0
  127.1585  134.8413  161.0283 C   0  0  0  0  0  0  0  0  0  0  0  0
  127.9473  135.6442  160.3583 C   0  0  0  0  0  0  0  0  0  0  0  0
  129.4331  135.3938  160.3339 C   0  0  2  0  0  0  0  0  0  0  0  0
  129.6619  134.5072  160.9254 H   0  0  0  0  0  0  0  0  0  0  0  0
  130.1640  136.6022  160.9226 C   0  0  0  0  0  0  0  0  0  0  0  0
  131.6498  136.3514  160.8981 C   0  0  0  0  0  0  0  0  0  0  0  0
  132.4385  137.1545  160.2279 C   0  0  0  0  0  0  0  0  0  0  0  0
  133.9243  136.9039  160.2034 C   0  0  0  0  0  0  0  0  0  0  0  0
  134.6441  138.0942  160.7833 C   0  0  0  0  0  0  0  0  0  0  0  0
  134.9094  138.1485  162.1388 C   0  0  0  0  0  0  0  0  0  0  0  0
  135.5744  139.2379  162.6698 C   0  0  0  0  0  0  0  0  0  0  0  0
  135.9640  140.2783  161.8471 C   0  0  0  0  0  0  0  0  0  0  0  0
  136.6835  141.4686  162.4269 C   0  0  0  0  0  0  0  0  0  0  0  0
  135.6941  140.2262  160.4923 C   0  0  0  0  0  0  0  0  0  0  0  0
  135.0341  139.1343  159.9604 C   0  0  0  0  0  0  0  0  0  0  0  0
  129.8703  135.1845  158.9513 N   0  0  0  0  0  0  0  0  0  0  0  0
  129.8804  133.9086  158.4140 C   0  0  0  0  0  0  0  0  0  0  0  0
  129.5041  132.7728  159.0621 N   0  0  0  0  0  0  0  0  0  0  0  0
  129.1837  132.7117  159.9755 H   0  0  0  0  0  0  0  0  0  0  0  0
  129.6626  131.7278  158.1829 C   0  0  0  0  0  0  0  0  0  0  0  0
  130.1305  132.2557  157.0249 C   0  0  0  0  0  0  0  0  0  0  0  0
  130.4514  131.5012  155.7885 C   0  0  0  0  0  0  0  0  0  0  0  0
  129.7802  131.7890  154.6011 C   0  0  0  0  0  0  0  0  0  0  0  0
  130.0839  131.0902  153.4518 C   0  0  0  0  0  0  0  0  0  0  0  0
  131.0502  130.0916  153.4794 C   0  0  0  0  0  0  0  0  0  0  0  0
  131.3517  129.3813  152.3149 N   0  0  0  0  0  0  0  0  0  0  0  0
  131.7169  129.7992  154.6635 C   0  0  0  0  0  0  0  0  0  0  0  0
  131.4205  130.4995  155.8137 C   0  0  0  0  0  0  0  0  0  0  0  0
  130.2487  133.5962  157.1954 N   0  0  0  0  0  0  0  0  0  0  0  0
  130.5583  134.2234  156.5234 H   0  0  0  0  0  0  0  0  0  0  0  0
  125.2817  135.0569  160.0357 H   0  0  0  0  0  0  0  0  0  0  0  0
  125.1850  134.3261  161.6559 H   0  0  0  0  0  0  0  0  0  0  0  0
  125.4768  136.0735  161.4837 H   0  0  0  0  0  0  0  0  0  0  0  0
  127.5731  133.9996  161.5633 H   0  0  0  0  0  0  0  0  0  0  0  0
  127.5328  136.4859  159.8232 H   0  0  0  0  0  0  0  0  0  0  0  0
  129.8387  136.7577  161.9512 H   0  0  0  0  0  0  0  0  0  0  0  0
  129.9352  137.4886  160.3310 H   0  0  0  0  0  0  0  0  0  0  0  0
  132.0643  135.5098  161.4330 H   0  0  0  0  0  0  0  0  0  0  0  0
  132.0240  137.9962  159.6930 H   0  0  0  0  0  0  0  0  0  0  0  0
  134.1532  136.0175  160.7948 H   0  0  0  0  0  0  0  0  0  0  0  0
  134.2495  136.7484  159.1747 H   0  0  0  0  0  0  0  0  0  0  0  0
  134.6007  137.3380  162.7824 H   0  0  0  0  0  0  0  0  0  0  0  0
  135.7855  139.2784  163.7283 H   0  0  0  0  0  0  0  0  0  0  0  0
  135.9554  142.2217  162.7284 H   0  0  0  0  0  0  0  0  0  0  0  0
  137.2630  141.1554  163.2953 H   0  0  0  0  0  0  0  0  0  0  0  0
  137.3524  141.8900  161.6764 H   0  0  0  0  0  0  0  0  0  0  0  0
  135.9986  141.0390  159.8495 H   0  0  0  0  0  0  0  0  0  0  0  0
  134.8231  139.0938  158.9020 H   0  0  0  0  0  0  0  0  0  0  0  0
  130.1528  135.9400  158.4124 H   0  0  0  0  0  0  0  0  0  0  0  0
  129.4543  130.6861  158.3773 H   0  0  0  0  0  0  0  0  0  0  0  0
  129.0259  132.5618  154.5804 H   0  0  0  0  0  0  0  0  0  0  0  0
  129.5674  131.3159  152.5306 H   0  0  0  0  0  0  0  0  0  0  0  0
  132.0264  128.6840  152.3337 H   0  0  0  0  0  0  0  0  0  0  0  0
  130.8872  129.5842  151.4886 H   0  0  0  0  0  0  0  0  0  0  0  0
  132.4673  129.0229  154.6826 H   0  0  0  0  0  0  0  0  0  0  0  0
  131.9391  130.2723  156.7334 H   0  0  0  0  0  0  0  0  0  0  0  0
  1  2  1  0
  1 32  1  0
  1 33  1  0
  1 34  1  0
  2  3  2  0
  2 35  1  0
  3  4  1  0
  3 36  1  0
  4  5  1  1
  4  6  1  0
  4 17  1  0
  6  7  1  0
  6 37  1  0
  6 38  1  0
  7  8  2  0
  7 39  1  0
  8  9  1  0
  8 40  1  0
  9 10  1  0
  9 41  1  0
  9 42  1  0
 10 16  1  0
 10 11  2  0
 11 12  1  0
 11 43  1  0
 12 13  2  0
 12 44  1  0
 13 14  1  0
 13 15  1  0
 14 45  1  0
 14 46  1  0
 14 47  1  0
 15 16  2  0
 15 48  1  0
 16 49  1  0
 17 50  1  0
 18 17  1  0
 18 30  2  0
 18 19  1  0
 19 20  1  0
 19 21  1  0
 21 22  2  0
 21 51  1  0
 22 23  1  0
 22 30  1  0
 23 29  1  0
 23 24  2  0
 24 25  1  0
 24 52  1  0
 25 26  2  0
 25 53  1  0
 26 27  1  0
 26 28  1  0
 27 54  1  0
 27 55  1  0
 28 29  2  0
 28 56  1  0
 29 57  1  0
 30 31  1  0
M  CHG  1  30   1
M  END
>  <DOCK_score>  (1) 
-58.643265

>  <SMILES>  (1) 
CC=C[C@H](CC=CCc1ccc(C)cc1)Nc1[nH]cc(-c2ccc(N)cc2)[nH+]1

$$$$
