Nc1ccc(-c2c[nH]c(N[C@@H](C=CC3=CCOCC3)c3ccc(F)cc3)[nH+]2)cc1
     RDKit          3D

 53 56  0  0  1  0  0  0  0  0999 V2000
  131.7705  129.4582  152.0755 N   0  0  0  0  0  0  0  0  0  0  0  0
  131.3972  130.1485  153.2311 C   0  0  0  0  0  0  0  0  0  0  0  0
  130.6160  131.2939  153.1335 C   0  0  0  0  0  0  0  0  0  0  0  0
  130.2466  131.9769  154.2730 C   0  0  0  0  0  0  0  0  0  0  0  0
  130.6571  131.5178  155.5235 C   0  0  0  0  0  0  0  0  0  0  0  0
  130.2608  132.2510  156.7508 C   0  0  0  0  0  0  0  0  0  0  0  0
  129.5295  131.7515  157.7775 C   0  0  0  0  0  0  0  0  0  0  0  0
  129.3971  132.7616  158.7009 N   0  0  0  0  0  0  0  0  0  0  0  0
  128.9244  132.7089  159.5463 H   0  0  0  0  0  0  0  0  0  0  0  0
  130.0520  133.8486  158.2098 C   0  0  0  0  0  0  0  0  0  0  0  0
  130.1573  135.0781  158.8374 N   0  0  0  0  0  0  0  0  0  0  0  0
  129.0896  135.5396  159.7280 C   0  0  1  0  0  0  0  0  0  0  0  0
  128.9715  134.8336  160.5502 H   0  0  0  0  0  0  0  0  0  0  0  0
  129.4461  136.8965  160.2786 C   0  0  0  0  0  0  0  0  0  0  0  0
  129.5674  137.0704  161.5902 C   0  0  0  0  0  0  0  0  0  0  0  0
  129.9154  138.3949  162.1275 C   0  0  0  0  0  0  0  0  0  0  0  0
  130.8151  139.1232  161.4939 C   0  0  0  0  0  0  0  0  0  0  0  0
  131.2355  140.4849  161.9702 C   0  0  0  0  0  0  0  0  0  0  0  0
  130.3025  140.9794  162.9330 O   0  0  0  0  0  0  0  0  0  0  0  0
  130.0242  140.0410  163.9794 C   0  0  0  0  0  0  0  0  0  0  0  0
  129.2378  138.8700  163.3837 C   0  0  0  0  0  0  0  0  0  0  0  0
  127.7981  135.6337  158.9572 C   0  0  0  0  0  0  0  0  0  0  0  0
  126.5925  135.4273  159.6017 C   0  0  0  0  0  0  0  0  0  0  0  0
  125.4072  135.5190  158.8972 C   0  0  0  0  0  0  0  0  0  0  0  0
  125.4279  135.8068  157.5430 C   0  0  0  0  0  0  0  0  0  0  0  0
  124.2701  135.8912  156.8519 F   0  0  0  0  0  0  0  0  0  0  0  0
  126.6362  136.0077  156.8974 C   0  0  0  0  0  0  0  0  0  0  0  0
  127.8199  135.9208  157.6053 C   0  0  0  0  0  0  0  0  0  0  0  0
  130.5619  133.5413  157.0420 N   0  0  0  0  0  0  0  0  0  0  0  0
  131.0747  134.1403  156.4771 H   0  0  0  0  0  0  0  0  0  0  0  0
  131.4452  130.3719  155.6187 C   0  0  0  0  0  0  0  0  0  0  0  0
  131.8071  129.6885  154.4769 C   0  0  0  0  0  0  0  0  0  0  0  0
  131.4840  129.7782  151.2056 H   0  0  0  0  0  0  0  0  0  0  0  0
  132.3151  128.6585  152.1428 H   0  0  0  0  0  0  0  0  0  0  0  0
  130.2984  131.6495  152.1643 H   0  0  0  0  0  0  0  0  0  0  0  0
  129.6393  132.8667  154.1966 H   0  0  0  0  0  0  0  0  0  0  0  0
  129.1279  130.7521  157.8551 H   0  0  0  0  0  0  0  0  0  0  0  0
  130.9381  135.6338  158.6875 H   0  0  0  0  0  0  0  0  0  0  0  0
  129.6030  137.7275  159.6068 H   0  0  0  0  0  0  0  0  0  0  0  0
  129.4103  136.2394  162.2618 H   0  0  0  0  0  0  0  0  0  0  0  0
  131.2643  138.7265  160.5955 H   0  0  0  0  0  0  0  0  0  0  0  0
  131.2778  141.1696  161.1232 H   0  0  0  0  0  0  0  0  0  0  0  0
  132.2226  140.4136  162.4270 H   0  0  0  0  0  0  0  0  0  0  0  0
  129.4307  140.5235  164.7559 H   0  0  0  0  0  0  0  0  0  0  0  0
  130.9599  139.6763  164.4027 H   0  0  0  0  0  0  0  0  0  0  0  0
  128.2244  139.1953  163.1488 H   0  0  0  0  0  0  0  0  0  0  0  0
  129.1987  138.0543  164.1057 H   0  0  0  0  0  0  0  0  0  0  0  0
  126.5769  135.1984  160.6571 H   0  0  0  0  0  0  0  0  0  0  0  0
  124.4652  135.3624  159.4018 H   0  0  0  0  0  0  0  0  0  0  0  0
  126.6536  136.2320  155.8410 H   0  0  0  0  0  0  0  0  0  0  0  0
  128.7626  136.0775  157.1019 H   0  0  0  0  0  0  0  0  0  0  0  0
  131.7680  130.0169  156.5862 H   0  0  0  0  0  0  0  0  0  0  0  0
  132.4139  128.7982  154.5504 H   0  0  0  0  0  0  0  0  0  0  0  0
  1  2  1  0
  1 33  1  0
  1 34  1  0
  2 32  2  0
  2  3  1  0
  3  4  2  0
  3 35  1  0
  4  5  1  0
  4 36  1  0
  5  6  1  0
  5 31  2  0
  6 29  1  0
  6  7  2  0
  7  8  1  0
  7 37  1  0
  8  9  1  0
  8 10  1  0
 10 11  1  0
 10 29  2  0
 11 12  1  0
 11 38  1  0
 12 13  1  1
 12 14  1  0
 12 22  1  0
 14 15  2  0
 14 39  1  0
 15 16  1  0
 15 40  1  0
 16 21  1  0
 16 17  2  0
 17 18  1  0
 17 41  1  0
 18 19  1  0
 18 42  1  0
 18 43  1  0
 19 20  1  0
 20 21  1  0
 20 44  1  0
 20 45  1  0
 21 46  1  0
 21 47  1  0
 22 28  1  0
 22 23  2  0
 23 24  1  0
 23 48  1  0
 24 25  2  0
 24 49  1  0
 25 26  1  0
 25 27  1  0
 27 28  2  0
 27 50  1  0
 28 51  1  0
 29 30  1  0
 31 32  1  0
 31 52  1  0
 32 53  1  0
M  CHG  1  29   1
M  END
>  <DOCK_score>  (1) 
-60.589073

>  <SMILES>  (1) 
Nc1ccc(-c2c[nH]c(N[C@@H](C=CC3=CCOCC3)c3ccc(F)cc3)[nH+]2)cc1

$$$$
