CCSc1ccccc1[C@@H](Nc1[nH]cc(-c2ccc(CC)cc2)[nH+]1)c1ccncc1
     RDKit          3D

 57 60  0  0  1  0  0  0  0  0999 V2000
  126.3672  136.2042  164.4004 C   0  0  0  0  0  0  0  0  0  0  0  0
  127.6260  136.8328  163.7996 C   0  0  0  0  0  0  0  0  0  0  0  0
  127.4923  136.8433  161.9906 S   0  0  0  0  0  0  0  0  0  0  0  0
  129.0061  137.5901  161.4856 C   0  0  0  0  0  0  0  0  0  0  0  0
  129.3193  138.8792  161.9003 C   0  0  0  0  0  0  0  0  0  0  0  0
  130.5068  139.4613  161.5019 C   0  0  0  0  0  0  0  0  0  0  0  0
  131.3829  138.7636  160.6911 C   0  0  0  0  0  0  0  0  0  0  0  0
  131.0749  137.4807  160.2769 C   0  0  0  0  0  0  0  0  0  0  0  0
  129.8895  136.8920  160.6712 C   0  0  0  0  0  0  0  0  0  0  0  0
  129.5542  135.4942  160.2185 C   0  0  1  0  0  0  0  0  0  0  0  0
  128.4723  135.3871  160.1409 H   0  0  0  0  0  0  0  0  0  0  0  0
  130.1646  135.2450  158.9102 N   0  0  0  0  0  0  0  0  0  0  0  0
  129.9935  134.0200  158.2886 C   0  0  0  0  0  0  0  0  0  0  0  0
  129.2793  132.9726  158.7838 N   0  0  0  0  0  0  0  0  0  0  0  0
  128.8031  132.9503  159.6286 H   0  0  0  0  0  0  0  0  0  0  0  0
  129.3578  131.9528  157.8669 C   0  0  0  0  0  0  0  0  0  0  0  0
  130.1169  132.4059  156.8385 C   0  0  0  0  0  0  0  0  0  0  0  0
  130.4731  131.6458  155.6156 C   0  0  0  0  0  0  0  0  0  0  0  0
  130.0909  132.1191  154.3616 C   0  0  0  0  0  0  0  0  0  0  0  0
  130.4297  131.4106  153.2268 C   0  0  0  0  0  0  0  0  0  0  0  0
  131.1379  130.2273  153.3329 C   0  0  0  0  0  0  0  0  0  0  0  0
  131.5000  129.4549  152.0904 C   0  0  0  0  0  0  0  0  0  0  0  0
  130.3838  128.4604  151.7648 C   0  0  0  0  0  0  0  0  0  0  0  0
  131.5155  129.7497  154.5752 C   0  0  0  0  0  0  0  0  0  0  0  0
  131.1867  130.4528  155.7165 C   0  0  0  0  0  0  0  0  0  0  0  0
  130.4877  133.6794  157.1235 N   0  0  0  0  0  0  0  0  0  0  0  0
  131.0332  134.2467  156.5564 H   0  0  0  0  0  0  0  0  0  0  0  0
  130.0868  134.5009  161.2187 C   0  0  0  0  0  0  0  0  0  0  0  0
  131.4428  134.4347  161.5003 C   0  0  0  0  0  0  0  0  0  0  0  0
  131.8941  133.5137  162.4266 C   0  0  0  0  0  0  0  0  0  0  0  0
  131.0530  132.6983  163.0320 N   0  0  0  0  0  0  0  0  0  0  0  0
  129.7578  132.7299  162.7858 C   0  0  0  0  0  0  0  0  0  0  0  0
  129.2331  133.6275  161.8752 C   0  0  0  0  0  0  0  0  0  0  0  0
  126.2631  135.1817  164.0378 H   0  0  0  0  0  0  0  0  0  0  0  0
  126.4474  136.1980  165.4874 H   0  0  0  0  0  0  0  0  0  0  0  0
  125.4939  136.7856  164.1041 H   0  0  0  0  0  0  0  0  0  0  0  0
  128.4992  136.2515  164.0960 H   0  0  0  0  0  0  0  0  0  0  0  0
  127.7302  137.8554  164.1622 H   0  0  0  0  0  0  0  0  0  0  0  0
  128.6353  139.4247  162.5334 H   0  0  0  0  0  0  0  0  0  0  0  0
  130.7519  140.4617  161.8269 H   0  0  0  0  0  0  0  0  0  0  0  0
  132.3104  139.2218  160.3806 H   0  0  0  0  0  0  0  0  0  0  0  0
  131.7618  136.9387  159.6440 H   0  0  0  0  0  0  0  0  0  0  0  0
  130.6887  135.9383  158.4796 H   0  0  0  0  0  0  0  0  0  0  0  0
  128.9021  130.9772  157.9491 H   0  0  0  0  0  0  0  0  0  0  0  0
  129.5337  133.0405  154.2779 H   0  0  0  0  0  0  0  0  0  0  0  0
  130.1375  131.7784  152.2543 H   0  0  0  0  0  0  0  0  0  0  0  0
  131.6255  130.1459  151.2569 H   0  0  0  0  0  0  0  0  0  0  0  0
  132.4314  128.9140  152.2574 H   0  0  0  0  0  0  0  0  0  0  0  0
  130.2582  127.7694  152.5983 H   0  0  0  0  0  0  0  0  0  0  0  0
  129.4524  129.0014  151.5978 H   0  0  0  0  0  0  0  0  0  0  0  0
  130.6456  127.9019  150.8661 H   0  0  0  0  0  0  0  0  0  0  0  0
  132.0682  128.8253  154.6523 H   0  0  0  0  0  0  0  0  0  0  0  0
  131.4819  130.0792  156.6858 H   0  0  0  0  0  0  0  0  0  0  0  0
  132.1372  135.0967  161.0043 H   0  0  0  0  0  0  0  0  0  0  0  0
  132.9484  133.4580  162.6539 H   0  0  0  0  0  0  0  0  0  0  0  0
  129.0996  132.0464  163.3012 H   0  0  0  0  0  0  0  0  0  0  0  0
  128.1715  133.6487  161.6778 H   0  0  0  0  0  0  0  0  0  0  0  0
  1  2  1  0
  1 34  1  0
  1 35  1  0
  1 36  1  0
  2  3  1  0
  2 37  1  0
  2 38  1  0
  3  4  1  0
  4  9  2  0
  4  5  1  0
  5  6  2  0
  5 39  1  0
  6  7  1  0
  6 40  1  0
  7  8  2  0
  7 41  1  0
  8  9  1  0
  8 42  1  0
  9 10  1  0
 10 11  1  6
 10 12  1  0
 10 28  1  0
 12 43  1  0
 13 12  1  0
 13 26  2  0
 13 14  1  0
 14 15  1  0
 14 16  1  0
 16 17  2  0
 16 44  1  0
 17 18  1  0
 17 26  1  0
 18 25  1  0
 18 19  2  0
 19 20  1  0
 19 45  1  0
 20 21  2  0
 20 46  1  0
 21 22  1  0
 21 24  1  0
 22 23  1  0
 22 47  1  0
 22 48  1  0
 23 49  1  0
 23 50  1  0
 23 51  1  0
 24 25  2  0
 24 52  1  0
 25 53  1  0
 26 27  1  0
 28 33  1  0
 28 29  2  0
 29 30  1  0
 29 54  1  0
 30 31  2  0
 30 55  1  0
 31 32  1  0
 32 33  2  0
 32 56  1  0
 33 57  1  0
M  CHG  1  26   1
M  END
>  <DOCK_score>  (1) 
-59.640785

>  <SMILES>  (1) 
CCSc1ccccc1[C@@H](Nc1[nH]cc(-c2ccc(CC)cc2)[nH+]1)c1ccncc1

$$$$
