CC1=C(CN2CC[NH+]([C@@H](CCC3CCC(=O)NC3)c3cccc(Cl)c3)CC2)CCC1
     RDKit          3D

 67 70  0  0  1  0  0  0  0  0999 V2000
  135.0703  140.5552  160.7990 C   0  0  0  0  0  0  0  0  0  0  0  0
  134.7168  139.9176  162.1180 C   0  0  0  0  0  0  0  0  0  0  0  0
  134.4619  138.6478  162.2796 C   0  0  0  0  0  0  0  0  0  0  0  0
  134.4825  137.6266  161.1715 C   0  0  0  0  0  0  0  0  0  0  0  0
  133.1563  137.0060  161.0529 N   0  0  0  0  0  0  0  0  0  0  0  0
  133.2496  135.6792  160.4275 C   0  0  0  0  0  0  0  0  0  0  0  0
  131.8587  135.0434  160.3769 C   0  0  0  0  0  0  0  0  0  0  0  0
  130.9541  135.9052  159.6044 N   0  0  0  0  0  0  0  0  0  0  0  0
  131.3162  136.0202  158.6697 H   0  0  0  0  0  0  0  0  0  0  0  0
  129.6236  135.2857  159.5408 C   0  0  1  0  0  0  0  0  0  0  0  0
  129.2325  135.1605  160.5503 H   0  0  0  0  0  0  0  0  0  0  0  0
  128.6812  136.1832  158.7363 C   0  0  0  0  0  0  0  0  0  0  0  0
  127.4894  135.3598  158.2439 C   0  0  0  0  0  0  0  0  0  0  0  0
  126.7396  134.7793  159.4445 C   0  0  2  0  0  0  0  0  0  0  0  0
  125.8708  133.6011  158.9879 C   0  0  0  0  0  0  0  0  0  0  0  0
  125.2782  132.9278  160.2286 C   0  0  0  0  0  0  0  0  0  0  0  0
  124.6697  133.9632  161.1302 C   0  0  0  0  0  0  0  0  0  0  0  0
  123.8852  133.5956  161.9788 O   0  0  0  0  0  0  0  0  0  0  0  0
  124.9461  135.2652  161.0479 N   0  0  0  0  0  0  0  0  0  0  0  0
  125.8322  135.8510  160.0498 C   0  0  0  0  0  0  0  0  0  0  0  0
  129.7279  133.9393  158.8719 C   0  0  0  0  0  0  0  0  0  0  0  0
  130.2022  133.8459  157.5766 C   0  0  0  0  0  0  0  0  0  0  0  0
  130.2982  132.6114  156.9624 C   0  0  0  0  0  0  0  0  0  0  0  0
  129.9203  131.4692  157.6432 C   0  0  0  0  0  0  0  0  0  0  0  0
  129.4460  131.5619  158.9394 C   0  0  0  0  0  0  0  0  0  0  0  0
  128.9719  130.1279  159.7952 Cl  0  0  0  0  0  0  0  0  0  0  0  0
  129.3548  132.7977  159.5553 C   0  0  0  0  0  0  0  0  0  0  0  0
  130.8519  137.2182  160.2546 C   0  0  0  0  0  0  0  0  0  0  0  0
  132.2345  137.8721  160.3043 C   0  0  0  0  0  0  0  0  0  0  0  0
  134.1464  138.3356  163.7239 C   0  0  0  0  0  0  0  0  0  0  0  0
  134.6501  139.5666  164.5127 C   0  0  0  0  0  0  0  0  0  0  0  0
  134.6045  140.6658  163.4260 C   0  0  0  0  0  0  0  0  0  0  0  0
  135.2287  141.6240  160.9428 H   0  0  0  0  0  0  0  0  0  0  0  0
  134.2561  140.4007  160.0910 H   0  0  0  0  0  0  0  0  0  0  0  0
  135.9818  140.1019  160.4091 H   0  0  0  0  0  0  0  0  0  0  0  0
  134.7403  138.1151  160.2319 H   0  0  0  0  0  0  0  0  0  0  0  0
  135.2234  136.8599  161.3977 H   0  0  0  0  0  0  0  0  0  0  0  0
  133.6400  135.7810  159.4150 H   0  0  0  0  0  0  0  0  0  0  0  0
  133.9173  135.0473  161.0133 H   0  0  0  0  0  0  0  0  0  0  0  0
  131.4743  134.9292  161.3904 H   0  0  0  0  0  0  0  0  0  0  0  0
  131.9234  134.0653  159.9005 H   0  0  0  0  0  0  0  0  0  0  0  0
  128.3246  136.9957  159.3694 H   0  0  0  0  0  0  0  0  0  0  0  0
  129.2154  136.5968  157.8808 H   0  0  0  0  0  0  0  0  0  0  0  0
  126.8180  135.9991  157.6707 H   0  0  0  0  0  0  0  0  0  0  0  0
  127.8459  134.5472  157.6107 H   0  0  0  0  0  0  0  0  0  0  0  0
  127.4553  134.4404  160.1936 H   0  0  0  0  0  0  0  0  0  0  0  0
  125.0667  133.9644  158.3479 H   0  0  0  0  0  0  0  0  0  0  0  0
  126.4825  132.8852  158.4388 H   0  0  0  0  0  0  0  0  0  0  0  0
  126.0663  132.3990  160.7646 H   0  0  0  0  0  0  0  0  0  0  0  0
  124.5099  132.2182  159.9217 H   0  0  0  0  0  0  0  0  0  0  0  0
  124.5317  135.8596  161.6928 H   0  0  0  0  0  0  0  0  0  0  0  0
  126.4460  136.6194  160.5197 H   0  0  0  0  0  0  0  0  0  0  0  0
  125.2317  136.3027  159.2601 H   0  0  0  0  0  0  0  0  0  0  0  0
  130.4977  134.7381  157.0443 H   0  0  0  0  0  0  0  0  0  0  0  0
  130.6688  132.5391  155.9506 H   0  0  0  0  0  0  0  0  0  0  0  0
  129.9957  130.5046  157.1634 H   0  0  0  0  0  0  0  0  0  0  0  0
  128.9881  132.8702  160.5686 H   0  0  0  0  0  0  0  0  0  0  0  0
  130.4726  137.0928  161.2688 H   0  0  0  0  0  0  0  0  0  0  0  0
  130.1703  137.8524  159.6877 H   0  0  0  0  0  0  0  0  0  0  0  0
  132.1614  138.8401  160.8002 H   0  0  0  0  0  0  0  0  0  0  0  0
  132.6085  138.0105  159.2897 H   0  0  0  0  0  0  0  0  0  0  0  0
  134.6737  137.4373  164.0447 H   0  0  0  0  0  0  0  0  0  0  0  0
  133.0717  138.2125  163.8580 H   0  0  0  0  0  0  0  0  0  0  0  0
  135.6680  139.4123  164.8706 H   0  0  0  0  0  0  0  0  0  0  0  0
  133.9788  139.8042  165.3379 H   0  0  0  0  0  0  0  0  0  0  0  0
  135.4434  141.3519  163.5443 H   0  0  0  0  0  0  0  0  0  0  0  0
  133.6609  141.2095  163.4727 H   0  0  0  0  0  0  0  0  0  0  0  0
  1  2  1  0
  1 33  1  0
  1 34  1  0
  1 35  1  0
  2 32  1  0
  2  3  2  0
  3  4  1  0
  3 30  1  0
  4  5  1  0
  4 36  1  0
  4 37  1  0
  5 29  1  0
  5  6  1  0
  6  7  1  0
  6 38  1  0
  6 39  1  0
  7  8  1  0
  7 40  1  0
  7 41  1  0
  8  9  1  0
  8 10  1  0
  8 28  1  0
 10 11  1  1
 10 12  1  0
 10 21  1  0
 12 13  1  0
 12 42  1  0
 12 43  1  0
 13 14  1  0
 13 44  1  0
 13 45  1  0
 14 20  1  0
 14 15  1  0
 14 46  1  1
 15 16  1  0
 15 47  1  0
 15 48  1  0
 16 17  1  0
 16 49  1  0
 16 50  1  0
 17 18  2  0
 17 19  1  0
 19 20  1  0
 19 51  1  0
 20 52  1  0
 20 53  1  0
 21 27  1  0
 21 22  2  0
 22 23  1  0
 22 54  1  0
 23 24  2  0
 23 55  1  0
 24 25  1  0
 24 56  1  0
 25 26  1  0
 25 27  2  0
 27 57  1  0
 28 29  1  0
 28 58  1  0
 28 59  1  0
 29 60  1  0
 29 61  1  0
 30 31  1  0
 30 62  1  0
 30 63  1  0
 31 32  1  0
 31 64  1  0
 31 65  1  0
 32 66  1  0
 32 67  1  0
M  CHG  1   8   1
M  END
>  <DOCK_score>  (1) 
-54.489243

>  <SMILES>  (1) 
CC1=C(CN2CC[NH+]([C@@H](CCC3CCC(=O)NC3)c3cccc(Cl)c3)CC2)CCC1

$$$$
