Nc1ccc(-c2c[nH]c(NCc3c[nH]nc3-c3ccc(-c4ccc(O)cc4)cc3)[nH+]2)cc1
     RDKit          3D

 55 59  0  0  1  0  0  0  0  0999 V2000
  131.0788  129.1926  151.1330 N   0  0  0  0  0  0  0  0  0  0  0  0
  130.9032  129.7531  152.4004 C   0  0  0  0  0  0  0  0  0  0  0  0
  129.9094  130.7025  152.6077 C   0  0  0  0  0  0  0  0  0  0  0  0
  129.7346  131.2573  153.8580 C   0  0  0  0  0  0  0  0  0  0  0  0
  130.5552  130.8651  154.9144 C   0  0  0  0  0  0  0  0  0  0  0  0
  130.3691  131.4606  156.2603 C   0  0  0  0  0  0  0  0  0  0  0  0
  130.0679  130.7853  157.3969 C   0  0  0  0  0  0  0  0  0  0  0  0
  129.9935  131.7162  158.4059 N   0  0  0  0  0  0  0  0  0  0  0  0
  129.7973  131.5380  159.3389 H   0  0  0  0  0  0  0  0  0  0  0  0
  130.2427  132.9344  157.8530 C   0  0  0  0  0  0  0  0  0  0  0  0
  130.2592  134.1403  158.5329 N   0  0  0  0  0  0  0  0  0  0  0  0
  129.9932  134.1728  159.9731 C   0  0  0  0  0  0  0  0  0  0  0  0
  128.7851  135.0329  160.2415 C   0  0  0  0  0  0  0  0  0  0  0  0
  127.5030  134.6107  160.2891 C   0  0  0  0  0  0  0  0  0  0  0  0
  126.7211  135.6803  160.5506 N   0  0  0  0  0  0  0  0  0  0  0  0
  125.7552  135.6714  160.6389 H   0  0  0  0  0  0  0  0  0  0  0  0
  127.5476  136.8040  160.6785 N   0  0  0  0  0  0  0  0  0  0  0  0
  128.7930  136.4190  160.4929 C   0  0  0  0  0  0  0  0  0  0  0  0
  129.9923  137.2908  160.5400 C   0  0  0  0  0  0  0  0  0  0  0  0
  130.6626  137.4899  161.7463 C   0  0  0  0  0  0  0  0  0  0  0  0
  131.7791  138.2955  161.7892 C   0  0  0  0  0  0  0  0  0  0  0  0
  132.2329  138.9205  160.6276 C   0  0  0  0  0  0  0  0  0  0  0  0
  133.4312  139.7927  160.6742 C   0  0  0  0  0  0  0  0  0  0  0  0
  134.2551  139.9089  159.5565 C   0  0  0  0  0  0  0  0  0  0  0  0
  135.3660  140.7245  159.6020 C   0  0  0  0  0  0  0  0  0  0  0  0
  135.6702  141.4215  160.7637 C   0  0  0  0  0  0  0  0  0  0  0  0
  136.7688  142.2199  160.8073 O   0  0  0  0  0  0  0  0  0  0  0  0
  134.8547  141.3038  161.8810 C   0  0  0  0  0  0  0  0  0  0  0  0
  133.7394  140.4938  161.8402 C   0  0  0  0  0  0  0  0  0  0  0  0
  131.5593  138.7255  159.4225 C   0  0  0  0  0  0  0  0  0  0  0  0
  130.4459  137.9157  159.3788 C   0  0  0  0  0  0  0  0  0  0  0  0
  130.4700  132.7771  156.5717 N   0  0  0  0  0  0  0  0  0  0  0  0
  130.6773  133.4888  155.9459 H   0  0  0  0  0  0  0  0  0  0  0  0
  131.5546  129.9167  154.7027 C   0  0  0  0  0  0  0  0  0  0  0  0
  131.7222  129.3604  153.4523 C   0  0  0  0  0  0  0  0  0  0  0  0
  130.5072  129.4662  150.3983 H   0  0  0  0  0  0  0  0  0  0  0  0
  131.7719  128.5303  150.9872 H   0  0  0  0  0  0  0  0  0  0  0  0
  129.2738  131.0062  151.7891 H   0  0  0  0  0  0  0  0  0  0  0  0
  128.9623  131.9950  154.0186 H   0  0  0  0  0  0  0  0  0  0  0  0
  129.9193  129.7199  157.4921 H   0  0  0  0  0  0  0  0  0  0  0  0
  130.4469  134.9635  158.0556 H   0  0  0  0  0  0  0  0  0  0  0  0
  130.8570  134.5874  160.4930 H   0  0  0  0  0  0  0  0  0  0  0  0
  129.8053  133.1605  160.3310 H   0  0  0  0  0  0  0  0  0  0  0  0
  127.1625  133.5964  160.1414 H   0  0  0  0  0  0  0  0  0  0  0  0
  130.3085  137.0094  162.6465 H   0  0  0  0  0  0  0  0  0  0  0  0
  132.3004  138.4467  162.7228 H   0  0  0  0  0  0  0  0  0  0  0  0
  134.0215  139.3636  158.6540 H   0  0  0  0  0  0  0  0  0  0  0  0
  136.0026  140.8179  158.7345 H   0  0  0  0  0  0  0  0  0  0  0  0
  136.8990  142.6639  161.6563 H   0  0  0  0  0  0  0  0  0  0  0  0
  135.0941  141.8468  162.7834 H   0  0  0  0  0  0  0  0  0  0  0  0
  133.1055  140.4024  162.7098 H   0  0  0  0  0  0  0  0  0  0  0  0
  131.9104  139.2099  158.5232 H   0  0  0  0  0  0  0  0  0  0  0  0
  129.9245  137.7643  158.4453 H   0  0  0  0  0  0  0  0  0  0  0  0
  132.1948  129.6149  155.5187 H   0  0  0  0  0  0  0  0  0  0  0  0
  132.4935  128.6222  153.2889 H   0  0  0  0  0  0  0  0  0  0  0  0
  1  2  1  0
  1 36  1  0
  1 37  1  0
  2 35  2  0
  2  3  1  0
  3  4  2  0
  3 38  1  0
  4  5  1  0
  4 39  1  0
  5  6  1  0
  5 34  2  0
  6 32  1  0
  6  7  2  0
  7  8  1  0
  7 40  1  0
  8  9  1  0
  8 10  1  0
 10 11  1  0
 10 32  2  0
 11 12  1  0
 11 41  1  0
 12 13  1  0
 12 42  1  0
 12 43  1  0
 13 18  1  0
 13 14  2  0
 14 15  1  0
 14 44  1  0
 15 16  1  0
 15 17  1  0
 17 18  2  0
 18 19  1  0
 19 31  1  0
 19 20  2  0
 20 21  1  0
 20 45  1  0
 21 22  2  0
 21 46  1  0
 22 23  1  0
 22 30  1  0
 23 29  1  0
 23 24  2  0
 24 25  1  0
 24 47  1  0
 25 26  2  0
 25 48  1  0
 26 27  1  0
 26 28  1  0
 27 49  1  0
 28 29  2  0
 28 50  1  0
 29 51  1  0
 30 31  2  0
 30 52  1  0
 31 53  1  0
 32 33  1  0
 34 35  1  0
 34 54  1  0
 35 55  1  0
M  CHG  1  32   1
M  END
>  <DOCK_score>  (1) 
-59.293999

>  <SMILES>  (1) 
Nc1ccc(-c2c[nH]c(NCc3c[nH]nc3-c3ccc(-c4ccc(O)cc4)cc3)[nH+]2)cc1

$$$$
