C[C@H](Br)C(Nc1[nH]cc(-c2ccc(N)cc2)[nH+]1)c1ccccc1
     RDKit          3D

 43 45  0  0  1  0  0  0  0  0999 V2000
  131.2480  136.3499  160.6298 C   0  0  0  0  0  0  0  0  0  0  0  0
  129.8978  136.5501  159.9384 C   0  0  2  0  0  0  0  0  0  0  0  0
  129.9965  137.3079  159.1611 H   0  0  0  0  0  0  0  0  0  0  0  0
  128.5654  137.1361  161.2597 Br  0  0  0  0  0  0  0  0  0  0  0  0
  129.4462  135.2305  159.3095 C   0  0  2  0  0  0  0  0  0  0  0  0
  130.4392  134.7937  158.3247 N   0  0  0  0  0  0  0  0  0  0  0  0
  130.2457  133.6170  157.6217 C   0  0  0  0  0  0  0  0  0  0  0  0
  129.5813  132.5209  158.0786 N   0  0  0  0  0  0  0  0  0  0  0  0
  129.1616  132.4241  158.9477 H   0  0  0  0  0  0  0  0  0  0  0  0
  129.6117  131.5772  157.0791 C   0  0  0  0  0  0  0  0  0  0  0  0
  130.3011  132.1209  156.0459 C   0  0  0  0  0  0  0  0  0  0  0  0
  130.5921  131.4630  154.7484 C   0  0  0  0  0  0  0  0  0  0  0  0
  130.1274  132.0258  153.5606 C   0  0  0  0  0  0  0  0  0  0  0  0
  130.4040  131.4157  152.3554 C   0  0  0  0  0  0  0  0  0  0  0  0
  131.1354  130.2347  152.3248 C   0  0  0  0  0  0  0  0  0  0  0  0
  131.4089  129.6145  151.1034 N   0  0  0  0  0  0  0  0  0  0  0  0
  131.5950  129.6684  153.5083 C   0  0  0  0  0  0  0  0  0  0  0  0
  131.3257  130.2781  154.7155 C   0  0  0  0  0  0  0  0  0  0  0  0
  130.6773  133.3728  156.4083 N   0  0  0  0  0  0  0  0  0  0  0  0
  131.1851  133.9890  155.8574 H   0  0  0  0  0  0  0  0  0  0  0  0
  128.1165  135.4276  158.6285 C   0  0  0  0  0  0  0  0  0  0  0  0
  126.9433  135.2220  159.3302 C   0  0  0  0  0  0  0  0  0  0  0  0
  125.7236  135.4085  158.7072 C   0  0  0  0  0  0  0  0  0  0  0  0
  125.6768  135.7953  157.3810 C   0  0  0  0  0  0  0  0  0  0  0  0
  126.8499  135.9958  156.6778 C   0  0  0  0  0  0  0  0  0  0  0  0
  128.0697  135.8093  157.3007 C   0  0  0  0  0  0  0  0  0  0  0  0
  131.9867  136.0249  159.8972 H   0  0  0  0  0  0  0  0  0  0  0  0
  131.5697  137.2899  161.0779 H   0  0  0  0  0  0  0  0  0  0  0  0
  131.1493  135.5920  161.4071 H   0  0  0  0  0  0  0  0  0  0  0  0
  129.3477  134.4726  160.0867 H   0  0  0  0  0  0  0  0  0  0  0  0
  131.2322  135.3291  158.1655 H   0  0  0  0  0  0  0  0  0  0  0  0
  129.1746  130.5901  157.1126 H   0  0  0  0  0  0  0  0  0  0  0  0
  129.5547  132.9411  153.5843 H   0  0  0  0  0  0  0  0  0  0  0  0
  130.0480  131.8537  151.4346 H   0  0  0  0  0  0  0  0  0  0  0  0
  131.9194  128.7900  151.0814 H   0  0  0  0  0  0  0  0  0  0  0  0
  131.0883  130.0087  150.2771 H   0  0  0  0  0  0  0  0  0  0  0  0
  132.1633  128.7505  153.4825 H   0  0  0  0  0  0  0  0  0  0  0  0
  131.6832  129.8382  155.6348 H   0  0  0  0  0  0  0  0  0  0  0  0
  126.9799  134.9201  160.3666 H   0  0  0  0  0  0  0  0  0  0  0  0
  124.8070  135.2521  159.2568 H   0  0  0  0  0  0  0  0  0  0  0  0
  124.7238  135.9412  156.8943 H   0  0  0  0  0  0  0  0  0  0  0  0
  126.8133  136.2983  155.6416 H   0  0  0  0  0  0  0  0  0  0  0  0
  128.9863  135.9664  156.7515 H   0  0  0  0  0  0  0  0  0  0  0  0
  1  2  1  0
  1 27  1  0
  1 28  1  0
  1 29  1  0
  2  3  1  6
  2  4  1  0
  2  5  1  0
  5  6  1  0
  5 21  1  0
  5 30  1  1
  6 31  1  0
  7  6  1  0
  7 19  2  0
  7  8  1  0
  8  9  1  0
  8 10  1  0
 10 11  2  0
 10 32  1  0
 11 12  1  0
 11 19  1  0
 12 18  1  0
 12 13  2  0
 13 14  1  0
 13 33  1  0
 14 15  2  0
 14 34  1  0
 15 16  1  0
 15 17  1  0
 16 35  1  0
 16 36  1  0
 17 18  2  0
 17 37  1  0
 18 38  1  0
 19 20  1  0
 21 26  1  0
 21 22  2  0
 22 23  1  0
 22 39  1  0
 23 24  2  0
 23 40  1  0
 24 25  1  0
 24 41  1  0
 25 26  2  0
 25 42  1  0
 26 43  1  0
M  CHG  1  19   1
M  END
>  <DOCK_score>  (1) 
-59.854542

>  <SMILES>  (1) 
C[C@H](Br)C(Nc1[nH]cc(-c2ccc(N)cc2)[nH+]1)c1ccccc1

$$$$
