Cc1c(I)cccc1N1CC[NH+](C(c2ccccc2)c2ccccc2)CC1
     RDKit          3D

 53 56  0  0  0  0  0  0  0  0999 V2000
  133.5834  138.3869  163.4763 C   0  0  0  0  0  0  0  0  0  0  0  0
  134.1417  138.9277  162.1851 C   0  0  0  0  0  0  0  0  0  0  0  0
  135.0765  139.9450  162.2079 C   0  0  0  0  0  0  0  0  0  0  0  0
  135.7180  140.7361  164.0386 I   0  0  0  0  0  0  0  0  0  0  0  0
  135.5849  140.4455  161.0228 C   0  0  0  0  0  0  0  0  0  0  0  0
  135.1644  139.9258  159.8122 C   0  0  0  0  0  0  0  0  0  0  0  0
  134.2347  138.9052  159.7827 C   0  0  0  0  0  0  0  0  0  0  0  0
  133.7215  138.4003  160.9710 C   0  0  0  0  0  0  0  0  0  0  0  0
  132.7806  137.3682  160.9444 N   0  0  0  0  0  0  0  0  0  0  0  0
  131.5425  137.8011  160.2812 C   0  0  0  0  0  0  0  0  0  0  0  0
  130.5191  136.6642  160.3258 C   0  0  0  0  0  0  0  0  0  0  0  0
  131.0699  135.4826  159.6493 N   0  0  0  0  0  0  0  0  0  0  0  0
  131.2878  135.7145  158.6918 H   0  0  0  0  0  0  0  0  0  0  0  0
  130.0802  134.3974  159.6766 C   0  0  0  0  0  0  0  0  0  0  0  0
  128.8266  134.8430  158.9687 C   0  0  0  0  0  0  0  0  0  0  0  0
  127.5995  134.3330  159.3494 C   0  0  0  0  0  0  0  0  0  0  0  0
  126.4492  134.7454  158.7032 C   0  0  0  0  0  0  0  0  0  0  0  0
  126.5269  135.6597  157.6694 C   0  0  0  0  0  0  0  0  0  0  0  0
  127.7546  136.1657  157.2852 C   0  0  0  0  0  0  0  0  0  0  0  0
  128.9046  135.7573  157.9348 C   0  0  0  0  0  0  0  0  0  0  0  0
  130.6451  133.1848  158.9824 C   0  0  0  0  0  0  0  0  0  0  0  0
  130.4483  133.0111  157.6252 C   0  0  0  0  0  0  0  0  0  0  0  0
  130.9705  131.9013  156.9876 C   0  0  0  0  0  0  0  0  0  0  0  0
  131.6806  130.9600  157.7092 C   0  0  0  0  0  0  0  0  0  0  0  0
  131.8729  131.1311  159.0673 C   0  0  0  0  0  0  0  0  0  0  0  0
  131.3551  132.2435  159.7040 C   0  0  0  0  0  0  0  0  0  0  0  0
  132.2923  135.0475  160.3377 C   0  0  0  0  0  0  0  0  0  0  0  0
  133.3304  136.1709  160.2933 C   0  0  0  0  0  0  0  0  0  0  0  0
  134.2605  137.6324  163.8769 H   0  0  0  0  0  0  0  0  0  0  0  0
  133.4784  139.1995  164.1952 H   0  0  0  0  0  0  0  0  0  0  0  0
  132.6078  137.9378  163.2904 H   0  0  0  0  0  0  0  0  0  0  0  0
  136.3122  141.2437  161.0430 H   0  0  0  0  0  0  0  0  0  0  0  0
  135.5638  140.3183  158.8888 H   0  0  0  0  0  0  0  0  0  0  0  0
  133.9071  138.4995  158.8369 H   0  0  0  0  0  0  0  0  0  0  0  0
  131.7563  138.0575  159.2435 H   0  0  0  0  0  0  0  0  0  0  0  0
  131.1399  138.6734  160.7961 H   0  0  0  0  0  0  0  0  0  0  0  0
  129.6051  136.9783  159.8219 H   0  0  0  0  0  0  0  0  0  0  0  0
  130.2954  136.4174  161.3636 H   0  0  0  0  0  0  0  0  0  0  0  0
  129.8440  134.1469  160.7107 H   0  0  0  0  0  0  0  0  0  0  0  0
  127.5391  133.6154  160.1541 H   0  0  0  0  0  0  0  0  0  0  0  0
  125.4900  134.3498  159.0031 H   0  0  0  0  0  0  0  0  0  0  0  0
  125.6287  135.9785  157.1615 H   0  0  0  0  0  0  0  0  0  0  0  0
  127.8156  136.8798  156.4772 H   0  0  0  0  0  0  0  0  0  0  0  0
  129.8638  136.1523  157.6344 H   0  0  0  0  0  0  0  0  0  0  0  0
  129.8898  133.7444  157.0623 H   0  0  0  0  0  0  0  0  0  0  0  0
  130.8200  131.7675  155.9265 H   0  0  0  0  0  0  0  0  0  0  0  0
  132.0848  130.0907  157.2118 H   0  0  0  0  0  0  0  0  0  0  0  0
  132.4273  130.3954  159.6311 H   0  0  0  0  0  0  0  0  0  0  0  0
  131.5049  132.3770  160.7652 H   0  0  0  0  0  0  0  0  0  0  0  0
  132.0594  134.8088  161.3755 H   0  0  0  0  0  0  0  0  0  0  0  0
  132.6928  134.1627  159.8425 H   0  0  0  0  0  0  0  0  0  0  0  0
  134.2322  135.8536  160.8169 H   0  0  0  0  0  0  0  0  0  0  0  0
  133.5736  136.4003  159.2558 H   0  0  0  0  0  0  0  0  0  0  0  0
  1  2  1  0
  1 29  1  0
  1 30  1  0
  1 31  1  0
  2  8  2  0
  2  3  1  0
  3  4  1  0
  3  5  2  0
  5  6  1  0
  5 32  1  0
  6  7  2  0
  6 33  1  0
  7  8  1  0
  7 34  1  0
  8  9  1  0
  9 28  1  0
  9 10  1  0
 10 11  1  0
 10 35  1  0
 10 36  1  0
 11 12  1  0
 11 37  1  0
 11 38  1  0
 12 13  1  0
 12 14  1  0
 12 27  1  0
 14 15  1  0
 14 21  1  0
 14 39  1  0
 15 20  1  0
 15 16  2  0
 16 17  1  0
 16 40  1  0
 17 18  2  0
 17 41  1  0
 18 19  1  0
 18 42  1  0
 19 20  2  0
 19 43  1  0
 20 44  1  0
 21 26  1  0
 21 22  2  0
 22 23  1  0
 22 45  1  0
 23 24  2  0
 23 46  1  0
 24 25  1  0
 24 47  1  0
 25 26  2  0
 25 48  1  0
 26 49  1  0
 27 28  1  0
 27 50  1  0
 27 51  1  0
 28 52  1  0
 28 53  1  0
M  CHG  1  12   1
M  END
>  <DOCK_score>  (1) 
-56.880203

>  <SMILES>  (1) 
Cc1c(I)cccc1N1CC[NH+](C(c2ccccc2)c2ccccc2)CC1

$$$$
