O=C1C[C@@H](Cc2c[nH+]c(NC(c3ccccc3)c3ccccc3)[nH]2)CN1
     RDKit          3D

 49 52  0  0  1  0  0  0  0  0999 V2000
  123.6934  133.8226  161.4787 O   0  0  0  0  0  0  0  0  0  0  0  0
  124.7961  133.9145  160.9823 C   0  0  0  0  0  0  0  0  0  0  0  0
  125.7427  132.7567  160.7539 C   0  0  0  0  0  0  0  0  0  0  0  0
  127.1133  133.4299  160.5104 C   0  0  1  0  0  0  0  0  0  0  0  0
  127.6797  133.5098  161.4383 H   0  0  0  0  0  0  0  0  0  0  0  0
  127.9132  132.6745  159.4472 C   0  0  0  0  0  0  0  0  0  0  0  0
  129.1987  133.4101  159.1689 C   0  0  0  0  0  0  0  0  0  0  0  0
  129.8711  133.4336  158.0056 C   0  0  0  0  0  0  0  0  0  0  0  0
  130.9609  134.2041  158.1632 N   0  0  0  0  0  0  0  0  0  0  0  0
  131.6187  134.3930  157.4758 H   0  0  0  0  0  0  0  0  0  0  0  0
  130.9973  134.6574  159.3938 C   0  0  0  0  0  0  0  0  0  0  0  0
  131.9759  135.4811  159.9248 N   0  0  0  0  0  0  0  0  0  0  0  0
  131.8908  135.9133  161.3219 C   0  0  0  0  0  0  0  0  0  0  0  0
  133.2793  136.1258  161.8676 C   0  0  0  0  0  0  0  0  0  0  0  0
  133.9491  135.0822  162.4783 C   0  0  0  0  0  0  0  0  0  0  0  0
  135.2250  135.2756  162.9738 C   0  0  0  0  0  0  0  0  0  0  0  0
  135.8291  136.5140  162.8633 C   0  0  0  0  0  0  0  0  0  0  0  0
  135.1570  137.5593  162.2578 C   0  0  0  0  0  0  0  0  0  0  0  0
  133.8811  137.3658  161.7622 C   0  0  0  0  0  0  0  0  0  0  0  0
  131.1166  137.2037  161.4022 C   0  0  0  0  0  0  0  0  0  0  0  0
  130.3728  137.4945  162.5305 C   0  0  0  0  0  0  0  0  0  0  0  0
  129.6668  138.6806  162.6063 C   0  0  0  0  0  0  0  0  0  0  0  0
  129.6955  139.5708  161.5491 C   0  0  0  0  0  0  0  0  0  0  0  0
  130.4350  139.2777  160.4185 C   0  0  0  0  0  0  0  0  0  0  0  0
  131.1456  138.0941  160.3451 C   0  0  0  0  0  0  0  0  0  0  0  0
  129.9078  134.1860  160.0579 N   0  0  0  0  0  0  0  0  0  0  0  0
  129.6746  134.3632  160.9827 H   0  0  0  0  0  0  0  0  0  0  0  0
  126.6923  134.8251  159.9978 C   0  0  0  0  0  0  0  0  0  0  0  0
  125.3551  135.0598  160.5551 N   0  0  0  0  0  0  0  0  0  0  0  0
  125.4389  132.1824  159.8788 H   0  0  0  0  0  0  0  0  0  0  0  0
  125.7831  132.1174  161.6358 H   0  0  0  0  0  0  0  0  0  0  0  0
  127.3270  132.6077  158.5307 H   0  0  0  0  0  0  0  0  0  0  0  0
  128.1396  131.6711  159.8076 H   0  0  0  0  0  0  0  0  0  0  0  0
  129.5826  132.9241  157.0981 H   0  0  0  0  0  0  0  0  0  0  0  0
  132.7178  135.7716  159.3716 H   0  0  0  0  0  0  0  0  0  0  0  0
  131.3829  135.1480  161.9087 H   0  0  0  0  0  0  0  0  0  0  0  0
  133.4774  134.1145  162.5644 H   0  0  0  0  0  0  0  0  0  0  0  0
  135.7501  134.4589  163.4469 H   0  0  0  0  0  0  0  0  0  0  0  0
  136.8259  136.6652  163.2504 H   0  0  0  0  0  0  0  0  0  0  0  0
  135.6287  138.5271  162.1720 H   0  0  0  0  0  0  0  0  0  0  0  0
  133.3559  138.1825  161.2893 H   0  0  0  0  0  0  0  0  0  0  0  0
  130.3466  136.7969  163.3546 H   0  0  0  0  0  0  0  0  0  0  0  0
  129.0893  138.9098  163.4895 H   0  0  0  0  0  0  0  0  0  0  0  0
  129.1404  140.4954  161.6064 H   0  0  0  0  0  0  0  0  0  0  0  0
  130.4574  139.9730  159.5926 H   0  0  0  0  0  0  0  0  0  0  0  0
  131.7231  137.8650  159.4617 H   0  0  0  0  0  0  0  0  0  0  0  0
  127.3885  135.5841  160.3550 H   0  0  0  0  0  0  0  0  0  0  0  0
  126.6549  134.8313  158.9084 H   0  0  0  0  0  0  0  0  0  0  0  0
  124.9291  135.9298  160.6080 H   0  0  0  0  0  0  0  0  0  0  0  0
  1  2  2  0
  2 29  1  0
  2  3  1  0
  3  4  1  0
  3 30  1  0
  3 31  1  0
  4  5  1  1
  4  6  1  0
  4 28  1  0
  6  7  1  0
  6 32  1  0
  6 33  1  0
  7 26  1  0
  7  8  2  0
  8  9  1  0
  8 34  1  0
  9 10  1  0
  9 11  2  0
 11 12  1  0
 11 26  1  0
 12 13  1  0
 12 35  1  0
 13 14  1  0
 13 20  1  0
 13 36  1  0
 14 19  1  0
 14 15  2  0
 15 16  1  0
 15 37  1  0
 16 17  2  0
 16 38  1  0
 17 18  1  0
 17 39  1  0
 18 19  2  0
 18 40  1  0
 19 41  1  0
 20 25  1  0
 20 21  2  0
 21 22  1  0
 21 42  1  0
 22 23  2  0
 22 43  1  0
 23 24  1  0
 23 44  1  0
 24 25  2  0
 24 45  1  0
 25 46  1  0
 26 27  1  0
 28 29  1  0
 28 47  1  0
 28 48  1  0
 29 49  1  0
M  CHG  1   9   1
M  END
>  <DOCK_score>  (1) 
-47.10429

>  <SMILES>  (1) 
O=C1C[C@@H](Cc2c[nH+]c(NC(c3ccccc3)c3ccccc3)[nH]2)CN1

$$$$
