O[C@H]1C=CCC[C@H]1[NH2+][C@@H]1CC[C@H]1[C@@H](O)c1cccc(-c2ccccc2)c1
     RDKit          3D

 54 57  0  0  1  0  0  0  0  0999 V2000
  133.6873  139.2879  158.3845 O   0  0  0  0  0  0  0  0  0  0  0  0
  134.5160  138.7462  159.4150 C   0  0  1  0  0  0  0  0  0  0  0  0
  135.1866  138.0032  158.9833 H   0  0  0  0  0  0  0  0  0  0  0  0
  135.3259  139.8482  160.0327 C   0  0  0  0  0  0  0  0  0  0  0  0
  135.0617  140.3873  161.1794 C   0  0  0  0  0  0  0  0  0  0  0  0
  133.9145  139.9785  162.0563 C   0  0  0  0  0  0  0  0  0  0  0  0
  132.8920  139.1744  161.2514 C   0  0  0  0  0  0  0  0  0  0  0  0
  133.6365  138.0804  160.4756 C   0  0  1  0  0  0  0  0  0  0  0  0
  134.2600  137.5053  161.1602 H   0  0  0  0  0  0  0  0  0  0  0  0
  132.6666  137.1896  159.8246 N   0  0  0  0  0  0  0  0  0  0  0  0
  133.1156  136.7021  159.0638 H   0  0  0  0  0  0  0  0  0  0  0  0
  131.8965  137.7347  159.4670 H   0  0  0  0  0  0  0  0  0  0  0  0
  132.1642  136.2149  160.8021 C   0  0  2  0  0  0  0  0  0  0  0  0
  131.3886  136.6242  161.4493 H   0  0  0  0  0  0  0  0  0  0  0  0
  133.2779  135.4753  161.5658 C   0  0  0  0  0  0  0  0  0  0  0  0
  132.4210  134.2056  161.4293 C   0  0  0  0  0  0  0  0  0  0  0  0
  131.7963  134.8557  160.1835 C   0  0  1  0  0  0  0  0  0  0  0  0
  132.3334  134.6364  159.2607 H   0  0  0  0  0  0  0  0  0  0  0  0
  130.2886  134.6254  160.0627 C   0  0  1  0  0  0  0  0  0  0  0  0
  129.8344  134.6658  161.0527 H   0  0  0  0  0  0  0  0  0  0  0  0
  129.7167  135.6397  159.2345 O   0  0  0  0  0  0  0  0  0  0  0  0
  130.0348  133.2729  159.4484 C   0  0  0  0  0  0  0  0  0  0  0  0
  129.3173  132.3201  160.1490 C   0  0  0  0  0  0  0  0  0  0  0  0
  129.0815  131.0765  159.5915 C   0  0  0  0  0  0  0  0  0  0  0  0
  129.5613  130.7798  158.3317 C   0  0  0  0  0  0  0  0  0  0  0  0
  130.2840  131.7358  157.6214 C   0  0  0  0  0  0  0  0  0  0  0  0
  130.8022  131.4227  156.2667 C   0  0  0  0  0  0  0  0  0  0  0  0
  130.9491  132.4367  155.3224 C   0  0  0  0  0  0  0  0  0  0  0  0
  131.4255  132.1387  154.0618 C   0  0  0  0  0  0  0  0  0  0  0  0
  131.7680  130.8380  153.7388 C   0  0  0  0  0  0  0  0  0  0  0  0
  131.6242  129.8274  154.6723 C   0  0  0  0  0  0  0  0  0  0  0  0
  131.1431  130.1132  155.9340 C   0  0  0  0  0  0  0  0  0  0  0  0
  130.5236  132.9852  158.1902 C   0  0  0  0  0  0  0  0  0  0  0  0
  133.1415  138.6302  157.9322 H   0  0  0  0  0  0  0  0  0  0  0  0
  136.1825  140.2144  159.4863 H   0  0  0  0  0  0  0  0  0  0  0  0
  135.7071  141.1804  161.5269 H   0  0  0  0  0  0  0  0  0  0  0  0
  134.2873  139.3650  162.8764 H   0  0  0  0  0  0  0  0  0  0  0  0
  133.4354  140.8692  162.4629 H   0  0  0  0  0  0  0  0  0  0  0  0
  132.3792  139.8348  160.5523 H   0  0  0  0  0  0  0  0  0  0  0  0
  132.1683  138.7170  161.9262 H   0  0  0  0  0  0  0  0  0  0  0  0
  133.3997  135.8112  162.5956 H   0  0  0  0  0  0  0  0  0  0  0  0
  134.2207  135.4264  161.0210 H   0  0  0  0  0  0  0  0  0  0  0  0
  131.7158  134.0647  162.2484 H   0  0  0  0  0  0  0  0  0  0  0  0
  132.9996  133.3082  161.2099 H   0  0  0  0  0  0  0  0  0  0  0  0
  130.0747  135.6624  158.3364 H   0  0  0  0  0  0  0  0  0  0  0  0
  128.9401  132.5478  161.1349 H   0  0  0  0  0  0  0  0  0  0  0  0
  128.5207  130.3362  160.1429 H   0  0  0  0  0  0  0  0  0  0  0  0
  129.3768  129.8082  157.8975 H   0  0  0  0  0  0  0  0  0  0  0  0
  130.6862  133.4533  155.5752 H   0  0  0  0  0  0  0  0  0  0  0  0
  131.5356  132.9232  153.3279 H   0  0  0  0  0  0  0  0  0  0  0  0
  132.1448  130.6100  152.7527 H   0  0  0  0  0  0  0  0  0  0  0  0
  131.8892  128.8129  154.4134 H   0  0  0  0  0  0  0  0  0  0  0  0
  131.0310  129.3233  156.6619 H   0  0  0  0  0  0  0  0  0  0  0  0
  131.0876  133.7283  157.6461 H   0  0  0  0  0  0  0  0  0  0  0  0
  1  2  1  0
  1 34  1  0
  2  3  1  6
  2  8  1  0
  2  4  1  0
  4  5  2  0
  4 35  1  0
  5  6  1  0
  5 36  1  0
  6  7  1  0
  6 37  1  0
  6 38  1  0
  7  8  1  0
  7 39  1  0
  7 40  1  0
  8  9  1  1
  8 10  1  0
 10 11  1  0
 10 12  1  0
 10 13  1  0
 13 14  1  1
 13 17  1  0
 13 15  1  0
 15 16  1  0
 15 41  1  0
 15 42  1  0
 16 17  1  0
 16 43  1  0
 16 44  1  0
 17 18  1  6
 17 19  1  0
 19 20  1  1
 19 21  1  0
 19 22  1  0
 21 45  1  0
 22 33  1  0
 22 23  2  0
 23 24  1  0
 23 46  1  0
 24 25  2  0
 24 47  1  0
 25 26  1  0
 25 48  1  0
 26 27  1  0
 26 33  2  0
 27 32  1  0
 27 28  2  0
 28 29  1  0
 28 49  1  0
 29 30  2  0
 29 50  1  0
 30 31  1  0
 30 51  1  0
 31 32  2  0
 31 52  1  0
 32 53  1  0
 33 54  1  0
M  CHG  1  10   1
M  END
>  <DOCK_score>  (1) 
-58.315689

>  <SMILES>  (1) 
O[C@H]1C=CCC[C@H]1[NH2+][C@@H]1CC[C@H]1[C@@H](O)c1cccc(-c2ccccc2)c1

$$$$
