Nc1ccc(-c2c[nH]c(Nc3cc(SC4CC4)c(O)cc3F)[nH+]2)cc1
     RDKit          3D

 43 46  0  0  1  0  0  0  0  0999 V2000
  131.1687  129.3461  152.0469 N   0  0  0  0  0  0  0  0  0  0  0  0
  130.9267  130.0859  153.2069 C   0  0  0  0  0  0  0  0  0  0  0  0
  130.0489  131.1636  153.1713 C   0  0  0  0  0  0  0  0  0  0  0  0
  129.8085  131.8960  154.3146 C   0  0  0  0  0  0  0  0  0  0  0  0
  130.4460  131.5550  155.5064 C   0  0  0  0  0  0  0  0  0  0  0  0
  130.1894  132.3419  156.7377 C   0  0  0  0  0  0  0  0  0  0  0  0
  129.6787  131.8626  157.8990 C   0  0  0  0  0  0  0  0  0  0  0  0
  129.6030  132.9238  158.7693 N   0  0  0  0  0  0  0  0  0  0  0  0
  129.2744  132.8966  159.6814 H   0  0  0  0  0  0  0  0  0  0  0  0
  130.0750  134.0197  158.1145 C   0  0  0  0  0  0  0  0  0  0  0  0
  130.1678  135.2969  158.6422 N   0  0  0  0  0  0  0  0  0  0  0  0
  129.2569  135.7191  159.6197 C   0  0  0  0  0  0  0  0  0  0  0  0
  129.7128  136.1042  160.8730 C   0  0  0  0  0  0  0  0  0  0  0  0
  128.8101  136.5260  161.8381 C   0  0  0  0  0  0  0  0  0  0  0  0
  129.3860  137.0219  163.4277 S   0  0  0  0  0  0  0  0  0  0  0  0
  129.6796  138.7998  163.2189 C   0  0  0  0  0  0  0  0  0  0  0  0
  131.0801  139.2385  162.7861 C   0  0  0  0  0  0  0  0  0  0  0  0
  130.6108  139.4846  164.2214 C   0  0  0  0  0  0  0  0  0  0  0  0
  127.4468  136.5526  161.5504 C   0  0  0  0  0  0  0  0  0  0  0  0
  126.5594  136.9615  162.4977 O   0  0  0  0  0  0  0  0  0  0  0  0
  126.9951  136.1630  160.3006 C   0  0  0  0  0  0  0  0  0  0  0  0
  127.8964  135.7467  159.3362 C   0  0  0  0  0  0  0  0  0  0  0  0
  127.4531  135.3664  158.1179 F   0  0  0  0  0  0  0  0  0  0  0  0
  130.4271  133.6669  156.9019 N   0  0  0  0  0  0  0  0  0  0  0  0
  130.7949  134.2600  156.2282 H   0  0  0  0  0  0  0  0  0  0  0  0
  131.3296  130.4772  155.5382 C   0  0  0  0  0  0  0  0  0  0  0  0
  131.5629  129.7444  154.3936 C   0  0  0  0  0  0  0  0  0  0  0  0
  130.7247  129.5839  151.2179 H   0  0  0  0  0  0  0  0  0  0  0  0
  131.7811  128.5941  152.0706 H   0  0  0  0  0  0  0  0  0  0  0  0
  129.5550  131.4275  152.2477 H   0  0  0  0  0  0  0  0  0  0  0  0
  129.1263  132.7329  154.2869 H   0  0  0  0  0  0  0  0  0  0  0  0
  129.3839  130.8432  158.1000 H   0  0  0  0  0  0  0  0  0  0  0  0
  130.8635  135.8991  158.3352 H   0  0  0  0  0  0  0  0  0  0  0  0
  130.7692  136.0786  161.0953 H   0  0  0  0  0  0  0  0  0  0  0  0
  128.8332  139.3752  162.8439 H   0  0  0  0  0  0  0  0  0  0  0  0
  131.8249  138.4588  162.6267 H   0  0  0  0  0  0  0  0  0  0  0  0
  131.1552  140.1027  162.1260 H   0  0  0  0  0  0  0  0  0  0  0  0
  130.3772  140.5105  164.5056 H   0  0  0  0  0  0  0  0  0  0  0  0
  131.0470  138.8667  165.0063 H   0  0  0  0  0  0  0  0  0  0  0  0
  125.6377  136.9460  162.2060 H   0  0  0  0  0  0  0  0  0  0  0  0
  125.9385  136.1839  160.0783 H   0  0  0  0  0  0  0  0  0  0  0  0
  131.8278  130.2139  156.4595 H   0  0  0  0  0  0  0  0  0  0  0  0
  132.2441  128.9068  154.4189 H   0  0  0  0  0  0  0  0  0  0  0  0
  1  2  1  0
  1 28  1  0
  1 29  1  0
  2 27  2  0
  2  3  1  0
  3  4  2  0
  3 30  1  0
  4  5  1  0
  4 31  1  0
  5  6  1  0
  5 26  2  0
  6 24  1  0
  6  7  2  0
  7  8  1  0
  7 32  1  0
  8  9  1  0
  8 10  1  0
 10 11  1  0
 10 24  2  0
 11 12  1  0
 11 33  1  0
 12 22  1  0
 12 13  2  0
 13 14  1  0
 13 34  1  0
 14 15  1  0
 14 19  2  0
 15 16  1  0
 16 18  1  0
 16 17  1  0
 16 35  1  0
 17 18  1  0
 17 36  1  0
 17 37  1  0
 18 38  1  0
 18 39  1  0
 19 20  1  0
 19 21  1  0
 20 40  1  0
 21 22  2  0
 21 41  1  0
 22 23  1  0
 24 25  1  0
 26 27  1  0
 26 42  1  0
 27 43  1  0
M  CHG  1  24   1
M  END
>  <DOCK_score>  (1) 
-52.734539

>  <SMILES>  (1) 
Nc1ccc(-c2c[nH]c(Nc3cc(SC4CC4)c(O)cc3F)[nH+]2)cc1

$$$$
