O=C1CC[C@H](NC(NC2CCCCCC2)=[NH+]CCc2ccc(Br)cc2)CN1
     RDKit          3D

 59 61  0  0  1  0  0  0  0  0999 V2000
  124.2298  134.1076  162.3031 O   0  0  0  0  0  0  0  0  0  0  0  0
  125.3460  134.3697  161.9075 C   0  0  0  0  0  0  0  0  0  0  0  0
  126.2276  133.2370  161.4660 C   0  0  0  0  0  0  0  0  0  0  0  0
  127.6868  133.6977  161.4262 C   0  0  0  0  0  0  0  0  0  0  0  0
  127.7555  135.0239  160.6593 C   0  0  2  0  0  0  0  0  0  0  0  0
  127.2615  134.9141  159.6940 H   0  0  0  0  0  0  0  0  0  0  0  0
  129.1562  135.4011  160.4545 N   0  0  0  0  0  0  0  0  0  0  0  0
  129.9964  134.5696  159.7522 C   0  0  0  0  0  0  0  0  0  0  0  0
  129.4933  133.7644  158.7580 N   0  0  0  0  0  0  0  0  0  0  0  0
  130.3883  132.8784  158.0096 C   0  0  0  0  0  0  0  0  0  0  0  0
  130.5108  131.6175  158.7261 C   0  0  0  0  0  0  0  0  0  0  0  0
  131.4913  130.6443  158.0401 C   0  0  0  0  0  0  0  0  0  0  0  0
  130.7802  129.9783  156.8935 C   0  0  0  0  0  0  0  0  0  0  0  0
  131.0121  130.7041  155.5544 C   0  0  0  0  0  0  0  0  0  0  0  0
  130.9496  132.2377  155.6875 C   0  0  0  0  0  0  0  0  0  0  0  0
  129.8299  132.6927  156.5839 C   0  0  0  0  0  0  0  0  0  0  0  0
  131.2698  134.5450  160.0291 N   0  0  0  0  0  0  0  0  0  0  0  0
  131.7797  133.7309  159.8948 H   0  0  0  0  0  0  0  0  0  0  0  0
  131.9311  135.7471  160.5430 C   0  0  0  0  0  0  0  0  0  0  0  0
  133.3958  135.7521  160.1006 C   0  0  0  0  0  0  0  0  0  0  0  0
  134.0759  136.9885  160.6292 C   0  0  0  0  0  0  0  0  0  0  0  0
  134.0901  138.1460  159.8735 C   0  0  0  0  0  0  0  0  0  0  0  0
  134.7096  139.2817  160.3599 C   0  0  0  0  0  0  0  0  0  0  0  0
  135.3247  139.2570  161.5987 C   0  0  0  0  0  0  0  0  0  0  0  0
  136.1782  140.8086  162.2620 Br  0  0  0  0  0  0  0  0  0  0  0  0
  135.3150  138.0971  162.3522 C   0  0  0  0  0  0  0  0  0  0  0  0
  134.6904  136.9633  161.8672 C   0  0  0  0  0  0  0  0  0  0  0  0
  127.0488  136.1022  161.4816 C   0  0  0  0  0  0  0  0  0  0  0  0
  125.7245  135.6481  161.8875 N   0  0  0  0  0  0  0  0  0  0  0  0
  125.9245  132.9084  160.4719 H   0  0  0  0  0  0  0  0  0  0  0  0
  126.1286  132.4082  162.1670 H   0  0  0  0  0  0  0  0  0  0  0  0
  128.2945  132.9485  160.9189 H   0  0  0  0  0  0  0  0  0  0  0  0
  128.0545  133.8418  162.4421 H   0  0  0  0  0  0  0  0  0  0  0  0
  129.4909  136.2374  160.8141 H   0  0  0  0  0  0  0  0  0  0  0  0
  128.5456  133.7828  158.5520 H   0  0  0  0  0  0  0  0  0  0  0  0
  131.3713  133.3448  157.9456 H   0  0  0  0  0  0  0  0  0  0  0  0
  130.8630  131.8189  159.7377 H   0  0  0  0  0  0  0  0  0  0  0  0
  129.5290  131.1472  158.7834 H   0  0  0  0  0  0  0  0  0  0  0  0
  132.3530  131.1966  157.6654 H   0  0  0  0  0  0  0  0  0  0  0  0
  131.8191  129.8900  158.7554 H   0  0  0  0  0  0  0  0  0  0  0  0
  129.7109  129.9603  157.1043 H   0  0  0  0  0  0  0  0  0  0  0  0
  131.1375  128.9524  156.8050 H   0  0  0  0  0  0  0  0  0  0  0  0
  130.2513  130.3816  154.8434 H   0  0  0  0  0  0  0  0  0  0  0  0
  131.9929  130.4243  155.1700 H   0  0  0  0  0  0  0  0  0  0  0  0
  130.8078  132.6722  154.6979 H   0  0  0  0  0  0  0  0  0  0  0  0
  131.8953  132.5937  156.0962 H   0  0  0  0  0  0  0  0  0  0  0  0
  129.0409  131.9407  156.5947 H   0  0  0  0  0  0  0  0  0  0  0  0
  129.4316  133.6399  156.2204 H   0  0  0  0  0  0  0  0  0  0  0  0
  131.4303  136.6326  160.1517 H   0  0  0  0  0  0  0  0  0  0  0  0
  131.8804  135.7523  161.6318 H   0  0  0  0  0  0  0  0  0  0  0  0
  133.8965  134.8664  160.4919 H   0  0  0  0  0  0  0  0  0  0  0  0
  133.4464  135.7468  159.0118 H   0  0  0  0  0  0  0  0  0  0  0  0
  133.6133  138.1640  158.9046 H   0  0  0  0  0  0  0  0  0  0  0  0
  134.7175  140.1870  159.7710 H   0  0  0  0  0  0  0  0  0  0  0  0
  135.7947  138.0774  163.3196 H   0  0  0  0  0  0  0  0  0  0  0  0
  134.6825  136.0577  162.4557 H   0  0  0  0  0  0  0  0  0  0  0  0
  127.6411  136.3245  162.3692 H   0  0  0  0  0  0  0  0  0  0  0  0
  126.9512  137.0068  160.8815 H   0  0  0  0  0  0  0  0  0  0  0  0
  125.0781  136.3180  162.1602 H   0  0  0  0  0  0  0  0  0  0  0  0
  1  2  2  0
  2 29  1  0
  2  3  1  0
  3  4  1  0
  3 30  1  0
  3 31  1  0
  4  5  1  0
  4 32  1  0
  4 33  1  0
  5  6  1  6
  5  7  1  0
  5 28  1  0
  7 34  1  0
  8  7  1  0
  8  9  1  0
  8 17  2  0
  9 10  1  0
  9 35  1  0
 10 16  1  0
 10 11  1  0
 10 36  1  0
 11 12  1  0
 11 37  1  0
 11 38  1  0
 12 13  1  0
 12 39  1  0
 12 40  1  0
 13 14  1  0
 13 41  1  0
 13 42  1  0
 14 15  1  0
 14 43  1  0
 14 44  1  0
 15 16  1  0
 15 45  1  0
 15 46  1  0
 16 47  1  0
 16 48  1  0
 17 18  1  0
 17 19  1  0
 19 20  1  0
 19 49  1  0
 19 50  1  0
 20 21  1  0
 20 51  1  0
 20 52  1  0
 21 27  1  0
 21 22  2  0
 22 23  1  0
 22 53  1  0
 23 24  2  0
 23 54  1  0
 24 25  1  0
 24 26  1  0
 26 27  2  0
 26 55  1  0
 27 56  1  0
 28 29  1  0
 28 57  1  0
 28 58  1  0
 29 59  1  0
M  CHG  1  17   1
M  END
>  <DOCK_score>  (1) 
-44.541298

>  <SMILES>  (1) 
O=C1CC[C@H](NC(NC2CCCCCC2)=[NH+]CCc2ccc(Br)cc2)CN1

$$$$
