OC[C@H](Cc1c[nH]c2ccc(O)cc12)[NH2+]Cc1cccc2ccccc12
     RDKit          3D

 49 52  0  0  1  0  0  0  0  0999 V2000
  132.7010  135.4007  159.6958 O   0  0  0  0  0  0  0  0  0  0  0  0
  131.6665  134.7111  160.4003 C   0  0  0  0  0  0  0  0  0  0  0  0
  130.3606  135.5005  160.2898 C   0  0  2  0  0  0  0  0  0  0  0  0
  129.6823  135.1939  161.0860 H   0  0  0  0  0  0  0  0  0  0  0  0
  129.7114  135.2250  158.9321 C   0  0  0  0  0  0  0  0  0  0  0  0
  128.9856  133.9051  158.9809 C   0  0  0  0  0  0  0  0  0  0  0  0
  129.4958  132.7017  158.6751 C   0  0  0  0  0  0  0  0  0  0  0  0
  128.5420  131.7351  158.8403 N   0  0  0  0  0  0  0  0  0  0  0  0
  128.6757  130.7873  158.6824 H   0  0  0  0  0  0  0  0  0  0  0  0
  127.3605  132.3098  159.2591 C   0  0  0  0  0  0  0  0  0  0  0  0
  126.1041  131.7962  159.5637 C   0  0  0  0  0  0  0  0  0  0  0  0
  125.0941  132.6412  159.9655 C   0  0  0  0  0  0  0  0  0  0  0  0
  125.3160  134.0120  160.0710 C   0  0  0  0  0  0  0  0  0  0  0  0
  124.3072  134.8327  160.4686 O   0  0  0  0  0  0  0  0  0  0  0  0
  126.5559  134.5411  159.7738 C   0  0  0  0  0  0  0  0  0  0  0  0
  127.5879  133.6933  159.3651 C   0  0  0  0  0  0  0  0  0  0  0  0
  130.6445  136.9365  160.4144 N   0  0  0  0  0  0  0  0  0  0  0  0
  129.8786  137.4657  160.0253 H   0  0  0  0  0  0  0  0  0  0  0  0
  131.4931  137.1562  159.9147 H   0  0  0  0  0  0  0  0  0  0  0  0
  130.8079  137.2821  161.8328 C   0  0  0  0  0  0  0  0  0  0  0  0
  131.0992  138.7551  161.9605 C   0  0  0  0  0  0  0  0  0  0  0  0
  130.0781  139.6452  162.0967 C   0  0  0  0  0  0  0  0  0  0  0  0
  130.3279  141.0106  162.2167 C   0  0  0  0  0  0  0  0  0  0  0  0
  131.6001  141.4946  162.1994 C   0  0  0  0  0  0  0  0  0  0  0  0
  132.6799  140.6064  162.0598 C   0  0  0  0  0  0  0  0  0  0  0  0
  134.0071  141.0683  162.0387 C   0  0  0  0  0  0  0  0  0  0  0  0
  135.0276  140.1785  161.9029 C   0  0  0  0  0  0  0  0  0  0  0  0
  134.7778  138.8125  161.7834 C   0  0  0  0  0  0  0  0  0  0  0  0
  133.5059  138.3287  161.7997 C   0  0  0  0  0  0  0  0  0  0  0  0
  132.4258  139.2172  161.9388 C   0  0  0  0  0  0  0  0  0  0  0  0
  132.5207  135.5237  158.7537 H   0  0  0  0  0  0  0  0  0  0  0  0
  131.9445  134.6134  161.4497 H   0  0  0  0  0  0  0  0  0  0  0  0
  131.5300  133.7203  159.9669 H   0  0  0  0  0  0  0  0  0  0  0  0
  129.0035  136.0206  158.6996 H   0  0  0  0  0  0  0  0  0  0  0  0
  130.4818  135.1877  158.1618 H   0  0  0  0  0  0  0  0  0  0  0  0
  130.5099  132.5228  158.3495 H   0  0  0  0  0  0  0  0  0  0  0  0
  125.9208  130.7348  159.4846 H   0  0  0  0  0  0  0  0  0  0  0  0
  124.1205  132.2372  160.2007 H   0  0  0  0  0  0  0  0  0  0  0  0
  124.5539  135.7667  160.5124 H   0  0  0  0  0  0  0  0  0  0  0  0
  126.7269  135.6043  159.8567 H   0  0  0  0  0  0  0  0  0  0  0  0
  131.6353  136.7104  162.2530 H   0  0  0  0  0  0  0  0  0  0  0  0
  129.8911  137.0449  162.3724 H   0  0  0  0  0  0  0  0  0  0  0  0
  129.0592  139.2874  162.1130 H   0  0  0  0  0  0  0  0  0  0  0  0
  129.4997  141.6954  162.3241 H   0  0  0  0  0  0  0  0  0  0  0  0
  131.7787  142.5552  162.2970 H   0  0  0  0  0  0  0  0  0  0  0  0
  134.2159  142.1241  162.1297 H   0  0  0  0  0  0  0  0  0  0  0  0
  136.0466  140.5362  161.8870 H   0  0  0  0  0  0  0  0  0  0  0  0
  135.6059  138.1277  161.6759 H   0  0  0  0  0  0  0  0  0  0  0  0
  133.3274  137.2677  161.7056 H   0  0  0  0  0  0  0  0  0  0  0  0
  1  2  1  0
  1 31  1  0
  2  3  1  0
  2 32  1  0
  2 33  1  0
  3  4  1  1
  3  5  1  0
  3 17  1  0
  5  6  1  0
  5 34  1  0
  5 35  1  0
  6 16  1  0
  6  7  2  0
  7  8  1  0
  7 36  1  0
  8  9  1  0
  8 10  1  0
 10 16  2  0
 10 11  1  0
 11 12  2  0
 11 37  1  0
 12 13  1  0
 12 38  1  0
 13 14  1  0
 13 15  2  0
 14 39  1  0
 15 16  1  0
 15 40  1  0
 17 18  1  0
 17 19  1  0
 17 20  1  0
 20 21  1  0
 20 41  1  0
 20 42  1  0
 21 30  1  0
 21 22  2  0
 22 23  1  0
 22 43  1  0
 23 24  2  0
 23 44  1  0
 24 25  1  0
 24 45  1  0
 25 30  2  0
 25 26  1  0
 26 27  2  0
 26 46  1  0
 27 28  1  0
 27 47  1  0
 28 29  2  0
 28 48  1  0
 29 30  1  0
 29 49  1  0
M  CHG  1  17   1
M  END
>  <DOCK_score>  (1) 
-41.872997

>  <SMILES>  (1) 
OC[C@H](Cc1c[nH]c2ccc(O)cc12)[NH2+]Cc1cccc2ccccc12

$$$$
