
     RDKit          2D

 34 37  0  0  0  0  0  0  0  0999 V2000
    9.7759    0.1992    0.0000 O   0  0  0  0  0  0  0  0  0  0  0  0
    8.3340   -0.2143    0.0000 C   0  0  0  0  0  0  0  0  0  0  0  0
    7.1520    0.7092    0.0000 C   0  0  0  0  0  0  0  0  0  0  0  0
    5.9084   -0.1296    0.0000 C   0  0  0  0  0  0  0  0  0  0  0  0
    4.4989    0.3835    0.0000 N   0  0  0  0  0  0  0  0  0  0  0  0
    4.2384    1.8607    0.0000 C   0  0  0  0  0  0  0  0  0  0  0  0
    2.8289    2.3737    0.0000 N   0  0  0  0  0  0  0  0  0  0  0  0
    1.6798    1.4095    0.0000 C   0  0  0  0  0  0  0  0  0  0  0  0
    2.1929    0.0000    0.0000 C   0  0  0  0  0  0  0  0  0  0  0  0
    1.6798   -1.4095    0.0000 C   0  0  0  0  0  0  0  0  0  0  0  0
    0.3808   -2.1595    0.0000 C   0  0  0  0  0  0  0  0  0  0  0  0
   -1.0964   -1.8991    0.0000 C   0  0  0  0  0  0  0  0  0  0  0  0
   -2.0606   -0.7500    0.0000 C   0  0  0  0  0  0  0  0  0  0  0  0
   -2.0606    0.7500    0.0000 C   0  0  0  0  0  0  0  0  0  0  0  0
   -1.0964    1.8991    0.0000 C   0  0  0  0  0  0  0  0  0  0  0  0
    0.3808    2.1595    0.0000 C   0  0  0  0  0  0  0  0  0  0  0  0
    5.3875    2.8249    0.0000 N   0  0  0  0  0  0  0  0  0  0  0  0
    6.7970    2.3118    0.0000 C   0  0  0  0  0  0  0  0  0  0  0  0
    7.9461    3.2760    0.0000 C   0  0  0  0  0  0  0  0  0  0  0  0
    7.6856    4.7532    0.0000 O   0  0  0  0  0  0  0  0  0  0  0  0
    9.3556    2.7630    0.0000 C   0  0  0  0  0  0  0  0  0  0  0  0
    9.6161    1.2858    0.0000 C   0  0  0  0  0  0  0  0  0  0  0  0
   11.0257    0.7728    0.0000 C   0  0  0  0  0  0  0  0  0  0  0  0
   12.1747    1.7369    0.0000 C   0  0  0  0  0  0  0  0  0  0  0  0
   13.5843    1.2239    0.0000 C   0  0  0  0  0  0  0  0  0  0  0  0
   13.8447   -0.2533    0.0000 C   0  0  0  0  0  0  0  0  0  0  0  0
   15.2543   -0.7663    0.0000 C   0  0  0  0  0  0  0  0  0  0  0  0
   16.4033    0.1978    0.0000 C   0  0  0  0  0  0  0  0  0  0  0  0
   16.1429    1.6751    0.0000 C   0  0  0  0  0  0  0  0  0  0  0  0
   14.7333    2.1881    0.0000 C   0  0  0  0  0  0  0  0  0  0  0  0
   11.9142    3.2141    0.0000 C   0  0  0  0  0  0  0  0  0  0  0  0
   10.5047    3.7272    0.0000 C   0  0  0  0  0  0  0  0  0  0  0  0
    6.3219   -1.5714    0.0000 C   0  0  0  0  0  0  0  0  0  0  0  0
    7.8210   -1.6238    0.0000 N   0  0  0  0  0  0  0  0  0  0  0  0
  1  2  2  0
  2  3  1  0
  3  4  1  0
  4  5  1  0
  5  6  1  0
  6  7  2  3
  7  8  1  0
  8  9  1  0
  9 10  1  0
 10 11  1  0
 11 12  1  0
 12 13  1  0
 13 14  1  0
 14 15  1  0
 15 16  1  0
  6 17  1  0
 17 18  1  0
 18 19  1  0
 19 20  1  6
 19 21  1  0
 21 22  2  0
 22 23  1  0
 23 24  2  0
 24 25  1  0
 25 26  2  0
 26 27  1  0
 27 28  1  0
 28 29  1  0
 29 30  1  0
 24 31  1  0
 31 32  2  0
  4 33  1  0
 33 34  1  0
 34  2  1  0
 16  8  1  0
 32 21  1  0
 30 25  1  0
M  END
$$$$
