CCc1ccc(-c2c[nH]c(N[C@@H](C=CCO)c3cccc4ccccc34)[nH+]2)cc1
     RDKit          3D

 55 58  0  0  1  0  0  0  0  0999 V2000
  129.7622  128.3143  151.2419 C   0  0  0  0  0  0  0  0  0  0  0  0
  130.8695  129.3602  151.3886 C   0  0  0  0  0  0  0  0  0  0  0  0
  130.7481  130.0354  152.7303 C   0  0  0  0  0  0  0  0  0  0  0  0
  131.4117  129.5139  153.8270 C   0  0  0  0  0  0  0  0  0  0  0  0
  131.3041  130.1282  155.0580 C   0  0  0  0  0  0  0  0  0  0  0  0
  130.5253  131.2759  155.1954 C   0  0  0  0  0  0  0  0  0  0  0  0
  130.4057  131.9406  156.5160 C   0  0  0  0  0  0  0  0  0  0  0  0
  129.9084  131.3835  157.6479 C   0  0  0  0  0  0  0  0  0  0  0  0
  129.9822  132.3415  158.6296 N   0  0  0  0  0  0  0  0  0  0  0  0
  129.7007  132.2413  159.5524 H   0  0  0  0  0  0  0  0  0  0  0  0
  130.5229  133.4572  158.0683 C   0  0  0  0  0  0  0  0  0  0  0  0
  130.7667  134.6521  158.7235 N   0  0  0  0  0  0  0  0  0  0  0  0
  130.4358  134.7895  160.1440 C   0  0  1  0  0  0  0  0  0  0  0  0
  130.6954  133.8697  160.6681 H   0  0  0  0  0  0  0  0  0  0  0  0
  131.2126  135.9393  160.7319 C   0  0  0  0  0  0  0  0  0  0  0  0
  132.3964  135.7314  161.2529 C   0  0  0  0  0  0  0  0  0  0  0  0
  133.1734  136.8812  161.8410 C   0  0  0  0  0  0  0  0  0  0  0  0
  134.4135  137.0232  161.1455 O   0  0  0  0  0  0  0  0  0  0  0  0
  128.9594  135.0526  160.2927 C   0  0  0  0  0  0  0  0  0  0  0  0
  128.1634  135.1277  159.1909 C   0  0  0  0  0  0  0  0  0  0  0  0
  126.7964  135.3699  159.3087 C   0  0  0  0  0  0  0  0  0  0  0  0
  126.2170  135.5383  160.5288 C   0  0  0  0  0  0  0  0  0  0  0  0
  127.0064  135.4677  161.6889 C   0  0  0  0  0  0  0  0  0  0  0  0
  126.4442  135.6369  162.9659 C   0  0  0  0  0  0  0  0  0  0  0  0
  127.2400  135.5623  164.0673 C   0  0  0  0  0  0  0  0  0  0  0  0
  128.6076  135.3205  163.9495 C   0  0  0  0  0  0  0  0  0  0  0  0
  129.1868  135.1512  162.7297 C   0  0  0  0  0  0  0  0  0  0  0  0
  128.3972  135.2213  161.5692 C   0  0  0  0  0  0  0  0  0  0  0  0
  130.7694  133.2157  156.8040 N   0  0  0  0  0  0  0  0  0  0  0  0
  131.1531  133.8468  156.1751 H   0  0  0  0  0  0  0  0  0  0  0  0
  129.8548  131.7934  154.0885 C   0  0  0  0  0  0  0  0  0  0  0  0
  129.9739  131.1737  152.8611 C   0  0  0  0  0  0  0  0  0  0  0  0
  129.8571  127.5705  152.0330 H   0  0  0  0  0  0  0  0  0  0  0  0
  128.7902  128.8018  151.3165 H   0  0  0  0  0  0  0  0  0  0  0  0
  129.8500  127.8258  150.2715 H   0  0  0  0  0  0  0  0  0  0  0  0
  130.7746  130.1034  150.5978 H   0  0  0  0  0  0  0  0  0  0  0  0
  131.8417  128.8719  151.3143 H   0  0  0  0  0  0  0  0  0  0  0  0
  132.0148  128.6244  153.7193 H   0  0  0  0  0  0  0  0  0  0  0  0
  131.8224  129.7205  155.9132 H   0  0  0  0  0  0  0  0  0  0  0  0
  129.5269  130.3789  157.7565 H   0  0  0  0  0  0  0  0  0  0  0  0
  131.1568  135.3984  158.2419 H   0  0  0  0  0  0  0  0  0  0  0  0
  130.7933  136.9345  160.7237 H   0  0  0  0  0  0  0  0  0  0  0  0
  132.8157  134.7361  161.2612 H   0  0  0  0  0  0  0  0  0  0  0  0
  132.5941  137.7992  161.7423 H   0  0  0  0  0  0  0  0  0  0  0  0
  133.3683  136.6861  162.8956 H   0  0  0  0  0  0  0  0  0  0  0  0
  134.9815  136.2419  161.1909 H   0  0  0  0  0  0  0  0  0  0  0  0
  128.5981  134.9973  158.2108 H   0  0  0  0  0  0  0  0  0  0  0  0
  126.1874  135.4250  158.4185 H   0  0  0  0  0  0  0  0  0  0  0  0
  125.1568  135.7296  160.6045 H   0  0  0  0  0  0  0  0  0  0  0  0
  125.3860  135.8248  163.0725 H   0  0  0  0  0  0  0  0  0  0  0  0
  126.8054  135.6927  165.0473 H   0  0  0  0  0  0  0  0  0  0  0  0
  129.2168  135.2665  164.8396 H   0  0  0  0  0  0  0  0  0  0  0  0
  130.2478  134.9638  162.6539 H   0  0  0  0  0  0  0  0  0  0  0  0
  129.2461  132.6797  154.1903 H   0  0  0  0  0  0  0  0  0  0  0  0
  129.4581  131.5763  152.0018 H   0  0  0  0  0  0  0  0  0  0  0  0
  1  2  1  0
  1 33  1  0
  1 34  1  0
  1 35  1  0
  2  3  1  0
  2 36  1  0
  2 37  1  0
  3 32  2  0
  3  4  1  0
  4  5  2  0
  4 38  1  0
  5  6  1  0
  5 39  1  0
  6  7  1  0
  6 31  2  0
  7 29  1  0
  7  8  2  0
  8  9  1  0
  8 40  1  0
  9 10  1  0
  9 11  1  0
 11 12  1  0
 11 29  2  0
 12 13  1  0
 12 41  1  0
 13 14  1  1
 13 15  1  0
 13 19  1  0
 15 16  2  0
 15 42  1  0
 16 17  1  0
 16 43  1  0
 17 18  1  0
 17 44  1  0
 17 45  1  0
 18 46  1  0
 19 28  1  0
 19 20  2  0
 20 21  1  0
 20 47  1  0
 21 22  2  0
 21 48  1  0
 22 23  1  0
 22 49  1  0
 23 28  2  0
 23 24  1  0
 24 25  2  0
 24 50  1  0
 25 26  1  0
 25 51  1  0
 26 27  2  0
 26 52  1  0
 27 28  1  0
 27 53  1  0
 29 30  1  0
 31 32  1  0
 31 54  1  0
 32 55  1  0
M  CHG  1  29   1
M  END
>  <DOCK_score>  (1) 
-58.018284

>  <SMILES>  (1) 
CCc1ccc(-c2c[nH]c(N[C@@H](C=CCO)c3cccc4ccccc34)[nH+]2)cc1

$$$$
