CC(C)[NH2+]CCNC1=C(NCc2cccnc2Br)C(=O)C(N)=C(Cl)C1=O
     RDKit          3D

 48 49  0  0  0  0  0  0  0  0999 V2000
  134.2294  139.1893  157.9708 C   0  0  0  0  0  0  0  0  0  0  0  0
  133.2674  138.9986  159.1452 C   0  0  0  0  0  0  0  0  0  0  0  0
  131.8859  139.5349  158.7650 C   0  0  0  0  0  0  0  0  0  0  0  0
  133.1660  137.5691  159.4679 N   0  0  0  0  0  0  0  0  0  0  0  0
  134.0777  137.1427  159.3964 H   0  0  0  0  0  0  0  0  0  0  0  0
  132.5340  137.1223  158.8206 H   0  0  0  0  0  0  0  0  0  0  0  0
  132.6574  137.4110  160.8370 C   0  0  0  0  0  0  0  0  0  0  0  0
  132.5518  135.9221  161.1731 C   0  0  0  0  0  0  0  0  0  0  0  0
  131.6342  135.2732  160.2334 N   0  0  0  0  0  0  0  0  0  0  0  0
  130.2618  135.3770  160.4191 C   0  0  0  0  0  0  0  0  0  0  0  0
  129.4120  134.7756  159.5482 C   0  0  0  0  0  0  0  0  0  0  0  0
  129.9166  134.0518  158.4653 N   0  0  0  0  0  0  0  0  0  0  0  0
  129.1648  132.9137  157.9308 C   0  0  0  0  0  0  0  0  0  0  0  0
  129.9207  132.3106  156.7750 C   0  0  0  0  0  0  0  0  0  0  0  0
  129.6983  132.7567  155.4815 C   0  0  0  0  0  0  0  0  0  0  0  0
  130.4208  132.1771  154.4497 C   0  0  0  0  0  0  0  0  0  0  0  0
  131.3238  131.1722  154.7411 C   0  0  0  0  0  0  0  0  0  0  0  0
  131.5065  130.7684  155.9830 N   0  0  0  0  0  0  0  0  0  0  0  0
  130.8410  131.3010  156.9905 C   0  0  0  0  0  0  0  0  0  0  0  0
  131.1498  130.6771  158.7487 Br  0  0  0  0  0  0  0  0  0  0  0  0
  127.9581  134.8868  159.7471 C   0  0  0  0  0  0  0  0  0  0  0  0
  127.1946  134.3503  158.9695 O   0  0  0  0  0  0  0  0  0  0  0  0
  127.4258  135.6578  160.9014 C   0  0  0  0  0  0  0  0  0  0  0  0
  126.0635  135.7647  161.0906 N   0  0  0  0  0  0  0  0  0  0  0  0
  128.2779  136.2547  161.7657 C   0  0  0  0  0  0  0  0  0  0  0  0
  127.6558  137.1609  163.1093 Cl  0  0  0  0  0  0  0  0  0  0  0  0
  129.7270  136.1429  161.5661 C   0  0  0  0  0  0  0  0  0  0  0  0
  130.4901  136.6809  162.3452 O   0  0  0  0  0  0  0  0  0  0  0  0
  134.3048  140.2500  157.7314 H   0  0  0  0  0  0  0  0  0  0  0  0
  135.2137  138.8071  158.2417 H   0  0  0  0  0  0  0  0  0  0  0  0
  133.8552  138.6464  157.1029 H   0  0  0  0  0  0  0  0  0  0  0  0
  133.6417  139.5413  160.0132 H   0  0  0  0  0  0  0  0  0  0  0  0
  131.2006  139.3990  159.6016 H   0  0  0  0  0  0  0  0  0  0  0  0
  131.9613  140.5957  158.5255 H   0  0  0  0  0  0  0  0  0  0  0  0
  131.5117  138.9922  157.8969 H   0  0  0  0  0  0  0  0  0  0  0  0
  131.6726  137.8717  160.9142 H   0  0  0  0  0  0  0  0  0  0  0  0
  133.3401  137.8937  161.5362 H   0  0  0  0  0  0  0  0  0  0  0  0
  132.1745  135.8047  162.1889 H   0  0  0  0  0  0  0  0  0  0  0  0
  133.5368  135.4616  161.0958 H   0  0  0  0  0  0  0  0  0  0  0  0
  131.9852  134.7710  159.4812 H   0  0  0  0  0  0  0  0  0  0  0  0
  130.7648  134.3028  158.0671 H   0  0  0  0  0  0  0  0  0  0  0  0
  129.0365  132.1640  158.7117 H   0  0  0  0  0  0  0  0  0  0  0  0
  128.1871  133.2525  157.5884 H   0  0  0  0  0  0  0  0  0  0  0  0
  128.9824  133.5406  155.2826 H   0  0  0  0  0  0  0  0  0  0  0  0
  130.2759  132.5031  153.4304 H   0  0  0  0  0  0  0  0  0  0  0  0
  131.8868  130.7126  153.9422 H   0  0  0  0  0  0  0  0  0  0  0  0
  125.7165  136.2679  161.8438 H   0  0  0  0  0  0  0  0  0  0  0  0
  125.4526  135.3364  160.4707 H   0  0  0  0  0  0  0  0  0  0  0  0
  1  2  1  0
  1 29  1  0
  1 30  1  0
  1 31  1  0
  2  3  1  0
  2  4  1  0
  2 32  1  0
  3 33  1  0
  3 34  1  0
  3 35  1  0
  4  5  1  0
  4  6  1  0
  4  7  1  0
  7  8  1  0
  7 36  1  0
  7 37  1  0
  8  9  1  0
  8 38  1  0
  8 39  1  0
  9 10  1  0
  9 40  1  0
 10 27  1  0
 10 11  2  0
 11 12  1  0
 11 21  1  0
 12 13  1  0
 12 41  1  0
 13 14  1  0
 13 42  1  0
 13 43  1  0
 14 19  1  0
 14 15  2  0
 15 16  1  0
 15 44  1  0
 16 17  2  0
 16 45  1  0
 17 18  1  0
 17 46  1  0
 18 19  2  0
 19 20  1  0
 21 22  2  0
 21 23  1  0
 23 24  1  0
 23 25  2  0
 24 47  1  0
 24 48  1  0
 25 26  1  0
 25 27  1  0
 27 28  2  0
M  CHG  1   4   1
M  END
>  <DOCK_score>  (1) 
-50.966259

>  <SMILES>  (1) 
CC(C)[NH2+]CCNC1=C(NCc2cccnc2Br)C(=O)C(N)=C(Cl)C1=O

$$$$
