Cn1c(Cc2ccccc2)cnc1CNc1cnc(NC(=O)C[NH+]2CC3CC=CC[C@H]3C2)s1
     RDKit          3D

 64 68  0  0  1  0  0  0  0  0999 V2000
  127.7020  137.1140  169.3629 C   0  0  0  0  0  0  0  0  0  0  0  0
  126.6348  136.1123  169.2992 N   0  0  0  0  0  0  0  0  0  0  0  0
  125.7356  135.8193  170.2887 C   0  0  0  0  0  0  0  0  0  0  0  0
  125.6552  136.4632  171.6489 C   0  0  0  0  0  0  0  0  0  0  0  0
  124.7400  137.6588  171.5854 C   0  0  0  0  0  0  0  0  0  0  0  0
  125.2532  138.9068  171.2861 C   0  0  0  0  0  0  0  0  0  0  0  0
  124.4130  140.0027  171.2232 C   0  0  0  0  0  0  0  0  0  0  0  0
  123.0612  139.8523  171.4699 C   0  0  0  0  0  0  0  0  0  0  0  0
  122.5488  138.6051  171.7743 C   0  0  0  0  0  0  0  0  0  0  0  0
  123.3883  137.5083  171.8321 C   0  0  0  0  0  0  0  0  0  0  0  0
  124.9370  134.8447  169.8135 C   0  0  0  0  0  0  0  0  0  0  0  0
  125.3346  134.5538  168.5658 N   0  0  0  0  0  0  0  0  0  0  0  0
  126.3542  135.3059  168.2529 C   0  0  0  0  0  0  0  0  0  0  0  0
  127.0921  135.2828  166.9391 C   0  0  0  0  0  0  0  0  0  0  0  0
  126.1271  135.2419  165.8377 N   0  0  0  0  0  0  0  0  0  0  0  0
  126.5778  135.2145  164.5134 C   0  0  0  0  0  0  0  0  0  0  0  0
  125.8035  135.1761  163.4210 C   0  0  0  0  0  0  0  0  0  0  0  0
  126.4461  135.1605  162.2665 N   0  0  0  0  0  0  0  0  0  0  0  0
  127.7418  135.1742  162.3127 C   0  0  0  0  0  0  0  0  0  0  0  0
  128.5879  135.1579  161.2073 N   0  0  0  0  0  0  0  0  0  0  0  0
  128.0707  135.1252  159.9630 C   0  0  0  0  0  0  0  0  0  0  0  0
  126.8681  135.1100  159.8065 O   0  0  0  0  0  0  0  0  0  0  0  0
  128.9867  135.1075  158.7666 C   0  0  0  0  0  0  0  0  0  0  0  0
  128.7462  133.8879  157.9838 N   0  0  0  0  0  0  0  0  0  0  0  0
  127.7872  133.8673  157.6706 H   0  0  0  0  0  0  0  0  0  0  0  0
  129.6562  133.8607  156.8114 C   0  0  0  0  0  0  0  0  0  0  0  0
  130.5511  132.6379  156.9975 C   0  0  2  0  0  0  0  0  0  0  0  0
  130.9070  131.8792  155.7307 C   0  0  0  0  0  0  0  0  0  0  0  0
  131.4949  130.5504  156.1470 C   0  0  0  0  0  0  0  0  0  0  0  0
  131.3511  130.0236  157.3242 C   0  0  0  0  0  0  0  0  0  0  0  0
  130.5580  130.6499  158.4478 C   0  0  0  0  0  0  0  0  0  0  0  0
  129.6360  131.6898  157.8322 C   0  0  1  0  0  0  0  0  0  0  0  0
  128.8653  131.2195  157.2216 H   0  0  0  0  0  0  0  0  0  0  0  0
  129.0262  132.6902  158.8219 C   0  0  0  0  0  0  0  0  0  0  0  0
  128.2621  135.2243  163.9947 S   0  0  0  0  0  0  0  0  0  0  0  0
  127.3236  138.0712  169.0043 H   0  0  0  0  0  0  0  0  0  0  0  0
  128.0397  137.2199  170.3938 H   0  0  0  0  0  0  0  0  0  0  0  0
  128.5365  136.7960  168.7379 H   0  0  0  0  0  0  0  0  0  0  0  0
  125.2641  135.7440  172.3687 H   0  0  0  0  0  0  0  0  0  0  0  0
  126.6500  136.7831  171.9588 H   0  0  0  0  0  0  0  0  0  0  0  0
  126.3101  139.0252  171.0978 H   0  0  0  0  0  0  0  0  0  0  0  0
  124.8134  140.9773  170.9857 H   0  0  0  0  0  0  0  0  0  0  0  0
  122.4054  140.7093  171.4250 H   0  0  0  0  0  0  0  0  0  0  0  0
  121.4927  138.4876  171.9673 H   0  0  0  0  0  0  0  0  0  0  0  0
  122.9879  136.5340  172.0703 H   0  0  0  0  0  0  0  0  0  0  0  0
  124.1180  134.3807  170.3429 H   0  0  0  0  0  0  0  0  0  0  0  0
  127.7299  134.3999  166.8962 H   0  0  0  0  0  0  0  0  0  0  0  0
  127.7059  136.1791  166.8513 H   0  0  0  0  0  0  0  0  0  0  0  0
  125.1757  135.2337  166.0264 H   0  0  0  0  0  0  0  0  0  0  0  0
  124.7253  135.1625  163.4798 H   0  0  0  0  0  0  0  0  0  0  0  0
  129.5497  135.1701  161.3324 H   0  0  0  0  0  0  0  0  0  0  0  0
  130.0235  135.1250  159.1025 H   0  0  0  0  0  0  0  0  0  0  0  0
  128.7909  135.9820  158.1462 H   0  0  0  0  0  0  0  0  0  0  0  0
  129.0795  133.7667  155.8913 H   0  0  0  0  0  0  0  0  0  0  0  0
  130.2599  134.7677  156.7842 H   0  0  0  0  0  0  0  0  0  0  0  0
  131.4454  132.9021  157.5619 H   0  0  0  0  0  0  0  0  0  0  0  0
  131.6398  132.4441  155.1545 H   0  0  0  0  0  0  0  0  0  0  0  0
  130.0104  131.7162  155.1326 H   0  0  0  0  0  0  0  0  0  0  0  0
  132.0768  130.0057  155.4181 H   0  0  0  0  0  0  0  0  0  0  0  0
  131.8297  129.0740  157.5134 H   0  0  0  0  0  0  0  0  0  0  0  0
  129.9684  129.8864  158.9552 H   0  0  0  0  0  0  0  0  0  0  0  0
  131.2344  131.1271  159.1571 H   0  0  0  0  0  0  0  0  0  0  0  0
  128.1033  132.2951  159.2464 H   0  0  0  0  0  0  0  0  0  0  0  0
  129.7391  132.9321  159.6102 H   0  0  0  0  0  0  0  0  0  0  0  0
  1  2  1  0
  1 36  1  0
  1 37  1  0
  1 38  1  0
  2 13  1  0
  2  3  1  0
  3  4  1  0
  3 11  2  0
  4  5  1  0
  4 39  1  0
  4 40  1  0
  5 10  1  0
  5  6  2  0
  6  7  1  0
  6 41  1  0
  7  8  2  0
  7 42  1  0
  8  9  1  0
  8 43  1  0
  9 10  2  0
  9 44  1  0
 10 45  1  0
 11 12  1  0
 11 46  1  0
 12 13  2  0
 13 14  1  0
 14 15  1  0
 14 47  1  0
 14 48  1  0
 15 16  1  0
 15 49  1  0
 16 35  1  0
 16 17  2  0
 17 18  1  0
 17 50  1  0
 18 19  2  0
 19 20  1  0
 19 35  1  0
 20 21  1  0
 20 51  1  0
 21 22  2  0
 21 23  1  0
 23 24  1  0
 23 52  1  0
 23 53  1  0
 24 25  1  0
 24 34  1  0
 24 26  1  0
 26 27  1  0
 26 54  1  0
 26 55  1  0
 27 32  1  0
 27 28  1  0
 27 56  1  1
 28 29  1  0
 28 57  1  0
 28 58  1  0
 29 30  2  0
 29 59  1  0
 30 31  1  0
 30 60  1  0
 31 32  1  0
 31 61  1  0
 31 62  1  0
 32 33  1  6
 32 34  1  0
 34 63  1  0
 34 64  1  0
M  CHG  1  24   1
M  END
>  <DOCK_score>  (1) 
-44.742523

>  <SMILES>  (1) 
Cn1c(Cc2ccccc2)cnc1CNc1cnc(NC(=O)C[NH+]2CC3CC=CC[C@H]3C2)s1

$$$$
