CCC=Cc1ccc(-c2c[nH]c(N[C@H](Cc3ccc(Cl)cc3)c3ccccc3)[nH+]2)cc1
     RDKit          3D

 58 61  0  0  1  0  0  0  0  0999 V2000
  129.8128  127.7641  150.4425 C   0  0  0  0  0  0  0  0  0  0  0  0
  130.4996  129.1267  150.3303 C   0  0  0  0  0  0  0  0  0  0  0  0
  130.2816  129.9055  151.6019 C   0  0  0  0  0  0  0  0  0  0  0  0
  131.1478  129.7991  152.6014 C   0  0  0  0  0  0  0  0  0  0  0  0
  130.9341  130.5624  153.8478 C   0  0  0  0  0  0  0  0  0  0  0  0
  130.0995  131.6827  153.8466 C   0  0  0  0  0  0  0  0  0  0  0  0
  129.9005  132.3935  155.0088 C   0  0  0  0  0  0  0  0  0  0  0  0
  130.5323  131.9952  156.1874 C   0  0  0  0  0  0  0  0  0  0  0  0
  130.3179  132.7612  157.4380 C   0  0  0  0  0  0  0  0  0  0  0  0
  129.7878  132.2779  158.5898 C   0  0  0  0  0  0  0  0  0  0  0  0
  129.7714  133.3169  159.4876 N   0  0  0  0  0  0  0  0  0  0  0  0
  129.4487  133.2812  160.4017 H   0  0  0  0  0  0  0  0  0  0  0  0
  130.2921  134.4058  158.8587 C   0  0  0  0  0  0  0  0  0  0  0  0
  130.4510  135.6614  159.4196 N   0  0  0  0  0  0  0  0  0  0  0  0
  129.5285  136.1207  160.4608 C   0  0  2  0  0  0  0  0  0  0  0  0
  128.5142  135.8095  160.2107 H   0  0  0  0  0  0  0  0  0  0  0  0
  129.5851  137.6468  160.5555 C   0  0  0  0  0  0  0  0  0  0  0  0
  130.9875  138.0768  160.9012 C   0  0  0  0  0  0  0  0  0  0  0  0
  131.3624  138.2112  162.2252 C   0  0  0  0  0  0  0  0  0  0  0  0
  132.6483  138.6059  162.5428 C   0  0  0  0  0  0  0  0  0  0  0  0
  133.5588  138.8718  161.5355 C   0  0  0  0  0  0  0  0  0  0  0  0
  135.1716  139.3754  161.9338 Cl  0  0  0  0  0  0  0  0  0  0  0  0
  133.1849  138.7307  160.2110 C   0  0  0  0  0  0  0  0  0  0  0  0
  131.8985  138.3363  159.8946 C   0  0  0  0  0  0  0  0  0  0  0  0
  129.9261  135.5202  161.7847 C   0  0  0  0  0  0  0  0  0  0  0  0
  128.9654  135.2708  162.7468 C   0  0  0  0  0  0  0  0  0  0  0  0
  129.3294  134.7161  163.9595 C   0  0  0  0  0  0  0  0  0  0  0  0
  130.6555  134.4193  164.2135 C   0  0  0  0  0  0  0  0  0  0  0  0
  131.6168  134.6737  163.2534 C   0  0  0  0  0  0  0  0  0  0  0  0
  131.2522  135.2244  162.0390 C   0  0  0  0  0  0  0  0  0  0  0  0
  130.6130  134.0714  157.6328 N   0  0  0  0  0  0  0  0  0  0  0  0
  131.0013  134.6650  156.9712 H   0  0  0  0  0  0  0  0  0  0  0  0
  131.3703  130.8795  156.1879 C   0  0  0  0  0  0  0  0  0  0  0  0
  131.5660  130.1647  155.0276 C   0  0  0  0  0  0  0  0  0  0  0  0
  128.7442  127.9078  150.6019 H   0  0  0  0  0  0  0  0  0  0  0  0
  129.9705  127.2009  149.5227 H   0  0  0  0  0  0  0  0  0  0  0  0
  130.2346  127.2127  151.2829 H   0  0  0  0  0  0  0  0  0  0  0  0
  130.0778  129.6781  149.4898 H   0  0  0  0  0  0  0  0  0  0  0  0
  131.5682  128.9830  150.1708 H   0  0  0  0  0  0  0  0  0  0  0  0
  129.4204  130.5495  151.6998 H   0  0  0  0  0  0  0  0  0  0  0  0
  132.0089  129.1553  152.5033 H   0  0  0  0  0  0  0  0  0  0  0  0
  129.6106  131.9914  152.9343 H   0  0  0  0  0  0  0  0  0  0  0  0
  129.2550  133.2594  155.0084 H   0  0  0  0  0  0  0  0  0  0  0  0
  129.4445  131.2692  158.7665 H   0  0  0  0  0  0  0  0  0  0  0  0
  131.1732  136.2371  159.1231 H   0  0  0  0  0  0  0  0  0  0  0  0
  128.8988  137.9884  161.3302 H   0  0  0  0  0  0  0  0  0  0  0  0
  129.2976  138.0811  159.5980 H   0  0  0  0  0  0  0  0  0  0  0  0
  130.6503  138.0078  163.0112 H   0  0  0  0  0  0  0  0  0  0  0  0
  132.9409  138.7112  163.5770 H   0  0  0  0  0  0  0  0  0  0  0  0
  133.8966  138.9335  159.4243 H   0  0  0  0  0  0  0  0  0  0  0  0
  131.6051  138.2312  158.8605 H   0  0  0  0  0  0  0  0  0  0  0  0
  127.9299  135.5062  162.5498 H   0  0  0  0  0  0  0  0  0  0  0  0
  128.5782  134.5171  164.7096 H   0  0  0  0  0  0  0  0  0  0  0  0
  130.9402  133.9884  165.1620 H   0  0  0  0  0  0  0  0  0  0  0  0
  132.6528  134.4418  163.4518 H   0  0  0  0  0  0  0  0  0  0  0  0
  132.0034  135.4231  161.2888 H   0  0  0  0  0  0  0  0  0  0  0  0
  131.8624  130.5746  157.0995 H   0  0  0  0  0  0  0  0  0  0  0  0
  132.2112  129.2986  155.0293 H   0  0  0  0  0  0  0  0  0  0  0  0
  1  2  1  0
  1 35  1  0
  1 36  1  0
  1 37  1  0
  2  3  1  0
  2 38  1  0
  2 39  1  0
  3  4  2  0
  3 40  1  0
  4  5  1  0
  4 41  1  0
  5 34  2  0
  5  6  1  0
  6  7  2  0
  6 42  1  0
  7  8  1  0
  7 43  1  0
  8  9  1  0
  8 33  2  0
  9 31  1  0
  9 10  2  0
 10 11  1  0
 10 44  1  0
 11 12  1  0
 11 13  1  0
 13 14  1  0
 13 31  2  0
 14 15  1  0
 14 45  1  0
 15 16  1  6
 15 17  1  0
 15 25  1  0
 17 18  1  0
 17 46  1  0
 17 47  1  0
 18 24  1  0
 18 19  2  0
 19 20  1  0
 19 48  1  0
 20 21  2  0
 20 49  1  0
 21 22  1  0
 21 23  1  0
 23 24  2  0
 23 50  1  0
 24 51  1  0
 25 30  1  0
 25 26  2  0
 26 27  1  0
 26 52  1  0
 27 28  2  0
 27 53  1  0
 28 29  1  0
 28 54  1  0
 29 30  2  0
 29 55  1  0
 30 56  1  0
 31 32  1  0
 33 34  1  0
 33 57  1  0
 34 58  1  0
M  CHG  1  31   1
M  END
>  <DOCK_score>  (1) 
-60.119247

>  <SMILES>  (1) 
CCC=Cc1ccc(-c2c[nH]c(N[C@H](Cc3ccc(Cl)cc3)c3ccccc3)[nH+]2)cc1

$$$$
