C[C@](CNc1ccc(C2CC(=O)C2)cc1)([NH2+]Cc1cccc2c1NC(=O)CO2)c1ccccc1
     RDKit          3D

 64 68  0  0  1  0  0  0  0  0999 V2000
  128.8433  136.9183  159.1764 C   0  0  0  0  0  0  0  0  0  0  0  0
  129.3970  135.7069  159.9293 C   0  0  2  0  0  0  0  0  0  0  0  0
  130.3803  136.1793  161.0022 C   0  0  0  0  0  0  0  0  0  0  0  0
  131.6767  136.4676  160.3837 N   0  0  0  0  0  0  0  0  0  0  0  0
  132.7407  136.9169  161.1690 C   0  0  0  0  0  0  0  0  0  0  0  0
  133.9706  137.1903  160.5842 C   0  0  0  0  0  0  0  0  0  0  0  0
  135.0208  137.6339  161.3637 C   0  0  0  0  0  0  0  0  0  0  0  0
  134.8505  137.8008  162.7259 C   0  0  0  0  0  0  0  0  0  0  0  0
  136.0006  138.2787  163.5744 C   0  0  0  0  0  0  0  0  0  0  0  0
  137.2838  137.4484  163.3993 C   0  0  0  0  0  0  0  0  0  0  0  0
  137.4600  137.5631  164.9004 C   0  0  0  0  0  0  0  0  0  0  0  0
  138.3910  137.5203  165.6683 O   0  0  0  0  0  0  0  0  0  0  0  0
  135.9610  137.7542  165.0200 C   0  0  0  0  0  0  0  0  0  0  0  0
  133.6257  137.5350  163.3105 C   0  0  0  0  0  0  0  0  0  0  0  0
  132.5715  137.0910  162.5368 C   0  0  0  0  0  0  0  0  0  0  0  0
  130.0905  134.8193  158.9864 N   0  0  0  0  0  0  0  0  0  0  0  0
  130.6136  135.3737  158.3253 H   0  0  0  0  0  0  0  0  0  0  0  0
  130.7212  134.2167  159.4934 H   0  0  0  0  0  0  0  0  0  0  0  0
  129.1041  134.0019  158.2676 C   0  0  0  0  0  0  0  0  0  0  0  0
  129.8154  133.0912  157.3003 C   0  0  0  0  0  0  0  0  0  0  0  0
  130.0596  133.5102  156.0048 C   0  0  0  0  0  0  0  0  0  0  0  0
  130.7156  132.6783  155.1169 C   0  0  0  0  0  0  0  0  0  0  0  0
  131.1240  131.4176  155.5144 C   0  0  0  0  0  0  0  0  0  0  0  0
  130.8790  130.9896  156.8071 C   0  0  0  0  0  0  0  0  0  0  0  0
  130.2214  131.8305  157.7041 C   0  0  0  0  0  0  0  0  0  0  0  0
  129.9789  131.3837  159.0108 N   0  0  0  0  0  0  0  0  0  0  0  0
  130.6474  130.3023  159.4675 C   0  0  0  0  0  0  0  0  0  0  0  0
  130.4309  129.8791  160.5834 O   0  0  0  0  0  0  0  0  0  0  0  0
  131.6633  129.6232  158.5846 C   0  0  0  0  0  0  0  0  0  0  0  0
  131.2739  129.7540  157.2150 O   0  0  0  0  0  0  0  0  0  0  0  0
  128.2628  134.9594  160.5816 C   0  0  0  0  0  0  0  0  0  0  0  0
  126.9644  135.4118  160.4392 C   0  0  0  0  0  0  0  0  0  0  0  0
  125.9235  134.7234  161.0336 C   0  0  0  0  0  0  0  0  0  0  0  0
  126.1819  133.5883  161.7790 C   0  0  0  0  0  0  0  0  0  0  0  0
  127.4808  133.1388  161.9259 C   0  0  0  0  0  0  0  0  0  0  0  0
  128.5213  133.8244  161.3271 C   0  0  0  0  0  0  0  0  0  0  0  0
  129.6636  137.4590  158.7045 H   0  0  0  0  0  0  0  0  0  0  0  0
  128.1427  136.5818  158.4120 H   0  0  0  0  0  0  0  0  0  0  0  0
  128.3288  137.5770  159.8761 H   0  0  0  0  0  0  0  0  0  0  0  0
  130.5016  135.3984  161.7530 H   0  0  0  0  0  0  0  0  0  0  0  0
  129.9950  137.0821  161.4760 H   0  0  0  0  0  0  0  0  0  0  0  0
  131.7959  136.3464  159.4287 H   0  0  0  0  0  0  0  0  0  0  0  0
  134.1056  137.0562  159.5211 H   0  0  0  0  0  0  0  0  0  0  0  0
  135.9773  137.8466  160.9097 H   0  0  0  0  0  0  0  0  0  0  0  0
  136.1611  139.3546  163.5036 H   0  0  0  0  0  0  0  0  0  0  0  0
  137.1022  136.4296  163.0566 H   0  0  0  0  0  0  0  0  0  0  0  0
  138.0598  137.9572  162.8275 H   0  0  0  0  0  0  0  0  0  0  0  0
  135.6732  138.5090  165.7517 H   0  0  0  0  0  0  0  0  0  0  0  0
  135.4085  136.8211  165.1319 H   0  0  0  0  0  0  0  0  0  0  0  0
  133.4949  137.6703  164.3740 H   0  0  0  0  0  0  0  0  0  0  0  0
  131.6166  136.8791  162.9946 H   0  0  0  0  0  0  0  0  0  0  0  0
  128.5389  133.4030  158.9817 H   0  0  0  0  0  0  0  0  0  0  0  0
  128.4227  134.6528  157.7198 H   0  0  0  0  0  0  0  0  0  0  0  0
  129.7400  134.4917  155.6873 H   0  0  0  0  0  0  0  0  0  0  0  0
  130.9065  133.0122  154.1077 H   0  0  0  0  0  0  0  0  0  0  0  0
  131.6333  130.7689  154.8171 H   0  0  0  0  0  0  0  0  0  0  0  0
  129.3412  131.8442  159.5783 H   0  0  0  0  0  0  0  0  0  0  0  0
  132.6387  130.0873  158.7304 H   0  0  0  0  0  0  0  0  0  0  0  0
  131.7223  128.5665  158.8457 H   0  0  0  0  0  0  0  0  0  0  0  0
  126.7628  136.3010  159.8603 H   0  0  0  0  0  0  0  0  0  0  0  0
  124.9086  135.0747  160.9191 H   0  0  0  0  0  0  0  0  0  0  0  0
  125.3690  133.0530  162.2471 H   0  0  0  0  0  0  0  0  0  0  0  0
  127.6829  132.2523  162.5086 H   0  0  0  0  0  0  0  0  0  0  0  0
  129.5362  133.4734  161.4422 H   0  0  0  0  0  0  0  0  0  0  0  0
  1 37  1  0
  1 38  1  0
  1 39  1  0
  2  1  1  6
  2  3  1  0
  2 16  1  0
  2 31  1  0
  3  4  1  0
  3 40  1  0
  3 41  1  0
  4  5  1  0
  4 42  1  0
  5 15  1  0
  5  6  2  0
  6  7  1  0
  6 43  1  0
  7  8  2  0
  7 44  1  0
  8  9  1  0
  8 14  1  0
  9 13  1  0
  9 10  1  0
  9 45  1  0
 10 11  1  0
 10 46  1  0
 10 47  1  0
 11 12  2  0
 11 13  1  0
 13 48  1  0
 13 49  1  0
 14 15  2  0
 14 50  1  0
 15 51  1  0
 16 17  1  0
 16 18  1  0
 16 19  1  0
 19 20  1  0
 19 52  1  0
 19 53  1  0
 20 25  1  0
 20 21  2  0
 21 22  1  0
 21 54  1  0
 22 23  2  0
 22 55  1  0
 23 24  1  0
 23 56  1  0
 24 30  1  0
 24 25  2  0
 25 26  1  0
 26 27  1  0
 26 57  1  0
 27 28  2  0
 27 29  1  0
 29 30  1  0
 29 58  1  0
 29 59  1  0
 31 36  1  0
 31 32  2  0
 32 33  1  0
 32 60  1  0
 33 34  2  0
 33 61  1  0
 34 35  1  0
 34 62  1  0
 35 36  2  0
 35 63  1  0
 36 64  1  0
M  CHG  1  16   1
M  END
>  <DOCK_score>  (1) 
-58.53006

>  <SMILES>  (1) 
C[C@](CNc1ccc(C2CC(=O)C2)cc1)([NH2+]Cc1cccc2c1NC(=O)CO2)c1ccccc1

$$$$
