Cc1c[nH]c(N[C@@H]2c3cc(O)ccc3-c3ccc(Cl)cc32)[nH+]1
     RDKit          3D

 37 40  0  0  1  0  0  0  0  0999 V2000
  128.9285  130.8865  158.4493 C   0  0  0  0  0  0  0  0  0  0  0  0
  129.6792  132.1808  158.2701 C   0  0  0  0  0  0  0  0  0  0  0  0
  130.1632  132.6555  157.1098 C   0  0  0  0  0  0  0  0  0  0  0  0
  130.7706  133.8586  157.3905 N   0  0  0  0  0  0  0  0  0  0  0  0
  131.2110  134.4446  156.7553 H   0  0  0  0  0  0  0  0  0  0  0  0
  130.6384  134.0685  158.7281 C   0  0  0  0  0  0  0  0  0  0  0  0
  131.1131  135.1663  159.4264 N   0  0  0  0  0  0  0  0  0  0  0  0
  130.8987  135.2633  160.8723 C   0  0  2  0  0  0  0  0  0  0  0  0
  131.0362  134.2875  161.3380 H   0  0  0  0  0  0  0  0  0  0  0  0
  129.5115  135.7846  161.1581 C   0  0  0  0  0  0  0  0  0  0  0  0
  128.2597  135.2960  160.8535 C   0  0  0  0  0  0  0  0  0  0  0  0
  127.1267  135.9951  161.2478 C   0  0  0  0  0  0  0  0  0  0  0  0
  125.8921  135.5139  160.9473 O   0  0  0  0  0  0  0  0  0  0  0  0
  127.2559  137.1893  161.9445 C   0  0  0  0  0  0  0  0  0  0  0  0
  128.5061  137.6784  162.2558 C   0  0  0  0  0  0  0  0  0  0  0  0
  129.6488  136.9789  161.8610 C   0  0  0  0  0  0  0  0  0  0  0  0
  131.0898  137.2745  162.0555 C   0  0  0  0  0  0  0  0  0  0  0  0
  131.7321  138.3398  162.6902 C   0  0  0  0  0  0  0  0  0  0  0  0
  133.1095  138.3843  162.7375 C   0  0  0  0  0  0  0  0  0  0  0  0
  133.8602  137.3763  162.1567 C   0  0  0  0  0  0  0  0  0  0  0  0
  135.5940  137.4403  162.2195 Cl  0  0  0  0  0  0  0  0  0  0  0  0
  133.2297  136.3174  161.5255 C   0  0  0  0  0  0  0  0  0  0  0  0
  131.8528  136.2654  161.4745 C   0  0  0  0  0  0  0  0  0  0  0  0
  129.9799  133.0574  159.2433 N   0  0  0  0  0  0  0  0  0  0  0  0
  129.7470  132.9581  160.1797 H   0  0  0  0  0  0  0  0  0  0  0  0
  127.8607  131.0655  158.3242 H   0  0  0  0  0  0  0  0  0  0  0  0
  129.2656  130.1649  157.7052 H   0  0  0  0  0  0  0  0  0  0  0  0
  129.1165  130.4928  159.4483 H   0  0  0  0  0  0  0  0  0  0  0  0
  130.0863  132.1850  156.1407 H   0  0  0  0  0  0  0  0  0  0  0  0
  131.5876  135.8708  158.9581 H   0  0  0  0  0  0  0  0  0  0  0  0
  128.1597  134.3690  160.3084 H   0  0  0  0  0  0  0  0  0  0  0  0
  125.1660  136.0691  161.2630 H   0  0  0  0  0  0  0  0  0  0  0  0
  126.3740  137.7345  162.2467 H   0  0  0  0  0  0  0  0  0  0  0  0
  128.6025  138.6053  162.8017 H   0  0  0  0  0  0  0  0  0  0  0  0
  131.1502  139.1285  163.1438 H   0  0  0  0  0  0  0  0  0  0  0  0
  133.6045  139.2089  163.2289 H   0  0  0  0  0  0  0  0  0  0  0  0
  133.8166  135.5316  161.0733 H   0  0  0  0  0  0  0  0  0  0  0  0
  1  2  1  0
  1 26  1  0
  1 27  1  0
  1 28  1  0
  2 24  1  0
  2  3  2  0
  3  4  1  0
  3 29  1  0
  4  5  1  0
  4  6  1  0
  6  7  1  0
  6 24  2  0
  7  8  1  0
  7 30  1  0
  8  9  1  1
  8 23  1  0
  8 10  1  0
 10 16  1  0
 10 11  2  0
 11 12  1  0
 11 31  1  0
 12 13  1  0
 12 14  2  0
 13 32  1  0
 14 15  1  0
 14 33  1  0
 15 16  2  0
 15 34  1  0
 16 17  1  0
 17 23  2  0
 17 18  1  0
 18 19  2  0
 18 35  1  0
 19 20  1  0
 19 36  1  0
 20 21  1  0
 20 22  2  0
 22 23  1  0
 22 37  1  0
 24 25  1  0
M  CHG  1  24   1
M  END
>  <DOCK_score>  (1) 
-41.811722

>  <SMILES>  (1) 
Cc1c[nH]c(N[C@@H]2c3cc(O)ccc3-c3ccc(Cl)cc32)[nH+]1

$$$$
