C1=C(C[NH2+]Cc2c[nH]nc2-c2ccc(NCCc3cccc4ccccc34)o2)CCC1
     RDKit          3D

 60 64  0  0  0  0  0  0  0  0999 V2000
  134.7865  138.3701  160.0761 C   0  0  0  0  0  0  0  0  0  0  0  0
  133.4928  138.3883  159.9048 C   0  0  0  0  0  0  0  0  0  0  0  0
  132.5246  137.4861  160.6257 C   0  0  0  0  0  0  0  0  0  0  0  0
  132.3308  136.2548  159.8484 N   0  0  0  0  0  0  0  0  0  0  0  0
  133.2157  135.7818  159.7415 H   0  0  0  0  0  0  0  0  0  0  0  0
  131.9612  136.4861  158.9384 H   0  0  0  0  0  0  0  0  0  0  0  0
  131.3873  135.3752  160.5512 C   0  0  0  0  0  0  0  0  0  0  0  0
  131.1884  134.1122  159.7537 C   0  0  0  0  0  0  0  0  0  0  0  0
  132.1610  133.3754  159.1756 C   0  0  0  0  0  0  0  0  0  0  0  0
  131.5782  132.3288  158.5517 N   0  0  0  0  0  0  0  0  0  0  0  0
  132.0380  131.6373  158.0503 H   0  0  0  0  0  0  0  0  0  0  0  0
  130.1947  132.4146  158.7535 N   0  0  0  0  0  0  0  0  0  0  0  0
  129.9532  133.4873  159.4811 C   0  0  0  0  0  0  0  0  0  0  0  0
  128.6245  133.9554  159.9265 C   0  0  0  0  0  0  0  0  0  0  0  0
  127.4370  133.3496  159.6616 C   0  0  0  0  0  0  0  0  0  0  0  0
  126.4362  134.1262  160.2782 C   0  0  0  0  0  0  0  0  0  0  0  0
  127.0597  135.1692  160.8809 C   0  0  0  0  0  0  0  0  0  0  0  0
  126.4367  136.1801  161.6035 N   0  0  0  0  0  0  0  0  0  0  0  0
  127.2362  137.2508  162.2041 C   0  0  0  0  0  0  0  0  0  0  0  0
  127.6507  136.8450  163.6198 C   0  0  0  0  0  0  0  0  0  0  0  0
  128.4731  137.9463  164.2376 C   0  0  0  0  0  0  0  0  0  0  0  0
  129.8262  137.9551  164.0896 C   0  0  0  0  0  0  0  0  0  0  0  0
  130.6030  138.9651  164.6535 C   0  0  0  0  0  0  0  0  0  0  0  0
  130.0314  139.9723  165.3689 C   0  0  0  0  0  0  0  0  0  0  0  0
  128.6373  139.9971  165.5428 C   0  0  0  0  0  0  0  0  0  0  0  0
  128.0117  141.0174  166.2796 C   0  0  0  0  0  0  0  0  0  0  0  0
  126.6584  141.0113  166.4232 C   0  0  0  0  0  0  0  0  0  0  0  0
  125.8814  140.0012  165.8587 C   0  0  0  0  0  0  0  0  0  0  0  0
  126.4527  138.9944  165.1431 C   0  0  0  0  0  0  0  0  0  0  0  0
  127.8472  138.9698  164.9687 C   0  0  0  0  0  0  0  0  0  0  0  0
  128.3817  135.0577  160.6665 O   0  0  0  0  0  0  0  0  0  0  0  0
  133.0926  139.4372  158.8935 C   0  0  0  0  0  0  0  0  0  0  0  0
  134.4019  139.7832  158.1470 C   0  0  0  0  0  0  0  0  0  0  0  0
  135.4659  139.3975  159.2008 C   0  0  0  0  0  0  0  0  0  0  0  0
  135.3039  137.7065  160.7533 H   0  0  0  0  0  0  0  0  0  0  0  0
  131.5687  137.9971  160.7411 H   0  0  0  0  0  0  0  0  0  0  0  0
  132.9239  137.2361  161.6086 H   0  0  0  0  0  0  0  0  0  0  0  0
  130.4314  135.8862  160.6666 H   0  0  0  0  0  0  0  0  0  0  0  0
  131.7867  135.1254  161.5341 H   0  0  0  0  0  0  0  0  0  0  0  0
  133.2195  133.5881  159.2032 H   0  0  0  0  0  0  0  0  0  0  0  0
  127.2894  132.4443  159.0916 H   0  0  0  0  0  0  0  0  0  0  0  0
  125.3743  133.9294  160.2710 H   0  0  0  0  0  0  0  0  0  0  0  0
  125.4725  136.1767  161.7101 H   0  0  0  0  0  0  0  0  0  0  0  0
  126.6448  138.1655  162.2468 H   0  0  0  0  0  0  0  0  0  0  0  0
  128.1269  137.4218  161.5997 H   0  0  0  0  0  0  0  0  0  0  0  0
  128.2420  135.9302  163.5771 H   0  0  0  0  0  0  0  0  0  0  0  0
  126.7600  136.6739  164.2243 H   0  0  0  0  0  0  0  0  0  0  0  0
  130.3049  137.1673  163.5269 H   0  0  0  0  0  0  0  0  0  0  0  0
  131.6748  138.9483  164.5214 H   0  0  0  0  0  0  0  0  0  0  0  0
  130.6460  140.7485  165.8002 H   0  0  0  0  0  0  0  0  0  0  0  0
  128.6014  141.8042  166.7264 H   0  0  0  0  0  0  0  0  0  0  0  0
  126.1797  141.7987  166.9863 H   0  0  0  0  0  0  0  0  0  0  0  0
  124.8096  140.0174  165.9916 H   0  0  0  0  0  0  0  0  0  0  0  0
  125.8379  138.2187  164.7113 H   0  0  0  0  0  0  0  0  0  0  0  0
  132.3551  139.0338  158.1995 H   0  0  0  0  0  0  0  0  0  0  0  0
  132.6982  140.3196  159.3974 H   0  0  0  0  0  0  0  0  0  0  0  0
  134.5087  139.1811  157.2447 H   0  0  0  0  0  0  0  0  0  0  0  0
  134.4499  140.8469  157.9136 H   0  0  0  0  0  0  0  0  0  0  0  0
  136.3420  138.9670  158.7159 H   0  0  0  0  0  0  0  0  0  0  0  0
  135.7477  140.2686  159.7922 H   0  0  0  0  0  0  0  0  0  0  0  0
  1 34  1  0
  1  2  2  0
  1 35  1  0
  2  3  1  0
  2 32  1  0
  3  4  1  0
  3 36  1  0
  3 37  1  0
  4  5  1  0
  4  6  1  0
  4  7  1  0
  7  8  1  0
  7 38  1  0
  7 39  1  0
  8 13  1  0
  8  9  2  0
  9 10  1  0
  9 40  1  0
 10 11  1  0
 10 12  1  0
 12 13  2  0
 13 14  1  0
 14 31  1  0
 14 15  2  0
 15 16  1  0
 15 41  1  0
 16 17  2  0
 16 42  1  0
 17 18  1  0
 17 31  1  0
 18 19  1  0
 18 43  1  0
 19 20  1  0
 19 44  1  0
 19 45  1  0
 20 21  1  0
 20 46  1  0
 20 47  1  0
 21 30  1  0
 21 22  2  0
 22 23  1  0
 22 48  1  0
 23 24  2  0
 23 49  1  0
 24 25  1  0
 24 50  1  0
 25 30  2  0
 25 26  1  0
 26 27  2  0
 26 51  1  0
 27 28  1  0
 27 52  1  0
 28 29  2  0
 28 53  1  0
 29 30  1  0
 29 54  1  0
 32 33  1  0
 32 55  1  0
 32 56  1  0
 33 34  1  0
 33 57  1  0
 33 58  1  0
 34 59  1  0
 34 60  1  0
M  CHG  1   4   1
M  END
>  <DOCK_score>  (1) 
-48.782253

>  <SMILES>  (1) 
C1=C(C[NH2+]Cc2c[nH]nc2-c2ccc(NCCc3cccc4ccccc34)o2)CCC1

$$$$
