[NH3+][C@@H](C(=O)Nc1cccc(O)c1)c1cccc(OCC2=CCCC2=O)c1
     RDKit          3D

 47 49  0  0  1  0  0  0  0  0999 V2000
  130.6567  134.3533  157.6247 N   0  0  0  0  0  0  0  0  0  0  0  0
  130.0286  134.4733  156.8442 H   0  0  0  0  0  0  0  0  0  0  0  0
  131.5345  134.8076  157.4230 H   0  0  0  0  0  0  0  0  0  0  0  0
  130.8153  133.3690  157.7805 H   0  0  0  0  0  0  0  0  0  0  0  0
  130.0617  134.9498  158.8282 C   0  0  1  0  0  0  0  0  0  0  0  0
  129.8903  136.0130  158.6600 H   0  0  0  0  0  0  0  0  0  0  0  0
  128.7503  134.2711  159.1295 C   0  0  0  0  0  0  0  0  0  0  0  0
  128.3507  133.3784  158.4123 O   0  0  0  0  0  0  0  0  0  0  0  0
  128.0190  134.6599  160.1928 N   0  0  0  0  0  0  0  0  0  0  0  0
  126.7988  134.0335  160.4693 C   0  0  0  0  0  0  0  0  0  0  0  0
  126.6032  132.7045  160.1150 C   0  0  0  0  0  0  0  0  0  0  0  0
  125.4005  132.0846  160.3932 C   0  0  0  0  0  0  0  0  0  0  0  0
  124.3852  132.7874  161.0141 C   0  0  0  0  0  0  0  0  0  0  0  0
  124.5730  134.1167  161.3651 C   0  0  0  0  0  0  0  0  0  0  0  0
  123.5737  134.8066  161.9751 O   0  0  0  0  0  0  0  0  0  0  0  0
  125.7806  134.7407  161.0927 C   0  0  0  0  0  0  0  0  0  0  0  0
  130.9997  134.7703  159.9940 C   0  0  0  0  0  0  0  0  0  0  0  0
  130.9069  133.6423  160.7882 C   0  0  0  0  0  0  0  0  0  0  0  0
  131.7697  133.4722  161.8549 C   0  0  0  0  0  0  0  0  0  0  0  0
  132.7197  134.4348  162.1367 C   0  0  0  0  0  0  0  0  0  0  0  0
  132.8113  135.5700  161.3449 C   0  0  0  0  0  0  0  0  0  0  0  0
  133.7448  136.5186  161.6204 O   0  0  0  0  0  0  0  0  0  0  0  0
  134.1294  136.6723  162.9880 C   0  0  0  0  0  0  0  0  0  0  0  0
  134.5292  138.1034  163.2395 C   0  0  0  0  0  0  0  0  0  0  0  0
  135.7311  138.4715  163.6592 C   0  0  0  0  0  0  0  0  0  0  0  0
  135.8033  139.9708  163.8065 C   0  0  0  0  0  0  0  0  0  0  0  0
  134.4109  140.4920  163.4097 C   0  0  0  0  0  0  0  0  0  0  0  0
  133.6354  139.2414  163.0546 C   0  0  0  0  0  0  0  0  0  0  0  0
  132.4812  139.1942  162.6838 O   0  0  0  0  0  0  0  0  0  0  0  0
  131.9478  135.7358  160.2714 C   0  0  0  0  0  0  0  0  0  0  0  0
  128.3388  135.3738  160.7663 H   0  0  0  0  0  0  0  0  0  0  0  0
  127.3934  132.1545  159.6258 H   0  0  0  0  0  0  0  0  0  0  0  0
  125.2517  131.0503  160.1208 H   0  0  0  0  0  0  0  0  0  0  0  0
  123.4446  132.3013  161.2267 H   0  0  0  0  0  0  0  0  0  0  0  0
  123.7980  135.7246  162.1806 H   0  0  0  0  0  0  0  0  0  0  0  0
  125.9287  135.7751  161.3654 H   0  0  0  0  0  0  0  0  0  0  0  0
  130.1616  132.8908  160.5724 H   0  0  0  0  0  0  0  0  0  0  0  0
  131.6977  132.5882  162.4713 H   0  0  0  0  0  0  0  0  0  0  0  0
  133.3904  134.3037  162.9731 H   0  0  0  0  0  0  0  0  0  0  0  0
  133.2906  136.4107  163.6331 H   0  0  0  0  0  0  0  0  0  0  0  0
  134.9725  136.0162  163.2043 H   0  0  0  0  0  0  0  0  0  0  0  0
  136.5457  137.7929  163.8644 H   0  0  0  0  0  0  0  0  0  0  0  0
  136.5633  140.3820  163.1422 H   0  0  0  0  0  0  0  0  0  0  0  0
  136.0242  140.2354  164.8407 H   0  0  0  0  0  0  0  0  0  0  0  0
  134.4829  141.1544  162.5470 H   0  0  0  0  0  0  0  0  0  0  0  0
  133.9410  141.0076  164.2473 H   0  0  0  0  0  0  0  0  0  0  0  0
  132.0174  136.6185  159.6533 H   0  0  0  0  0  0  0  0  0  0  0  0
  1  2  1  0
  1  3  1  0
  1  4  1  0
  1  5  1  0
  5  6  1  6
  5  7  1  0
  5 17  1  0
  7  8  2  0
  7  9  1  0
  9 10  1  0
  9 31  1  0
 10 16  1  0
 10 11  2  0
 11 12  1  0
 11 32  1  0
 12 13  2  0
 12 33  1  0
 13 14  1  0
 13 34  1  0
 14 15  1  0
 14 16  2  0
 15 35  1  0
 16 36  1  0
 17 30  1  0
 17 18  2  0
 18 19  1  0
 18 37  1  0
 19 20  2  0
 19 38  1  0
 20 21  1  0
 20 39  1  0
 21 22  1  0
 21 30  2  0
 22 23  1  0
 23 24  1  0
 23 40  1  0
 23 41  1  0
 24 28  1  0
 24 25  2  0
 25 26  1  0
 25 42  1  0
 26 27  1  0
 26 43  1  0
 26 44  1  0
 27 28  1  0
 27 45  1  0
 27 46  1  0
 28 29  2  0
 30 47  1  0
M  CHG  1   1   1
M  END
>  <DOCK_score>  (1) 
-42.178066

>  <SMILES>  (1) 
[NH3+][C@@H](C(=O)Nc1cccc(O)c1)c1cccc(OCC2=CCCC2=O)c1

$$$$
