CCC(CC)n1cc([C@H](Nc2[nH]cc(-c3ccc(N)cc3)[nH+]2)c2ccccc2)nn1
     RDKit          3D

 58 61  0  0  1  0  0  0  0  0999 V2000
  131.6311  138.4144  163.9590 C   0  0  0  0  0  0  0  0  0  0  0  0
  130.9291  139.7097  163.5461 C   0  0  0  0  0  0  0  0  0  0  0  0
  129.5321  139.3851  163.0131 C   0  0  0  0  0  0  0  0  0  0  0  0
  128.8302  140.6802  162.6002 C   0  0  0  0  0  0  0  0  0  0  0  0
  128.7111  141.6048  163.8135 C   0  0  0  0  0  0  0  0  0  0  0  0
  129.6461  138.4997  161.8515 N   0  0  0  0  0  0  0  0  0  0  0  0
  129.1193  137.2578  161.7464 C   0  0  0  0  0  0  0  0  0  0  0  0
  129.4632  136.8050  160.5180 C   0  0  0  0  0  0  0  0  0  0  0  0
  129.1136  135.4668  159.9198 C   0  0  2  0  0  0  0  0  0  0  0  0
  129.0242  134.7257  160.7143 H   0  0  0  0  0  0  0  0  0  0  0  0
  130.1668  135.0585  158.9872 N   0  0  0  0  0  0  0  0  0  0  0  0
  130.0646  133.8544  158.3116 C   0  0  0  0  0  0  0  0  0  0  0  0
  129.4317  132.7401  158.7691 N   0  0  0  0  0  0  0  0  0  0  0  0
  128.9751  132.6471  159.6199 H   0  0  0  0  0  0  0  0  0  0  0  0
  129.5593  131.7704  157.8029 C   0  0  0  0  0  0  0  0  0  0  0  0
  130.2658  132.3205  156.7847 C   0  0  0  0  0  0  0  0  0  0  0  0
  130.6482  131.6430  155.5215 C   0  0  0  0  0  0  0  0  0  0  0  0
  130.2092  132.1473  154.2984 C   0  0  0  0  0  0  0  0  0  0  0  0
  130.5704  131.5190  153.1252 C   0  0  0  0  0  0  0  0  0  0  0  0
  131.3616  130.3775  153.1621 C   0  0  0  0  0  0  0  0  0  0  0  0
  131.7213  129.7394  151.9726 N   0  0  0  0  0  0  0  0  0  0  0  0
  131.7961  129.8695  154.3810 C   0  0  0  0  0  0  0  0  0  0  0  0
  131.4422  130.4977  155.5564 C   0  0  0  0  0  0  0  0  0  0  0  0
  130.5569  133.6015  157.1232 N   0  0  0  0  0  0  0  0  0  0  0  0
  131.0522  134.2296  156.5746 H   0  0  0  0  0  0  0  0  0  0  0  0
  127.8034  135.5730  159.1827 C   0  0  0  0  0  0  0  0  0  0  0  0
  126.6158  135.3222  159.8444 C   0  0  0  0  0  0  0  0  0  0  0  0
  125.4138  135.4235  159.1693 C   0  0  0  0  0  0  0  0  0  0  0  0
  125.3998  135.7674  157.8305 C   0  0  0  0  0  0  0  0  0  0  0  0
  126.5877  136.0132  157.1676 C   0  0  0  0  0  0  0  0  0  0  0  0
  127.7895  135.9157  157.8436 C   0  0  0  0  0  0  0  0  0  0  0  0
  130.1744  137.7791  159.9395 N   0  0  0  0  0  0  0  0  0  0  0  0
  130.2600  138.7716  160.7533 N   0  0  0  0  0  0  0  0  0  0  0  0
  131.7160  137.7558  163.0948 H   0  0  0  0  0  0  0  0  0  0  0  0
  132.6263  138.6457  164.3386 H   0  0  0  0  0  0  0  0  0  0  0  0
  131.0512  137.9192  164.7377 H   0  0  0  0  0  0  0  0  0  0  0  0
  131.5090  140.2048  162.7673 H   0  0  0  0  0  0  0  0  0  0  0  0
  130.8442  140.3683  164.4103 H   0  0  0  0  0  0  0  0  0  0  0  0
  128.9521  138.8897  163.7919 H   0  0  0  0  0  0  0  0  0  0  0  0
  129.4101  141.1756  161.8216 H   0  0  0  0  0  0  0  0  0  0  0  0
  127.8348  140.4491  162.2206 H   0  0  0  0  0  0  0  0  0  0  0  0
  128.2109  142.5276  163.5194 H   0  0  0  0  0  0  0  0  0  0  0  0
  128.1311  141.1095  164.5921 H   0  0  0  0  0  0  0  0  0  0  0  0
  129.7063  141.8361  164.1933 H   0  0  0  0  0  0  0  0  0  0  0  0
  128.5408  136.7333  162.4925 H   0  0  0  0  0  0  0  0  0  0  0  0
  130.9359  135.6317  158.8431 H   0  0  0  0  0  0  0  0  0  0  0  0
  129.1712  130.7635  157.8466 H   0  0  0  0  0  0  0  0  0  0  0  0
  129.5903  133.0318  154.2693 H   0  0  0  0  0  0  0  0  0  0  0  0
  130.2342  131.9119  152.1770 H   0  0  0  0  0  0  0  0  0  0  0  0
  132.2741  128.9419  151.9980 H   0  0  0  0  0  0  0  0  0  0  0  0
  131.4187  130.0925  151.1219 H   0  0  0  0  0  0  0  0  0  0  0  0
  132.4110  128.9819  154.4076 H   0  0  0  0  0  0  0  0  0  0  0  0
  131.7802  130.1032  156.5032 H   0  0  0  0  0  0  0  0  0  0  0  0
  126.6270  135.0502  160.8895 H   0  0  0  0  0  0  0  0  0  0  0  0
  124.4858  135.2313  159.6871 H   0  0  0  0  0  0  0  0  0  0  0  0
  124.4608  135.8439  157.3024 H   0  0  0  0  0  0  0  0  0  0  0  0
  126.5767  136.2815  156.1215 H   0  0  0  0  0  0  0  0  0  0  0  0
  128.7175  136.1076  157.3256 H   0  0  0  0  0  0  0  0  0  0  0  0
  1  2  1  0
  1 34  1  0
  1 35  1  0
  1 36  1  0
  2  3  1  0
  2 37  1  0
  2 38  1  0
  3  4  1  0
  3  6  1  0
  3 39  1  0
  4  5  1  0
  4 40  1  0
  4 41  1  0
  5 42  1  0
  5 43  1  0
  5 44  1  0
  6 33  1  0
  6  7  1  0
  7  8  2  0
  7 45  1  0
  8  9  1  0
  8 32  1  0
  9 10  1  1
  9 11  1  0
  9 26  1  0
 11 46  1  0
 12 11  1  0
 12 24  2  0
 12 13  1  0
 13 14  1  0
 13 15  1  0
 15 16  2  0
 15 47  1  0
 16 17  1  0
 16 24  1  0
 17 23  1  0
 17 18  2  0
 18 19  1  0
 18 48  1  0
 19 20  2  0
 19 49  1  0
 20 21  1  0
 20 22  1  0
 21 50  1  0
 21 51  1  0
 22 23  2  0
 22 52  1  0
 23 53  1  0
 24 25  1  0
 26 31  1  0
 26 27  2  0
 27 28  1  0
 27 54  1  0
 28 29  2  0
 28 55  1  0
 29 30  1  0
 29 56  1  0
 30 31  2  0
 30 57  1  0
 31 58  1  0
 32 33  2  0
M  CHG  1  24   1
M  END
>  <DOCK_score>  (1) 
-59.464577

>  <SMILES>  (1) 
CCC(CC)n1cc([C@H](Nc2[nH]cc(-c3ccc(N)cc3)[nH+]2)c2ccccc2)nn1

$$$$
