c1ccc(OCCc2cccc3[nH]c(C[NH2+]C4CCN5CCCC[C@@H]45)cc23)cc1
     RDKit          3D

 61 65  0  0  1  0  0  0  0  0999 V2000
  138.3988  134.2838  164.5145 C   0  0  0  0  0  0  0  0  0  0  0  0
  139.0451  135.5045  164.4492 C   0  0  0  0  0  0  0  0  0  0  0  0
  138.4240  136.5852  163.8539 C   0  0  0  0  0  0  0  0  0  0  0  0
  137.1506  136.4451  163.3212 C   0  0  0  0  0  0  0  0  0  0  0  0
  136.5375  137.5069  162.7349 O   0  0  0  0  0  0  0  0  0  0  0  0
  136.8736  138.8047  163.2301 C   0  0  0  0  0  0  0  0  0  0  0  0
  135.6752  139.7407  163.0618 C   0  0  0  0  0  0  0  0  0  0  0  0
  135.3148  139.8379  161.6018 C   0  0  0  0  0  0  0  0  0  0  0  0
  135.8848  140.8009  160.8174 C   0  0  0  0  0  0  0  0  0  0  0  0
  135.5586  140.8983  159.4718 C   0  0  0  0  0  0  0  0  0  0  0  0
  134.6558  140.0269  158.9026 C   0  0  0  0  0  0  0  0  0  0  0  0
  134.0636  139.0391  159.6822 C   0  0  0  0  0  0  0  0  0  0  0  0
  133.1488  138.0444  159.4182 N   0  0  0  0  0  0  0  0  0  0  0  0
  132.7442  137.8747  158.5531 H   0  0  0  0  0  0  0  0  0  0  0  0
  132.8952  137.3312  160.5581 C   0  0  0  0  0  0  0  0  0  0  0  0
  131.9458  136.1649  160.6555 C   0  0  0  0  0  0  0  0  0  0  0  0
  132.1572  135.2647  159.5140 N   0  0  0  0  0  0  0  0  0  0  0  0
  131.9875  135.7656  158.6547 H   0  0  0  0  0  0  0  0  0  0  0  0
  133.1078  134.9264  159.5241 H   0  0  0  0  0  0  0  0  0  0  0  0
  131.2317  134.1278  159.6091 C   0  0  2  0  0  0  0  0  0  0  0  0
  131.8269  133.0178  160.5125 C   0  0  0  0  0  0  0  0  0  0  0  0
  131.9013  131.7610  159.6001 C   0  0  0  0  0  0  0  0  0  0  0  0
  130.8773  132.0182  158.5760 N   0  0  0  0  0  0  0  0  0  0  0  0
  130.9615  131.2244  157.3576 C   0  0  0  0  0  0  0  0  0  0  0  0
  129.7693  131.6041  156.4662 C   0  0  0  0  0  0  0  0  0  0  0  0
  129.7726  133.1033  156.1697 C   0  0  0  0  0  0  0  0  0  0  0  0
  129.8426  133.9249  157.4673 C   0  0  0  0  0  0  0  0  0  0  0  0
  131.0664  133.4550  158.2420 C   0  0  1  0  0  0  0  0  0  0  0  0
  131.9671  133.5895  157.6429 H   0  0  0  0  0  0  0  0  0  0  0  0
  133.6129  137.8277  161.5779 C   0  0  0  0  0  0  0  0  0  0  0  0
  134.3972  138.9447  161.0459 C   0  0  0  0  0  0  0  0  0  0  0  0
  136.5021  135.2209  163.3930 C   0  0  0  0  0  0  0  0  0  0  0  0
  137.1296  134.1418  163.9846 C   0  0  0  0  0  0  0  0  0  0  0  0
  138.8860  133.4401  164.9804 H   0  0  0  0  0  0  0  0  0  0  0  0
  140.0364  135.6130  164.8638 H   0  0  0  0  0  0  0  0  0  0  0  0
  138.9291  137.5385  163.8035 H   0  0  0  0  0  0  0  0  0  0  0  0
  137.7231  139.1978  162.6715 H   0  0  0  0  0  0  0  0  0  0  0  0
  137.1342  138.7343  164.2862 H   0  0  0  0  0  0  0  0  0  0  0  0
  135.9315  140.7306  163.4394 H   0  0  0  0  0  0  0  0  0  0  0  0
  134.8257  139.3474  163.6203 H   0  0  0  0  0  0  0  0  0  0  0  0
  136.5943  141.4918  161.2480 H   0  0  0  0  0  0  0  0  0  0  0  0
  136.0175  141.6648  158.8647 H   0  0  0  0  0  0  0  0  0  0  0  0
  134.4086  140.1109  157.8546 H   0  0  0  0  0  0  0  0  0  0  0  0
  130.9189  136.5304  160.6447 H   0  0  0  0  0  0  0  0  0  0  0  0
  132.1291  135.6237  161.5838 H   0  0  0  0  0  0  0  0  0  0  0  0
  130.2654  134.4547  159.9928 H   0  0  0  0  0  0  0  0  0  0  0  0
  132.8235  133.2997  160.8524 H   0  0  0  0  0  0  0  0  0  0  0  0
  131.1733  132.8318  161.3647 H   0  0  0  0  0  0  0  0  0  0  0  0
  131.6595  130.8620  160.1672 H   0  0  0  0  0  0  0  0  0  0  0  0
  132.8873  131.6744  159.1438 H   0  0  0  0  0  0  0  0  0  0  0  0
  131.8948  131.4428  156.8385 H   0  0  0  0  0  0  0  0  0  0  0  0
  130.9160  130.1637  157.6043 H   0  0  0  0  0  0  0  0  0  0  0  0
  129.8322  131.0524  155.5283 H   0  0  0  0  0  0  0  0  0  0  0  0
  128.8422  131.3416  156.9758 H   0  0  0  0  0  0  0  0  0  0  0  0
  130.6394  133.3461  155.5551 H   0  0  0  0  0  0  0  0  0  0  0  0
  128.8636  133.3643  155.6278 H   0  0  0  0  0  0  0  0  0  0  0  0
  128.9423  133.7490  158.0559 H   0  0  0  0  0  0  0  0  0  0  0  0
  129.9349  134.9867  157.2388 H   0  0  0  0  0  0  0  0  0  0  0  0
  133.6136  137.4702  162.5971 H   0  0  0  0  0  0  0  0  0  0  0  0
  135.5091  135.1105  162.9830 H   0  0  0  0  0  0  0  0  0  0  0  0
  136.6269  133.1873  164.0369 H   0  0  0  0  0  0  0  0  0  0  0  0
  1 33  2  0
  1  2  1  0
  1 34  1  0
  2  3  2  0
  2 35  1  0
  3  4  1  0
  3 36  1  0
  4  5  1  0
  4 32  2  0
  5  6  1  0
  6  7  1  0
  6 37  1  0
  6 38  1  0
  7  8  1  0
  7 39  1  0
  7 40  1  0
  8 31  1  0
  8  9  2  0
  9 10  1  0
  9 41  1  0
 10 11  2  0
 10 42  1  0
 11 12  1  0
 11 43  1  0
 12 31  2  0
 12 13  1  0
 13 14  1  0
 13 15  1  0
 15 16  1  0
 15 30  2  0
 16 17  1  0
 16 44  1  0
 16 45  1  0
 17 18  1  0
 17 19  1  0
 17 20  1  0
 20 28  1  0
 20 21  1  0
 20 46  1  1
 21 22  1  0
 21 47  1  0
 21 48  1  0
 22 49  1  0
 22 50  1  0
 23 22  1  0
 23 28  1  0
 23 24  1  0
 24 25  1  0
 24 51  1  0
 24 52  1  0
 25 26  1  0
 25 53  1  0
 25 54  1  0
 26 27  1  0
 26 55  1  0
 26 56  1  0
 27 28  1  0
 27 57  1  0
 27 58  1  0
 28 29  1  6
 30 31  1  0
 30 59  1  0
 32 33  1  0
 32 60  1  0
 33 61  1  0
M  CHG  1  17   1
M  END
>  <DOCK_score>  (1) 
-58.72142

>  <SMILES>  (1) 
c1ccc(OCCc2cccc3[nH]c(C[NH2+]C4CCN5CCCC[C@@H]45)cc23)cc1

$$$$
