CCC=C[C@H](Cc1ccc(F)cc1)Nc1[nH]cc(-c2ccc(CC)cc2)[nH+]1
     RDKit          3D

 54 56  0  0  1  0  0  0  0  0999 V2000
  126.2302  133.7293  159.4728 C   0  0  0  0  0  0  0  0  0  0  0  0
  126.5664  135.1466  159.9409 C   0  0  0  0  0  0  0  0  0  0  0  0
  128.0479  135.3840  159.8000 C   0  0  0  0  0  0  0  0  0  0  0  0
  128.8540  135.1004  160.7929 C   0  0  0  0  0  0  0  0  0  0  0  0
  130.3356  135.3378  160.6521 C   0  0  2  0  0  0  0  0  0  0  0  0
  130.8788  134.6154  161.2613 H   0  0  0  0  0  0  0  0  0  0  0  0
  130.6718  136.7551  161.1203 C   0  0  0  0  0  0  0  0  0  0  0  0
  132.1401  136.8405  161.4487 C   0  0  0  0  0  0  0  0  0  0  0  0
  132.5780  136.5673  162.7313 C   0  0  0  0  0  0  0  0  0  0  0  0
  133.9248  136.6397  163.0323 C   0  0  0  0  0  0  0  0  0  0  0  0
  134.8346  136.9976  162.0516 C   0  0  0  0  0  0  0  0  0  0  0  0
  136.1507  137.0751  162.3464 F   0  0  0  0  0  0  0  0  0  0  0  0
  134.3941  137.2765  160.7690 C   0  0  0  0  0  0  0  0  0  0  0  0
  133.0475  137.1974  160.4687 C   0  0  0  0  0  0  0  0  0  0  0  0
  130.7237  135.1823  159.2480 N   0  0  0  0  0  0  0  0  0  0  0  0
  130.5155  133.9758  158.6017 C   0  0  0  0  0  0  0  0  0  0  0  0
  129.9666  132.8623  159.1594 N   0  0  0  0  0  0  0  0  0  0  0  0
  129.6534  132.7720  160.0730 H   0  0  0  0  0  0  0  0  0  0  0  0
  129.9375  131.8900  158.1895 C   0  0  0  0  0  0  0  0  0  0  0  0
  130.4689  132.4367  157.0681 C   0  0  0  0  0  0  0  0  0  0  0  0
  130.6428  131.7547  155.7623 C   0  0  0  0  0  0  0  0  0  0  0  0
  130.0167  132.2562  154.6225 C   0  0  0  0  0  0  0  0  0  0  0  0
  130.1824  131.6178  153.4102 C   0  0  0  0  0  0  0  0  0  0  0  0
  130.9683  130.4822  153.3253 C   0  0  0  0  0  0  0  0  0  0  0  0
  131.1455  129.7894  151.9987 C   0  0  0  0  0  0  0  0  0  0  0  0
  130.0461  128.7405  151.8201 C   0  0  0  0  0  0  0  0  0  0  0  0
  131.5873  129.9772  154.4540 C   0  0  0  0  0  0  0  0  0  0  0  0
  131.4333  130.6105  155.6705 C   0  0  0  0  0  0  0  0  0  0  0  0
  130.8191  133.7161  157.3535 N   0  0  0  0  0  0  0  0  0  0  0  0
  131.2270  134.3395  156.7323 H   0  0  0  0  0  0  0  0  0  0  0  0
  126.5189  133.6137  158.4281 H   0  0  0  0  0  0  0  0  0  0  0  0
  126.7736  133.0069  160.0820 H   0  0  0  0  0  0  0  0  0  0  0  0
  125.1587  133.5576  159.5747 H   0  0  0  0  0  0  0  0  0  0  0  0
  126.2777  135.2622  160.9855 H   0  0  0  0  0  0  0  0  0  0  0  0
  126.0231  135.8689  159.3317 H   0  0  0  0  0  0  0  0  0  0  0  0
  128.4451  135.7878  158.8804 H   0  0  0  0  0  0  0  0  0  0  0  0
  128.4569  134.6966  161.7126 H   0  0  0  0  0  0  0  0  0  0  0  0
  130.4349  137.4652  160.3279 H   0  0  0  0  0  0  0  0  0  0  0  0
  130.0864  136.9929  162.0084 H   0  0  0  0  0  0  0  0  0  0  0  0
  131.8676  136.2932  163.4972 H   0  0  0  0  0  0  0  0  0  0  0  0
  134.2672  136.4224  164.0332 H   0  0  0  0  0  0  0  0  0  0  0  0
  135.1028  137.5561  160.0033 H   0  0  0  0  0  0  0  0  0  0  0  0
  132.7038  137.4149  159.4683 H   0  0  0  0  0  0  0  0  0  0  0  0
  131.1266  135.9248  158.7711 H   0  0  0  0  0  0  0  0  0  0  0  0
  129.5628  130.8831  158.2989 H   0  0  0  0  0  0  0  0  0  0  0  0
  129.4028  133.1423  154.6879 H   0  0  0  0  0  0  0  0  0  0  0  0
  129.6974  132.0053  152.5264 H   0  0  0  0  0  0  0  0  0  0  0  0
  132.1201  129.3036  151.9696 H   0  0  0  0  0  0  0  0  0  0  0  0
  131.0810  130.5232  151.1943 H   0  0  0  0  0  0  0  0  0  0  0  0
  130.1101  128.0073  152.6242 H   0  0  0  0  0  0  0  0  0  0  0  0
  129.0711  129.2269  151.8489 H   0  0  0  0  0  0  0  0  0  0  0  0
  130.1742  128.2396  150.8606 H   0  0  0  0  0  0  0  0  0  0  0  0
  132.1957  129.0878  154.3826 H   0  0  0  0  0  0  0  0  0  0  0  0
  131.9209  130.2179  156.5505 H   0  0  0  0  0  0  0  0  0  0  0  0
  1  2  1  0
  1 31  1  0
  1 32  1  0
  1 33  1  0
  2  3  1  0
  2 34  1  0
  2 35  1  0
  3  4  2  0
  3 36  1  0
  4  5  1  0
  4 37  1  0
  5  6  1  1
  5  7  1  0
  5 15  1  0
  7  8  1  0
  7 38  1  0
  7 39  1  0
  8 14  1  0
  8  9  2  0
  9 10  1  0
  9 40  1  0
 10 11  2  0
 10 41  1  0
 11 12  1  0
 11 13  1  0
 13 14  2  0
 13 42  1  0
 14 43  1  0
 15 44  1  0
 16 15  1  0
 16 29  2  0
 16 17  1  0
 17 18  1  0
 17 19  1  0
 19 20  2  0
 19 45  1  0
 20 21  1  0
 20 29  1  0
 21 28  1  0
 21 22  2  0
 22 23  1  0
 22 46  1  0
 23 24  2  0
 23 47  1  0
 24 25  1  0
 24 27  1  0
 25 26  1  0
 25 48  1  0
 25 49  1  0
 26 50  1  0
 26 51  1  0
 26 52  1  0
 27 28  2  0
 27 53  1  0
 28 54  1  0
 29 30  1  0
M  CHG  1  29   1
M  END
>  <DOCK_score>  (1) 
-58.767784

>  <SMILES>  (1) 
CCC=C[C@H](Cc1ccc(F)cc1)Nc1[nH]cc(-c2ccc(CC)cc2)[nH+]1

$$$$
