CCC/C=C/C=C/C=C[C@H](Nc1[nH]cc(-c2cccnc2)[nH+]1)C1=CC=C(C)CC1
     RDKit          3D

 60 62  0  0  1  0  0  0  0  0999 V2000
  138.9774  137.2471  166.6940 C   0  0  0  0  0  0  0  0  0  0  0  0
  138.2872  136.2483  165.7629 C   0  0  0  0  0  0  0  0  0  0  0  0
  137.2641  136.9834  164.8948 C   0  0  0  0  0  0  0  0  0  0  0  0
  136.5842  135.9998  163.9776 C   0  0  0  0  0  0  0  0  0  0  0  0
  135.3282  136.2125  163.5854 C   0  0  0  0  0  0  0  0  0  0  0  0
  134.6674  135.2563  162.6940 C   0  0  0  0  0  0  0  0  0  0  0  0
  133.3961  135.4717  162.2971 C   0  0  0  0  0  0  0  0  0  0  0  0
  132.7354  134.5156  161.4057 C   0  0  0  0  0  0  0  0  0  0  0  0
  131.4794  134.7283  161.0135 C   0  0  0  0  0  0  0  0  0  0  0  0
  130.7995  133.7445  160.0965 C   0  0  2  0  0  0  0  0  0  0  0  0
  130.7635  132.7660  160.5756 H   0  0  0  0  0  0  0  0  0  0  0  0
  131.5502  133.6469  158.8422 N   0  0  0  0  0  0  0  0  0  0  0  0
  131.1140  132.7988  157.8386 C   0  0  0  0  0  0  0  0  0  0  0  0
  130.4322  131.6356  158.0244 N   0  0  0  0  0  0  0  0  0  0  0  0
  130.1668  131.2549  158.8761 H   0  0  0  0  0  0  0  0  0  0  0  0
  130.1868  131.1017  156.7826 C   0  0  0  0  0  0  0  0  0  0  0  0
  130.7325  131.9487  155.8750 C   0  0  0  0  0  0  0  0  0  0  0  0
  130.7181  131.7771  154.4018 C   0  0  0  0  0  0  0  0  0  0  0  0
  131.3125  130.6580  153.8112 C   0  0  0  0  0  0  0  0  0  0  0  0
  131.2670  130.5413  152.4329 C   0  0  0  0  0  0  0  0  0  0  0  0
  130.6510  131.5322  151.6900 C   0  0  0  0  0  0  0  0  0  0  0  0
  130.1033  132.5797  152.2750 N   0  0  0  0  0  0  0  0  0  0  0  0
  130.1170  132.7314  153.5836 C   0  0  0  0  0  0  0  0  0  0  0  0
  131.2943  132.9809  156.5532 N   0  0  0  0  0  0  0  0  0  0  0  0
  131.7553  133.7337  156.1511 H   0  0  0  0  0  0  0  0  0  0  0  0
  129.3970  134.2139  159.8072 C   0  0  0  0  0  0  0  0  0  0  0  0
  128.3613  133.4507  160.1387 C   0  0  0  0  0  0  0  0  0  0  0  0
  126.9930  133.9113  159.8529 C   0  0  0  0  0  0  0  0  0  0  0  0
  126.7929  134.8640  158.9488 C   0  0  0  0  0  0  0  0  0  0  0  0
  125.3933  135.3399  158.6556 C   0  0  0  0  0  0  0  0  0  0  0  0
  127.9608  135.4693  158.2160 C   0  0  0  0  0  0  0  0  0  0  0  0
  129.1730  135.5495  159.1487 C   0  0  0  0  0  0  0  0  0  0  0  0
  139.7062  136.7234  167.3126 H   0  0  0  0  0  0  0  0  0  0  0  0
  139.4845  138.0073  166.0998 H   0  0  0  0  0  0  0  0  0  0  0  0
  138.2332  137.7222  167.3331 H   0  0  0  0  0  0  0  0  0  0  0  0
  137.7802  135.4882  166.3572 H   0  0  0  0  0  0  0  0  0  0  0  0
  139.0316  135.7732  165.1238 H   0  0  0  0  0  0  0  0  0  0  0  0
  137.7712  137.7436  164.3005 H   0  0  0  0  0  0  0  0  0  0  0  0
  136.5199  137.4586  165.5338 H   0  0  0  0  0  0  0  0  0  0  0  0
  137.1146  135.1223  163.6382 H   0  0  0  0  0  0  0  0  0  0  0  0
  134.7977  137.0899  163.9248 H   0  0  0  0  0  0  0  0  0  0  0  0
  135.1978  134.3789  162.3547 H   0  0  0  0  0  0  0  0  0  0  0  0
  132.8657  136.3491  162.6366 H   0  0  0  0  0  0  0  0  0  0  0  0
  133.2658  133.6381  161.0664 H   0  0  0  0  0  0  0  0  0  0  0  0
  130.9490  135.6056  161.3529 H   0  0  0  0  0  0  0  0  0  0  0  0
  132.3529  134.1762  158.7148 H   0  0  0  0  0  0  0  0  0  0  0  0
  129.6631  130.1814  156.5701 H   0  0  0  0  0  0  0  0  0  0  0  0
  131.7912  129.9016  154.4155 H   0  0  0  0  0  0  0  0  0  0  0  0
  131.7117  129.6880  151.9423 H   0  0  0  0  0  0  0  0  0  0  0  0
  130.6176  131.4466  150.6138 H   0  0  0  0  0  0  0  0  0  0  0  0
  129.6579  133.6031  154.0261 H   0  0  0  0  0  0  0  0  0  0  0  0
  128.5228  132.4959  160.6167 H   0  0  0  0  0  0  0  0  0  0  0  0
  126.1543  133.4761  160.3761 H   0  0  0  0  0  0  0  0  0  0  0  0
  124.6855  134.7911  159.2766 H   0  0  0  0  0  0  0  0  0  0  0  0
  125.3186  136.4052  158.8738 H   0  0  0  0  0  0  0  0  0  0  0  0
  125.1639  135.1675  157.6040 H   0  0  0  0  0  0  0  0  0  0  0  0
  128.2049  134.8520  157.3515 H   0  0  0  0  0  0  0  0  0  0  0  0
  127.6971  136.4722  157.8801 H   0  0  0  0  0  0  0  0  0  0  0  0
  128.9961  136.3053  159.9140 H   0  0  0  0  0  0  0  0  0  0  0  0
  130.0564  135.8210  158.5709 H   0  0  0  0  0  0  0  0  0  0  0  0
  1  2  1  0
  1 33  1  0
  1 34  1  0
  1 35  1  0
  2  3  1  0
  2 36  1  0
  2 37  1  0
  3  4  1  0
  3 38  1  0
  3 39  1  0
  4  5  2  0
  4 40  1  0
  5  6  1  0
  5 41  1  0
  6  7  2  0
  6 42  1  0
  7  8  1  0
  7 43  1  0
  8  9  2  0
  8 44  1  0
  9 10  1  0
  9 45  1  0
 10 11  1  1
 10 12  1  0
 10 26  1  0
 12 46  1  0
 13 12  1  0
 13 24  2  0
 13 14  1  0
 14 15  1  0
 14 16  1  0
 16 17  2  0
 16 47  1  0
 17 18  1  0
 17 24  1  0
 18 23  1  0
 18 19  2  0
 19 20  1  0
 19 48  1  0
 20 21  2  0
 20 49  1  0
 21 22  1  0
 21 50  1  0
 22 23  2  0
 23 51  1  0
 24 25  1  0
 26 32  1  0
 26 27  2  0
 27 28  1  0
 27 52  1  0
 28 29  2  0
 28 53  1  0
 29 30  1  0
 29 31  1  0
 30 54  1  0
 30 55  1  0
 30 56  1  0
 31 32  1  0
 31 57  1  0
 31 58  1  0
 32 59  1  0
 32 60  1  0
M  CHG  1  24   1
M  END
>  <DOCK_score>  (1) 
-57.54797

>  <SMILES>  (1) 
CCC/C=C/C=C/C=C[C@H](Nc1[nH]cc(-c2cccnc2)[nH+]1)C1=CC=C(C)CC1

$$$$
