C/C=C/C(C)Nc1ccc(-c2c[nH]c(N[C@@H](C)c3ccc(N)nc3)[nH+]2)cc1
     RDKit          3D

 54 56  0  0  1  0  0  0  0  0999 V2000
  127.7761  127.1643  150.7019 C   0  0  0  0  0  0  0  0  0  0  0  0
  128.7991  128.2150  151.0486 C   0  0  0  0  0  0  0  0  0  0  0  0
  128.4109  129.4091  151.4222 C   0  0  0  0  0  0  0  0  0  0  0  0
  129.4340  130.4599  151.7690 C   0  0  2  0  0  0  0  0  0  0  0  0
  130.3254  130.7244  150.5540 C   0  0  0  0  0  0  0  0  0  0  0  0
  130.2576  129.9904  152.8856 N   0  0  0  0  0  0  0  0  0  0  0  0
  130.2928  130.7135  154.0803 C   0  0  0  0  0  0  0  0  0  0  0  0
  130.1136  132.0915  154.0627 C   0  0  0  0  0  0  0  0  0  0  0  0
  130.1481  132.8074  155.2407 C   0  0  0  0  0  0  0  0  0  0  0  0
  130.3625  132.1479  156.4500 C   0  0  0  0  0  0  0  0  0  0  0  0
  130.4000  132.9159  157.7186 C   0  0  0  0  0  0  0  0  0  0  0  0
  130.0370  132.4552  158.9412 C   0  0  0  0  0  0  0  0  0  0  0  0
  130.2227  133.4892  159.8281 N   0  0  0  0  0  0  0  0  0  0  0  0
  130.0471  133.4668  160.7818 H   0  0  0  0  0  0  0  0  0  0  0  0
  130.6985  134.5498  159.1208 C   0  0  0  0  0  0  0  0  0  0  0  0
  131.0171  135.7909  159.6449 N   0  0  0  0  0  0  0  0  0  0  0  0
  130.8491  136.0461  161.0777 C   0  0  1  0  0  0  0  0  0  0  0  0
  131.4703  135.3532  161.6454 H   0  0  0  0  0  0  0  0  0  0  0  0
  131.2698  137.4831  161.3925 C   0  0  0  0  0  0  0  0  0  0  0  0
  129.4037  135.8512  161.4565 C   0  0  0  0  0  0  0  0  0  0  0  0
  128.3968  136.0993  160.5327 C   0  0  0  0  0  0  0  0  0  0  0  0
  127.0836  135.9038  160.9192 C   0  0  0  0  0  0  0  0  0  0  0  0
  126.8164  135.4773  162.2164 C   0  0  0  0  0  0  0  0  0  0  0  0
  125.5007  135.2814  162.6199 N   0  0  0  0  0  0  0  0  0  0  0  0
  127.8041  135.2563  163.0699 N   0  0  0  0  0  0  0  0  0  0  0  0
  129.0668  135.4297  162.7269 C   0  0  0  0  0  0  0  0  0  0  0  0
  130.8060  134.2024  157.8614 N   0  0  0  0  0  0  0  0  0  0  0  0
  131.1215  134.7753  157.1450 H   0  0  0  0  0  0  0  0  0  0  0  0
  130.5475  130.7664  156.4647 C   0  0  0  0  0  0  0  0  0  0  0  0
  130.5062  130.0536  155.2849 C   0  0  0  0  0  0  0  0  0  0  0  0
  128.2840  126.2430  150.4163 H   0  0  0  0  0  0  0  0  0  0  0  0
  127.1410  126.9759  151.5674 H   0  0  0  0  0  0  0  0  0  0  0  0
  127.1635  127.5139  149.8709 H   0  0  0  0  0  0  0  0  0  0  0  0
  129.8525  127.9837  150.9891 H   0  0  0  0  0  0  0  0  0  0  0  0
  127.3577  129.6405  151.4817 H   0  0  0  0  0  0  0  0  0  0  0  0
  128.9261  131.3813  152.0544 H   0  0  0  0  0  0  0  0  0  0  0  0
  131.0654  131.4845  150.8047 H   0  0  0  0  0  0  0  0  0  0  0  0
  130.8333  129.8032  150.2685 H   0  0  0  0  0  0  0  0  0  0  0  0
  129.7126  131.0740  149.7230 H   0  0  0  0  0  0  0  0  0  0  0  0
  130.7783  129.1767  152.7959 H   0  0  0  0  0  0  0  0  0  0  0  0
  129.9471  132.6020  153.1257 H   0  0  0  0  0  0  0  0  0  0  0  0
  130.0085  133.8783  155.2265 H   0  0  0  0  0  0  0  0  0  0  0  0
  129.6685  131.4668  159.1730 H   0  0  0  0  0  0  0  0  0  0  0  0
  131.3515  136.4916  159.0635 H   0  0  0  0  0  0  0  0  0  0  0  0
  132.3153  137.6240  161.1184 H   0  0  0  0  0  0  0  0  0  0  0  0
  130.6488  138.1761  160.8248 H   0  0  0  0  0  0  0  0  0  0  0  0
  131.1448  137.6730  162.4585 H   0  0  0  0  0  0  0  0  0  0  0  0
  128.6344  136.4338  159.5336 H   0  0  0  0  0  0  0  0  0  0  0  0
  126.2760  136.0838  160.2251 H   0  0  0  0  0  0  0  0  0  0  0  0
  125.3098  134.9838  163.5231 H   0  0  0  0  0  0  0  0  0  0  0  0
  124.7737  135.4420  161.9982 H   0  0  0  0  0  0  0  0  0  0  0  0
  129.8463  135.2392  163.4496 H   0  0  0  0  0  0  0  0  0  0  0  0
  130.7187  130.2539  157.3998 H   0  0  0  0  0  0  0  0  0  0  0  0
  130.6447  128.9825  155.2964 H   0  0  0  0  0  0  0  0  0  0  0  0
  1  2  1  0
  1 31  1  0
  1 32  1  0
  1 33  1  0
  2  3  2  0
  2 34  1  0
  3  4  1  0
  3 35  1  0
  4  5  1  0
  4  6  1  0
  4 36  1  1
  5 37  1  0
  5 38  1  0
  5 39  1  0
  6  7  1  0
  6 40  1  0
  7 30  2  0
  7  8  1  0
  8  9  2  0
  8 41  1  0
  9 10  1  0
  9 42  1  0
 10 11  1  0
 10 29  2  0
 11 27  1  0
 11 12  2  0
 12 13  1  0
 12 43  1  0
 13 14  1  0
 13 15  1  0
 15 16  1  0
 15 27  2  0
 16 17  1  0
 16 44  1  0
 17 18  1  1
 17 19  1  0
 17 20  1  0
 19 45  1  0
 19 46  1  0
 19 47  1  0
 20 26  1  0
 20 21  2  0
 21 22  1  0
 21 48  1  0
 22 23  2  0
 22 49  1  0
 23 24  1  0
 23 25  1  0
 24 50  1  0
 24 51  1  0
 25 26  2  0
 26 52  1  0
 27 28  1  0
 29 30  1  0
 29 53  1  0
 30 54  1  0
M  CHG  1  27   1
M  END
>  <DOCK_score>  (1) 
-50.520401

>  <SMILES>  (1) 
C/C=C/C(C)Nc1ccc(-c2c[nH]c(N[C@@H](C)c3ccc(N)nc3)[nH+]2)cc1

$$$$
