Cc1ccc([C@H](c2ccccc2)[NH+]2CCN(c3cncc4ccccc34)CC2)cc1
     RDKit          3D

 58 62  0  0  1  0  0  0  0  0999 V2000
  131.8908  129.7519  157.5425 C   0  0  0  0  0  0  0  0  0  0  0  0
  131.4298  131.0282  158.1977 C   0  0  0  0  0  0  0  0  0  0  0  0
  131.2090  131.0644  159.5619 C   0  0  0  0  0  0  0  0  0  0  0  0
  130.7870  132.2354  160.1630 C   0  0  0  0  0  0  0  0  0  0  0  0
  130.5854  133.3704  159.3999 C   0  0  0  0  0  0  0  0  0  0  0  0
  130.1249  134.6469  160.0553 C   0  0  2  0  0  0  0  0  0  0  0  0
  130.0056  134.4830  161.1263 H   0  0  0  0  0  0  0  0  0  0  0  0
  128.8056  135.0688  159.4616 C   0  0  0  0  0  0  0  0  0  0  0  0
  127.6222  134.6214  160.0189 C   0  0  0  0  0  0  0  0  0  0  0  0
  126.4120  135.0118  159.4768 C   0  0  0  0  0  0  0  0  0  0  0  0
  126.3852  135.8423  158.3720 C   0  0  0  0  0  0  0  0  0  0  0  0
  127.5687  136.2855  157.8116 C   0  0  0  0  0  0  0  0  0  0  0  0
  128.7788  135.8985  158.3563 C   0  0  0  0  0  0  0  0  0  0  0  0
  131.1229  135.7010  159.8294 N   0  0  0  0  0  0  0  0  0  0  0  0
  131.2332  135.8525  158.8380 H   0  0  0  0  0  0  0  0  0  0  0  0
  132.4090  135.2890  160.4072 C   0  0  0  0  0  0  0  0  0  0  0  0
  133.4537  136.3784  160.1556 C   0  0  0  0  0  0  0  0  0  0  0  0
  133.0027  137.6364  160.7674 N   0  0  0  0  0  0  0  0  0  0  0  0
  133.9555  138.6407  160.6049 C   0  0  0  0  0  0  0  0  0  0  0  0
  134.3491  139.0436  159.3453 C   0  0  0  0  0  0  0  0  0  0  0  0
  135.2496  139.9999  159.1727 N   0  0  0  0  0  0  0  0  0  0  0  0
  135.8329  140.6180  160.1726 C   0  0  0  0  0  0  0  0  0  0  0  0
  135.5091  140.2813  161.4968 C   0  0  0  0  0  0  0  0  0  0  0  0
  136.1105  140.9181  162.5942 C   0  0  0  0  0  0  0  0  0  0  0  0
  135.7596  140.5513  163.8579 C   0  0  0  0  0  0  0  0  0  0  0  0
  134.8123  139.5539  164.0804 C   0  0  0  0  0  0  0  0  0  0  0  0
  134.2085  138.9147  163.0394 C   0  0  0  0  0  0  0  0  0  0  0  0
  134.5452  139.2659  161.7258 C   0  0  0  0  0  0  0  0  0  0  0  0
  131.7038  138.0485  160.2166 C   0  0  0  0  0  0  0  0  0  0  0  0
  130.6735  136.9452  160.4676 C   0  0  0  0  0  0  0  0  0  0  0  0
  130.8007  133.3327  158.0350 C   0  0  0  0  0  0  0  0  0  0  0  0
  131.2282  132.1632  157.4347 C   0  0  0  0  0  0  0  0  0  0  0  0
  131.0236  129.1684  157.2334 H   0  0  0  0  0  0  0  0  0  0  0  0
  132.4981  129.9905  156.6694 H   0  0  0  0  0  0  0  0  0  0  0  0
  132.4841  129.1736  158.2508 H   0  0  0  0  0  0  0  0  0  0  0  0
  131.3665  130.1777  160.1580 H   0  0  0  0  0  0  0  0  0  0  0  0
  130.6144  132.2636  161.2288 H   0  0  0  0  0  0  0  0  0  0  0  0
  127.6432  133.9695  160.8796 H   0  0  0  0  0  0  0  0  0  0  0  0
  125.4874  134.6659  159.9149 H   0  0  0  0  0  0  0  0  0  0  0  0
  125.4398  136.1452  157.9469 H   0  0  0  0  0  0  0  0  0  0  0  0
  127.5478  136.9342  156.9486 H   0  0  0  0  0  0  0  0  0  0  0  0
  129.7033  136.2447  157.9185 H   0  0  0  0  0  0  0  0  0  0  0  0
  132.2934  135.1374  161.4803 H   0  0  0  0  0  0  0  0  0  0  0  0
  132.7350  134.3587  159.9418 H   0  0  0  0  0  0  0  0  0  0  0  0
  133.5797  136.5208  159.0822 H   0  0  0  0  0  0  0  0  0  0  0  0
  134.4047  136.0799  160.5968 H   0  0  0  0  0  0  0  0  0  0  0  0
  133.9094  138.5711  158.4794 H   0  0  0  0  0  0  0  0  0  0  0  0
  136.5640  141.3883  159.9765 H   0  0  0  0  0  0  0  0  0  0  0  0
  136.8458  141.6935  162.4374 H   0  0  0  0  0  0  0  0  0  0  0  0
  136.2230  141.0415  164.7013 H   0  0  0  0  0  0  0  0  0  0  0  0
  134.5527  139.2834  165.0932 H   0  0  0  0  0  0  0  0  0  0  0  0
  133.4764  138.1430  163.2256 H   0  0  0  0  0  0  0  0  0  0  0  0
  131.8009  138.2182  159.1443 H   0  0  0  0  0  0  0  0  0  0  0  0
  131.3777  138.9680  160.7024 H   0  0  0  0  0  0  0  0  0  0  0  0
  129.7129  137.2427  160.0473 H   0  0  0  0  0  0  0  0  0  0  0  0
  130.5668  136.7851  161.5405 H   0  0  0  0  0  0  0  0  0  0  0  0
  130.6390  134.2182  157.4381 H   0  0  0  0  0  0  0  0  0  0  0  0
  131.4011  132.1352  156.3690 H   0  0  0  0  0  0  0  0  0  0  0  0
  1  2  1  0
  1 33  1  0
  1 34  1  0
  1 35  1  0
  2 32  2  0
  2  3  1  0
  3  4  2  0
  3 36  1  0
  4  5  1  0
  4 37  1  0
  5  6  1  0
  5 31  2  0
  6  7  1  1
  6  8  1  0
  6 14  1  0
  8 13  1  0
  8  9  2  0
  9 10  1  0
  9 38  1  0
 10 11  2  0
 10 39  1  0
 11 12  1  0
 11 40  1  0
 12 13  2  0
 12 41  1  0
 13 42  1  0
 14 15  1  0
 14 30  1  0
 14 16  1  0
 16 17  1  0
 16 43  1  0
 16 44  1  0
 17 18  1  0
 17 45  1  0
 17 46  1  0
 18 19  1  0
 18 29  1  0
 19 28  1  0
 19 20  2  0
 20 21  1  0
 20 47  1  0
 21 22  2  0
 22 23  1  0
 22 48  1  0
 23 28  2  0
 23 24  1  0
 24 25  2  0
 24 49  1  0
 25 26  1  0
 25 50  1  0
 26 27  2  0
 26 51  1  0
 27 28  1  0
 27 52  1  0
 29 30  1  0
 29 53  1  0
 29 54  1  0
 30 55  1  0
 30 56  1  0
 31 32  1  0
 31 57  1  0
 32 58  1  0
M  CHG  1  14   1
M  END
>  <DOCK_score>  (1) 
-56.101768

>  <SMILES>  (1) 
Cc1ccc([C@H](c2ccccc2)[NH+]2CCN(c3cncc4ccccc34)CC2)cc1

$$$$
