O[C@@H]1[C@H](O)C=C[C@H]1[NH+]=C(NC1CC=CC1)N[C@@H]1C=C[C@@H](O)[C@H]1Cl
     RDKit          3D

 46 48  0  0  1  0  0  0  0  0999 V2000
  131.0008  135.0895  159.2743 O   0  0  0  0  0  0  0  0  0  0  0  0
  130.4558  135.5810  160.5004 C   0  0  2  0  0  0  0  0  0  0  0  0
  129.3824  135.7475  160.4107 H   0  0  0  0  0  0  0  0  0  0  0  0
  131.1812  136.8692  160.9535 C   0  0  2  0  0  0  0  0  0  0  0  0
  130.6055  137.7497  160.6682 H   0  0  0  0  0  0  0  0  0  0  0  0
  132.4930  136.9266  160.3892 O   0  0  0  0  0  0  0  0  0  0  0  0
  131.2602  136.7567  162.4582 C   0  0  0  0  0  0  0  0  0  0  0  0
  131.0375  135.5319  162.8503 C   0  0  0  0  0  0  0  0  0  0  0  0
  130.7730  134.6232  161.6723 C   0  0  1  0  0  0  0  0  0  0  0  0
  131.6571  134.0269  161.4467 H   0  0  0  0  0  0  0  0  0  0  0  0
  129.6268  133.7521  161.9440 N   0  0  0  0  0  0  0  0  0  0  0  0
  129.2008  133.7686  162.8153 H   0  0  0  0  0  0  0  0  0  0  0  0
  129.1796  132.9548  161.0148 C   0  0  0  0  0  0  0  0  0  0  0  0
  129.7835  132.9314  159.7800 N   0  0  0  0  0  0  0  0  0  0  0  0
  129.2808  132.0353  158.7356 C   0  0  0  0  0  0  0  0  0  0  0  0
  130.1184  130.7372  158.6678 C   0  0  0  0  0  0  0  0  0  0  0  0
  130.1999  130.4093  157.1950 C   0  0  0  0  0  0  0  0  0  0  0  0
  129.8760  131.4417  156.4651 C   0  0  0  0  0  0  0  0  0  0  0  0
  129.5243  132.6302  157.3292 C   0  0  0  0  0  0  0  0  0  0  0  0
  128.1040  132.1373  161.2697 N   0  0  0  0  0  0  0  0  0  0  0  0
  127.0765  132.5558  162.2265 C   0  0  2  0  0  0  0  0  0  0  0  0
  127.5163  132.7099  163.2118 H   0  0  0  0  0  0  0  0  0  0  0  0
  125.9731  131.5259  162.2979 C   0  0  0  0  0  0  0  0  0  0  0  0
  124.9230  131.9181  161.6238 C   0  0  0  0  0  0  0  0  0  0  0  0
  125.1537  133.2723  160.9944 C   0  0  1  0  0  0  0  0  0  0  0  0
  125.3703  133.1652  159.9316 H   0  0  0  0  0  0  0  0  0  0  0  0
  124.0148  134.1137  161.1870 O   0  0  0  0  0  0  0  0  0  0  0  0
  126.3807  133.8478  161.7391 C   0  0  1  0  0  0  0  0  0  0  0  0
  127.0243  134.4062  161.0593 H   0  0  0  0  0  0  0  0  0  0  0  0
  125.8705  134.8732  163.1315 Cl  0  0  0  0  0  0  0  0  0  0  0  0
  130.9143  135.7029  158.5318 H   0  0  0  0  0  0  0  0  0  0  0  0
  132.5039  136.9769  159.4236 H   0  0  0  0  0  0  0  0  0  0  0  0
  131.4769  137.5807  163.1220 H   0  0  0  0  0  0  0  0  0  0  0  0
  131.0421  135.2099  163.8812 H   0  0  0  0  0  0  0  0  0  0  0  0
  130.5422  133.5081  159.6000 H   0  0  0  0  0  0  0  0  0  0  0  0
  128.2249  131.8128  158.8890 H   0  0  0  0  0  0  0  0  0  0  0  0
  131.1152  130.9066  159.0749 H   0  0  0  0  0  0  0  0  0  0  0  0
  129.6180  129.9337  159.2085 H   0  0  0  0  0  0  0  0  0  0  0  0
  130.4881  129.4470  156.7984 H   0  0  0  0  0  0  0  0  0  0  0  0
  129.8615  131.4460  155.3852 H   0  0  0  0  0  0  0  0  0  0  0  0
  128.6200  133.1140  156.9599 H   0  0  0  0  0  0  0  0  0  0  0  0
  130.3505  133.3407  157.3553 H   0  0  0  0  0  0  0  0  0  0  0  0
  128.0255  131.2836  160.8161 H   0  0  0  0  0  0  0  0  0  0  0  0
  126.0436  130.5912  162.8344 H   0  0  0  0  0  0  0  0  0  0  0  0
  124.0104  131.3483  161.5299 H   0  0  0  0  0  0  0  0  0  0  0  0
  124.1348  135.0177  160.8655 H   0  0  0  0  0  0  0  0  0  0  0  0
  1  2  1  0
  1 31  1  0
  2  3  1  6
  2  9  1  0
  2  4  1  0
  4  5  1  1
  4  6  1  0
  4  7  1  0
  6 32  1  0
  7  8  2  0
  7 33  1  0
  8  9  1  0
  8 34  1  0
  9 10  1  6
  9 11  1  0
 11 12  1  0
 13 11  2  0
 13 14  1  0
 13 20  1  0
 14 15  1  0
 14 35  1  0
 15 19  1  0
 15 16  1  0
 15 36  1  0
 16 17  1  0
 16 37  1  0
 16 38  1  0
 17 18  2  0
 17 39  1  0
 18 19  1  0
 18 40  1  0
 19 41  1  0
 19 42  1  0
 20 21  1  0
 20 43  1  0
 21 22  1  1
 21 28  1  0
 21 23  1  0
 23 24  2  0
 23 44  1  0
 24 25  1  0
 24 45  1  0
 25 26  1  6
 25 27  1  0
 25 28  1  0
 27 46  1  0
 28 29  1  6
 28 30  1  0
M  CHG  1  11   1
M  END
>  <DOCK_score>  (1) 
-43.045818

>  <SMILES>  (1) 
O[C@@H]1[C@H](O)C=C[C@H]1[NH+]=C(NC1CC=CC1)N[C@@H]1C=C[C@@H](O)[C@H]1Cl

$$$$
