Cc1c(NC2CCc3cc(N)ccc3C2)cccc1N1CC[NH+]([C@@H](C(N)=O)c2ccccc2)CC1
     RDKit          3D

 71 75  0  0  1  0  0  0  0  0999 V2000
  132.6388  135.4305  164.2360 C   0  0  0  0  0  0  0  0  0  0  0  0
  133.6377  136.1630  163.3776 C   0  0  0  0  0  0  0  0  0  0  0  0
  134.7446  136.7659  163.9587 C   0  0  0  0  0  0  0  0  0  0  0  0
  134.9343  136.6947  165.3407 N   0  0  0  0  0  0  0  0  0  0  0  0
  136.2902  136.7046  165.8953 C   0  0  1  0  0  0  0  0  0  0  0  0
  136.7147  138.1468  166.1960 C   0  0  0  0  0  0  0  0  0  0  0  0
  138.2025  138.1489  166.5411 C   0  0  0  0  0  0  0  0  0  0  0  0
  138.5013  137.1240  167.6040 C   0  0  0  0  0  0  0  0  0  0  0  0
  139.6984  137.2431  168.2962 C   0  0  0  0  0  0  0  0  0  0  0  0
  140.0344  136.3289  169.2823 C   0  0  0  0  0  0  0  0  0  0  0  0
  141.2403  136.4551  169.9757 N   0  0  0  0  0  0  0  0  0  0  0  0
  139.1646  135.2863  169.5771 C   0  0  0  0  0  0  0  0  0  0  0  0
  137.9765  135.1733  168.8886 C   0  0  0  0  0  0  0  0  0  0  0  0
  137.6391  136.0921  167.9019 C   0  0  0  0  0  0  0  0  0  0  0  0
  136.3178  135.9123  167.2007 C   0  0  0  0  0  0  0  0  0  0  0  0
  135.6609  137.4445  163.1649 C   0  0  0  0  0  0  0  0  0  0  0  0
  135.4737  137.5158  161.7977 C   0  0  0  0  0  0  0  0  0  0  0  0
  134.3759  136.9125  161.2156 C   0  0  0  0  0  0  0  0  0  0  0  0
  133.4558  136.2312  162.0037 C   0  0  0  0  0  0  0  0  0  0  0  0
  132.3465  135.6211  161.4141 N   0  0  0  0  0  0  0  0  0  0  0  0
  131.4711  136.6180  160.7818 C   0  0  0  0  0  0  0  0  0  0  0  0
  130.2410  135.9170  160.2010 C   0  0  0  0  0  0  0  0  0  0  0  0
  130.6676  134.9177  159.2127 N   0  0  0  0  0  0  0  0  0  0  0  0
  131.1863  135.3730  158.4767 H   0  0  0  0  0  0  0  0  0  0  0  0
  129.4855  134.2577  158.6425 C   0  0  1  0  0  0  0  0  0  0  0  0
  128.9248  133.7662  159.4375 H   0  0  0  0  0  0  0  0  0  0  0  0
  128.6107  135.2855  157.9722 C   0  0  0  0  0  0  0  0  0  0  0  0
  129.1622  136.3885  157.4285 N   0  0  0  0  0  0  0  0  0  0  0  0
  127.4102  135.1201  157.9220 O   0  0  0  0  0  0  0  0  0  0  0  0
  129.9229  133.2323  157.6284 C   0  0  0  0  0  0  0  0  0  0  0  0
  130.0697  133.5914  156.3016 C   0  0  0  0  0  0  0  0  0  0  0  0
  130.4748  132.6517  155.3721 C   0  0  0  0  0  0  0  0  0  0  0  0
  130.7251  131.3511  155.7680 C   0  0  0  0  0  0  0  0  0  0  0  0
  130.5733  130.9910  157.0940 C   0  0  0  0  0  0  0  0  0  0  0  0
  130.1720  131.9315  158.0241 C   0  0  0  0  0  0  0  0  0  0  0  0
  131.5210  133.9155  159.8644 C   0  0  0  0  0  0  0  0  0  0  0  0
  132.7617  134.5997  160.4423 C   0  0  0  0  0  0  0  0  0  0  0  0
  132.9362  134.3860  164.3286 H   0  0  0  0  0  0  0  0  0  0  0  0
  132.6052  135.8878  165.2249 H   0  0  0  0  0  0  0  0  0  0  0  0
  131.6526  135.4880  163.7754 H   0  0  0  0  0  0  0  0  0  0  0  0
  134.1683  136.6385  165.9333 H   0  0  0  0  0  0  0  0  0  0  0  0
  136.9824  136.2595  165.1805 H   0  0  0  0  0  0  0  0  0  0  0  0
  136.5403  138.7712  165.3197 H   0  0  0  0  0  0  0  0  0  0  0  0
  136.1409  138.5301  167.0397 H   0  0  0  0  0  0  0  0  0  0  0  0
  138.7794  137.9173  165.6459 H   0  0  0  0  0  0  0  0  0  0  0  0
  138.4857  139.1367  166.9047 H   0  0  0  0  0  0  0  0  0  0  0  0
  140.3731  138.0539  168.0646 H   0  0  0  0  0  0  0  0  0  0  0  0
  141.8454  137.1842  169.7677 H   0  0  0  0  0  0  0  0  0  0  0  0
  141.4728  135.8136  170.6653 H   0  0  0  0  0  0  0  0  0  0  0  0
  139.4188  134.5676  170.3422 H   0  0  0  0  0  0  0  0  0  0  0  0
  137.3007  134.3626  169.1180 H   0  0  0  0  0  0  0  0  0  0  0  0
  135.5157  136.2621  167.8504 H   0  0  0  0  0  0  0  0  0  0  0  0
  136.1676  134.8549  166.9827 H   0  0  0  0  0  0  0  0  0  0  0  0
  136.5205  137.9171  163.6170 H   0  0  0  0  0  0  0  0  0  0  0  0
  136.1874  138.0442  161.1830 H   0  0  0  0  0  0  0  0  0  0  0  0
  134.2326  136.9698  160.1465 H   0  0  0  0  0  0  0  0  0  0  0  0
  132.0131  137.1230  159.9822 H   0  0  0  0  0  0  0  0  0  0  0  0
  131.1555  137.3495  161.5257 H   0  0  0  0  0  0  0  0  0  0  0  0
  129.5972  136.6529  159.7190 H   0  0  0  0  0  0  0  0  0  0  0  0
  129.6917  135.4236  161.0029 H   0  0  0  0  0  0  0  0  0  0  0  0
  130.1224  136.5208  157.4687 H   0  0  0  0  0  0  0  0  0  0  0  0
  128.5992  137.0501  156.9969 H   0  0  0  0  0  0  0  0  0  0  0  0
  129.8710  134.6066  155.9917 H   0  0  0  0  0  0  0  0  0  0  0  0
  130.5931  132.9332  154.3361 H   0  0  0  0  0  0  0  0  0  0  0  0
  131.0390  130.6164  155.0413 H   0  0  0  0  0  0  0  0  0  0  0  0
  130.7685  129.9748  157.4032 H   0  0  0  0  0  0  0  0  0  0  0  0
  130.0533  131.6500  159.0601 H   0  0  0  0  0  0  0  0  0  0  0  0
  130.9651  133.4321  160.6680 H   0  0  0  0  0  0  0  0  0  0  0  0
  131.8261  133.1671  159.1328 H   0  0  0  0  0  0  0  0  0  0  0  0
  133.3250  135.0714  159.6371 H   0  0  0  0  0  0  0  0  0  0  0  0
  133.3882  133.8586  160.9387 H   0  0  0  0  0  0  0  0  0  0  0  0
  1  2  1  0
  1 38  1  0
  1 39  1  0
  1 40  1  0
  2 19  2  0
  2  3  1  0
  3  4  1  0
  3 16  2  0
  4  5  1  0
  4 41  1  0
  5 15  1  0
  5  6  1  0
  5 42  1  6
  6  7  1  0
  6 43  1  0
  6 44  1  0
  7  8  1  0
  7 45  1  0
  7 46  1  0
  8 14  2  0
  8  9  1  0
  9 10  2  0
  9 47  1  0
 10 11  1  0
 10 12  1  0
 11 48  1  0
 11 49  1  0
 12 13  2  0
 12 50  1  0
 13 14  1  0
 13 51  1  0
 14 15  1  0
 15 52  1  0
 15 53  1  0
 16 17  1  0
 16 54  1  0
 17 18  2  0
 17 55  1  0
 18 19  1  0
 18 56  1  0
 19 20  1  0
 20 37  1  0
 20 21  1  0
 21 22  1  0
 21 57  1  0
 21 58  1  0
 22 23  1  0
 22 59  1  0
 22 60  1  0
 23 24  1  0
 23 25  1  0
 23 36  1  0
 25 26  1  1
 25 27  1  0
 25 30  1  0
 27 28  1  0
 27 29  2  0
 28 61  1  0
 28 62  1  0
 30 35  1  0
 30 31  2  0
 31 32  1  0
 31 63  1  0
 32 33  2  0
 32 64  1  0
 33 34  1  0
 33 65  1  0
 34 35  2  0
 34 66  1  0
 35 67  1  0
 36 37  1  0
 36 68  1  0
 36 69  1  0
 37 70  1  0
 37 71  1  0
M  CHG  1  23   1
M  END
>  <DOCK_score>  (1) 
-58.022087

>  <SMILES>  (1) 
Cc1c(NC2CCc3cc(N)ccc3C2)cccc1N1CC[NH+]([C@@H](C(N)=O)c2ccccc2)CC1

$$$$
