Oc1cc(O)cc(C[NH+]=C(NCC2Cc3ccccc3C2)NC2CC=CC2)c1
     RDKit          3D

 56 59  0  0  1  0  0  0  0  0999 V2000
  127.3605  134.9828  167.0618 O   0  0  0  0  0  0  0  0  0  0  0  0
  127.2146  135.3768  165.7694 C   0  0  0  0  0  0  0  0  0  0  0  0
  125.9612  135.3633  165.1773 C   0  0  0  0  0  0  0  0  0  0  0  0
  125.8157  135.7653  163.8585 C   0  0  0  0  0  0  0  0  0  0  0  0
  124.5883  135.7527  163.2753 O   0  0  0  0  0  0  0  0  0  0  0  0
  126.9245  136.1802  163.1345 C   0  0  0  0  0  0  0  0  0  0  0  0
  128.1728  136.1923  163.7267 C   0  0  0  0  0  0  0  0  0  0  0  0
  129.3753  136.6423  162.9379 C   0  0  0  0  0  0  0  0  0  0  0  0
  129.3452  136.0276  161.6084 N   0  0  0  0  0  0  0  0  0  0  0  0
  128.6181  135.4333  161.3652 H   0  0  0  0  0  0  0  0  0  0  0  0
  130.2955  136.2791  160.7524 C   0  0  0  0  0  0  0  0  0  0  0  0
  131.3259  137.1212  161.0973 N   0  0  0  0  0  0  0  0  0  0  0  0
  132.3940  137.4039  160.1352 C   0  0  0  0  0  0  0  0  0  0  0  0
  133.4071  138.3620  160.7650 C   0  0  0  0  0  0  0  0  0  0  0  0
  134.3599  138.9345  159.6942 C   0  0  0  0  0  0  0  0  0  0  0  0
  135.7009  139.0666  160.3838 C   0  0  0  0  0  0  0  0  0  0  0  0
  136.8237  139.7950  160.0349 C   0  0  0  0  0  0  0  0  0  0  0  0
  137.9514  139.7608  160.8315 C   0  0  0  0  0  0  0  0  0  0  0  0
  137.9599  138.9951  161.9826 C   0  0  0  0  0  0  0  0  0  0  0  0
  136.8407  138.2661  162.3338 C   0  0  0  0  0  0  0  0  0  0  0  0
  135.7088  138.2992  161.5363 C   0  0  0  0  0  0  0  0  0  0  0  0
  134.3748  137.6023  161.6972 C   0  0  0  0  0  0  0  0  0  0  0  0
  130.2672  135.7022  159.5048 N   0  0  0  0  0  0  0  0  0  0  0  0
  129.1690  134.8048  159.1374 C   0  0  0  0  0  0  0  0  0  0  0  0
  129.2279  133.4926  159.9535 C   0  0  0  0  0  0  0  0  0  0  0  0
  128.8013  132.4167  158.9821 C   0  0  0  0  0  0  0  0  0  0  0  0
  128.8642  132.8440  157.7503 C   0  0  0  0  0  0  0  0  0  0  0  0
  129.3432  134.2760  157.6949 C   0  0  0  0  0  0  0  0  0  0  0  0
  128.3212  135.7870  165.0395 C   0  0  0  0  0  0  0  0  0  0  0  0
  128.2712  135.0224  167.3848 H   0  0  0  0  0  0  0  0  0  0  0  0
  125.0994  135.0404  165.7426 H   0  0  0  0  0  0  0  0  0  0  0  0
  124.5871  136.0497  162.3551 H   0  0  0  0  0  0  0  0  0  0  0  0
  126.8117  136.4935  162.1071 H   0  0  0  0  0  0  0  0  0  0  0  0
  130.2847  136.3401  163.4574 H   0  0  0  0  0  0  0  0  0  0  0  0
  129.3584  137.7275  162.8367 H   0  0  0  0  0  0  0  0  0  0  0  0
  131.3458  137.5283  161.9775 H   0  0  0  0  0  0  0  0  0  0  0  0
  131.9674  137.8616  159.2427 H   0  0  0  0  0  0  0  0  0  0  0  0
  132.8936  136.4742  159.8634 H   0  0  0  0  0  0  0  0  0  0  0  0
  132.9014  139.1643  161.3024 H   0  0  0  0  0  0  0  0  0  0  0  0
  134.4348  138.2497  158.8495 H   0  0  0  0  0  0  0  0  0  0  0  0
  134.0094  139.9107  159.3590 H   0  0  0  0  0  0  0  0  0  0  0  0
  136.8177  140.3934  159.1359 H   0  0  0  0  0  0  0  0  0  0  0  0
  138.8257  140.3313  160.5552 H   0  0  0  0  0  0  0  0  0  0  0  0
  138.8408  138.9675  162.6068 H   0  0  0  0  0  0  0  0  0  0  0  0
  136.8480  137.6685  163.2333 H   0  0  0  0  0  0  0  0  0  0  0  0
  134.0351  137.6696  162.7307 H   0  0  0  0  0  0  0  0  0  0  0  0
  134.4524  136.5588  161.3923 H   0  0  0  0  0  0  0  0  0  0  0  0
  130.9743  135.8895  158.8678 H   0  0  0  0  0  0  0  0  0  0  0  0
  128.2052  135.2991  159.2593 H   0  0  0  0  0  0  0  0  0  0  0  0
  130.2438  133.3079  160.3027 H   0  0  0  0  0  0  0  0  0  0  0  0
  128.5382  133.5383  160.7963 H   0  0  0  0  0  0  0  0  0  0  0  0
  128.4855  131.4247  159.2692 H   0  0  0  0  0  0  0  0  0  0  0  0
  128.6073  132.2518  156.8844 H   0  0  0  0  0  0  0  0  0  0  0  0
  128.7319  134.8542  157.0020 H   0  0  0  0  0  0  0  0  0  0  0  0
  130.3917  134.3162  157.3997 H   0  0  0  0  0  0  0  0  0  0  0  0
  129.2986  135.7932  165.4987 H   0  0  0  0  0  0  0  0  0  0  0  0
  1  2  1  0
  1 30  1  0
  2 29  2  0
  2  3  1  0
  3  4  2  0
  3 31  1  0
  4  5  1  0
  4  6  1  0
  5 32  1  0
  6  7  2  0
  6 33  1  0
  7  8  1  0
  7 29  1  0
  8  9  1  0
  8 34  1  0
  8 35  1  0
  9 10  1  0
 11  9  2  0
 11 12  1  0
 11 23  1  0
 12 13  1  0
 12 36  1  0
 13 14  1  0
 13 37  1  0
 13 38  1  0
 14 22  1  0
 14 15  1  0
 14 39  1  0
 15 16  1  0
 15 40  1  0
 15 41  1  0
 16 21  2  0
 16 17  1  0
 17 18  2  0
 17 42  1  0
 18 19  1  0
 18 43  1  0
 19 20  2  0
 19 44  1  0
 20 21  1  0
 20 45  1  0
 21 22  1  0
 22 46  1  0
 22 47  1  0
 23 24  1  0
 23 48  1  0
 24 28  1  0
 24 25  1  0
 24 49  1  0
 25 26  1  0
 25 50  1  0
 25 51  1  0
 26 27  2  0
 26 52  1  0
 27 28  1  0
 27 53  1  0
 28 54  1  0
 28 55  1  0
 29 56  1  0
M  CHG  1   9   1
M  END
>  <DOCK_score>  (1) 
-46.156673

>  <SMILES>  (1) 
Oc1cc(O)cc(C[NH+]=C(NCC2Cc3ccccc3C2)NC2CC=CC2)c1

$$$$
