O=C1CC[C@@H](NC(N[C@H]2CCC(=O)NC2)=[NH+]C2COC3(CCC3)C2)CN1
     RDKit          3D

 56 59  0  0  1  0  0  0  0  0999 V2000
  131.7149  130.1235  155.9904 O   0  0  0  0  0  0  0  0  0  0  0  0
  131.1549  131.0403  156.5534 C   0  0  0  0  0  0  0  0  0  0  0  0
  130.2844  131.9509  155.7359 C   0  0  0  0  0  0  0  0  0  0  0  0
  129.3488  132.7387  156.6563 C   0  0  0  0  0  0  0  0  0  0  0  0
  130.1826  133.3439  157.7921 C   0  0  1  0  0  0  0  0  0  0  0  0
  131.0236  133.8966  157.3737 H   0  0  0  0  0  0  0  0  0  0  0  0
  129.3464  134.2443  158.5897 N   0  0  0  0  0  0  0  0  0  0  0  0
  129.8833  134.9050  159.6693 C   0  0  0  0  0  0  0  0  0  0  0  0
  129.0879  135.2269  160.7434 N   0  0  0  0  0  0  0  0  0  0  0  0
  127.6681  134.8657  160.7376 C   0  0  1  0  0  0  0  0  0  0  0  0
  127.2966  134.8589  159.7129 H   0  0  0  0  0  0  0  0  0  0  0  0
  127.4879  133.4772  161.3630 C   0  0  0  0  0  0  0  0  0  0  0  0
  126.0299  133.0492  161.1797 C   0  0  0  0  0  0  0  0  0  0  0  0
  125.1137  134.1574  161.6127 C   0  0  0  0  0  0  0  0  0  0  0  0
  123.9540  133.8867  161.8425 O   0  0  0  0  0  0  0  0  0  0  0  0
  125.5071  135.4233  161.7586 N   0  0  0  0  0  0  0  0  0  0  0  0
  126.8770  135.8810  161.5634 C   0  0  0  0  0  0  0  0  0  0  0  0
  131.1465  135.2263  159.6743 N   0  0  0  0  0  0  0  0  0  0  0  0
  131.7079  134.9992  158.9165 H   0  0  0  0  0  0  0  0  0  0  0  0
  131.7186  135.9304  160.8246 C   0  0  2  0  0  0  0  0  0  0  0  0
  131.0995  137.3400  160.9594 C   0  0  0  0  0  0  0  0  0  0  0  0
  132.1906  138.1895  161.3822 O   0  0  0  0  0  0  0  0  0  0  0  0
  133.3316  137.7325  160.6445 C   0  0  0  0  0  0  0  0  0  0  0  0
  133.5661  138.4143  159.2972 C   0  0  0  0  0  0  0  0  0  0  0  0
  134.4852  139.3932  160.0504 C   0  0  0  0  0  0  0  0  0  0  0  0
  134.6811  138.2849  161.1008 C   0  0  0  0  0  0  0  0  0  0  0  0
  133.2253  136.2012  160.5999 C   0  0  0  0  0  0  0  0  0  0  0  0
  130.7029  132.2095  158.6757 C   0  0  0  0  0  0  0  0  0  0  0  0
  131.3477  131.1851  157.8637 N   0  0  0  0  0  0  0  0  0  0  0  0
  129.6921  131.3569  155.0400 H   0  0  0  0  0  0  0  0  0  0  0  0
  130.9114  132.6454  155.1767 H   0  0  0  0  0  0  0  0  0  0  0  0
  128.8643  133.5353  156.0920 H   0  0  0  0  0  0  0  0  0  0  0  0
  128.5935  132.0707  157.0705 H   0  0  0  0  0  0  0  0  0  0  0  0
  128.4140  134.3743  158.3563 H   0  0  0  0  0  0  0  0  0  0  0  0
  129.4666  135.6931  161.5049 H   0  0  0  0  0  0  0  0  0  0  0  0
  128.1453  132.7631  160.8669 H   0  0  0  0  0  0  0  0  0  0  0  0
  127.7268  133.5196  162.4258 H   0  0  0  0  0  0  0  0  0  0  0  0
  125.8347  132.1618  161.7818 H   0  0  0  0  0  0  0  0  0  0  0  0
  125.8504  132.8206  160.1292 H   0  0  0  0  0  0  0  0  0  0  0  0
  124.8397  136.0806  162.0107 H   0  0  0  0  0  0  0  0  0  0  0  0
  127.3563  136.0075  162.5342 H   0  0  0  0  0  0  0  0  0  0  0  0
  126.8663  136.8386  161.0428 H   0  0  0  0  0  0  0  0  0  0  0  0
  131.5660  135.3551  161.7378 H   0  0  0  0  0  0  0  0  0  0  0  0
  130.7086  137.6754  159.9987 H   0  0  0  0  0  0  0  0  0  0  0  0
  130.3093  137.3363  161.7103 H   0  0  0  0  0  0  0  0  0  0  0  0
  134.0912  137.7883  158.5757 H   0  0  0  0  0  0  0  0  0  0  0  0
  132.6736  138.8831  158.8829 H   0  0  0  0  0  0  0  0  0  0  0  0
  133.9659  140.2713  160.4343 H   0  0  0  0  0  0  0  0  0  0  0  0
  135.3954  139.6437  159.5056 H   0  0  0  0  0  0  0  0  0  0  0  0
  134.6796  138.6503  162.1277 H   0  0  0  0  0  0  0  0  0  0  0  0
  135.5199  137.6226  160.8866 H   0  0  0  0  0  0  0  0  0  0  0  0
  133.8180  135.7528  161.3973 H   0  0  0  0  0  0  0  0  0  0  0  0
  133.5420  135.8212  159.6286 H   0  0  0  0  0  0  0  0  0  0  0  0
  131.4231  132.6098  159.3893 H   0  0  0  0  0  0  0  0  0  0  0  0
  129.8695  131.7656  159.2202 H   0  0  0  0  0  0  0  0  0  0  0  0
  131.9541  130.5700  158.3054 H   0  0  0  0  0  0  0  0  0  0  0  0
  1  2  2  0
  2 29  1  0
  2  3  1  0
  3  4  1  0
  3 30  1  0
  3 31  1  0
  4  5  1  0
  4 32  1  0
  4 33  1  0
  5  6  1  6
  5  7  1  0
  5 28  1  0
  7 34  1  0
  8  7  1  0
  8  9  1  0
  8 18  2  0
  9 10  1  0
  9 35  1  0
 10 11  1  6
 10 17  1  0
 10 12  1  0
 12 13  1  0
 12 36  1  0
 12 37  1  0
 13 14  1  0
 13 38  1  0
 13 39  1  0
 14 15  2  0
 14 16  1  0
 16 17  1  0
 16 40  1  0
 17 41  1  0
 17 42  1  0
 18 19  1  0
 18 20  1  0
 20 27  1  0
 20 21  1  0
 20 43  1  1
 21 22  1  0
 21 44  1  0
 21 45  1  0
 22 23  1  0
 23 26  1  0
 23 24  1  0
 23 27  1  0
 24 25  1  0
 24 46  1  0
 24 47  1  0
 25 26  1  0
 25 48  1  0
 25 49  1  0
 26 50  1  0
 26 51  1  0
 27 52  1  0
 27 53  1  0
 28 29  1  0
 28 54  1  0
 28 55  1  0
 29 56  1  0
M  CHG  1  18   1
M  END
>  <DOCK_score>  (1) 
-43.464561

>  <SMILES>  (1) 
O=C1CC[C@@H](NC(N[C@H]2CCC(=O)NC2)=[NH+]C2COC3(CCC3)C2)CN1

$$$$
