O=C1CC[C@H]([NH+]=C(NC2CC=CCC2)NC2CCN(c3ccc(C4=CCC=CC4)cc3)CC2)CN1
     RDKit          3D

 75 79  0  0  1  0  0  0  0  0999 V2000
  123.8995  133.8660  160.9232 O   0  0  0  0  0  0  0  0  0  0  0  0
  125.0700  134.0785  160.6876 C   0  0  0  0  0  0  0  0  0  0  0  0
  125.8844  132.9733  160.0788 C   0  0  0  0  0  0  0  0  0  0  0  0
  127.3761  133.2640  160.2618 C   0  0  0  0  0  0  0  0  0  0  0  0
  127.6469  134.7063  159.8172 C   0  0  2  0  0  0  0  0  0  0  0  0
  127.2483  134.8609  158.8145 H   0  0  0  0  0  0  0  0  0  0  0  0
  129.0902  134.9576  159.8164 N   0  0  0  0  0  0  0  0  0  0  0  0
  129.4613  135.6551  160.3791 H   0  0  0  0  0  0  0  0  0  0  0  0
  129.8756  134.2442  159.0595 C   0  0  0  0  0  0  0  0  0  0  0  0
  129.4068  133.7308  157.8732 N   0  0  0  0  0  0  0  0  0  0  0  0
  130.2895  132.9289  157.0224 C   0  0  2  0  0  0  0  0  0  0  0  0
  129.8698  133.0803  155.5586 C   0  0  0  0  0  0  0  0  0  0  0  0
  130.5846  132.0708  154.7089 C   0  0  0  0  0  0  0  0  0  0  0  0
  131.1730  131.0166  155.1756 C   0  0  0  0  0  0  0  0  0  0  0  0
  131.2314  130.6617  156.6325 C   0  0  0  0  0  0  0  0  0  0  0  0
  130.1741  131.4492  157.4095 C   0  0  0  0  0  0  0  0  0  0  0  0
  131.1727  134.0049  159.4472 N   0  0  0  0  0  0  0  0  0  0  0  0
  131.6722  134.5518  160.7110 C   0  0  0  0  0  0  0  0  0  0  0  0
  132.2791  135.9359  160.4654 C   0  0  0  0  0  0  0  0  0  0  0  0
  132.8541  136.4765  161.7765 C   0  0  0  0  0  0  0  0  0  0  0  0
  133.8807  135.5544  162.2792 N   0  0  0  0  0  0  0  0  0  0  0  0
  134.5182  136.0805  163.4032 C   0  0  0  0  0  0  0  0  0  0  0  0
  133.7802  136.3801  164.5430 C   0  0  0  0  0  0  0  0  0  0  0  0
  134.4079  136.8954  165.6563 C   0  0  0  0  0  0  0  0  0  0  0  0
  135.7845  137.1265  165.6354 C   0  0  0  0  0  0  0  0  0  0  0  0
  136.4598  137.6839  166.8256 C   0  0  0  0  0  0  0  0  0  0  0  0
  137.5327  138.4246  166.6539 C   0  0  0  0  0  0  0  0  0  0  0  0
  138.2832  139.0380  167.7979 C   0  0  0  0  0  0  0  0  0  0  0  0
  137.9753  138.3349  169.0853 C   0  0  0  0  0  0  0  0  0  0  0  0
  136.9197  137.5997  169.2549 C   0  0  0  0  0  0  0  0  0  0  0  0
  135.8977  137.3773  168.1815 C   0  0  0  0  0  0  0  0  0  0  0  0
  136.5220  136.8299  164.4877 C   0  0  0  0  0  0  0  0  0  0  0  0
  135.8894  136.3098  163.3794 C   0  0  0  0  0  0  0  0  0  0  0  0
  133.3110  134.2320  162.5681 C   0  0  0  0  0  0  0  0  0  0  0  0
  132.7496  133.6246  161.2805 C   0  0  0  0  0  0  0  0  0  0  0  0
  126.9609  135.6580  160.7980 C   0  0  0  0  0  0  0  0  0  0  0  0
  125.5653  135.2808  160.9833 N   0  0  0  0  0  0  0  0  0  0  0  0
  125.6576  132.9000  159.0152 H   0  0  0  0  0  0  0  0  0  0  0  0
  125.6368  132.0303  160.5662 H   0  0  0  0  0  0  0  0  0  0  0  0
  127.9615  132.5759  159.6519 H   0  0  0  0  0  0  0  0  0  0  0  0
  127.6475  133.1462  161.3108 H   0  0  0  0  0  0  0  0  0  0  0  0
  128.4916  133.8996  157.5997 H   0  0  0  0  0  0  0  0  0  0  0  0
  131.3201  133.2611  157.1476 H   0  0  0  0  0  0  0  0  0  0  0  0
  128.7940  132.9273  155.4736 H   0  0  0  0  0  0  0  0  0  0  0  0
  130.1184  134.0839  155.2135 H   0  0  0  0  0  0  0  0  0  0  0  0
  130.6092  132.2339  153.6414 H   0  0  0  0  0  0  0  0  0  0  0  0
  131.6514  130.3507  154.4726 H   0  0  0  0  0  0  0  0  0  0  0  0
  132.2202  130.9015  157.0234 H   0  0  0  0  0  0  0  0  0  0  0  0
  131.0469  129.5941  156.7520 H   0  0  0  0  0  0  0  0  0  0  0  0
  130.3462  131.3359  158.4799 H   0  0  0  0  0  0  0  0  0  0  0  0
  129.1809  131.0798  157.1539 H   0  0  0  0  0  0  0  0  0  0  0  0
  131.7572  133.4740  158.8837 H   0  0  0  0  0  0  0  0  0  0  0  0
  130.8509  134.6353  161.4228 H   0  0  0  0  0  0  0  0  0  0  0  0
  131.5063  136.6127  160.1006 H   0  0  0  0  0  0  0  0  0  0  0  0
  133.0743  135.8583  159.7239 H   0  0  0  0  0  0  0  0  0  0  0  0
  133.2999  137.4556  161.6014 H   0  0  0  0  0  0  0  0  0  0  0  0
  132.0558  136.5675  162.5130 H   0  0  0  0  0  0  0  0  0  0  0  0
  132.7145  136.2051  164.5570 H   0  0  0  0  0  0  0  0  0  0  0  0
  133.8348  137.1237  166.5428 H   0  0  0  0  0  0  0  0  0  0  0  0
  137.8850  138.6016  165.6483 H   0  0  0  0  0  0  0  0  0  0  0  0
  138.0060  140.0882  167.8894 H   0  0  0  0  0  0  0  0  0  0  0  0
  139.3525  138.9670  167.5989 H   0  0  0  0  0  0  0  0  0  0  0  0
  138.6642  138.4449  169.9097 H   0  0  0  0  0  0  0  0  0  0  0  0
  136.7705  137.1265  170.2141 H   0  0  0  0  0  0  0  0  0  0  0  0
  135.0390  138.0225  168.3665 H   0  0  0  0  0  0  0  0  0  0  0  0
  135.5735  136.3368  168.2068 H   0  0  0  0  0  0  0  0  0  0  0  0
  137.5870  137.0080  164.4685 H   0  0  0  0  0  0  0  0  0  0  0  0
  136.4595  136.0797  162.4914 H   0  0  0  0  0  0  0  0  0  0  0  0
  134.0886  133.5812  162.9678 H   0  0  0  0  0  0  0  0  0  0  0  0
  132.5104  134.3337  163.3007 H   0  0  0  0  0  0  0  0  0  0  0  0
  133.5523  133.5099  160.5521 H   0  0  0  0  0  0  0  0  0  0  0  0
  132.3136  132.6496  161.4981 H   0  0  0  0  0  0  0  0  0  0  0  0
  127.4753  135.6181  161.7581 H   0  0  0  0  0  0  0  0  0  0  0  0
  127.0106  136.6747  160.4081 H   0  0  0  0  0  0  0  0  0  0  0  0
  124.9586  135.9461  161.3443 H   0  0  0  0  0  0  0  0  0  0  0  0
  1  2  2  0
  2 37  1  0
  2  3  1  0
  3  4  1  0
  3 38  1  0
  3 39  1  0
  4  5  1  0
  4 40  1  0
  4 41  1  0
  5  6  1  6
  5  7  1  0
  5 36  1  0
  7  8  1  0
  9  7  2  0
  9 10  1  0
  9 17  1  0
 10 11  1  0
 10 42  1  0
 11 16  1  0
 11 12  1  0
 11 43  1  6
 12 13  1  0
 12 44  1  0
 12 45  1  0
 13 14  2  0
 13 46  1  0
 14 15  1  0
 14 47  1  0
 15 16  1  0
 15 48  1  0
 15 49  1  0
 16 50  1  0
 16 51  1  0
 17 18  1  0
 17 52  1  0
 18 35  1  0
 18 19  1  0
 18 53  1  0
 19 20  1  0
 19 54  1  0
 19 55  1  0
 20 21  1  0
 20 56  1  0
 20 57  1  0
 21 22  1  0
 21 34  1  0
 22 33  1  0
 22 23  2  0
 23 24  1  0
 23 58  1  0
 24 25  2  0
 24 59  1  0
 25 26  1  0
 25 32  1  0
 26 31  1  0
 26 27  2  0
 27 28  1  0
 27 60  1  0
 28 29  1  0
 28 61  1  0
 28 62  1  0
 29 30  2  0
 29 63  1  0
 30 31  1  0
 30 64  1  0
 31 65  1  0
 31 66  1  0
 32 33  2  0
 32 67  1  0
 33 68  1  0
 34 35  1  0
 34 69  1  0
 34 70  1  0
 35 71  1  0
 35 72  1  0
 36 37  1  0
 36 73  1  0
 36 74  1  0
 37 75  1  0
M  CHG  1   7   1
M  END
>  <DOCK_score>  (1) 
-45.089588

>  <SMILES>  (1) 
O=C1CC[C@H]([NH+]=C(NC2CC=CCC2)NC2CCN(c3ccc(C4=CCC=CC4)cc3)CC2)CN1

$$$$
