Cc1cccc(CNc2cccc(-c3cccc(F)c3NC3=[NH+]CCN3)c2N)c1CO
     RDKit          3D

 58 61  0  0  0  0  0  0  0  0999 V2000
  138.6943  135.0360  164.0211 C   0  0  0  0  0  0  0  0  0  0  0  0
  137.6009  135.9968  163.6308 C   0  0  0  0  0  0  0  0  0  0  0  0
  137.9182  137.2872  163.2492 C   0  0  0  0  0  0  0  0  0  0  0  0
  136.9154  138.1682  162.8907 C   0  0  0  0  0  0  0  0  0  0  0  0
  135.5953  137.7577  162.9097 C   0  0  0  0  0  0  0  0  0  0  0  0
  135.2777  136.4694  163.2968 C   0  0  0  0  0  0  0  0  0  0  0  0
  133.8383  136.0237  163.3225 C   0  0  0  0  0  0  0  0  0  0  0  0
  133.4787  135.4590  162.0194 N   0  0  0  0  0  0  0  0  0  0  0  0
  132.5073  134.4536  161.9360 C   0  0  0  0  0  0  0  0  0  0  0  0
  131.6021  134.2752  162.9718 C   0  0  0  0  0  0  0  0  0  0  0  0
  130.6407  133.2830  162.8943 C   0  0  0  0  0  0  0  0  0  0  0  0
  130.5776  132.4588  161.7892 C   0  0  0  0  0  0  0  0  0  0  0  0
  131.4772  132.6300  160.7376 C   0  0  0  0  0  0  0  0  0  0  0  0
  131.4068  131.7491  159.5473 C   0  0  0  0  0  0  0  0  0  0  0  0
  131.5730  130.3724  159.6847 C   0  0  0  0  0  0  0  0  0  0  0  0
  131.5021  129.5551  158.5750 C   0  0  0  0  0  0  0  0  0  0  0  0
  131.2768  130.0977  157.3218 C   0  0  0  0  0  0  0  0  0  0  0  0
  131.1155  131.4633  157.1713 C   0  0  0  0  0  0  0  0  0  0  0  0
  130.8955  131.9863  155.9452 F   0  0  0  0  0  0  0  0  0  0  0  0
  131.1792  132.2968  158.2805 C   0  0  0  0  0  0  0  0  0  0  0  0
  131.0169  133.6787  158.1314 N   0  0  0  0  0  0  0  0  0  0  0  0
  129.9964  134.3221  158.7797 C   0  0  0  0  0  0  0  0  0  0  0  0
  129.7970  135.6265  158.6812 N   0  0  0  0  0  0  0  0  0  0  0  0
  130.3364  136.2391  158.1571 H   0  0  0  0  0  0  0  0  0  0  0  0
  128.6260  136.0004  159.4897 C   0  0  0  0  0  0  0  0  0  0  0  0
  128.1692  134.6603  160.1009 C   0  0  0  0  0  0  0  0  0  0  0  0
  129.1340  133.6904  159.5594 N   0  0  0  0  0  0  0  0  0  0  0  0
  132.4495  133.6314  160.8129 C   0  0  0  0  0  0  0  0  0  0  0  0
  133.3600  133.8068  159.7660 N   0  0  0  0  0  0  0  0  0  0  0  0
  136.2808  135.5880  163.6548 C   0  0  0  0  0  0  0  0  0  0  0  0
  135.9349  134.1816  164.0709 C   0  0  0  0  0  0  0  0  0  0  0  0
  135.7238  134.1411  165.4837 O   0  0  0  0  0  0  0  0  0  0  0  0
  139.0357  134.4959  163.1383 H   0  0  0  0  0  0  0  0  0  0  0  0
  139.5278  135.5901  164.4530 H   0  0  0  0  0  0  0  0  0  0  0  0
  138.3104  134.3272  164.7549 H   0  0  0  0  0  0  0  0  0  0  0  0
  138.9498  137.6067  163.2308 H   0  0  0  0  0  0  0  0  0  0  0  0
  137.1633  139.1760  162.5923 H   0  0  0  0  0  0  0  0  0  0  0  0
  134.8120  138.4450  162.6258 H   0  0  0  0  0  0  0  0  0  0  0  0
  133.1971  136.8785  163.5374 H   0  0  0  0  0  0  0  0  0  0  0  0
  133.7060  135.2669  164.0955 H   0  0  0  0  0  0  0  0  0  0  0  0
  133.9132  135.7815  161.2145 H   0  0  0  0  0  0  0  0  0  0  0  0
  131.6480  134.9129  163.8423 H   0  0  0  0  0  0  0  0  0  0  0  0
  129.9393  133.1499  163.7046 H   0  0  0  0  0  0  0  0  0  0  0  0
  129.8279  131.6831  161.7368 H   0  0  0  0  0  0  0  0  0  0  0  0
  131.7534  129.9447  160.6599 H   0  0  0  0  0  0  0  0  0  0  0  0
  131.6274  128.4879  158.6843 H   0  0  0  0  0  0  0  0  0  0  0  0
  131.2264  129.4520  156.4576 H   0  0  0  0  0  0  0  0  0  0  0  0
  131.6271  134.1809  157.5689 H   0  0  0  0  0  0  0  0  0  0  0  0
  127.8414  136.4236  158.8626 H   0  0  0  0  0  0  0  0  0  0  0  0
  128.9102  136.7028  160.2733 H   0  0  0  0  0  0  0  0  0  0  0  0
  127.1571  134.4162  159.7780 H   0  0  0  0  0  0  0  0  0  0  0  0
  128.2266  134.6924  161.1889 H   0  0  0  0  0  0  0  0  0  0  0  0
  129.1375  132.7384  159.7451 H   0  0  0  0  0  0  0  0  0  0  0  0
  134.0341  134.5023  159.8207 H   0  0  0  0  0  0  0  0  0  0  0  0
  133.3177  133.2330  158.9851 H   0  0  0  0  0  0  0  0  0  0  0  0
  135.0268  133.8640  163.5585 H   0  0  0  0  0  0  0  0  0  0  0  0
  136.7540  133.5126  163.8067 H   0  0  0  0  0  0  0  0  0  0  0  0
  135.0078  134.7137  165.7910 H   0  0  0  0  0  0  0  0  0  0  0  0
  1  2  1  0
  1 33  1  0
  1 34  1  0
  1 35  1  0
  2 30  2  0
  2  3  1  0
  3  4  2  0
  3 36  1  0
  4  5  1  0
  4 37  1  0
  5  6  2  0
  5 38  1  0
  6  7  1  0
  6 30  1  0
  7  8  1  0
  7 39  1  0
  7 40  1  0
  8  9  1  0
  8 41  1  0
  9 28  1  0
  9 10  2  0
 10 11  1  0
 10 42  1  0
 11 12  2  0
 11 43  1  0
 12 13  1  0
 12 44  1  0
 13 14  1  0
 13 28  2  0
 14 20  1  0
 14 15  2  0
 15 16  1  0
 15 45  1  0
 16 17  2  0
 16 46  1  0
 17 18  1  0
 17 47  1  0
 18 19  1  0
 18 20  2  0
 20 21  1  0
 21 22  1  0
 21 48  1  0
 22 27  2  0
 22 23  1  0
 23 24  1  0
 23 25  1  0
 25 26  1  0
 25 49  1  0
 25 50  1  0
 26 27  1  0
 26 51  1  0
 26 52  1  0
 27 53  1  0
 28 29  1  0
 29 54  1  0
 29 55  1  0
 30 31  1  0
 31 32  1  0
 31 56  1  0
 31 57  1  0
 32 58  1  0
M  CHG  1  27   1
M  END
>  <DOCK_score>  (1) 
-58.396984

>  <SMILES>  (1) 
Cc1cccc(CNc2cccc(-c3cccc(F)c3NC3=[NH+]CCN3)c2N)c1CO

$$$$
