CCc1ccc(-c2c[nH]c(N[C@@H](Cc3ccnn3C)c3ccnn3C)[nH+]2)cc1
     RDKit          3D

 54 57  0  0  1  0  0  0  0  0999 V2000
  130.2106  128.6603  151.3452 C   0  0  0  0  0  0  0  0  0  0  0  0
  131.3110  129.6712  151.6739 C   0  0  0  0  0  0  0  0  0  0  0  0
  131.0046  130.3372  152.9905 C   0  0  0  0  0  0  0  0  0  0  0  0
  131.4787  129.7872  154.1674 C   0  0  0  0  0  0  0  0  0  0  0  0
  131.2060  130.3958  155.3757 C   0  0  0  0  0  0  0  0  0  0  0  0
  130.4416  131.5607  155.4094 C   0  0  0  0  0  0  0  0  0  0  0  0
  130.1405  132.2164  156.7054 C   0  0  0  0  0  0  0  0  0  0  0  0
  129.4768  131.6573  157.7475 C   0  0  0  0  0  0  0  0  0  0  0  0
  129.4201  132.6062  158.7392 N   0  0  0  0  0  0  0  0  0  0  0  0
  129.0061  132.5027  159.6103 H   0  0  0  0  0  0  0  0  0  0  0  0
  130.0515  133.7183  158.2738 C   0  0  0  0  0  0  0  0  0  0  0  0
  130.2136  134.9041  158.9694 N   0  0  0  0  0  0  0  0  0  0  0  0
  129.6816  135.0348  160.3282 C   0  0  1  0  0  0  0  0  0  0  0  0
  129.8500  134.1072  160.8750 H   0  0  0  0  0  0  0  0  0  0  0  0
  130.3909  136.1856  161.0450 C   0  0  0  0  0  0  0  0  0  0  0  0
  131.7323  135.7151  161.5452 C   0  0  0  0  0  0  0  0  0  0  0  0
  132.5070  134.7632  160.9754 C   0  0  0  0  0  0  0  0  0  0  0  0
  133.6644  134.6299  161.7495 C   0  0  0  0  0  0  0  0  0  0  0  0
  133.5872  135.4716  162.7482 N   0  0  0  0  0  0  0  0  0  0  0  0
  132.3788  136.1717  162.6382 N   0  0  0  0  0  0  0  0  0  0  0  0
  131.9000  137.2134  163.5502 C   0  0  0  0  0  0  0  0  0  0  0  0
  128.2030  135.3187  160.2635 C   0  0  0  0  0  0  0  0  0  0  0  0
  127.5599  135.9787  159.2727 C   0  0  0  0  0  0  0  0  0  0  0  0
  126.2000  136.0232  159.5971 C   0  0  0  0  0  0  0  0  0  0  0  0
  126.0339  135.4184  160.7454 N   0  0  0  0  0  0  0  0  0  0  0  0
  127.2840  134.9650  161.1862 N   0  0  0  0  0  0  0  0  0  0  0  0
  127.5471  134.2361  162.4294 C   0  0  0  0  0  0  0  0  0  0  0  0
  130.4857  133.4795  157.0603 N   0  0  0  0  0  0  0  0  0  0  0  0
  130.9737  134.1066  156.5040 H   0  0  0  0  0  0  0  0  0  0  0  0
  129.9616  132.1077  154.2206 C   0  0  0  0  0  0  0  0  0  0  0  0
  130.2453  131.4937  153.0176 C   0  0  0  0  0  0  0  0  0  0  0  0
  130.4322  128.1788  150.3929 H   0  0  0  0  0  0  0  0  0  0  0  0
  130.1638  127.9066  152.1313 H   0  0  0  0  0  0  0  0  0  0  0  0
  129.2522  129.1750  151.2779 H   0  0  0  0  0  0  0  0  0  0  0  0
  132.2691  129.1571  151.7408 H   0  0  0  0  0  0  0  0  0  0  0  0
  131.3576  130.4255  150.8874 H   0  0  0  0  0  0  0  0  0  0  0  0
  132.0668  128.8818  154.1405 H   0  0  0  0  0  0  0  0  0  0  0  0
  131.5806  129.9679  156.2938 H   0  0  0  0  0  0  0  0  0  0  0  0
  129.0702  130.6576  157.7894 H   0  0  0  0  0  0  0  0  0  0  0  0
  130.6796  135.6484  158.5573 H   0  0  0  0  0  0  0  0  0  0  0  0
  130.5319  137.0141  160.3510 H   0  0  0  0  0  0  0  0  0  0  0  0
  129.7846  136.5171  161.8881 H   0  0  0  0  0  0  0  0  0  0  0  0
  132.2733  134.2050  160.0808 H   0  0  0  0  0  0  0  0  0  0  0  0
  134.4808  133.9501  161.5561 H   0  0  0  0  0  0  0  0  0  0  0  0
  131.3172  136.7563  164.3499 H   0  0  0  0  0  0  0  0  0  0  0  0
  132.7522  137.7415  163.9780 H   0  0  0  0  0  0  0  0  0  0  0  0
  131.2746  137.9175  163.0013 H   0  0  0  0  0  0  0  0  0  0  0  0
  128.0157  136.3958  158.3869 H   0  0  0  0  0  0  0  0  0  0  0  0
  125.4221  136.4809  159.0041 H   0  0  0  0  0  0  0  0  0  0  0  0
  127.7620  134.9459  163.2283 H   0  0  0  0  0  0  0  0  0  0  0  0
  126.6717  133.6437  162.6956 H   0  0  0  0  0  0  0  0  0  0  0  0
  128.4033  133.5763  162.2896 H   0  0  0  0  0  0  0  0  0  0  0  0
  129.3686  133.0101  154.2409 H   0  0  0  0  0  0  0  0  0  0  0  0
  129.8736  131.9164  152.0959 H   0  0  0  0  0  0  0  0  0  0  0  0
  1  2  1  0
  1 32  1  0
  1 33  1  0
  1 34  1  0
  2  3  1  0
  2 35  1  0
  2 36  1  0
  3 31  2  0
  3  4  1  0
  4  5  2  0
  4 37  1  0
  5  6  1  0
  5 38  1  0
  6  7  1  0
  6 30  2  0
  7 28  1  0
  7  8  2  0
  8  9  1  0
  8 39  1  0
  9 10  1  0
  9 11  1  0
 11 12  1  0
 11 28  2  0
 12 13  1  0
 12 40  1  0
 13 14  1  1
 13 15  1  0
 13 22  1  0
 15 16  1  0
 15 41  1  0
 15 42  1  0
 16 20  1  0
 16 17  2  0
 17 18  1  0
 17 43  1  0
 18 19  2  0
 18 44  1  0
 19 20  1  0
 20 21  1  0
 21 45  1  0
 21 46  1  0
 21 47  1  0
 22 26  1  0
 22 23  2  0
 23 24  1  0
 23 48  1  0
 24 25  2  0
 24 49  1  0
 25 26  1  0
 26 27  1  0
 27 50  1  0
 27 51  1  0
 27 52  1  0
 28 29  1  0
 30 31  1  0
 30 53  1  0
 31 54  1  0
M  CHG  1  28   1
M  END
>  <DOCK_score>  (1) 
-58.303562

>  <SMILES>  (1) 
CCc1ccc(-c2c[nH]c(N[C@@H](Cc3ccnn3C)c3ccnn3C)[nH+]2)cc1

$$$$
