O=C1CC[C@H](NC(N[C@@H]2C=CCC2)=[NH+]Cc2cccc(O)c2)CN1
     RDKit          3D

 49 51  0  0  1  0  0  0  0  0999 V2000
  123.6663  133.6561  161.7232 O   0  0  0  0  0  0  0  0  0  0  0  0
  124.8317  133.9051  161.4977 C   0  0  0  0  0  0  0  0  0  0  0  0
  125.7056  132.8020  160.9734 C   0  0  0  0  0  0  0  0  0  0  0  0
  127.1791  133.1682  161.1672 C   0  0  0  0  0  0  0  0  0  0  0  0
  127.3980  134.5918  160.6409 C   0  0  2  0  0  0  0  0  0  0  0  0
  127.0153  134.6682  159.6231 H   0  0  0  0  0  0  0  0  0  0  0  0
  128.8290  134.9056  160.6528 N   0  0  0  0  0  0  0  0  0  0  0  0
  129.6028  134.6275  159.5508 C   0  0  0  0  0  0  0  0  0  0  0  0
  130.9456  134.9219  159.5618 N   0  0  0  0  0  0  0  0  0  0  0  0
  131.5522  135.5319  160.7477 C   0  0  2  0  0  0  0  0  0  0  0  0
  131.0226  135.2189  161.6476 H   0  0  0  0  0  0  0  0  0  0  0  0
  131.5452  137.0381  160.6267 C   0  0  0  0  0  0  0  0  0  0  0  0
  132.7249  137.4885  160.2962 C   0  0  0  0  0  0  0  0  0  0  0  0
  133.7152  136.3578  160.1415 C   0  0  0  0  0  0  0  0  0  0  0  0
  133.0480  135.1522  160.8434 C   0  0  0  0  0  0  0  0  0  0  0  0
  129.0632  134.0850  158.4957 N   0  0  0  0  0  0  0  0  0  0  0  0
  128.2981  133.4961  158.5907 H   0  0  0  0  0  0  0  0  0  0  0  0
  129.6120  134.3643  157.1664 C   0  0  0  0  0  0  0  0  0  0  0  0
  130.0629  133.0757  156.5282 C   0  0  0  0  0  0  0  0  0  0  0  0
  129.7518  132.8138  155.2065 C   0  0  0  0  0  0  0  0  0  0  0  0
  130.1648  131.6331  154.6177 C   0  0  0  0  0  0  0  0  0  0  0  0
  130.8889  130.7113  155.3492 C   0  0  0  0  0  0  0  0  0  0  0  0
  131.2018  130.9716  156.6752 C   0  0  0  0  0  0  0  0  0  0  0  0
  131.9135  130.0663  157.3970 O   0  0  0  0  0  0  0  0  0  0  0  0
  130.7914  132.1602  157.2620 C   0  0  0  0  0  0  0  0  0  0  0  0
  126.6502  135.5723  161.5451 C   0  0  0  0  0  0  0  0  0  0  0  0
  125.2687  135.1435  161.7292 N   0  0  0  0  0  0  0  0  0  0  0  0
  125.5056  132.6551  159.9120 H   0  0  0  0  0  0  0  0  0  0  0  0
  125.4877  131.8801  161.5126 H   0  0  0  0  0  0  0  0  0  0  0  0
  127.8067  132.4711  160.6119 H   0  0  0  0  0  0  0  0  0  0  0  0
  127.4315  133.1259  162.2268 H   0  0  0  0  0  0  0  0  0  0  0  0
  129.2312  135.3057  161.4394 H   0  0  0  0  0  0  0  0  0  0  0  0
  131.4916  134.7257  158.7844 H   0  0  0  0  0  0  0  0  0  0  0  0
  130.6779  137.6602  160.7918 H   0  0  0  0  0  0  0  0  0  0  0  0
  132.9620  138.5322  160.1523 H   0  0  0  0  0  0  0  0  0  0  0  0
  134.6569  136.6083  160.6303 H   0  0  0  0  0  0  0  0  0  0  0  0
  133.8822  136.1385  159.0869 H   0  0  0  0  0  0  0  0  0  0  0  0
  133.3674  135.0788  161.8830 H   0  0  0  0  0  0  0  0  0  0  0  0
  133.2516  134.2254  160.3070 H   0  0  0  0  0  0  0  0  0  0  0  0
  128.8445  134.8278  156.5465 H   0  0  0  0  0  0  0  0  0  0  0  0
  130.4617  135.0407  157.2591 H   0  0  0  0  0  0  0  0  0  0  0  0
  129.1857  133.5328  154.6331 H   0  0  0  0  0  0  0  0  0  0  0  0
  129.9209  131.4309  153.5852 H   0  0  0  0  0  0  0  0  0  0  0  0
  131.2112  129.7891  154.8887 H   0  0  0  0  0  0  0  0  0  0  0  0
  132.0819  130.3365  158.3101 H   0  0  0  0  0  0  0  0  0  0  0  0
  131.0380  132.3673  158.2928 H   0  0  0  0  0  0  0  0  0  0  0  0
  127.1440  135.6155  162.5159 H   0  0  0  0  0  0  0  0  0  0  0  0
  126.6654  136.5636  161.0922 H   0  0  0  0  0  0  0  0  0  0  0  0
  124.6264  135.8020  162.0371 H   0  0  0  0  0  0  0  0  0  0  0  0
  1  2  2  0
  2 27  1  0
  2  3  1  0
  3  4  1  0
  3 28  1  0
  3 29  1  0
  4  5  1  0
  4 30  1  0
  4 31  1  0
  5  6  1  6
  5  7  1  0
  5 26  1  0
  7 32  1  0
  8  7  1  0
  8  9  1  0
  8 16  2  0
  9 10  1  0
  9 33  1  0
 10 11  1  1
 10 15  1  0
 10 12  1  0
 12 13  2  0
 12 34  1  0
 13 14  1  0
 13 35  1  0
 14 15  1  0
 14 36  1  0
 14 37  1  0
 15 38  1  0
 15 39  1  0
 16 17  1  0
 16 18  1  0
 18 19  1  0
 18 40  1  0
 18 41  1  0
 19 25  1  0
 19 20  2  0
 20 21  1  0
 20 42  1  0
 21 22  2  0
 21 43  1  0
 22 23  1  0
 22 44  1  0
 23 24  1  0
 23 25  2  0
 24 45  1  0
 25 46  1  0
 26 27  1  0
 26 47  1  0
 26 48  1  0
 27 49  1  0
M  CHG  1  16   1
M  END
>  <DOCK_score>  (1) 
-45.017242

>  <SMILES>  (1) 
O=C1CC[C@H](NC(N[C@@H]2C=CCC2)=[NH+]Cc2cccc(O)c2)CN1

$$$$
