Nc1ccc(-c2c[nH]c(Nc3cccnc3CNC(=S)NC3CC=CC3)[nH+]2)cc1
     RDKit          3D

 53 56  0  0  1  0  0  0  0  0999 V2000
  131.0354  129.3626  152.3815 N   0  0  0  0  0  0  0  0  0  0  0  0
  130.8243  130.1387  153.5235 C   0  0  0  0  0  0  0  0  0  0  0  0
  129.9946  131.2525  153.4620 C   0  0  0  0  0  0  0  0  0  0  0  0
  129.7847  132.0201  154.5881 C   0  0  0  0  0  0  0  0  0  0  0  0
  130.4050  131.6784  155.7888 C   0  0  0  0  0  0  0  0  0  0  0  0
  130.1807  132.5026  157.0017 C   0  0  0  0  0  0  0  0  0  0  0  0
  129.6408  132.0735  158.1695 C   0  0  0  0  0  0  0  0  0  0  0  0
  129.6176  133.1538  159.0187 N   0  0  0  0  0  0  0  0  0  0  0  0
  129.2871  133.1608  159.9306 H   0  0  0  0  0  0  0  0  0  0  0  0
  130.1447  134.2116  158.3439 C   0  0  0  0  0  0  0  0  0  0  0  0
  130.3009  135.4929  158.8469 N   0  0  0  0  0  0  0  0  0  0  0  0
  129.4131  135.9781  159.8116 C   0  0  0  0  0  0  0  0  0  0  0  0
  128.0939  135.5310  159.8470 C   0  0  0  0  0  0  0  0  0  0  0  0
  127.2510  136.0452  160.8180 C   0  0  0  0  0  0  0  0  0  0  0  0
  127.7430  136.9737  161.7169 C   0  0  0  0  0  0  0  0  0  0  0  0
  128.9985  137.3725  161.6603 N   0  0  0  0  0  0  0  0  0  0  0  0
  129.8343  136.9090  160.7525 C   0  0  0  0  0  0  0  0  0  0  0  0
  131.2596  137.3981  160.7318 C   0  0  0  0  0  0  0  0  0  0  0  0
  132.0856  136.5315  161.5759 N   0  0  0  0  0  0  0  0  0  0  0  0
  133.4038  136.7789  161.7094 C   0  0  0  0  0  0  0  0  0  0  0  0
  134.1127  138.1057  160.8921 S   0  0  0  0  0  0  0  0  0  0  0  0
  134.1638  135.9817  162.4862 N   0  0  0  0  0  0  0  0  0  0  0  0
  135.5978  136.2471  162.6264 C   0  0  0  0  0  0  0  0  0  0  0  0
  136.3568  134.9752  163.0705 C   0  0  0  0  0  0  0  0  0  0  0  0
  137.4205  135.4746  164.0205 C   0  0  0  0  0  0  0  0  0  0  0  0
  137.1565  136.6868  164.4263 C   0  0  0  0  0  0  0  0  0  0  0  0
  135.8729  137.1978  163.8144 C   0  0  0  0  0  0  0  0  0  0  0  0
  130.4751  133.8195  157.1374 N   0  0  0  0  0  0  0  0  0  0  0  0
  130.8693  134.3810  156.4518 H   0  0  0  0  0  0  0  0  0  0  0  0
  131.2412  130.5644  155.8465 C   0  0  0  0  0  0  0  0  0  0  0  0
  131.4440  129.7968  154.7192 C   0  0  0  0  0  0  0  0  0  0  0  0
  130.6033  129.6015  151.5461 H   0  0  0  0  0  0  0  0  0  0  0  0
  131.6146  128.5861  152.4230 H   0  0  0  0  0  0  0  0  0  0  0  0
  129.5141  131.5170  152.5314 H   0  0  0  0  0  0  0  0  0  0  0  0
  129.1398  132.8851  154.5401 H   0  0  0  0  0  0  0  0  0  0  0  0
  129.2951  131.0743  158.3898 H   0  0  0  0  0  0  0  0  0  0  0  0
  131.0262  136.0535  158.5297 H   0  0  0  0  0  0  0  0  0  0  0  0
  127.7365  134.8051  159.1319 H   0  0  0  0  0  0  0  0  0  0  0  0
  126.2209  135.7250  160.8724 H   0  0  0  0  0  0  0  0  0  0  0  0
  127.0898  137.3775  162.4764 H   0  0  0  0  0  0  0  0  0  0  0  0
  131.2988  138.4193  161.1110 H   0  0  0  0  0  0  0  0  0  0  0  0
  131.6366  137.3755  159.7092 H   0  0  0  0  0  0  0  0  0  0  0  0
  131.6841  135.7797  162.0390 H   0  0  0  0  0  0  0  0  0  0  0  0
  133.7621  135.2300  162.9493 H   0  0  0  0  0  0  0  0  0  0  0  0
  136.0117  136.6474  161.7009 H   0  0  0  0  0  0  0  0  0  0  0  0
  135.6818  134.2896  163.5827 H   0  0  0  0  0  0  0  0  0  0  0  0
  136.8149  134.4865  162.2105 H   0  0  0  0  0  0  0  0  0  0  0  0
  138.2856  134.9037  164.3236 H   0  0  0  0  0  0  0  0  0  0  0  0
  137.7746  137.2506  165.1092 H   0  0  0  0  0  0  0  0  0  0  0  0
  136.0018  138.2206  163.4602 H   0  0  0  0  0  0  0  0  0  0  0  0
  135.0590  137.1471  164.5377 H   0  0  0  0  0  0  0  0  0  0  0  0
  131.7265  130.3008  156.7746 H   0  0  0  0  0  0  0  0  0  0  0  0
  132.0883  128.9313  154.7645 H   0  0  0  0  0  0  0  0  0  0  0  0
  1  2  1  0
  1 32  1  0
  1 33  1  0
  2 31  2  0
  2  3  1  0
  3  4  2  0
  3 34  1  0
  4  5  1  0
  4 35  1  0
  5  6  1  0
  5 30  2  0
  6 28  1  0
  6  7  2  0
  7  8  1  0
  7 36  1  0
  8  9  1  0
  8 10  1  0
 10 11  1  0
 10 28  2  0
 11 12  1  0
 11 37  1  0
 12 17  1  0
 12 13  2  0
 13 14  1  0
 13 38  1  0
 14 15  2  0
 14 39  1  0
 15 16  1  0
 15 40  1  0
 16 17  2  0
 17 18  1  0
 18 19  1  0
 18 41  1  0
 18 42  1  0
 19 20  1  0
 19 43  1  0
 20 21  2  0
 20 22  1  0
 22 23  1  0
 22 44  1  0
 23 27  1  0
 23 24  1  0
 23 45  1  0
 24 25  1  0
 24 46  1  0
 24 47  1  0
 25 26  2  0
 25 48  1  0
 26 27  1  0
 26 49  1  0
 27 50  1  0
 27 51  1  0
 28 29  1  0
 30 31  1  0
 30 52  1  0
 31 53  1  0
M  CHG  1  28   1
M  END
>  <DOCK_score>  (1) 
-56.580059

>  <SMILES>  (1) 
Nc1ccc(-c2c[nH]c(Nc3cccnc3CNC(=S)NC3CC=CC3)[nH+]2)cc1

$$$$
