Nc1ccc(Nc2cccc([C@@H]([NH3+])C(=O)Nc3cccc(O)c3)c2)cc1
     RDKit          3D

 47 49  0  0  1  0  0  0  0  0999 V2000
  132.4755  141.2277  163.0766 N   0  0  0  0  0  0  0  0  0  0  0  0
  132.8062  139.9160  162.7169 C   0  0  0  0  0  0  0  0  0  0  0  0
  131.9138  138.8816  162.9665 C   0  0  0  0  0  0  0  0  0  0  0  0
  132.2401  137.5875  162.6121 C   0  0  0  0  0  0  0  0  0  0  0  0
  133.4608  137.3204  162.0060 C   0  0  0  0  0  0  0  0  0  0  0  0
  133.7919  136.0084  161.6472 N   0  0  0  0  0  0  0  0  0  0  0  0
  132.7856  135.1048  161.2974 C   0  0  0  0  0  0  0  0  0  0  0  0
  132.6159  133.9348  162.0275 C   0  0  0  0  0  0  0  0  0  0  0  0
  131.6204  133.0437  161.6787 C   0  0  0  0  0  0  0  0  0  0  0  0
  130.7893  133.3172  160.6076 C   0  0  0  0  0  0  0  0  0  0  0  0
  130.9591  134.4777  159.8754 C   0  0  0  0  0  0  0  0  0  0  0  0
  130.0550  134.7686  158.7053 C   0  0  1  0  0  0  0  0  0  0  0  0
  129.9451  135.8469  158.5902 H   0  0  0  0  0  0  0  0  0  0  0  0
  130.6399  134.2028  157.4821 N   0  0  0  0  0  0  0  0  0  0  0  0
  130.0345  134.3975  156.6987 H   0  0  0  0  0  0  0  0  0  0  0  0
  131.5450  134.6177  157.3191 H   0  0  0  0  0  0  0  0  0  0  0  0
  130.7416  133.2046  157.5886 H   0  0  0  0  0  0  0  0  0  0  0  0
  128.7031  134.1489  158.9488 C   0  0  0  0  0  0  0  0  0  0  0  0
  128.2694  133.3177  158.1794 O   0  0  0  0  0  0  0  0  0  0  0  0
  127.9783  134.5143  160.0248 N   0  0  0  0  0  0  0  0  0  0  0  0
  126.7256  133.9347  160.2542 C   0  0  0  0  0  0  0  0  0  0  0  0
  126.4701  132.6383  159.8250 C   0  0  0  0  0  0  0  0  0  0  0  0
  125.2354  132.0641  160.0564 C   0  0  0  0  0  0  0  0  0  0  0  0
  124.2476  132.7809  160.7052 C   0  0  0  0  0  0  0  0  0  0  0  0
  124.4955  134.0781  161.1311 C   0  0  0  0  0  0  0  0  0  0  0  0
  123.5233  134.7819  161.7684 O   0  0  0  0  0  0  0  0  0  0  0  0
  125.7353  134.6558  160.9057 C   0  0  0  0  0  0  0  0  0  0  0  0
  131.9528  135.3737  160.2186 C   0  0  0  0  0  0  0  0  0  0  0  0
  134.3553  138.3542  161.7612 C   0  0  0  0  0  0  0  0  0  0  0  0
  134.0268  139.6489  162.1108 C   0  0  0  0  0  0  0  0  0  0  0  0
  131.6231  141.4140  163.5002 H   0  0  0  0  0  0  0  0  0  0  0  0
  133.0989  141.9501  162.9022 H   0  0  0  0  0  0  0  0  0  0  0  0
  130.9647  139.0892  163.4382 H   0  0  0  0  0  0  0  0  0  0  0  0
  131.5463  136.7831  162.8066 H   0  0  0  0  0  0  0  0  0  0  0  0
  134.7201  135.7266  161.6413 H   0  0  0  0  0  0  0  0  0  0  0  0
  133.2615  133.7227  162.8670 H   0  0  0  0  0  0  0  0  0  0  0  0
  131.4879  132.1340  162.2457 H   0  0  0  0  0  0  0  0  0  0  0  0
  130.0087  132.6206  160.3396 H   0  0  0  0  0  0  0  0  0  0  0  0
  128.3251  135.1790  160.6402 H   0  0  0  0  0  0  0  0  0  0  0  0
  127.2387  132.0776  159.3139 H   0  0  0  0  0  0  0  0  0  0  0  0
  125.0397  131.0548  159.7257 H   0  0  0  0  0  0  0  0  0  0  0  0
  123.2818  132.3307  160.8812 H   0  0  0  0  0  0  0  0  0  0  0  0
  123.7893  135.6751  162.0267 H   0  0  0  0  0  0  0  0  0  0  0  0
  125.9301  135.6653  161.2367 H   0  0  0  0  0  0  0  0  0  0  0  0
  132.0822  136.2819  159.6487 H   0  0  0  0  0  0  0  0  0  0  0  0
  135.3064  138.1459  161.2936 H   0  0  0  0  0  0  0  0  0  0  0  0
  134.7207  140.4533  161.9168 H   0  0  0  0  0  0  0  0  0  0  0  0
  1  2  1  0
  1 31  1  0
  1 32  1  0
  2 30  2  0
  2  3  1  0
  3  4  2  0
  3 33  1  0
  4  5  1  0
  4 34  1  0
  5  6  1  0
  5 29  2  0
  6  7  1  0
  6 35  1  0
  7 28  1  0
  7  8  2  0
  8  9  1  0
  8 36  1  0
  9 10  2  0
  9 37  1  0
 10 11  1  0
 10 38  1  0
 11 12  1  0
 11 28  2  0
 12 13  1  6
 12 14  1  0
 12 18  1  0
 14 15  1  0
 14 16  1  0
 14 17  1  0
 18 19  2  0
 18 20  1  0
 20 21  1  0
 20 39  1  0
 21 27  1  0
 21 22  2  0
 22 23  1  0
 22 40  1  0
 23 24  2  0
 23 41  1  0
 24 25  1  0
 24 42  1  0
 25 26  1  0
 25 27  2  0
 26 43  1  0
 27 44  1  0
 28 45  1  0
 29 30  1  0
 29 46  1  0
 30 47  1  0
M  CHG  1  14   1
M  END
>  <DOCK_score>  (1) 
-47.295158

>  <SMILES>  (1) 
Nc1ccc(Nc2cccc([C@@H]([NH3+])C(=O)Nc3cccc(O)c3)c2)cc1

$$$$
