c1ccc(CC[C@H](Nc2[nH]cc(-c3cccnc3)[nH+]2)c2ccccc2)cc1
     RDKit          3D

 50 53  0  0  1  0  0  0  0  0999 V2000
  128.5817  134.7073  164.6643 C   0  0  0  0  0  0  0  0  0  0  0  0
  128.4389  136.0806  164.5957 C   0  0  0  0  0  0  0  0  0  0  0  0
  129.0338  136.7868  163.5670 C   0  0  0  0  0  0  0  0  0  0  0  0
  129.7716  136.1197  162.6069 C   0  0  0  0  0  0  0  0  0  0  0  0
  130.4198  136.8894  161.4852 C   0  0  0  0  0  0  0  0  0  0  0  0
  129.4475  136.9918  160.3082 C   0  0  0  0  0  0  0  0  0  0  0  0
  129.0869  135.5869  159.8211 C   0  0  2  0  0  0  0  0  0  0  0  0
  128.9566  134.9272  160.6788 H   0  0  0  0  0  0  0  0  0  0  0  0
  130.1631  135.0741  158.9697 N   0  0  0  0  0  0  0  0  0  0  0  0
  130.0606  133.8125  158.4088 C   0  0  0  0  0  0  0  0  0  0  0  0
  129.4008  132.7542  158.9535 N   0  0  0  0  0  0  0  0  0  0  0  0
  128.9221  132.7479  159.7971 H   0  0  0  0  0  0  0  0  0  0  0  0
  129.5358  131.6969  158.0867 C   0  0  0  0  0  0  0  0  0  0  0  0
  130.2805  132.1369  157.0423 C   0  0  0  0  0  0  0  0  0  0  0  0
  130.6878  131.3362  155.8620 C   0  0  0  0  0  0  0  0  0  0  0  0
  130.2975  131.7186  154.5751 C   0  0  0  0  0  0  0  0  0  0  0  0
  130.7086  130.9411  153.5065 C   0  0  0  0  0  0  0  0  0  0  0  0
  131.4752  129.8146  153.7444 C   0  0  0  0  0  0  0  0  0  0  0  0
  131.8236  129.4758  154.9706 N   0  0  0  0  0  0  0  0  0  0  0  0
  131.4608  130.1874  156.0182 C   0  0  0  0  0  0  0  0  0  0  0  0
  130.5877  133.4389  157.2684 N   0  0  0  0  0  0  0  0  0  0  0  0
  131.1128  134.0033  156.6797 H   0  0  0  0  0  0  0  0  0  0  0  0
  127.8048  135.6429  159.0310 C   0  0  0  0  0  0  0  0  0  0  0  0
  126.5909  135.4759  159.6709 C   0  0  0  0  0  0  0  0  0  0  0  0
  125.4146  135.5316  158.9469 C   0  0  0  0  0  0  0  0  0  0  0  0
  125.4527  135.7453  157.5817 C   0  0  0  0  0  0  0  0  0  0  0  0
  126.6668  135.9071  156.9411 C   0  0  0  0  0  0  0  0  0  0  0  0
  127.8429  135.8557  157.6658 C   0  0  0  0  0  0  0  0  0  0  0  0
  129.9101  134.7459  162.6727 C   0  0  0  0  0  0  0  0  0  0  0  0
  129.3194  134.0403  163.7043 C   0  0  0  0  0  0  0  0  0  0  0  0
  128.1166  134.1556  165.4678 H   0  0  0  0  0  0  0  0  0  0  0  0
  127.8622  136.6018  165.3455 H   0  0  0  0  0  0  0  0  0  0  0  0
  128.9220  137.8596  163.5131 H   0  0  0  0  0  0  0  0  0  0  0  0
  131.3245  136.3724  161.1652 H   0  0  0  0  0  0  0  0  0  0  0  0
  130.6767  137.8903  161.8322 H   0  0  0  0  0  0  0  0  0  0  0  0
  128.5428  137.5087  160.6283 H   0  0  0  0  0  0  0  0  0  0  0  0
  129.9163  137.5485  159.4969 H   0  0  0  0  0  0  0  0  0  0  0  0
  130.9477  135.6185  158.7989 H   0  0  0  0  0  0  0  0  0  0  0  0
  129.1299  130.7043  158.2146 H   0  0  0  0  0  0  0  0  0  0  0  0
  129.6942  132.6006  154.4186 H   0  0  0  0  0  0  0  0  0  0  0  0
  130.4298  131.2086  152.4979 H   0  0  0  0  0  0  0  0  0  0  0  0
  131.7939  129.2032  152.9133 H   0  0  0  0  0  0  0  0  0  0  0  0
  131.7658  129.8779  157.0070 H   0  0  0  0  0  0  0  0  0  0  0  0
  126.5614  135.3051  160.7369 H   0  0  0  0  0  0  0  0  0  0  0  0
  124.4659  135.4055  159.4475 H   0  0  0  0  0  0  0  0  0  0  0  0
  124.5338  135.7861  157.0157 H   0  0  0  0  0  0  0  0  0  0  0  0
  126.6967  136.0741  155.8745 H   0  0  0  0  0  0  0  0  0  0  0  0
  128.7916  135.9822  157.1652 H   0  0  0  0  0  0  0  0  0  0  0  0
  130.4827  134.2242  161.9202 H   0  0  0  0  0  0  0  0  0  0  0  0
  129.4307  132.9674  163.7578 H   0  0  0  0  0  0  0  0  0  0  0  0
  1 30  2  0
  1  2  1  0
  1 31  1  0
  2  3  2  0
  2 32  1  0
  3  4  1  0
  3 33  1  0
  4  5  1  0
  4 29  2  0
  5  6  1  0
  5 34  1  0
  5 35  1  0
  6  7  1  0
  6 36  1  0
  6 37  1  0
  7  8  1  1
  7  9  1  0
  7 23  1  0
  9 38  1  0
 10  9  1  0
 10 21  2  0
 10 11  1  0
 11 12  1  0
 11 13  1  0
 13 14  2  0
 13 39  1  0
 14 15  1  0
 14 21  1  0
 15 20  1  0
 15 16  2  0
 16 17  1  0
 16 40  1  0
 17 18  2  0
 17 41  1  0
 18 19  1  0
 18 42  1  0
 19 20  2  0
 20 43  1  0
 21 22  1  0
 23 28  1  0
 23 24  2  0
 24 25  1  0
 24 44  1  0
 25 26  2  0
 25 45  1  0
 26 27  1  0
 26 46  1  0
 27 28  2  0
 27 47  1  0
 28 48  1  0
 29 30  1  0
 29 49  1  0
 30 50  1  0
M  CHG  1  21   1
M  END
>  <DOCK_score>  (1) 
-58.664482

>  <SMILES>  (1) 
c1ccc(CC[C@H](Nc2[nH]cc(-c3cccnc3)[nH+]2)c2ccccc2)cc1

$$$$
