Fc1ccc(N2CC[NH+](C(c3ccccc3)c3ccccc3)CC2)c2c1CCC2
     RDKit          3D

 57 61  0  0  0  0  0  0  0  0999 V2000
  136.5164  141.6877  160.6559 F   0  0  0  0  0  0  0  0  0  0  0  0
  135.6081  140.6887  160.7018 C   0  0  0  0  0  0  0  0  0  0  0  0
  135.1197  140.1477  159.5255 C   0  0  0  0  0  0  0  0  0  0  0  0
  134.1949  139.1230  159.5688 C   0  0  0  0  0  0  0  0  0  0  0  0
  133.7497  138.6446  160.7931 C   0  0  0  0  0  0  0  0  0  0  0  0
  132.8097  137.6106  160.8384 N   0  0  0  0  0  0  0  0  0  0  0  0
  133.3555  136.3767  160.2557 C   0  0  0  0  0  0  0  0  0  0  0  0
  132.3201  135.2567  160.3783 C   0  0  0  0  0  0  0  0  0  0  0  0
  131.0902  135.6477  159.6767 N   0  0  0  0  0  0  0  0  0  0  0  0
  131.2984  135.8213  158.7048 H   0  0  0  0  0  0  0  0  0  0  0  0
  130.1029  134.5648  159.7794 C   0  0  0  0  0  0  0  0  0  0  0  0
  128.8410  134.9657  159.0597 C   0  0  0  0  0  0  0  0  0  0  0  0
  127.6190  134.4779  159.4834 C   0  0  0  0  0  0  0  0  0  0  0  0
  126.4610  134.8494  158.8262 C   0  0  0  0  0  0  0  0  0  0  0  0
  126.5256  135.7003  157.7395 C   0  0  0  0  0  0  0  0  0  0  0  0
  127.7488  136.1841  157.3119 C   0  0  0  0  0  0  0  0  0  0  0  0
  128.9061  135.8168  157.9723 C   0  0  0  0  0  0  0  0  0  0  0  0
  130.6626  133.3136  159.1529 C   0  0  0  0  0  0  0  0  0  0  0  0
  130.4517  133.0589  157.8107 C   0  0  0  0  0  0  0  0  0  0  0  0
  130.9693  131.9136  157.2350 C   0  0  0  0  0  0  0  0  0  0  0  0
  131.6886  131.0179  158.0037 C   0  0  0  0  0  0  0  0  0  0  0  0
  131.8950  131.2701  159.3471 C   0  0  0  0  0  0  0  0  0  0  0  0
  131.3821  132.4180  159.9217 C   0  0  0  0  0  0  0  0  0  0  0  0
  130.5437  136.8675  160.2857 C   0  0  0  0  0  0  0  0  0  0  0  0
  131.5644  138.0008  160.1622 C   0  0  0  0  0  0  0  0  0  0  0  0
  134.2413  139.1884  161.9753 C   0  0  0  0  0  0  0  0  0  0  0  0
  135.1699  140.2100  161.9275 C   0  0  0  0  0  0  0  0  0  0  0  0
  135.5452  140.6265  163.3336 C   0  0  0  0  0  0  0  0  0  0  0  0
  135.0815  139.4639  164.2366 C   0  0  0  0  0  0  0  0  0  0  0  0
  133.9284  138.8474  163.4164 C   0  0  0  0  0  0  0  0  0  0  0  0
  135.4649  140.5239  158.5739 H   0  0  0  0  0  0  0  0  0  0  0  0
  133.8161  138.6972  158.6513 H   0  0  0  0  0  0  0  0  0  0  0  0
  133.5883  136.5432  159.2039 H   0  0  0  0  0  0  0  0  0  0  0  0
  134.2629  136.0930  160.7888 H   0  0  0  0  0  0  0  0  0  0  0  0
  132.0977  135.0811  161.4309 H   0  0  0  0  0  0  0  0  0  0  0  0
  132.7175  134.3442  159.9339 H   0  0  0  0  0  0  0  0  0  0  0  0
  129.8783  134.3763  160.8291 H   0  0  0  0  0  0  0  0  0  0  0  0
  127.5686  133.8094  160.3301 H   0  0  0  0  0  0  0  0  0  0  0  0
  125.5058  134.4713  159.1595 H   0  0  0  0  0  0  0  0  0  0  0  0
  125.6219  135.9872  157.2226 H   0  0  0  0  0  0  0  0  0  0  0  0
  127.7996  136.8487  156.4621 H   0  0  0  0  0  0  0  0  0  0  0  0
  129.8613  136.1943  157.6385 H   0  0  0  0  0  0  0  0  0  0  0  0
  129.8859  133.7564  157.2110 H   0  0  0  0  0  0  0  0  0  0  0  0
  130.8077  131.7164  156.1855 H   0  0  0  0  0  0  0  0  0  0  0  0
  132.0892  130.1208  157.5549 H   0  0  0  0  0  0  0  0  0  0  0  0
  132.4568  130.5701  159.9479 H   0  0  0  0  0  0  0  0  0  0  0  0
  131.5430  132.6148  160.9714 H   0  0  0  0  0  0  0  0  0  0  0  0
  130.3304  136.6837  161.3387 H   0  0  0  0  0  0  0  0  0  0  0  0
  129.6243  137.1492  159.7726 H   0  0  0  0  0  0  0  0  0  0  0  0
  131.1651  138.9022  160.6273 H   0  0  0  0  0  0  0  0  0  0  0  0
  131.7677  138.1941  159.1089 H   0  0  0  0  0  0  0  0  0  0  0  0
  136.6240  140.7603  163.4133 H   0  0  0  0  0  0  0  0  0  0  0  0
  135.0282  141.5466  163.6062 H   0  0  0  0  0  0  0  0  0  0  0  0
  135.8843  138.7410  164.3805 H   0  0  0  0  0  0  0  0  0  0  0  0
  134.7222  139.8375  165.1956 H   0  0  0  0  0  0  0  0  0  0  0  0
  132.9763  139.2888  163.7113 H   0  0  0  0  0  0  0  0  0  0  0  0
  133.9032  137.7663  163.5525 H   0  0  0  0  0  0  0  0  0  0  0  0
  1  2  1  0
  2 27  2  0
  2  3  1  0
  3  4  2  0
  3 31  1  0
  4  5  1  0
  4 32  1  0
  5  6  1  0
  5 26  2  0
  6 25  1  0
  6  7  1  0
  7  8  1  0
  7 33  1  0
  7 34  1  0
  8  9  1  0
  8 35  1  0
  8 36  1  0
  9 10  1  0
  9 11  1  0
  9 24  1  0
 11 12  1  0
 11 18  1  0
 11 37  1  0
 12 17  1  0
 12 13  2  0
 13 14  1  0
 13 38  1  0
 14 15  2  0
 14 39  1  0
 15 16  1  0
 15 40  1  0
 16 17  2  0
 16 41  1  0
 17 42  1  0
 18 23  1  0
 18 19  2  0
 19 20  1  0
 19 43  1  0
 20 21  2  0
 20 44  1  0
 21 22  1  0
 21 45  1  0
 22 23  2  0
 22 46  1  0
 23 47  1  0
 24 25  1  0
 24 48  1  0
 24 49  1  0
 25 50  1  0
 25 51  1  0
 26 30  1  0
 26 27  1  0
 27 28  1  0
 28 29  1  0
 28 52  1  0
 28 53  1  0
 29 30  1  0
 29 54  1  0
 29 55  1  0
 30 56  1  0
 30 57  1  0
M  CHG  1   9   1
M  END
>  <DOCK_score>  (1) 
-56.135986

>  <SMILES>  (1) 
Fc1ccc(N2CC[NH+](C(c3ccccc3)c3ccccc3)CC2)c2c1CCC2

$$$$
