CCC[NH2+]Cc1c[nH]nc1-c1ccc(NCCc2cccc3cnccc23)o1
     RDKit          3D

 54 57  0  0  0  0  0  0  0  0999 V2000
  130.1303  139.2845  159.2307 C   0  0  0  0  0  0  0  0  0  0  0  0
  131.5013  139.1729  159.9008 C   0  0  0  0  0  0  0  0  0  0  0  0
  131.5542  137.8978  160.7446 C   0  0  0  0  0  0  0  0  0  0  0  0
  131.3347  136.7298  159.8812 N   0  0  0  0  0  0  0  0  0  0  0  0
  132.0533  136.6950  159.1736 H   0  0  0  0  0  0  0  0  0  0  0  0
  130.4307  136.8033  159.4391 H   0  0  0  0  0  0  0  0  0  0  0  0
  131.3855  135.5054  160.6912 C   0  0  0  0  0  0  0  0  0  0  0  0
  131.1604  134.3073  159.8053 C   0  0  0  0  0  0  0  0  0  0  0  0
  132.1163  133.6033  159.1619 C   0  0  0  0  0  0  0  0  0  0  0  0
  131.5126  132.6097  158.4744 N   0  0  0  0  0  0  0  0  0  0  0  0
  131.9577  131.9483  157.9217 H   0  0  0  0  0  0  0  0  0  0  0  0
  130.1327  132.6989  158.6979 N   0  0  0  0  0  0  0  0  0  0  0  0
  129.9136  133.7216  159.5007 C   0  0  0  0  0  0  0  0  0  0  0  0
  128.5963  134.1738  159.9939 C   0  0  0  0  0  0  0  0  0  0  0  0
  127.3980  133.6027  159.7021 C   0  0  0  0  0  0  0  0  0  0  0  0
  126.4141  134.3496  160.3795 C   0  0  0  0  0  0  0  0  0  0  0  0
  127.0586  135.3372  161.0496 C   0  0  0  0  0  0  0  0  0  0  0  0
  126.4572  136.3031  161.8482 N   0  0  0  0  0  0  0  0  0  0  0  0
  127.2496  137.0251  162.8466 C   0  0  0  0  0  0  0  0  0  0  0  0
  126.6652  136.7763  164.2386 C   0  0  0  0  0  0  0  0  0  0  0  0
  127.4803  137.5191  165.2657 C   0  0  0  0  0  0  0  0  0  0  0  0
  128.5463  136.9164  165.8631 C   0  0  0  0  0  0  0  0  0  0  0  0
  129.3135  137.5899  166.8111 C   0  0  0  0  0  0  0  0  0  0  0  0
  129.0160  138.8675  167.1778 C   0  0  0  0  0  0  0  0  0  0  0  0
  127.9220  139.5190  166.5880 C   0  0  0  0  0  0  0  0  0  0  0  0
  127.5666  140.8351  166.9261 C   0  0  0  0  0  0  0  0  0  0  0  0
  126.5343  141.4026  166.3476 N   0  0  0  0  0  0  0  0  0  0  0  0
  125.7910  140.7852  165.4393 C   0  0  0  0  0  0  0  0  0  0  0  0
  126.0523  139.5091  165.0428 C   0  0  0  0  0  0  0  0  0  0  0  0
  127.1442  138.8336  165.6185 C   0  0  0  0  0  0  0  0  0  0  0  0
  128.3770  135.2214  160.8161 O   0  0  0  0  0  0  0  0  0  0  0  0
  129.9675  138.4179  158.5900 H   0  0  0  0  0  0  0  0  0  0  0  0
  129.3542  139.3222  159.9952 H   0  0  0  0  0  0  0  0  0  0  0  0
  130.0927  140.1930  158.6296 H   0  0  0  0  0  0  0  0  0  0  0  0
  131.6640  140.0397  160.5416 H   0  0  0  0  0  0  0  0  0  0  0  0
  132.2774  139.1353  159.1365 H   0  0  0  0  0  0  0  0  0  0  0  0
  130.7780  137.9354  161.5090 H   0  0  0  0  0  0  0  0  0  0  0  0
  132.5309  137.8183  161.2220 H   0  0  0  0  0  0  0  0  0  0  0  0
  130.6094  135.5431  161.4557 H   0  0  0  0  0  0  0  0  0  0  0  0
  132.3622  135.4259  161.1687 H   0  0  0  0  0  0  0  0  0  0  0  0
  133.1777  133.8002  159.1918 H   0  0  0  0  0  0  0  0  0  0  0  0
  127.2319  132.7412  159.0721 H   0  0  0  0  0  0  0  0  0  0  0  0
  125.3492  134.1698  160.3678 H   0  0  0  0  0  0  0  0  0  0  0  0
  125.5128  136.4989  161.7444 H   0  0  0  0  0  0  0  0  0  0  0  0
  128.2804  136.6721  162.8170 H   0  0  0  0  0  0  0  0  0  0  0  0
  127.2247  138.0926  162.6276 H   0  0  0  0  0  0  0  0  0  0  0  0
  125.6344  137.1293  164.2682 H   0  0  0  0  0  0  0  0  0  0  0  0
  126.6901  135.7088  164.4576 H   0  0  0  0  0  0  0  0  0  0  0  0
  128.8030  135.9023  165.5944 H   0  0  0  0  0  0  0  0  0  0  0  0
  130.1556  137.0893  167.2658 H   0  0  0  0  0  0  0  0  0  0  0  0
  129.6175  139.3752  167.9174 H   0  0  0  0  0  0  0  0  0  0  0  0
  128.1420  141.3791  167.6604 H   0  0  0  0  0  0  0  0  0  0  0  0
  124.9547  141.3098  165.0012 H   0  0  0  0  0  0  0  0  0  0  0  0
  125.4342  139.0252  164.3010 H   0  0  0  0  0  0  0  0  0  0  0  0
  1  2  1  0
  1 32  1  0
  1 33  1  0
  1 34  1  0
  2  3  1  0
  2 35  1  0
  2 36  1  0
  3  4  1  0
  3 37  1  0
  3 38  1  0
  4  5  1  0
  4  6  1  0
  4  7  1  0
  7  8  1  0
  7 39  1  0
  7 40  1  0
  8 13  1  0
  8  9  2  0
  9 10  1  0
  9 41  1  0
 10 11  1  0
 10 12  1  0
 12 13  2  0
 13 14  1  0
 14 31  1  0
 14 15  2  0
 15 16  1  0
 15 42  1  0
 16 17  2  0
 16 43  1  0
 17 18  1  0
 17 31  1  0
 18 19  1  0
 18 44  1  0
 19 20  1  0
 19 45  1  0
 19 46  1  0
 20 21  1  0
 20 47  1  0
 20 48  1  0
 21 30  1  0
 21 22  2  0
 22 23  1  0
 22 49  1  0
 23 24  2  0
 23 50  1  0
 24 25  1  0
 24 51  1  0
 25 30  2  0
 25 26  1  0
 26 27  2  0
 26 52  1  0
 27 28  1  0
 28 29  2  0
 28 53  1  0
 29 30  1  0
 29 54  1  0
M  CHG  1   4   1
M  END
>  <DOCK_score>  (1) 
-42.739361

>  <SMILES>  (1) 
CCC[NH2+]Cc1c[nH]nc1-c1ccc(NCCc2cccc3cnccc23)o1

$$$$
