O=C1CC[C@H]([NH+]=C(NC2Cc3ccccc3C2)N[C@H]2CC=C([C@@H]3CC[C@H]3Br)C2)CN1
     RDKit          3D

 62 66  0  0  1  0  0  0  0  0999 V2000
  124.0327  133.5142  161.3137 O   0  0  0  0  0  0  0  0  0  0  0  0
  125.1644  133.8646  161.0535 C   0  0  0  0  0  0  0  0  0  0  0  0
  126.0764  132.8794  160.3806 C   0  0  0  0  0  0  0  0  0  0  0  0
  127.5320  133.3280  160.5285 C   0  0  0  0  0  0  0  0  0  0  0  0
  127.6261  134.8071  160.1353 C   0  0  2  0  0  0  0  0  0  0  0  0
  127.1797  134.9530  159.1516 H   0  0  0  0  0  0  0  0  0  0  0  0
  129.0317  135.2187  160.1032 N   0  0  0  0  0  0  0  0  0  0  0  0
  129.3414  135.9321  160.6829 H   0  0  0  0  0  0  0  0  0  0  0  0
  129.8660  134.6265  159.2957 C   0  0  0  0  0  0  0  0  0  0  0  0
  129.4182  134.1082  158.1036 N   0  0  0  0  0  0  0  0  0  0  0  0
  130.3559  133.4425  157.1959 C   0  0  0  0  0  0  0  0  0  0  0  0
  129.8207  133.4552  155.7482 C   0  0  0  0  0  0  0  0  0  0  0  0
  130.2647  132.1375  155.1501 C   0  0  0  0  0  0  0  0  0  0  0  0
  130.3503  131.7358  153.8275 C   0  0  0  0  0  0  0  0  0  0  0  0
  130.7890  130.4644  153.5143 C   0  0  0  0  0  0  0  0  0  0  0  0
  131.1450  129.5892  154.5236 C   0  0  0  0  0  0  0  0  0  0  0  0
  131.0607  129.9881  155.8432 C   0  0  0  0  0  0  0  0  0  0  0  0
  130.6205  131.2626  156.1593 C   0  0  0  0  0  0  0  0  0  0  0  0
  130.4400  131.9326  157.5046 C   0  0  0  0  0  0  0  0  0  0  0  0
  131.1938  134.5202  159.6358 N   0  0  0  0  0  0  0  0  0  0  0  0
  131.6710  135.0725  160.9061 C   0  0  1  0  0  0  0  0  0  0  0  0
  130.8859  135.0451  161.6618 H   0  0  0  0  0  0  0  0  0  0  0  0
  132.9368  134.3301  161.3936 C   0  0  0  0  0  0  0  0  0  0  0  0
  133.7991  135.4061  162.0115 C   0  0  0  0  0  0  0  0  0  0  0  0
  133.4038  136.5943  161.6434 C   0  0  0  0  0  0  0  0  0  0  0  0
  134.0513  137.8823  162.0828 C   0  0  2  0  0  0  0  0  0  0  0  0
  135.1174  137.7737  162.2818 H   0  0  0  0  0  0  0  0  0  0  0  0
  133.2861  138.6054  163.2036 C   0  0  0  0  0  0  0  0  0  0  0  0
  133.6087  139.9178  162.4697 C   0  0  0  0  0  0  0  0  0  0  0  0
  133.7097  139.0817  161.1831 C   0  0  1  0  0  0  0  0  0  0  0  0
  132.7617  138.9760  160.6557 H   0  0  0  0  0  0  0  0  0  0  0  0
  135.1851  139.6267  160.0035 Br  0  0  0  0  0  0  0  0  0  0  0  0
  132.2121  136.5089  160.7185 C   0  0  0  0  0  0  0  0  0  0  0  0
  126.8706  135.6415  161.1704 C   0  0  0  0  0  0  0  0  0  0  0  0
  125.5322  135.1039  161.3806 N   0  0  0  0  0  0  0  0  0  0  0  0
  125.9508  131.8983  160.8387 H   0  0  0  0  0  0  0  0  0  0  0  0
  125.8261  132.8192  159.3214 H   0  0  0  0  0  0  0  0  0  0  0  0
  128.1697  132.7331  159.8747 H   0  0  0  0  0  0  0  0  0  0  0  0
  127.8487  133.2027  161.5640 H   0  0  0  0  0  0  0  0  0  0  0  0
  128.4806  134.1795  157.8655 H   0  0  0  0  0  0  0  0  0  0  0  0
  131.3413  133.9048  157.2521 H   0  0  0  0  0  0  0  0  0  0  0  0
  128.7328  133.5235  155.7478 H   0  0  0  0  0  0  0  0  0  0  0  0
  130.2529  134.2875  155.1927 H   0  0  0  0  0  0  0  0  0  0  0  0
  130.0726  132.4190  153.0384 H   0  0  0  0  0  0  0  0  0  0  0  0
  130.8539  130.1539  152.4818 H   0  0  0  0  0  0  0  0  0  0  0  0
  131.4876  128.5943  154.2805 H   0  0  0  0  0  0  0  0  0  0  0  0
  131.3394  129.3040  156.6311 H   0  0  0  0  0  0  0  0  0  0  0  0
  131.2950  131.7251  158.1482 H   0  0  0  0  0  0  0  0  0  0  0  0
  129.5187  131.5910  157.9765 H   0  0  0  0  0  0  0  0  0  0  0  0
  131.8147  134.0794  159.0349 H   0  0  0  0  0  0  0  0  0  0  0  0
  132.6736  133.5796  162.1390 H   0  0  0  0  0  0  0  0  0  0  0  0
  133.4527  133.8666  160.5526 H   0  0  0  0  0  0  0  0  0  0  0  0
  134.6327  135.2168  162.6716 H   0  0  0  0  0  0  0  0  0  0  0  0
  132.2221  138.3694  163.2285 H   0  0  0  0  0  0  0  0  0  0  0  0
  133.7611  138.5219  164.1810 H   0  0  0  0  0  0  0  0  0  0  0  0
  132.7833  140.6294  162.4644 H   0  0  0  0  0  0  0  0  0  0  0  0
  134.5535  140.3677  162.7750 H   0  0  0  0  0  0  0  0  0  0  0  0
  132.5213  136.6662  159.6853 H   0  0  0  0  0  0  0  0  0  0  0  0
  131.4559  137.2399  161.0049 H   0  0  0  0  0  0  0  0  0  0  0  0
  127.4170  135.6267  162.1134 H   0  0  0  0  0  0  0  0  0  0  0  0
  126.7943  136.6701  160.8178 H   0  0  0  0  0  0  0  0  0  0  0  0
  124.8674  135.6841  161.7835 H   0  0  0  0  0  0  0  0  0  0  0  0
  1  2  2  0
  2 35  1  0
  2  3  1  0
  3  4  1  0
  3 36  1  0
  3 37  1  0
  4  5  1  0
  4 38  1  0
  4 39  1  0
  5  6  1  6
  5  7  1  0
  5 34  1  0
  7  8  1  0
  9  7  2  0
  9 10  1  0
  9 20  1  0
 10 11  1  0
 10 40  1  0
 11 19  1  0
 11 12  1  0
 11 41  1  0
 12 13  1  0
 12 42  1  0
 12 43  1  0
 13 18  2  0
 13 14  1  0
 14 15  2  0
 14 44  1  0
 15 16  1  0
 15 45  1  0
 16 17  2  0
 16 46  1  0
 17 18  1  0
 17 47  1  0
 18 19  1  0
 19 48  1  0
 19 49  1  0
 20 21  1  0
 20 50  1  0
 21 22  1  1
 21 33  1  0
 21 23  1  0
 23 24  1  0
 23 51  1  0
 23 52  1  0
 24 25  2  0
 24 53  1  0
 25 26  1  0
 25 33  1  0
 26 27  1  1
 26 30  1  0
 26 28  1  0
 28 29  1  0
 28 54  1  0
 28 55  1  0
 29 30  1  0
 29 56  1  0
 29 57  1  0
 30 31  1  6
 30 32  1  0
 33 58  1  0
 33 59  1  0
 34 35  1  0
 34 60  1  0
 34 61  1  0
 35 62  1  0
M  CHG  1   7   1
M  END
>  <DOCK_score>  (1) 
-48.919075

>  <SMILES>  (1) 
O=C1CC[C@H]([NH+]=C(NC2Cc3ccccc3C2)N[C@H]2CC=C([C@@H]3CC[C@H]3Br)C2)CN1

$$$$
