CCc1ccc(-c2c[nH]c(N[C@H](CC3=CCC(=O)N3)C3=CCCC3=O)[nH+]2)cc1
     RDKit          3D

 53 56  0  0  1  0  0  0  0  0999 V2000
  130.3272  128.3437  151.8874 C   0  0  0  0  0  0  0  0  0  0  0  0
  131.3862  129.4156  152.1518 C   0  0  0  0  0  0  0  0  0  0  0  0
  131.0237  130.1836  153.3968 C   0  0  0  0  0  0  0  0  0  0  0  0
  131.4827  129.7549  154.6288 C   0  0  0  0  0  0  0  0  0  0  0  0
  131.1580  130.4570  155.7717 C   0  0  0  0  0  0  0  0  0  0  0  0
  130.3569  131.5942  155.6838 C   0  0  0  0  0  0  0  0  0  0  0  0
  130.0003  132.3500  156.9092 C   0  0  0  0  0  0  0  0  0  0  0  0
  129.3260  131.8621  157.9799 C   0  0  0  0  0  0  0  0  0  0  0  0
  129.2134  132.8912  158.8829 N   0  0  0  0  0  0  0  0  0  0  0  0
  128.7794  132.8502  159.7494 H   0  0  0  0  0  0  0  0  0  0  0  0
  129.8226  133.9789  158.3371 C   0  0  0  0  0  0  0  0  0  0  0  0
  129.9289  135.2256  158.9295 N   0  0  0  0  0  0  0  0  0  0  0  0
  129.3560  135.4565  160.2580 C   0  0  2  0  0  0  0  0  0  0  0  0
  128.2826  135.2696  160.2283 H   0  0  0  0  0  0  0  0  0  0  0  0
  129.6100  136.9056  160.6781 C   0  0  0  0  0  0  0  0  0  0  0  0
  129.0208  137.1430  162.0446 C   0  0  0  0  0  0  0  0  0  0  0  0
  129.6816  136.9590  163.1683 C   0  0  0  0  0  0  0  0  0  0  0  0
  128.7297  137.3113  164.2928 C   0  0  0  0  0  0  0  0  0  0  0  0
  127.4550  137.7037  163.5724 C   0  0  0  0  0  0  0  0  0  0  0  0
  126.4101  138.0613  164.0741 O   0  0  0  0  0  0  0  0  0  0  0  0
  127.7243  137.5731  162.2582 N   0  0  0  0  0  0  0  0  0  0  0  0
  130.0008  134.5249  161.2518 C   0  0  0  0  0  0  0  0  0  0  0  0
  131.2998  134.5092  161.5139 C   0  0  0  0  0  0  0  0  0  0  0  0
  131.6169  133.4628  162.5528 C   0  0  0  0  0  0  0  0  0  0  0  0
  130.2685  132.8104  162.9061 C   0  0  0  0  0  0  0  0  0  0  0  0
  129.2657  133.5419  162.0398 C   0  0  0  0  0  0  0  0  0  0  0  0
  128.0691  133.3444  162.0049 O   0  0  0  0  0  0  0  0  0  0  0  0
  130.2960  133.6502  157.1599 N   0  0  0  0  0  0  0  0  0  0  0  0
  130.7790  134.2424  156.5625 H   0  0  0  0  0  0  0  0  0  0  0  0
  129.8928  132.0188  154.4402 C   0  0  0  0  0  0  0  0  0  0  0  0
  130.2282  131.3120  153.3033 C   0  0  0  0  0  0  0  0  0  0  0  0
  130.2827  127.6605  152.7356 H   0  0  0  0  0  0  0  0  0  0  0  0
  129.3555  128.8181  151.7516 H   0  0  0  0  0  0  0  0  0  0  0  0
  130.5895  127.7882  150.9869 H   0  0  0  0  0  0  0  0  0  0  0  0
  132.3579  128.9416  152.2873 H   0  0  0  0  0  0  0  0  0  0  0  0
  131.4306  130.0993  151.3033 H   0  0  0  0  0  0  0  0  0  0  0  0
  132.0998  128.8710  154.6962 H   0  0  0  0  0  0  0  0  0  0  0  0
  131.5208  130.1237  156.7329 H   0  0  0  0  0  0  0  0  0  0  0  0
  128.9494  130.8570  158.0997 H   0  0  0  0  0  0  0  0  0  0  0  0
  130.3824  135.9462  158.4650 H   0  0  0  0  0  0  0  0  0  0  0  0
  130.6835  137.0925  160.7076 H   0  0  0  0  0  0  0  0  0  0  0  0
  129.1436  137.5794  159.9592 H   0  0  0  0  0  0  0  0  0  0  0  0
  130.7035  136.6241  163.2689 H   0  0  0  0  0  0  0  0  0  0  0  0
  129.1136  138.1483  164.8759 H   0  0  0  0  0  0  0  0  0  0  0  0
  128.5571  136.4464  164.9334 H   0  0  0  0  0  0  0  0  0  0  0  0
  127.0874  137.7574  161.5503 H   0  0  0  0  0  0  0  0  0  0  0  0
  132.0295  135.1552  161.0484 H   0  0  0  0  0  0  0  0  0  0  0  0
  132.2995  132.7189  162.1424 H   0  0  0  0  0  0  0  0  0  0  0  0
  132.0531  133.9290  163.4363 H   0  0  0  0  0  0  0  0  0  0  0  0
  130.2840  131.7476  162.6646 H   0  0  0  0  0  0  0  0  0  0  0  0
  130.0383  132.9577  163.9613 H   0  0  0  0  0  0  0  0  0  0  0  0
  129.2715  132.8991  154.3662 H   0  0  0  0  0  0  0  0  0  0  0  0
  129.8688  131.6398  152.3391 H   0  0  0  0  0  0  0  0  0  0  0  0
  1  2  1  0
  1 32  1  0
  1 33  1  0
  1 34  1  0
  2  3  1  0
  2 35  1  0
  2 36  1  0
  3 31  2  0
  3  4  1  0
  4  5  2  0
  4 37  1  0
  5  6  1  0
  5 38  1  0
  6  7  1  0
  6 30  2  0
  7 28  1  0
  7  8  2  0
  8  9  1  0
  8 39  1  0
  9 10  1  0
  9 11  1  0
 11 12  1  0
 11 28  2  0
 12 13  1  0
 12 40  1  0
 13 14  1  6
 13 15  1  0
 13 22  1  0
 15 16  1  0
 15 41  1  0
 15 42  1  0
 16 21  1  0
 16 17  2  0
 17 18  1  0
 17 43  1  0
 18 19  1  0
 18 44  1  0
 18 45  1  0
 19 20  2  0
 19 21  1  0
 21 46  1  0
 22 26  1  0
 22 23  2  0
 23 24  1  0
 23 47  1  0
 24 25  1  0
 24 48  1  0
 24 49  1  0
 25 26  1  0
 25 50  1  0
 25 51  1  0
 26 27  2  0
 28 29  1  0
 30 31  1  0
 30 52  1  0
 31 53  1  0
M  CHG  1  28   1
M  END
>  <DOCK_score>  (1) 
-50.169914

>  <SMILES>  (1) 
CCc1ccc(-c2c[nH]c(N[C@H](CC3=CCC(=O)N3)C3=CCCC3=O)[nH+]2)cc1

$$$$
