C[C@@H](Cc1cccc(Br)c1)Nc1[nH]cc(-c2cccc(O)c2)[nH+]1
     RDKit          3D

 42 44  0  0  1  0  0  0  0  0999 V2000
  131.6882  137.4017  162.4381 C   0  0  0  0  0  0  0  0  0  0  0  0
  130.6021  137.6042  161.3797 C   0  0  1  0  0  0  0  0  0  0  0  0
  129.6366  137.3054  161.7881 H   0  0  0  0  0  0  0  0  0  0  0  0
  130.5509  139.0793  160.9771 C   0  0  0  0  0  0  0  0  0  0  0  0
  131.8855  139.4927  160.4125 C   0  0  0  0  0  0  0  0  0  0  0  0
  132.1305  139.3703  159.0573 C   0  0  0  0  0  0  0  0  0  0  0  0
  133.3546  139.7493  158.5389 C   0  0  0  0  0  0  0  0  0  0  0  0
  134.3345  140.2503  159.3753 C   0  0  0  0  0  0  0  0  0  0  0  0
  134.0899  140.3728  160.7311 C   0  0  0  0  0  0  0  0  0  0  0  0
  135.4326  141.0508  161.8769 Br  0  0  0  0  0  0  0  0  0  0  0  0
  132.8645  139.9939  161.2495 C   0  0  0  0  0  0  0  0  0  0  0  0
  130.9085  136.7871  160.2030 N   0  0  0  0  0  0  0  0  0  0  0  0
  130.0156  135.8162  159.7829 C   0  0  0  0  0  0  0  0  0  0  0  0
  130.1809  134.9997  158.7066 N   0  0  0  0  0  0  0  0  0  0  0  0
  130.9391  134.9932  158.1015 H   0  0  0  0  0  0  0  0  0  0  0  0
  129.0775  134.1846  158.6372 C   0  0  0  0  0  0  0  0  0  0  0  0
  128.2666  134.5313  159.6673 C   0  0  0  0  0  0  0  0  0  0  0  0
  126.9531  133.9213  159.9878 C   0  0  0  0  0  0  0  0  0  0  0  0
  126.7054  132.5868  159.6688 C   0  0  0  0  0  0  0  0  0  0  0  0
  125.4843  132.0201  159.9729 C   0  0  0  0  0  0  0  0  0  0  0  0
  124.5004  132.7751  160.5840 C   0  0  0  0  0  0  0  0  0  0  0  0
  124.7368  134.1059  160.8998 C   0  0  0  0  0  0  0  0  0  0  0  0
  123.7665  134.8445  161.4997 O   0  0  0  0  0  0  0  0  0  0  0  0
  125.9614  134.6815  160.6031 C   0  0  0  0  0  0  0  0  0  0  0  0
  128.8692  135.5352  160.3526 N   0  0  0  0  0  0  0  0  0  0  0  0
  128.5088  135.9754  161.1384 H   0  0  0  0  0  0  0  0  0  0  0  0
  131.7246  136.3507  162.7249 H   0  0  0  0  0  0  0  0  0  0  0  0
  132.6535  137.7006  162.0298 H   0  0  0  0  0  0  0  0  0  0  0  0
  131.4600  138.0096  163.3137 H   0  0  0  0  0  0  0  0  0  0  0  0
  130.3228  139.6873  161.8527 H   0  0  0  0  0  0  0  0  0  0  0  0
  129.7770  139.2235  160.2231 H   0  0  0  0  0  0  0  0  0  0  0  0
  131.3652  138.9788  158.4035 H   0  0  0  0  0  0  0  0  0  0  0  0
  133.5456  139.6535  157.4802 H   0  0  0  0  0  0  0  0  0  0  0  0
  135.2908  140.5463  158.9702 H   0  0  0  0  0  0  0  0  0  0  0  0
  132.6730  140.0891  162.3081 H   0  0  0  0  0  0  0  0  0  0  0  0
  131.7371  136.9265  159.7182 H   0  0  0  0  0  0  0  0  0  0  0  0
  128.8898  133.4171  157.9009 H   0  0  0  0  0  0  0  0  0  0  0  0
  127.4704  131.9957  159.1874 H   0  0  0  0  0  0  0  0  0  0  0  0
  125.2952  130.9852  159.7289 H   0  0  0  0  0  0  0  0  0  0  0  0
  123.5451  132.3282  160.8162 H   0  0  0  0  0  0  0  0  0  0  0  0
  124.0233  135.7591  161.6803 H   0  0  0  0  0  0  0  0  0  0  0  0
  126.1466  135.7169  160.8479 H   0  0  0  0  0  0  0  0  0  0  0  0
  1  2  1  0
  1 27  1  0
  1 28  1  0
  1 29  1  0
  2  3  1  1
  2  4  1  0
  2 12  1  0
  4  5  1  0
  4 30  1  0
  4 31  1  0
  5 11  1  0
  5  6  2  0
  6  7  1  0
  6 32  1  0
  7  8  2  0
  7 33  1  0
  8  9  1  0
  8 34  1  0
  9 10  1  0
  9 11  2  0
 11 35  1  0
 12 36  1  0
 13 12  1  0
 13 25  2  0
 13 14  1  0
 14 15  1  0
 14 16  1  0
 16 17  2  0
 16 37  1  0
 17 18  1  0
 17 25  1  0
 18 24  1  0
 18 19  2  0
 19 20  1  0
 19 38  1  0
 20 21  2  0
 20 39  1  0
 21 22  1  0
 21 40  1  0
 22 23  1  0
 22 24  2  0
 23 41  1  0
 24 42  1  0
 25 26  1  0
M  CHG  1  25   1
M  END
>  <DOCK_score>  (1) 
-51.582085

>  <SMILES>  (1) 
C[C@@H](Cc1cccc(Br)c1)Nc1[nH]cc(-c2cccc(O)c2)[nH+]1

$$$$
