COCCN1C(=O)C[C@H]([NH+]2CCCC(n3cccn3)C2)C1=O
     RDKit          3D

 45 47  0  0  1  0  0  0  0  0999 V2000
  132.3244  138.9300  163.7208 C   0  0  0  0  0  0  0  0  0  0  0  0
  131.2784  138.8072  162.7550 O   0  0  0  0  0  0  0  0  0  0  0  0
  129.9707  139.0406  163.2818 C   0  0  0  0  0  0  0  0  0  0  0  0
  129.0126  139.3777  162.1375 C   0  0  0  0  0  0  0  0  0  0  0  0
  128.9663  138.2583  161.1936 N   0  0  0  0  0  0  0  0  0  0  0  0
  128.0915  137.2511  161.3064 C   0  0  0  0  0  0  0  0  0  0  0  0
  127.2547  137.1421  162.1767 O   0  0  0  0  0  0  0  0  0  0  0  0
  128.3132  136.2704  160.1757 C   0  0  0  0  0  0  0  0  0  0  0  0
  129.4800  136.8918  159.3815 C   0  0  2  0  0  0  0  0  0  0  0  0
  129.1700  137.1236  158.3625 H   0  0  0  0  0  0  0  0  0  0  0  0
  130.6394  135.9897  159.3750 N   0  0  1  0  0  0  0  0  0  0  0  0
  131.3908  136.4132  158.8515 H   0  0  0  0  0  0  0  0  0  0  0  0
  131.0792  135.7531  160.7553 C   0  0  0  0  0  0  0  0  0  0  0  0
  132.3350  134.8787  160.7517 C   0  0  0  0  0  0  0  0  0  0  0  0
  132.0176  133.5402  160.0788 C   0  0  0  0  0  0  0  0  0  0  0  0
  131.4884  133.8032  158.6660 C   0  0  1  0  0  0  0  0  0  0  0  0
  131.1103  132.5333  158.0410 N   0  0  0  0  0  0  0  0  0  0  0  0
  131.1507  132.2550  156.7210 C   0  0  0  0  0  0  0  0  0  0  0  0
  130.7194  130.9833  156.5544 C   0  0  0  0  0  0  0  0  0  0  0  0
  130.4125  130.4640  157.8162 C   0  0  0  0  0  0  0  0  0  0  0  0
  130.6436  131.3932  158.7078 N   0  0  0  0  0  0  0  0  0  0  0  0
  130.2639  134.7173  158.7469 C   0  0  0  0  0  0  0  0  0  0  0  0
  129.7951  138.1584  160.1469 C   0  0  0  0  0  0  0  0  0  0  0  0
  130.6610  138.9563  159.8583 O   0  0  0  0  0  0  0  0  0  0  0  0
  132.1664  138.2073  164.5213 H   0  0  0  0  0  0  0  0  0  0  0  0
  133.2850  138.7381  163.2425 H   0  0  0  0  0  0  0  0  0  0  0  0
  132.3199  139.9381  164.1352 H   0  0  0  0  0  0  0  0  0  0  0  0
  130.0052  139.8736  163.9841 H   0  0  0  0  0  0  0  0  0  0  0  0
  129.6213  138.1457  163.7966 H   0  0  0  0  0  0  0  0  0  0  0  0
  129.3620  140.2727  161.6229 H   0  0  0  0  0  0  0  0  0  0  0  0
  128.0151  139.5555  162.5394 H   0  0  0  0  0  0  0  0  0  0  0  0
  127.4219  136.1954  159.5527 H   0  0  0  0  0  0  0  0  0  0  0  0
  128.5928  135.2919  160.5660 H   0  0  0  0  0  0  0  0  0  0  0  0
  131.3023  136.7067  161.2336 H   0  0  0  0  0  0  0  0  0  0  0  0
  130.2869  135.2470  161.3069 H   0  0  0  0  0  0  0  0  0  0  0  0
  133.1283  135.3835  160.2004 H   0  0  0  0  0  0  0  0  0  0  0  0
  132.6594  134.7034  161.7774 H   0  0  0  0  0  0  0  0  0  0  0  0
  131.2612  133.0116  160.6589 H   0  0  0  0  0  0  0  0  0  0  0  0
  132.9232  132.9361  160.0222 H   0  0  0  0  0  0  0  0  0  0  0  0
  132.2638  134.2852  158.0707 H   0  0  0  0  0  0  0  0  0  0  0  0
  131.4662  132.9283  155.9378 H   0  0  0  0  0  0  0  0  0  0  0  0
  130.6299  130.4609  155.6133 H   0  0  0  0  0  0  0  0  0  0  0  0
  130.0446  129.4690  158.0191 H   0  0  0  0  0  0  0  0  0  0  0  0
  129.8851  134.9063  157.7425 H   0  0  0  0  0  0  0  0  0  0  0  0
  129.4889  134.2341  159.3420 H   0  0  0  0  0  0  0  0  0  0  0  0
  1  2  1  0
  1 25  1  0
  1 26  1  0
  1 27  1  0
  2  3  1  0
  3  4  1  0
  3 28  1  0
  3 29  1  0
  4  5  1  0
  4 30  1  0
  4 31  1  0
  5 23  1  0
  5  6  1  0
  6  7  2  0
  6  8  1  0
  8  9  1  0
  8 32  1  0
  8 33  1  0
  9 10  1  6
  9 11  1  0
  9 23  1  0
 11 12  1  6
 11 22  1  0
 11 13  1  0
 13 14  1  0
 13 34  1  0
 13 35  1  0
 14 15  1  0
 14 36  1  0
 14 37  1  0
 15 16  1  0
 15 38  1  0
 15 39  1  0
 16 17  1  0
 16 22  1  0
 16 40  1  6
 17 21  1  0
 17 18  1  0
 18 19  2  0
 18 41  1  0
 19 20  1  0
 19 42  1  0
 20 21  2  0
 20 43  1  0
 22 44  1  0
 22 45  1  0
 23 24  2  0
M  CHG  1  11   1
M  END
>  <DOCK_score>  (1) 
-41.514771

>  <SMILES>  (1) 
COCCN1C(=O)C[C@H]([NH+]2CCCC(n3cccn3)C2)C1=O

$$$$
