CCc1ccc(-c2c[nH]c(N[C@H](Br)C(Nc3cccnc3C)C(F)F)[nH+]2)cc1
     RDKit          3D

 51 53  0  0  1  0  0  0  0  0999 V2000
  130.1192  128.8832  151.4789 C   0  0  0  0  0  0  0  0  0  0  0  0
  131.3242  129.7117  151.9292 C   0  0  0  0  0  0  0  0  0  0  0  0
  130.9890  130.4321  153.2097 C   0  0  0  0  0  0  0  0  0  0  0  0
  131.2407  129.8264  154.4276 C   0  0  0  0  0  0  0  0  0  0  0  0
  130.9346  130.4814  155.6032 C   0  0  0  0  0  0  0  0  0  0  0  0
  130.3706  131.7553  155.5618 C   0  0  0  0  0  0  0  0  0  0  0  0
  130.0395  132.4642  156.8219 C   0  0  0  0  0  0  0  0  0  0  0  0
  129.1754  132.0360  157.7751 C   0  0  0  0  0  0  0  0  0  0  0  0
  129.1683  132.9893  158.7641 N   0  0  0  0  0  0  0  0  0  0  0  0
  128.6463  132.9655  159.5813 H   0  0  0  0  0  0  0  0  0  0  0  0
  130.0291  133.9732  158.3860 C   0  0  0  0  0  0  0  0  0  0  0  0
  130.3100  135.1204  159.1082 N   0  0  0  0  0  0  0  0  0  0  0  0
  129.6557  135.3524  160.3982 C   0  0  2  0  0  0  0  0  0  0  0  0
  129.5996  134.4147  160.9510 H   0  0  0  0  0  0  0  0  0  0  0  0
  127.8406  136.0452  160.0971 Br  0  0  0  0  0  0  0  0  0  0  0  0
  130.4635  136.3719  161.2038 C   0  0  1  0  0  0  0  0  0  0  0  0
  130.9462  137.4280  160.3106 N   0  0  0  0  0  0  0  0  0  0  0  0
  132.1454  138.0873  160.5924 C   0  0  0  0  0  0  0  0  0  0  0  0
  132.8932  137.7445  161.7167 C   0  0  0  0  0  0  0  0  0  0  0  0
  134.0780  138.4225  161.9504 C   0  0  0  0  0  0  0  0  0  0  0  0
  134.4769  139.4095  161.0680 C   0  0  0  0  0  0  0  0  0  0  0  0
  133.7459  139.7108  160.0128 N   0  0  0  0  0  0  0  0  0  0  0  0
  132.6125  139.0901  159.7527 C   0  0  0  0  0  0  0  0  0  0  0  0
  131.8156  139.4724  158.5321 C   0  0  0  0  0  0  0  0  0  0  0  0
  129.5741  136.9864  162.2865 C   0  0  0  0  0  0  0  0  0  0  0  0
  128.7695  137.9808  161.7199 F   0  0  0  0  0  0  0  0  0  0  0  0
  128.7632  135.9920  162.8439 F   0  0  0  0  0  0  0  0  0  0  0  0
  130.5442  133.6582  157.2227 N   0  0  0  0  0  0  0  0  0  0  0  0
  131.1851  134.1924  156.7280 H   0  0  0  0  0  0  0  0  0  0  0  0
  130.1136  132.3582  154.3317 C   0  0  0  0  0  0  0  0  0  0  0  0
  130.4290  131.6962  153.1624 C   0  0  0  0  0  0  0  0  0  0  0  0
  129.2672  129.5423  151.3121 H   0  0  0  0  0  0  0  0  0  0  0  0
  130.3621  128.3621  150.5529 H   0  0  0  0  0  0  0  0  0  0  0  0
  129.8697  128.1551  152.2509 H   0  0  0  0  0  0  0  0  0  0  0  0
  131.5738  130.4395  151.1575 H   0  0  0  0  0  0  0  0  0  0  0  0
  132.1762  129.0522  152.0961 H   0  0  0  0  0  0  0  0  0  0  0  0
  131.6777  128.8393  154.4586 H   0  0  0  0  0  0  0  0  0  0  0  0
  131.1321  130.0077  156.5536 H   0  0  0  0  0  0  0  0  0  0  0  0
  128.6019  131.1209  157.7594 H   0  0  0  0  0  0  0  0  0  0  0  0
  130.9401  135.7705  158.7600 H   0  0  0  0  0  0  0  0  0  0  0  0
  131.3135  135.8744  161.6709 H   0  0  0  0  0  0  0  0  0  0  0  0
  130.4332  137.6698  159.5237 H   0  0  0  0  0  0  0  0  0  0  0  0
  132.5572  136.9692  162.3896 H   0  0  0  0  0  0  0  0  0  0  0  0
  134.6835  138.1829  162.8120 H   0  0  0  0  0  0  0  0  0  0  0  0
  135.3999  139.9411  161.2456 H   0  0  0  0  0  0  0  0  0  0  0  0
  131.1132  140.2650  158.7904 H   0  0  0  0  0  0  0  0  0  0  0  0
  132.4911  139.8254  157.7530 H   0  0  0  0  0  0  0  0  0  0  0  0
  131.2659  138.6036  158.1702 H   0  0  0  0  0  0  0  0  0  0  0  0
  130.1990  137.4243  163.0647 H   0  0  0  0  0  0  0  0  0  0  0  0
  129.6723  133.3431  154.2935 H   0  0  0  0  0  0  0  0  0  0  0  0
  130.2346  132.1642  152.2088 H   0  0  0  0  0  0  0  0  0  0  0  0
  1  2  1  0
  1 32  1  0
  1 33  1  0
  1 34  1  0
  2  3  1  0
  2 35  1  0
  2 36  1  0
  3 31  2  0
  3  4  1  0
  4  5  2  0
  4 37  1  0
  5  6  1  0
  5 38  1  0
  6  7  1  0
  6 30  2  0
  7 28  1  0
  7  8  2  0
  8  9  1  0
  8 39  1  0
  9 10  1  0
  9 11  1  0
 11 12  1  0
 11 28  2  0
 12 13  1  0
 12 40  1  0
 13 14  1  1
 13 15  1  0
 13 16  1  0
 16 17  1  0
 16 25  1  0
 16 41  1  1
 17 18  1  0
 17 42  1  0
 18 23  1  0
 18 19  2  0
 19 20  1  0
 19 43  1  0
 20 21  2  0
 20 44  1  0
 21 22  1  0
 21 45  1  0
 22 23  2  0
 23 24  1  0
 24 46  1  0
 24 47  1  0
 24 48  1  0
 25 26  1  0
 25 27  1  0
 25 49  1  0
 28 29  1  0
 30 31  1  0
 30 50  1  0
 31 51  1  0
M  CHG  1  28   1
M  END
>  <DOCK_score>  (1) 
-59.433186

>  <SMILES>  (1) 
CCc1ccc(-c2c[nH]c(N[C@H](Br)C(Nc3cccnc3C)C(F)F)[nH+]2)cc1

$$$$
