CCCNc1ccc(Nc2ccc(Nc3[nH]cc(CO)[nH+]3)cc2)cc1
     RDKit          3D

 49 51  0  0  1  0  0  0  0  0999 V2000
  129.4118  138.2733  169.4823 C   0  0  0  0  0  0  0  0  0  0  0  0
  127.9033  138.5280  169.5033 C   0  0  0  0  0  0  0  0  0  0  0  0
  127.3709  138.5574  168.0694 C   0  0  0  0  0  0  0  0  0  0  0  0
  127.6398  137.2709  167.4220 N   0  0  0  0  0  0  0  0  0  0  0  0
  127.2421  137.0574  166.0972 C   0  0  0  0  0  0  0  0  0  0  0  0
  127.4974  135.8380  165.4835 C   0  0  0  0  0  0  0  0  0  0  0  0
  127.1052  135.6273  164.1765 C   0  0  0  0  0  0  0  0  0  0  0  0
  126.4552  136.6350  163.4755 C   0  0  0  0  0  0  0  0  0  0  0  0
  126.0573  136.4221  162.1501 N   0  0  0  0  0  0  0  0  0  0  0  0
  127.0121  136.1174  161.1733 C   0  0  0  0  0  0  0  0  0  0  0  0
  126.6646  135.3270  160.0850 C   0  0  0  0  0  0  0  0  0  0  0  0
  127.6064  135.0269  159.1213 C   0  0  0  0  0  0  0  0  0  0  0  0
  128.9016  135.5139  159.2404 C   0  0  0  0  0  0  0  0  0  0  0  0
  129.8569  135.2090  158.2631 N   0  0  0  0  0  0  0  0  0  0  0  0
  129.7765  134.0153  157.5643 C   0  0  0  0  0  0  0  0  0  0  0  0
  129.2555  132.8504  158.0365 N   0  0  0  0  0  0  0  0  0  0  0  0
  128.8755  132.7031  158.9167 H   0  0  0  0  0  0  0  0  0  0  0  0
  129.3755  131.9188  157.0305 C   0  0  0  0  0  0  0  0  0  0  0  0
  129.9539  132.5398  155.9884 C   0  0  0  0  0  0  0  0  0  0  0  0
  130.2847  131.9109  154.6594 C   0  0  0  0  0  0  0  0  0  0  0  0
  131.6031  132.2961  154.2650 O   0  0  0  0  0  0  0  0  0  0  0  0
  130.1869  133.8171  156.3339 N   0  0  0  0  0  0  0  0  0  0  0  0
  130.5978  134.4864  155.7647 H   0  0  0  0  0  0  0  0  0  0  0  0
  129.2509  136.2988  160.3317 C   0  0  0  0  0  0  0  0  0  0  0  0
  128.3075  136.6042  161.2924 C   0  0  0  0  0  0  0  0  0  0  0  0
  126.2051  137.8564  164.0874 C   0  0  0  0  0  0  0  0  0  0  0  0
  126.5927  138.0651  165.3961 C   0  0  0  0  0  0  0  0  0  0  0  0
  129.7911  138.2523  170.5039 H   0  0  0  0  0  0  0  0  0  0  0  0
  129.6119  137.3160  169.0007 H   0  0  0  0  0  0  0  0  0  0  0  0
  129.9070  139.0699  168.9270 H   0  0  0  0  0  0  0  0  0  0  0  0
  127.7032  139.4852  169.9850 H   0  0  0  0  0  0  0  0  0  0  0  0
  127.4080  137.7314  170.0587 H   0  0  0  0  0  0  0  0  0  0  0  0
  127.8662  139.3541  167.5141 H   0  0  0  0  0  0  0  0  0  0  0  0
  126.2961  138.7390  168.0844 H   0  0  0  0  0  0  0  0  0  0  0  0
  128.0935  136.5672  167.9117 H   0  0  0  0  0  0  0  0  0  0  0  0
  128.0031  135.0548  166.0285 H   0  0  0  0  0  0  0  0  0  0  0  0
  127.3040  134.6792  163.6991 H   0  0  0  0  0  0  0  0  0  0  0  0
  125.1200  136.4848  161.9091 H   0  0  0  0  0  0  0  0  0  0  0  0
  125.6574  134.9483  159.9924 H   0  0  0  0  0  0  0  0  0  0  0  0
  127.3361  134.4129  158.2749 H   0  0  0  0  0  0  0  0  0  0  0  0
  130.5750  135.8335  158.0751 H   0  0  0  0  0  0  0  0  0  0  0  0
  129.0637  130.8856  157.0708 H   0  0  0  0  0  0  0  0  0  0  0  0
  130.2345  130.8257  154.7484 H   0  0  0  0  0  0  0  0  0  0  0  0
  129.5684  132.2473  153.9099 H   0  0  0  0  0  0  0  0  0  0  0  0
  131.7210  133.2508  154.1660 H   0  0  0  0  0  0  0  0  0  0  0  0
  130.2592  136.6737  160.4268 H   0  0  0  0  0  0  0  0  0  0  0  0
  128.5778  137.2185  162.1386 H   0  0  0  0  0  0  0  0  0  0  0  0
  125.7037  138.6416  163.5410 H   0  0  0  0  0  0  0  0  0  0  0  0
  126.3945  139.0135  165.8733 H   0  0  0  0  0  0  0  0  0  0  0  0
  1  2  1  0
  1 28  1  0
  1 29  1  0
  1 30  1  0
  2  3  1  0
  2 31  1  0
  2 32  1  0
  3  4  1  0
  3 33  1  0
  3 34  1  0
  4  5  1  0
  4 35  1  0
  5 27  2  0
  5  6  1  0
  6  7  2  0
  6 36  1  0
  7  8  1  0
  7 37  1  0
  8  9  1  0
  8 26  2  0
  9 10  1  0
  9 38  1  0
 10 25  1  0
 10 11  2  0
 11 12  1  0
 11 39  1  0
 12 13  2  0
 12 40  1  0
 13 14  1  0
 13 24  1  0
 14 41  1  0
 15 14  1  0
 15 22  2  0
 15 16  1  0
 16 17  1  0
 16 18  1  0
 18 19  2  0
 18 42  1  0
 19 20  1  0
 19 22  1  0
 20 21  1  0
 20 43  1  0
 20 44  1  0
 21 45  1  0
 22 23  1  0
 24 25  2  0
 24 46  1  0
 25 47  1  0
 26 27  1  0
 26 48  1  0
 27 49  1  0
M  CHG  1  22   1
M  END
>  <DOCK_score>  (1) 
-48.067837

>  <SMILES>  (1) 
CCCNc1ccc(Nc2ccc(Nc3[nH]cc(CO)[nH+]3)cc2)cc1

$$$$
