CCc1ccc(-c2c[nH]c(N[C@@H](CN3CC(=O)NC(=O)C3)c3ccnn3C)[nH+]2)cc1
     RDKit          3D

 56 59  0  0  1  0  0  0  0  0999 V2000
  130.5538  128.4578  151.5604 C   0  0  0  0  0  0  0  0  0  0  0  0
  131.6452  129.4713  151.9099 C   0  0  0  0  0  0  0  0  0  0  0  0
  131.2648  130.2045  153.1704 C   0  0  0  0  0  0  0  0  0  0  0  0
  131.6546  129.7077  154.4008 C   0  0  0  0  0  0  0  0  0  0  0  0
  131.3133  130.3776  155.5581 C   0  0  0  0  0  0  0  0  0  0  0  0
  130.5652  131.5514  155.4859 C   0  0  0  0  0  0  0  0  0  0  0  0
  130.1908  132.2731  156.7265 C   0  0  0  0  0  0  0  0  0  0  0  0
  129.4532  131.7733  157.7488 C   0  0  0  0  0  0  0  0  0  0  0  0
  129.3470  132.7698  158.6883 N   0  0  0  0  0  0  0  0  0  0  0  0
  128.8770  132.7135  159.5349 H   0  0  0  0  0  0  0  0  0  0  0  0
  130.0236  133.8504  158.2122 C   0  0  0  0  0  0  0  0  0  0  0  0
  130.1579  135.0669  158.8593 N   0  0  0  0  0  0  0  0  0  0  0  0
  129.1037  135.5368  159.7618 C   0  0  1  0  0  0  0  0  0  0  0  0
  128.9735  134.8203  160.5726 H   0  0  0  0  0  0  0  0  0  0  0  0
  129.4976  136.8969  160.3414 C   0  0  0  0  0  0  0  0  0  0  0  0
  130.9321  136.8975  160.6578 N   0  0  0  0  0  0  0  0  0  0  0  0
  131.4651  138.2679  160.6861 C   0  0  0  0  0  0  0  0  0  0  0  0
  132.9373  138.2220  161.0027 C   0  0  0  0  0  0  0  0  0  0  0  0
  133.6687  139.0934  160.5837 O   0  0  0  0  0  0  0  0  0  0  0  0
  133.4481  137.2238  161.7444 N   0  0  0  0  0  0  0  0  0  0  0  0
  132.6699  136.2352  162.2183 C   0  0  0  0  0  0  0  0  0  0  0  0
  133.1643  135.3455  162.8768 O   0  0  0  0  0  0  0  0  0  0  0  0
  131.1896  136.2218  161.9385 C   0  0  0  0  0  0  0  0  0  0  0  0
  127.8117  135.6715  158.9978 C   0  0  0  0  0  0  0  0  0  0  0  0
  127.6893  135.9680  157.6832 C   0  0  0  0  0  0  0  0  0  0  0  0
  126.3256  135.9945  157.3732 C   0  0  0  0  0  0  0  0  0  0  0  0
  125.6532  135.7312  158.4643 N   0  0  0  0  0  0  0  0  0  0  0  0
  126.5694  135.5236  159.5035 N   0  0  0  0  0  0  0  0  0  0  0  0
  126.2373  135.2031  160.8939 C   0  0  0  0  0  0  0  0  0  0  0  0
  130.5306  133.5482  157.0420 N   0  0  0  0  0  0  0  0  0  0  0  0
  131.0623  134.1418  156.4890 H   0  0  0  0  0  0  0  0  0  0  0  0
  130.1707  132.0448  154.2435 C   0  0  0  0  0  0  0  0  0  0  0  0
  130.5223  131.3694  153.0925 C   0  0  0  0  0  0  0  0  0  0  0  0
  129.6092  128.9794  151.4063 H   0  0  0  0  0  0  0  0  0  0  0  0
  130.8289  127.9275  150.6487 H   0  0  0  0  0  0  0  0  0  0  0  0
  130.4457  127.7443  152.3773 H   0  0  0  0  0  0  0  0  0  0  0  0
  132.5897  128.9500  152.0638 H   0  0  0  0  0  0  0  0  0  0  0  0
  131.7532  130.1853  151.0929 H   0  0  0  0  0  0  0  0  0  0  0  0
  132.2305  128.7957  154.4558 H   0  0  0  0  0  0  0  0  0  0  0  0
  131.6218  129.9909  156.5181 H   0  0  0  0  0  0  0  0  0  0  0  0
  129.0299  130.7817  157.8120 H   0  0  0  0  0  0  0  0  0  0  0  0
  130.9499  135.6080  158.7153 H   0  0  0  0  0  0  0  0  0  0  0  0
  129.2862  137.6781  159.6112 H   0  0  0  0  0  0  0  0  0  0  0  0
  128.9251  137.0842  161.2498 H   0  0  0  0  0  0  0  0  0  0  0  0
  131.3163  138.7364  159.7132 H   0  0  0  0  0  0  0  0  0  0  0  0
  130.9463  138.8446  161.4517 H   0  0  0  0  0  0  0  0  0  0  0  0
  134.3977  137.2169  161.9420 H   0  0  0  0  0  0  0  0  0  0  0  0
  130.6633  136.7438  162.7377 H   0  0  0  0  0  0  0  0  0  0  0  0
  130.8389  135.1913  161.8833 H   0  0  0  0  0  0  0  0  0  0  0  0
  128.5012  136.1500  156.9945 H   0  0  0  0  0  0  0  0  0  0  0  0
  125.9009  136.2006  156.4019 H   0  0  0  0  0  0  0  0  0  0  0  0
  126.1269  136.1261  161.4632 H   0  0  0  0  0  0  0  0  0  0  0  0
  125.3024  134.6435  160.9245 H   0  0  0  0  0  0  0  0  0  0  0  0
  127.0355  134.6013  161.3286 H   0  0  0  0  0  0  0  0  0  0  0  0
  129.5907  132.9537  154.1817 H   0  0  0  0  0  0  0  0  0  0  0  0
  130.2167  131.7506  152.1293 H   0  0  0  0  0  0  0  0  0  0  0  0
  1  2  1  0
  1 34  1  0
  1 35  1  0
  1 36  1  0
  2  3  1  0
  2 37  1  0
  2 38  1  0
  3 33  2  0
  3  4  1  0
  4  5  2  0
  4 39  1  0
  5  6  1  0
  5 40  1  0
  6  7  1  0
  6 32  2  0
  7 30  1  0
  7  8  2  0
  8  9  1  0
  8 41  1  0
  9 10  1  0
  9 11  1  0
 11 12  1  0
 11 30  2  0
 12 13  1  0
 12 42  1  0
 13 14  1  1
 13 15  1  0
 13 24  1  0
 15 16  1  0
 15 43  1  0
 15 44  1  0
 16 23  1  0
 16 17  1  0
 17 18  1  0
 17 45  1  0
 17 46  1  0
 18 19  2  0
 18 20  1  0
 20 21  1  0
 20 47  1  0
 21 22  2  0
 21 23  1  0
 23 48  1  0
 23 49  1  0
 24 28  1  0
 24 25  2  0
 25 26  1  0
 25 50  1  0
 26 27  2  0
 26 51  1  0
 27 28  1  0
 28 29  1  0
 29 52  1  0
 29 53  1  0
 29 54  1  0
 30 31  1  0
 32 33  1  0
 32 55  1  0
 33 56  1  0
M  CHG  1  30   1
M  END
>  <DOCK_score>  (1) 
-58.053005

>  <SMILES>  (1) 
CCc1ccc(-c2c[nH]c(N[C@@H](CN3CC(=O)NC(=O)C3)c3ccnn3C)[nH+]2)cc1

$$$$
