Cc1cccc(N2CC[NH+](C(c3ccccc3)c3ccccc3)CC2)c1NC/C=C/Br
     RDKit          3D

 62 65  0  0  1  0  0  0  0  0999 V2000
  135.8093  141.0896  162.9072 C   0  0  0  0  0  0  0  0  0  0  0  0
  135.2093  140.4727  161.6702 C   0  0  0  0  0  0  0  0  0  0  0  0
  135.5497  140.9582  160.4206 C   0  0  0  0  0  0  0  0  0  0  0  0
  135.0018  140.3954  159.2834 C   0  0  0  0  0  0  0  0  0  0  0  0
  134.1096  139.3438  159.3881 C   0  0  0  0  0  0  0  0  0  0  0  0
  133.7666  138.8478  160.6364 C   0  0  0  0  0  0  0  0  0  0  0  0
  132.8680  137.7794  160.7447 N   0  0  0  0  0  0  0  0  0  0  0  0
  133.4150  136.5659  160.1219 C   0  0  0  0  0  0  0  0  0  0  0  0
  132.4310  135.4098  160.3137 C   0  0  0  0  0  0  0  0  0  0  0  0
  131.1420  135.7569  159.7008 N   0  0  0  0  0  0  0  0  0  0  0  0
  131.2754  135.9381  158.7173 H   0  0  0  0  0  0  0  0  0  0  0  0
  130.2033  134.6396  159.8693 C   0  0  0  0  0  0  0  0  0  0  0  0
  128.8807  134.9955  159.2406 C   0  0  0  0  0  0  0  0  0  0  0  0
  127.7093  134.4645  159.7475 C   0  0  0  0  0  0  0  0  0  0  0  0
  126.4958  134.7949  159.1738 C   0  0  0  0  0  0  0  0  0  0  0  0
  126.4542  135.6479  158.0875 C   0  0  0  0  0  0  0  0  0  0  0  0
  127.6263  136.1746  157.5766 C   0  0  0  0  0  0  0  0  0  0  0  0
  128.8394  135.8484  158.1536 C   0  0  0  0  0  0  0  0  0  0  0  0
  130.7619  133.4092  159.2023 C   0  0  0  0  0  0  0  0  0  0  0  0
  130.4668  133.1471  157.8773 C   0  0  0  0  0  0  0  0  0  0  0  0
  130.9831  132.0210  157.2640 C   0  0  0  0  0  0  0  0  0  0  0  0
  131.7859  131.1515  157.9785 C   0  0  0  0  0  0  0  0  0  0  0  0
  132.0766  131.4108  159.3047 C   0  0  0  0  0  0  0  0  0  0  0  0
  131.5646  132.5397  159.9167 C   0  0  0  0  0  0  0  0  0  0  0  0
  130.5966  136.9565  160.3498 C   0  0  0  0  0  0  0  0  0  0  0  0
  131.5654  138.1254  160.1583 C   0  0  0  0  0  0  0  0  0  0  0  0
  134.3159  139.4191  161.7845 C   0  0  0  0  0  0  0  0  0  0  0  0
  133.9703  138.9257  163.0486 N   0  0  0  0  0  0  0  0  0  0  0  0
  132.7987  139.6302  163.5864 C   0  0  0  0  0  0  0  0  0  0  0  0
  131.5430  138.9130  163.1625 C   0  0  0  0  0  0  0  0  0  0  0  0
  130.4308  139.5854  162.9884 C   0  0  0  0  0  0  0  0  0  0  0  0
  128.8551  138.6854  162.4564 Br  0  0  0  0  0  0  0  0  0  0  0  0
  136.7766  140.6298  163.1100 H   0  0  0  0  0  0  0  0  0  0  0  0
  135.9414  142.1603  162.7519 H   0  0  0  0  0  0  0  0  0  0  0  0
  135.1439  140.9249  163.7547 H   0  0  0  0  0  0  0  0  0  0  0  0
  136.2459  141.7792  160.3332 H   0  0  0  0  0  0  0  0  0  0  0  0
  135.2708  140.7782  158.3099 H   0  0  0  0  0  0  0  0  0  0  0  0
  133.6833  138.9064  158.4975 H   0  0  0  0  0  0  0  0  0  0  0  0
  133.5675  136.7407  159.0569 H   0  0  0  0  0  0  0  0  0  0  0  0
  134.3670  136.3146  160.5895 H   0  0  0  0  0  0  0  0  0  0  0  0
  132.2892  135.2262  161.3787 H   0  0  0  0  0  0  0  0  0  0  0  0
  132.8284  134.5120  159.8401 H   0  0  0  0  0  0  0  0  0  0  0  0
  130.0593  134.4432  160.9318 H   0  0  0  0  0  0  0  0  0  0  0  0
  127.7420  133.7946  160.5940 H   0  0  0  0  0  0  0  0  0  0  0  0
  125.5803  134.3830  159.5722 H   0  0  0  0  0  0  0  0  0  0  0  0
  125.5067  135.9023  157.6358 H   0  0  0  0  0  0  0  0  0  0  0  0
  127.5941  136.8407  156.7272 H   0  0  0  0  0  0  0  0  0  0  0  0
  129.7550  136.2597  157.7549 H   0  0  0  0  0  0  0  0  0  0  0  0
  129.8361  133.8241  157.3205 H   0  0  0  0  0  0  0  0  0  0  0  0
  130.7557  131.8182  156.2278 H   0  0  0  0  0  0  0  0  0  0  0  0
  132.1857  130.2693  157.5006 H   0  0  0  0  0  0  0  0  0  0  0  0
  132.7034  130.7313  159.8631 H   0  0  0  0  0  0  0  0  0  0  0  0
  131.7913  132.7421  160.9530 H   0  0  0  0  0  0  0  0  0  0  0  0
  130.4642  136.7650  161.4147 H   0  0  0  0  0  0  0  0  0  0  0  0
  129.6340  137.2054  159.9030 H   0  0  0  0  0  0  0  0  0  0  0  0
  131.1679  139.0118  160.6526 H   0  0  0  0  0  0  0  0  0  0  0  0
  131.6874  138.3259  159.0939 H   0  0  0  0  0  0  0  0  0  0  0  0
  133.8102  137.9300  163.0167 H   0  0  0  0  0  0  0  0  0  0  0  0
  132.8554  139.6510  164.6746 H   0  0  0  0  0  0  0  0  0  0  0  0
  132.7811  140.6507  163.2038 H   0  0  0  0  0  0  0  0  0  0  0  0
  131.5591  137.8450  163.0018 H   0  0  0  0  0  0  0  0  0  0  0  0
  130.4147  140.6532  163.1491 H   0  0  0  0  0  0  0  0  0  0  0  0
  1  2  1  0
  1 33  1  0
  1 34  1  0
  1 35  1  0
  2 27  2  0
  2  3  1  0
  3  4  2  0
  3 36  1  0
  4  5  1  0
  4 37  1  0
  5  6  2  0
  5 38  1  0
  6  7  1  0
  6 27  1  0
  7 26  1  0
  7  8  1  0
  8  9  1  0
  8 39  1  0
  8 40  1  0
  9 10  1  0
  9 41  1  0
  9 42  1  0
 10 11  1  0
 10 12  1  0
 10 25  1  0
 12 13  1  0
 12 19  1  0
 12 43  1  0
 13 18  1  0
 13 14  2  0
 14 15  1  0
 14 44  1  0
 15 16  2  0
 15 45  1  0
 16 17  1  0
 16 46  1  0
 17 18  2  0
 17 47  1  0
 18 48  1  0
 19 24  1  0
 19 20  2  0
 20 21  1  0
 20 49  1  0
 21 22  2  0
 21 50  1  0
 22 23  1  0
 22 51  1  0
 23 24  2  0
 23 52  1  0
 24 53  1  0
 25 26  1  0
 25 54  1  0
 25 55  1  0
 26 56  1  0
 26 57  1  0
 27 28  1  0
 28 29  1  0
 28 58  1  0
 29 30  1  0
 29 59  1  0
 29 60  1  0
 30 31  2  0
 30 61  1  0
 31 32  1  0
 31 62  1  0
M  CHG  1  10   1
M  END
>  <DOCK_score>  (1) 
-58.3661

>  <SMILES>  (1) 
Cc1cccc(N2CC[NH+](C(c3ccccc3)c3ccccc3)CC2)c1NC/C=C/Br

$$$$
