Cc1ccccc1[C@H]1C[C@H](Nc2ccc(-c3n[nH]cc3C[NH2+][C@@H]3[C@@H](O)[C@@H](O)C[C@@H](O)[C@H]3O)o2)C1
     RDKit          3D

 67 71  0  0  1  0  0  0  0  0999 V2000
  127.8313  135.6800  167.0606 C   0  0  0  0  0  0  0  0  0  0  0  0
  127.6990  137.1700  167.2437 C   0  0  0  0  0  0  0  0  0  0  0  0
  128.0112  137.7473  168.4608 C   0  0  0  0  0  0  0  0  0  0  0  0
  127.8848  139.1132  168.6303 C   0  0  0  0  0  0  0  0  0  0  0  0
  127.4508  139.9027  167.5815 C   0  0  0  0  0  0  0  0  0  0  0  0
  127.1430  139.3262  166.3637 C   0  0  0  0  0  0  0  0  0  0  0  0
  127.2698  137.9599  166.1939 C   0  0  0  0  0  0  0  0  0  0  0  0
  126.9342  137.3313  164.8662 C   0  0  1  0  0  0  0  0  0  0  0  0
  126.1313  136.5974  164.9362 H   0  0  0  0  0  0  0  0  0  0  0  0
  126.7408  138.3523  163.7325 C   0  0  0  0  0  0  0  0  0  0  0  0
  127.4913  137.3657  162.8224 C   0  0  2  0  0  0  0  0  0  0  0  0
  128.1842  137.8470  162.1321 H   0  0  0  0  0  0  0  0  0  0  0  0
  126.6162  136.3928  162.1638 N   0  0  0  0  0  0  0  0  0  0  0  0
  127.1565  135.4378  161.3104 C   0  0  0  0  0  0  0  0  0  0  0  0
  126.4581  134.4859  160.6427 C   0  0  0  0  0  0  0  0  0  0  0  0
  127.3912  133.7374  159.8984 C   0  0  0  0  0  0  0  0  0  0  0  0
  128.6152  134.2720  160.1502 C   0  0  0  0  0  0  0  0  0  0  0  0
  129.8969  133.8049  159.5828 C   0  0  0  0  0  0  0  0  0  0  0  0
  130.0542  132.8012  158.7426 N   0  0  0  0  0  0  0  0  0  0  0  0
  131.4202  132.6846  158.4554 N   0  0  0  0  0  0  0  0  0  0  0  0
  131.8238  132.0272  157.8674 H   0  0  0  0  0  0  0  0  0  0  0  0
  132.0782  133.6459  159.1388 C   0  0  0  0  0  0  0  0  0  0  0  0
  131.1698  134.3562  159.8410 C   0  0  0  0  0  0  0  0  0  0  0  0
  131.4636  135.5259  160.7446 C   0  0  0  0  0  0  0  0  0  0  0  0
  131.4010  136.7718  159.9689 N   0  0  0  0  0  0  0  0  0  0  0  0
  130.4785  136.8758  159.5734 H   0  0  0  0  0  0  0  0  0  0  0  0
  132.0836  136.7406  159.2265 H   0  0  0  0  0  0  0  0  0  0  0  0
  131.6874  137.9121  160.8498 C   0  0  2  0  0  0  0  0  0  0  0  0
  131.2048  137.7561  161.8145 H   0  0  0  0  0  0  0  0  0  0  0  0
  131.1515  139.1958  160.2128 C   0  0  1  0  0  0  0  0  0  0  0  0
  131.6341  139.3516  159.2481 H   0  0  0  0  0  0  0  0  0  0  0  0
  129.7394  139.0812  160.0258 O   0  0  0  0  0  0  0  0  0  0  0  0
  131.4498  140.3833  161.1301 C   0  0  1  0  0  0  0  0  0  0  0  0
  131.0679  141.2978  160.6764 H   0  0  0  0  0  0  0  0  0  0  0  0
  130.8169  140.1790  162.3950 O   0  0  0  0  0  0  0  0  0  0  0  0
  132.9616  140.5060  161.3302 C   0  0  0  0  0  0  0  0  0  0  0  0
  133.4976  139.2224  161.9671 C   0  0  1  0  0  0  0  0  0  0  0  0
  134.5747  139.3098  162.1098 H   0  0  0  0  0  0  0  0  0  0  0  0
  132.8648  139.0180  163.2319 O   0  0  0  0  0  0  0  0  0  0  0  0
  133.1993  138.0347  161.0498 C   0  0  1  0  0  0  0  0  0  0  0  0
  133.6821  138.1906  160.0849 H   0  0  0  0  0  0  0  0  0  0  0  0
  133.6999  136.8358  161.6447 O   0  0  0  0  0  0  0  0  0  0  0  0
  128.4595  135.2989  161.0121 O   0  0  0  0  0  0  0  0  0  0  0  0
  128.1650  136.8261  164.0951 C   0  0  0  0  0  0  0  0  0  0  0  0
  128.8368  135.4448  166.7116 H   0  0  0  0  0  0  0  0  0  0  0  0
  127.6505  135.1795  168.0119 H   0  0  0  0  0  0  0  0  0  0  0  0
  127.1024  135.3382  166.3258 H   0  0  0  0  0  0  0  0  0  0  0  0
  128.3505  137.1307  169.2798 H   0  0  0  0  0  0  0  0  0  0  0  0
  128.1253  139.5638  169.5818 H   0  0  0  0  0  0  0  0  0  0  0  0
  127.3521  140.9701  167.7140 H   0  0  0  0  0  0  0  0  0  0  0  0
  126.8036  139.9430  165.5446 H   0  0  0  0  0  0  0  0  0  0  0  0
  127.2735  139.2895  163.8935 H   0  0  0  0  0  0  0  0  0  0  0  0
  125.6982  138.4996  163.4507 H   0  0  0  0  0  0  0  0  0  0  0  0
  125.6597  136.4149  162.3233 H   0  0  0  0  0  0  0  0  0  0  0  0
  125.3898  134.3311  160.6755 H   0  0  0  0  0  0  0  0  0  0  0  0
  127.1753  132.9001  159.2515 H   0  0  0  0  0  0  0  0  0  0  0  0
  133.1447  133.8166  159.1260 H   0  0  0  0  0  0  0  0  0  0  0  0
  132.4603  135.4137  161.1717 H   0  0  0  0  0  0  0  0  0  0  0  0
  130.7263  135.5598  161.5466 H   0  0  0  0  0  0  0  0  0  0  0  0
  129.2443  138.9406  160.8445 H   0  0  0  0  0  0  0  0  0  0  0  0
  131.1093  139.3813  162.8568 H   0  0  0  0  0  0  0  0  0  0  0  0
  133.4443  140.6620  160.3656 H   0  0  0  0  0  0  0  0  0  0  0  0
  133.1741  141.3521  161.9838 H   0  0  0  0  0  0  0  0  0  0  0  0
  133.1571  138.2202  163.6936 H   0  0  0  0  0  0  0  0  0  0  0  0
  133.3133  136.6338  162.5077 H   0  0  0  0  0  0  0  0  0  0  0  0
  128.2721  135.7414  164.1059 H   0  0  0  0  0  0  0  0  0  0  0  0
  129.0869  137.3461  164.3552 H   0  0  0  0  0  0  0  0  0  0  0  0
  1  2  1  0
  1 45  1  0
  1 46  1  0
  1 47  1  0
  2  7  2  0
  2  3  1  0
  3  4  2  0
  3 48  1  0
  4  5  1  0
  4 49  1  0
  5  6  2  0
  5 50  1  0
  6  7  1  0
  6 51  1  0
  7  8  1  0
  8  9  1  1
  8 44  1  0
  8 10  1  0
 10 11  1  0
 10 52  1  0
 10 53  1  0
 11 12  1  6
 11 13  1  0
 11 44  1  0
 13 14  1  0
 13 54  1  0
 14 43  1  0
 14 15  2  0
 15 16  1  0
 15 55  1  0
 16 17  2  0
 16 56  1  0
 17 18  1  0
 17 43  1  0
 18 23  1  0
 18 19  2  0
 19 20  1  0
 20 21  1  0
 20 22  1  0
 22 23  2  0
 22 57  1  0
 23 24  1  0
 24 25  1  0
 24 58  1  0
 24 59  1  0
 25 26  1  0
 25 27  1  0
 25 28  1  0
 28 29  1  1
 28 40  1  0
 28 30  1  0
 30 31  1  6
 30 32  1  0
 30 33  1  0
 32 60  1  0
 33 34  1  6
 33 35  1  0
 33 36  1  0
 35 61  1  0
 36 37  1  0
 36 62  1  0
 36 63  1  0
 37 38  1  1
 37 39  1  0
 37 40  1  0
 39 64  1  0
 40 41  1  6
 40 42  1  0
 42 65  1  0
 44 66  1  0
 44 67  1  0
M  CHG  1  25   1
M  END
>  <DOCK_score>  (1) 
-44.219131

>  <SMILES>  (1) 
Cc1ccccc1[C@H]1C[C@H](Nc2ccc(-c3n[nH]cc3C[NH2+][C@@H]3[C@@H](O)[C@@H](O)C[C@@H](O)[C@H]3O)o2)C1

$$$$
