CCc1ccc(-c2c[nH]c(NC(C)[C@@](C)(O)c3ccc(Cl)cc3)[nH+]2)cc1
     RDKit          3D

 51 53  0  0  1  0  0  0  0  0999 V2000
  129.7531  128.8182  150.6737 C   0  0  0  0  0  0  0  0  0  0  0  0
  130.9998  129.6204  151.0507 C   0  0  0  0  0  0  0  0  0  0  0  0
  130.7795  130.2968  152.3792 C   0  0  0  0  0  0  0  0  0  0  0  0
  131.1269  129.6458  153.5493 C   0  0  0  0  0  0  0  0  0  0  0  0
  130.9325  130.2621  154.7687 C   0  0  0  0  0  0  0  0  0  0  0  0
  130.3746  131.5384  154.8205 C   0  0  0  0  0  0  0  0  0  0  0  0
  130.1582  132.2037  156.1284 C   0  0  0  0  0  0  0  0  0  0  0  0
  129.3764  131.7453  157.1372 C   0  0  0  0  0  0  0  0  0  0  0  0
  129.4631  132.6620  158.1567 N   0  0  0  0  0  0  0  0  0  0  0  0
  129.0153  132.6101  159.0156 H   0  0  0  0  0  0  0  0  0  0  0  0
  130.2894  133.6588  157.7374 C   0  0  0  0  0  0  0  0  0  0  0  0
  130.6366  134.7805  158.4708 N   0  0  0  0  0  0  0  0  0  0  0  0
  130.1006  134.9673  159.8214 C   0  0  2  0  0  0  0  0  0  0  0  0
  128.7824  135.7403  159.7446 C   0  0  0  0  0  0  0  0  0  0  0  0
  131.1055  135.7551  160.6644 C   0  0  1  0  0  0  0  0  0  0  0  0
  132.4235  134.9820  160.7412 C   0  0  0  0  0  0  0  0  0  0  0  0
  131.3356  137.0306  160.0626 O   0  0  0  0  0  0  0  0  0  0  0  0
  130.5541  135.9474  162.0536 C   0  0  0  0  0  0  0  0  0  0  0  0
  130.2517  134.8479  162.8353 C   0  0  0  0  0  0  0  0  0  0  0  0
  129.7514  135.0237  164.1116 C   0  0  0  0  0  0  0  0  0  0  0  0
  129.5427  136.3001  164.6029 C   0  0  0  0  0  0  0  0  0  0  0  0
  128.9071  136.5215  166.2030 Cl  0  0  0  0  0  0  0  0  0  0  0  0
  129.8402  137.3999  163.8181 C   0  0  0  0  0  0  0  0  0  0  0  0
  130.3458  137.2230  162.5440 C   0  0  0  0  0  0  0  0  0  0  0  0
  130.7028  133.3815  156.5249 N   0  0  0  0  0  0  0  0  0  0  0  0
  131.3020  133.9306  155.9955 H   0  0  0  0  0  0  0  0  0  0  0  0
  130.0213  132.1871  153.6386 C   0  0  0  0  0  0  0  0  0  0  0  0
  130.2253  131.5634  152.4245 C   0  0  0  0  0  0  0  0  0  0  0  0
  128.8968  129.4887  150.6026 H   0  0  0  0  0  0  0  0  0  0  0  0
  129.9125  128.3293  149.7125 H   0  0  0  0  0  0  0  0  0  0  0  0
  129.5618  128.0643  151.4373 H   0  0  0  0  0  0  0  0  0  0  0  0
  131.8562  128.9503  151.1214 H   0  0  0  0  0  0  0  0  0  0  0  0
  131.1910  130.3748  150.2867 H   0  0  0  0  0  0  0  0  0  0  0  0
  131.5550  128.6551  153.5082 H   0  0  0  0  0  0  0  0  0  0  0  0
  131.2081  129.7548  155.6815 H   0  0  0  0  0  0  0  0  0  0  0  0
  128.7983  130.8331  157.1396 H   0  0  0  0  0  0  0  0  0  0  0  0
  131.2347  135.4427  158.0905 H   0  0  0  0  0  0  0  0  0  0  0  0
  129.9250  133.9944  160.2805 H   0  0  0  0  0  0  0  0  0  0  0  0
  128.0665  135.1791  159.1441 H   0  0  0  0  0  0  0  0  0  0  0  0
  128.3837  135.8793  160.7495 H   0  0  0  0  0  0  0  0  0  0  0  0
  128.9580  136.7132  159.2856 H   0  0  0  0  0  0  0  0  0  0  0  0
  132.8224  134.8430  159.7363 H   0  0  0  0  0  0  0  0  0  0  0  0
  133.1394  135.5433  161.3416 H   0  0  0  0  0  0  0  0  0  0  0  0
  132.2480  134.0092  161.2002 H   0  0  0  0  0  0  0  0  0  0  0  0
  131.6914  136.9834  159.1647 H   0  0  0  0  0  0  0  0  0  0  0  0
  130.4106  133.8515  162.4500 H   0  0  0  0  0  0  0  0  0  0  0  0
  129.5193  134.1646  164.7237 H   0  0  0  0  0  0  0  0  0  0  0  0
  129.6772  138.3965  164.2009 H   0  0  0  0  0  0  0  0  0  0  0  0
  130.5785  138.0815  161.9314 H   0  0  0  0  0  0  0  0  0  0  0  0
  129.5883  133.1760  153.6729 H   0  0  0  0  0  0  0  0  0  0  0  0
  129.9524  132.0655  151.5081 H   0  0  0  0  0  0  0  0  0  0  0  0
  1  2  1  0
  1 29  1  0
  1 30  1  0
  1 31  1  0
  2  3  1  0
  2 32  1  0
  2 33  1  0
  3 28  2  0
  3  4  1  0
  4  5  2  0
  4 34  1  0
  5  6  1  0
  5 35  1  0
  6  7  1  0
  6 27  2  0
  7 25  1  0
  7  8  2  0
  8  9  1  0
  8 36  1  0
  9 10  1  0
  9 11  1  0
 11 12  1  0
 11 25  2  0
 12 13  1  0
 12 37  1  0
 13 14  1  0
 13 15  1  0
 13 38  1  1
 14 39  1  0
 14 40  1  0
 14 41  1  0
 15 16  1  0
 15 17  1  6
 15 18  1  0
 16 42  1  0
 16 43  1  0
 16 44  1  0
 17 45  1  0
 18 24  1  0
 18 19  2  0
 19 20  1  0
 19 46  1  0
 20 21  2  0
 20 47  1  0
 21 22  1  0
 21 23  1  0
 23 24  2  0
 23 48  1  0
 24 49  1  0
 25 26  1  0
 27 28  1  0
 27 50  1  0
 28 51  1  0
M  CHG  1  25   1
M  END
>  <DOCK_score>  (1) 
-60.756886

>  <SMILES>  (1) 
CCc1ccc(-c2c[nH]c(NC(C)[C@@](C)(O)c3ccc(Cl)cc3)[nH+]2)cc1

$$$$
