O[C@H](c1ccccc1)[C@H](Nc1[nH]cc(CCNc2nc3ccccc3[nH]2)[nH+]1)c1ccccc1
     RDKit          3D

 60 64  0  0  1  0  0  0  0  0999 V2000
  133.3849  136.6009  160.6591 O   0  0  0  0  0  0  0  0  0  0  0  0
  132.3738  136.1882  161.5809 C   0  0  2  0  0  0  0  0  0  0  0  0
  132.7305  136.3336  162.6004 H   0  0  0  0  0  0  0  0  0  0  0  0
  132.0590  134.7308  161.3619 C   0  0  0  0  0  0  0  0  0  0  0  0
  131.6413  133.9471  162.4213 C   0  0  0  0  0  0  0  0  0  0  0  0
  131.3485  132.6112  162.2194 C   0  0  0  0  0  0  0  0  0  0  0  0
  131.4822  132.0570  160.9601 C   0  0  0  0  0  0  0  0  0  0  0  0
  131.9048  132.8395  159.9019 C   0  0  0  0  0  0  0  0  0  0  0  0
  132.1934  134.1763  160.1027 C   0  0  0  0  0  0  0  0  0  0  0  0
  131.1103  137.0219  161.3588 C   0  0  2  0  0  0  0  0  0  0  0  0
  130.3391  136.7072  162.0618 H   0  0  0  0  0  0  0  0  0  0  0  0
  130.6308  136.8264  159.9883 N   0  0  0  0  0  0  0  0  0  0  0  0
  129.7310  135.8118  159.7075 C   0  0  0  0  0  0  0  0  0  0  0  0
  129.2106  135.5262  158.4835 N   0  0  0  0  0  0  0  0  0  0  0  0
  129.3999  135.9910  157.6534 H   0  0  0  0  0  0  0  0  0  0  0  0
  128.3685  134.4491  158.6452 C   0  0  0  0  0  0  0  0  0  0  0  0
  128.3967  134.1222  159.9483 C   0  0  0  0  0  0  0  0  0  0  0  0
  127.6246  133.0002  160.5933 C   0  0  0  0  0  0  0  0  0  0  0  0
  127.3147  133.3639  162.0468 C   0  0  0  0  0  0  0  0  0  0  0  0
  126.5151  134.5909  162.0832 N   0  0  0  0  0  0  0  0  0  0  0  0
  126.9921  135.7054  162.7407 C   0  0  0  0  0  0  0  0  0  0  0  0
  128.1443  135.7787  163.3589 N   0  0  0  0  0  0  0  0  0  0  0  0
  128.2966  137.0182  163.8951 C   0  0  0  0  0  0  0  0  0  0  0  0
  129.3119  137.6239  164.6392 C   0  0  0  0  0  0  0  0  0  0  0  0
  129.1724  138.9308  165.0497 C   0  0  0  0  0  0  0  0  0  0  0  0
  128.0307  139.6509  164.7299 C   0  0  0  0  0  0  0  0  0  0  0  0
  127.0190  139.0670  163.9958 C   0  0  0  0  0  0  0  0  0  0  0  0
  127.1428  137.7519  163.5742 C   0  0  0  0  0  0  0  0  0  0  0  0
  126.3359  136.8989  162.8389 N   0  0  0  0  0  0  0  0  0  0  0  0
  125.4660  137.1096  162.4653 H   0  0  0  0  0  0  0  0  0  0  0  0
  129.2355  134.9633  160.5768 N   0  0  0  0  0  0  0  0  0  0  0  0
  129.4424  134.9455  161.5243 H   0  0  0  0  0  0  0  0  0  0  0  0
  131.4251  138.4792  161.5777 C   0  0  0  0  0  0  0  0  0  0  0  0
  130.7281  139.4491  160.8817 C   0  0  0  0  0  0  0  0  0  0  0  0
  131.0138  140.7861  161.0858 C   0  0  0  0  0  0  0  0  0  0  0  0
  132.0026  141.1530  161.9788 C   0  0  0  0  0  0  0  0  0  0  0  0
  132.7037  140.1830  162.6712 C   0  0  0  0  0  0  0  0  0  0  0  0
  132.4148  138.8461  162.4703 C   0  0  0  0  0  0  0  0  0  0  0  0
  133.1355  136.4992  159.7303 H   0  0  0  0  0  0  0  0  0  0  0  0
  131.5407  134.3792  163.4058 H   0  0  0  0  0  0  0  0  0  0  0  0
  131.0180  132.0000  163.0462 H   0  0  0  0  0  0  0  0  0  0  0  0
  131.2559  131.0127  160.8029 H   0  0  0  0  0  0  0  0  0  0  0  0
  132.0091  132.4064  158.9179 H   0  0  0  0  0  0  0  0  0  0  0  0
  132.5237  134.7876  159.2760 H   0  0  0  0  0  0  0  0  0  0  0  0
  130.9436  137.4077  159.2776 H   0  0  0  0  0  0  0  0  0  0  0  0
  127.7933  133.9611  157.8723 H   0  0  0  0  0  0  0  0  0  0  0  0
  128.2196  132.0872  160.5662 H   0  0  0  0  0  0  0  0  0  0  0  0
  126.6921  132.8423  160.0514 H   0  0  0  0  0  0  0  0  0  0  0  0
  128.2472  133.5217  162.5886 H   0  0  0  0  0  0  0  0  0  0  0  0
  126.7563  132.5523  162.5132 H   0  0  0  0  0  0  0  0  0  0  0  0
  125.6484  134.6182  161.6486 H   0  0  0  0  0  0  0  0  0  0  0  0
  130.2034  137.0690  164.8920 H   0  0  0  0  0  0  0  0  0  0  0  0
  129.9577  139.3988  165.6246 H   0  0  0  0  0  0  0  0  0  0  0  0
  127.9333  140.6753  165.0575 H   0  0  0  0  0  0  0  0  0  0  0  0
  126.1329  139.6331  163.7498 H   0  0  0  0  0  0  0  0  0  0  0  0
  129.9579  139.1623  160.1810 H   0  0  0  0  0  0  0  0  0  0  0  0
  130.4663  141.5441  160.5452 H   0  0  0  0  0  0  0  0  0  0  0  0
  132.2284  142.1973  162.1364 H   0  0  0  0  0  0  0  0  0  0  0  0
  133.4764  140.4695  163.3691 H   0  0  0  0  0  0  0  0  0  0  0  0
  132.9622  138.0882  163.0111 H   0  0  0  0  0  0  0  0  0  0  0  0
  1  2  1  0
  1 39  1  0
  2  3  1  1
  2  4  1  0
  2 10  1  0
  4  9  1  0
  4  5  2  0
  5  6  1  0
  5 40  1  0
  6  7  2  0
  6 41  1  0
  7  8  1  0
  7 42  1  0
  8  9  2  0
  8 43  1  0
  9 44  1  0
 10 11  1  1
 10 12  1  0
 10 33  1  0
 12 45  1  0
 13 12  1  0
 13 31  2  0
 13 14  1  0
 14 15  1  0
 14 16  1  0
 16 17  2  0
 16 46  1  0
 17 18  1  0
 17 31  1  0
 18 19  1  0
 18 47  1  0
 18 48  1  0
 19 20  1  0
 19 49  1  0
 19 50  1  0
 20 21  1  0
 20 51  1  0
 21 29  1  0
 21 22  2  0
 22 23  1  0
 23 28  2  0
 23 24  1  0
 24 25  2  0
 24 52  1  0
 25 26  1  0
 25 53  1  0
 26 27  2  0
 26 54  1  0
 27 28  1  0
 27 55  1  0
 28 29  1  0
 29 30  1  0
 31 32  1  0
 33 38  1  0
 33 34  2  0
 34 35  1  0
 34 56  1  0
 35 36  2  0
 35 57  1  0
 36 37  1  0
 36 58  1  0
 37 38  2  0
 37 59  1  0
 38 60  1  0
M  CHG  1  31   1
M  END
>  <DOCK_score>  (1) 
-47.51722

>  <SMILES>  (1) 
O[C@H](c1ccccc1)[C@H](Nc1[nH]cc(CCNc2nc3ccccc3[nH]2)[nH+]1)c1ccccc1

$$$$
