Cc1cccnc1-c1ncccc1-c1cccnc1C[C@@H](C)Nc1[nH]cc(-c2ccc(N)cc2)[nH+]1
     RDKit          3D

 63 67  0  0  1  0  0  0  0  0999 V2000
  130.6687  140.1414  159.7682 C   0  0  0  0  0  0  0  0  0  0  0  0
  132.0462  139.5748  159.5387 C   0  0  0  0  0  0  0  0  0  0  0  0
  132.5761  139.5133  158.2610 C   0  0  0  0  0  0  0  0  0  0  0  0
  133.8455  138.9788  158.0955 C   0  0  0  0  0  0  0  0  0  0  0  0
  134.5427  138.5307  159.2034 C   0  0  0  0  0  0  0  0  0  0  0  0
  134.0176  138.6058  160.4088 N   0  0  0  0  0  0  0  0  0  0  0  0
  132.8065  139.1101  160.6099 C   0  0  0  0  0  0  0  0  0  0  0  0
  132.2559  139.1740  161.9844 C   0  0  0  0  0  0  0  0  0  0  0  0
  131.9154  140.3453  162.5044 N   0  0  0  0  0  0  0  0  0  0  0  0
  131.4284  140.4470  163.7237 C   0  0  0  0  0  0  0  0  0  0  0  0
  131.2444  139.3274  164.5173 C   0  0  0  0  0  0  0  0  0  0  0  0
  131.5778  138.0786  164.0218 C   0  0  0  0  0  0  0  0  0  0  0  0
  132.0927  137.9940  162.7262 C   0  0  0  0  0  0  0  0  0  0  0  0
  132.4657  136.6813  162.1470 C   0  0  0  0  0  0  0  0  0  0  0  0
  133.7587  136.1745  162.3097 C   0  0  0  0  0  0  0  0  0  0  0  0
  134.0565  134.9443  161.7498 C   0  0  0  0  0  0  0  0  0  0  0  0
  133.0750  134.2620  161.0539 C   0  0  0  0  0  0  0  0  0  0  0  0
  131.8621  134.7631  160.9214 N   0  0  0  0  0  0  0  0  0  0  0  0
  131.5332  135.9322  161.4316 C   0  0  0  0  0  0  0  0  0  0  0  0
  130.1346  136.4616  161.2453 C   0  0  0  0  0  0  0  0  0  0  0  0
  129.3139  135.4590  160.4315 C   0  0  1  0  0  0  0  0  0  0  0  0
  129.2746  134.5070  160.9609 H   0  0  0  0  0  0  0  0  0  0  0  0
  127.8939  135.9964  160.2426 C   0  0  0  0  0  0  0  0  0  0  0  0
  129.9406  135.2639  159.1218 N   0  0  0  0  0  0  0  0  0  0  0  0
  129.8164  134.0494  158.4689 C   0  0  0  0  0  0  0  0  0  0  0  0
  129.1423  132.9637  158.9363 N   0  0  0  0  0  0  0  0  0  0  0  0
  128.6659  132.9021  159.7790 H   0  0  0  0  0  0  0  0  0  0  0  0
  129.2609  131.9704  157.9933 C   0  0  0  0  0  0  0  0  0  0  0  0
  130.0032  132.4783  156.9786 C   0  0  0  0  0  0  0  0  0  0  0  0
  130.3908  131.7635  155.7377 C   0  0  0  0  0  0  0  0  0  0  0  0
  129.9912  132.2542  154.4956 C   0  0  0  0  0  0  0  0  0  0  0  0
  130.3574  131.5914  153.3433 C   0  0  0  0  0  0  0  0  0  0  0  0
  131.1142  130.4288  153.4198 C   0  0  0  0  0  0  0  0  0  0  0  0
  131.4786  129.7552  152.2514 N   0  0  0  0  0  0  0  0  0  0  0  0
  131.5094  129.9342  154.6578 C   0  0  0  0  0  0  0  0  0  0  0  0
  131.1503  130.5969  155.8124 C   0  0  0  0  0  0  0  0  0  0  0  0
  130.3294  133.7555  157.2990 N   0  0  0  0  0  0  0  0  0  0  0  0
  130.8576  134.3557  156.7498 H   0  0  0  0  0  0  0  0  0  0  0  0
  130.7498  141.1927  160.0442 H   0  0  0  0  0  0  0  0  0  0  0  0
  130.0814  140.0499  158.8545 H   0  0  0  0  0  0  0  0  0  0  0  0
  130.1790  139.5915  160.5717 H   0  0  0  0  0  0  0  0  0  0  0  0
  132.0121  139.8694  157.4116 H   0  0  0  0  0  0  0  0  0  0  0  0
  134.2855  138.9134  157.1115 H   0  0  0  0  0  0  0  0  0  0  0  0
  135.5313  138.1140  159.0780 H   0  0  0  0  0  0  0  0  0  0  0  0
  131.1676  141.4207  164.1112 H   0  0  0  0  0  0  0  0  0  0  0  0
  130.8436  139.4277  165.5152 H   0  0  0  0  0  0  0  0  0  0  0  0
  131.4426  137.1911  164.6223 H   0  0  0  0  0  0  0  0  0  0  0  0
  134.5057  136.7285  162.8584 H   0  0  0  0  0  0  0  0  0  0  0  0
  135.0446  134.5213  161.8557 H   0  0  0  0  0  0  0  0  0  0  0  0
  133.3039  133.3016  160.6161 H   0  0  0  0  0  0  0  0  0  0  0  0
  130.1739  137.4136  160.7159 H   0  0  0  0  0  0  0  0  0  0  0  0
  129.6683  136.6067  162.2198 H   0  0  0  0  0  0  0  0  0  0  0  0
  127.3093  135.2821  159.6628 H   0  0  0  0  0  0  0  0  0  0  0  0
  127.4277  136.1416  161.2171 H   0  0  0  0  0  0  0  0  0  0  0  0
  127.9333  136.9484  159.7132 H   0  0  0  0  0  0  0  0  0  0  0  0
  130.4425  135.9857  158.7120 H   0  0  0  0  0  0  0  0  0  0  0  0
  128.8463  130.9749  158.0514 H   0  0  0  0  0  0  0  0  0  0  0  0
  129.3989  133.1553  154.4357 H   0  0  0  0  0  0  0  0  0  0  0  0
  130.0514  131.9734  152.3806 H   0  0  0  0  0  0  0  0  0  0  0  0
  132.0073  128.9432  152.3046 H   0  0  0  0  0  0  0  0  0  0  0  0
  131.2035  130.0989  151.3876 H   0  0  0  0  0  0  0  0  0  0  0  0
  132.0978  129.0303  154.7151 H   0  0  0  0  0  0  0  0  0  0  0  0
  131.4574  130.2127  156.7738 H   0  0  0  0  0  0  0  0  0  0  0  0
  1  2  1  0
  1 39  1  0
  1 40  1  0
  1 41  1  0
  2  7  2  0
  2  3  1  0
  3  4  2  0
  3 42  1  0
  4  5  1  0
  4 43  1  0
  5  6  2  0
  5 44  1  0
  6  7  1  0
  7  8  1  0
  8 13  1  0
  8  9  2  0
  9 10  1  0
 10 11  2  0
 10 45  1  0
 11 12  1  0
 11 46  1  0
 12 13  2  0
 12 47  1  0
 13 14  1  0
 14 19  1  0
 14 15  2  0
 15 16  1  0
 15 48  1  0
 16 17  2  0
 16 49  1  0
 17 18  1  0
 17 50  1  0
 18 19  2  0
 19 20  1  0
 20 21  1  0
 20 51  1  0
 20 52  1  0
 21 22  1  1
 21 23  1  0
 21 24  1  0
 23 53  1  0
 23 54  1  0
 23 55  1  0
 24 56  1  0
 25 24  1  0
 25 37  2  0
 25 26  1  0
 26 27  1  0
 26 28  1  0
 28 29  2  0
 28 57  1  0
 29 30  1  0
 29 37  1  0
 30 36  1  0
 30 31  2  0
 31 32  1  0
 31 58  1  0
 32 33  2  0
 32 59  1  0
 33 34  1  0
 33 35  1  0
 34 60  1  0
 34 61  1  0
 35 36  2  0
 35 62  1  0
 36 63  1  0
 37 38  1  0
M  CHG  1  37   1
M  END
>  <DOCK_score>  (1) 
-62.978645

>  <SMILES>  (1) 
Cc1cccnc1-c1ncccc1-c1cccnc1C[C@@H](C)Nc1[nH]cc(-c2ccc(N)cc2)[nH+]1

$$$$
