Clc1ccc(C2=CC[C@@H](Nc3ccc(Nc4[nH]c5ccccc5[nH+]4)cc3)CC2)cc1
     RDKit          3D

 54 58  0  0  1  0  0  0  0  0999 V2000
  130.9552  138.3832  171.3919 Cl  0  0  0  0  0  0  0  0  0  0  0  0
  130.1686  138.1300  169.8654 C   0  0  0  0  0  0  0  0  0  0  0  0
  130.0616  139.1746  168.9629 C   0  0  0  0  0  0  0  0  0  0  0  0
  129.4377  138.9792  167.7482 C   0  0  0  0  0  0  0  0  0  0  0  0
  128.9136  137.7258  167.4299 C   0  0  0  0  0  0  0  0  0  0  0  0
  128.2439  137.5101  166.1299 C   0  0  0  0  0  0  0  0  0  0  0  0
  128.7418  136.6058  165.3218 C   0  0  0  0  0  0  0  0  0  0  0  0
  128.1611  136.2749  163.9780 C   0  0  0  0  0  0  0  0  0  0  0  0
  127.2193  137.3911  163.5217 C   0  0  1  0  0  0  0  0  0  0  0  0
  127.7985  138.2811  163.2756 H   0  0  0  0  0  0  0  0  0  0  0  0
  126.4688  136.9508  162.3430 N   0  0  0  0  0  0  0  0  0  0  0  0
  127.1490  136.5880  161.1751 C   0  0  0  0  0  0  0  0  0  0  0  0
  128.3667  137.1815  160.8685 C   0  0  0  0  0  0  0  0  0  0  0  0
  129.0386  136.8230  159.7167 C   0  0  0  0  0  0  0  0  0  0  0  0
  128.4975  135.8683  158.8658 C   0  0  0  0  0  0  0  0  0  0  0  0
  129.1796  135.5043  157.6973 N   0  0  0  0  0  0  0  0  0  0  0  0
  129.5725  134.1993  157.5082 C   0  0  0  0  0  0  0  0  0  0  0  0
  129.3664  133.2080  158.3726 N   0  0  0  0  0  0  0  0  0  0  0  0
  128.9185  133.2866  159.2294 H   0  0  0  0  0  0  0  0  0  0  0  0
  129.8930  132.0579  157.8468 C   0  0  0  0  0  0  0  0  0  0  0  0
  129.9703  130.7419  158.2936 C   0  0  0  0  0  0  0  0  0  0  0  0
  130.5764  129.7861  157.5075 C   0  0  0  0  0  0  0  0  0  0  0  0
  131.1159  130.1270  156.2758 C   0  0  0  0  0  0  0  0  0  0  0  0
  131.0527  131.4262  155.8206 C   0  0  0  0  0  0  0  0  0  0  0  0
  130.4436  132.4040  156.6018 C   0  0  0  0  0  0  0  0  0  0  0  0
  130.2239  133.7463  156.4389 N   0  0  0  0  0  0  0  0  0  0  0  0
  130.4897  134.2753  155.6705 H   0  0  0  0  0  0  0  0  0  0  0  0
  127.2777  135.2787  159.1699 C   0  0  0  0  0  0  0  0  0  0  0  0
  126.6082  135.6334  160.3242 C   0  0  0  0  0  0  0  0  0  0  0  0
  126.2461  137.7043  164.6650 C   0  0  0  0  0  0  0  0  0  0  0  0
  127.0339  138.3396  165.8125 C   0  0  0  0  0  0  0  0  0  0  0  0
  129.0192  136.6783  168.3456 C   0  0  0  0  0  0  0  0  0  0  0  0
  129.6501  136.8840  169.5551 C   0  0  0  0  0  0  0  0  0  0  0  0
  130.4673  140.1444  169.2106 H   0  0  0  0  0  0  0  0  0  0  0  0
  129.3545  139.7949  167.0453 H   0  0  0  0  0  0  0  0  0  0  0  0
  129.6215  136.0672  165.6420 H   0  0  0  0  0  0  0  0  0  0  0  0
  127.6064  135.3389  164.0447 H   0  0  0  0  0  0  0  0  0  0  0  0
  128.9689  136.1652  163.2545 H   0  0  0  0  0  0  0  0  0  0  0  0
  125.5001  136.9111  162.3719 H   0  0  0  0  0  0  0  0  0  0  0  0
  128.7877  137.9239  161.5303 H   0  0  0  0  0  0  0  0  0  0  0  0
  129.9853  137.2847  159.4779 H   0  0  0  0  0  0  0  0  0  0  0  0
  129.3748  136.1724  157.0216 H   0  0  0  0  0  0  0  0  0  0  0  0
  129.5525  130.4698  159.2517 H   0  0  0  0  0  0  0  0  0  0  0  0
  130.6320  128.7643  157.8528 H   0  0  0  0  0  0  0  0  0  0  0  0
  131.5885  129.3688  155.6691 H   0  0  0  0  0  0  0  0  0  0  0  0
  131.4740  131.6847  154.8604 H   0  0  0  0  0  0  0  0  0  0  0  0
  126.8545  134.5398  158.5056 H   0  0  0  0  0  0  0  0  0  0  0  0
  125.6614  135.1718  160.5629 H   0  0  0  0  0  0  0  0  0  0  0  0
  125.4827  138.3996  164.3158 H   0  0  0  0  0  0  0  0  0  0  0  0
  125.7766  136.7828  165.0090 H   0  0  0  0  0  0  0  0  0  0  0  0
  126.3978  138.4033  166.6954 H   0  0  0  0  0  0  0  0  0  0  0  0
  127.3491  139.3416  165.5212 H   0  0  0  0  0  0  0  0  0  0  0  0
  128.6115  135.7072  168.1064 H   0  0  0  0  0  0  0  0  0  0  0  0
  129.7360  136.0730  170.2630 H   0  0  0  0  0  0  0  0  0  0  0  0
  1  2  1  0
  2 33  2  0
  2  3  1  0
  3  4  2  0
  3 34  1  0
  4  5  1  0
  4 35  1  0
  5  6  1  0
  5 32  2  0
  6 31  1  0
  6  7  2  0
  7  8  1  0
  7 36  1  0
  8  9  1  0
  8 37  1  0
  8 38  1  0
  9 10  1  6
  9 11  1  0
  9 30  1  0
 11 12  1  0
 11 39  1  0
 12 29  1  0
 12 13  2  0
 13 14  1  0
 13 40  1  0
 14 15  2  0
 14 41  1  0
 15 16  1  0
 15 28  1  0
 16 17  1  0
 16 42  1  0
 17 26  1  0
 17 18  2  0
 18 19  1  0
 18 20  1  0
 20 25  2  0
 20 21  1  0
 21 22  2  0
 21 43  1  0
 22 23  1  0
 22 44  1  0
 23 24  2  0
 23 45  1  0
 24 25  1  0
 24 46  1  0
 25 26  1  0
 26 27  1  0
 28 29  2  0
 28 47  1  0
 29 48  1  0
 30 31  1  0
 30 49  1  0
 30 50  1  0
 31 51  1  0
 31 52  1  0
 32 33  1  0
 32 53  1  0
 33 54  1  0
M  CHG  1  18   1
M  END
>  <DOCK_score>  (1) 
-46.12402

>  <SMILES>  (1) 
Clc1ccc(C2=CC[C@@H](Nc3ccc(Nc4[nH]c5ccccc5[nH+]4)cc3)CC2)cc1

$$$$
