Cn1nccc1[C@@H](Nc1[nH]cc(-c2ccc(N)cc2)[nH+]1)C1Cc2ccc(N)cc2C1
     RDKit          3D

 56 60  0  0  1  0  0  0  0  0999 V2000
  127.8871  135.9166  158.0560 C   0  0  0  0  0  0  0  0  0  0  0  0
  127.6428  135.4831  159.4340 N   0  0  0  0  0  0  0  0  0  0  0  0
  126.3986  135.1506  159.9849 N   0  0  0  0  0  0  0  0  0  0  0  0
  126.5828  134.8105  161.2350 C   0  0  0  0  0  0  0  0  0  0  0  0
  127.9470  134.9244  161.5220 C   0  0  0  0  0  0  0  0  0  0  0  0
  128.5758  135.3393  160.3982 C   0  0  0  0  0  0  0  0  0  0  0  0
  130.0536  135.5948  160.2497 C   0  0  1  0  0  0  0  0  0  0  0  0
  130.6052  134.9399  160.9242 H   0  0  0  0  0  0  0  0  0  0  0  0
  130.4592  135.3262  158.8678 N   0  0  0  0  0  0  0  0  0  0  0  0
  130.2820  134.0639  158.3275 C   0  0  0  0  0  0  0  0  0  0  0  0
  129.7400  132.9950  158.9716 N   0  0  0  0  0  0  0  0  0  0  0  0
  129.4115  132.9800  159.8842 H   0  0  0  0  0  0  0  0  0  0  0  0
  129.7442  131.9399  158.0902 C   0  0  0  0  0  0  0  0  0  0  0  0
  130.2883  132.3952  156.9347 C   0  0  0  0  0  0  0  0  0  0  0  0
  130.4960  131.6047  155.6967 C   0  0  0  0  0  0  0  0  0  0  0  0
  129.8781  131.9926  154.5088 C   0  0  0  0  0  0  0  0  0  0  0  0
  130.0771  131.2596  153.3579 C   0  0  0  0  0  0  0  0  0  0  0  0
  130.8839  130.1282  153.3843 C   0  0  0  0  0  0  0  0  0  0  0  0
  131.0799  129.3835  152.2188 N   0  0  0  0  0  0  0  0  0  0  0  0
  131.4965  129.7363  154.5687 C   0  0  0  0  0  0  0  0  0  0  0  0
  131.3048  130.4696  155.7206 C   0  0  0  0  0  0  0  0  0  0  0  0
  130.6037  133.7031  157.1090 N   0  0  0  0  0  0  0  0  0  0  0  0
  131.0051  134.2789  156.4395 H   0  0  0  0  0  0  0  0  0  0  0  0
  130.3560  137.0544  160.5954 C   0  0  1  0  0  0  0  0  0  0  0  0
  130.1044  137.3268  162.0936 C   0  0  0  0  0  0  0  0  0  0  0  0
  131.1677  138.3254  162.4988 C   0  0  0  0  0  0  0  0  0  0  0  0
  131.2423  139.1555  163.6059 C   0  0  0  0  0  0  0  0  0  0  0  0
  132.3221  139.9976  163.7734 C   0  0  0  0  0  0  0  0  0  0  0  0
  133.3400  140.0137  162.8280 C   0  0  0  0  0  0  0  0  0  0  0  0
  134.4355  140.8644  162.9920 N   0  0  0  0  0  0  0  0  0  0  0  0
  133.2642  139.1819  161.7197 C   0  0  0  0  0  0  0  0  0  0  0  0
  132.1791  138.3389  161.5559 C   0  0  0  0  0  0  0  0  0  0  0  0
  131.8640  137.3507  160.4533 C   0  0  0  0  0  0  0  0  0  0  0  0
  128.0890  135.0461  157.4316 H   0  0  0  0  0  0  0  0  0  0  0  0
  127.0080  136.4387  157.6781 H   0  0  0  0  0  0  0  0  0  0  0  0
  128.7459  136.5874  158.0329 H   0  0  0  0  0  0  0  0  0  0  0  0
  125.8138  134.4998  161.9265 H   0  0  0  0  0  0  0  0  0  0  0  0
  128.4155  134.7175  162.4729 H   0  0  0  0  0  0  0  0  0  0  0  0
  130.8519  136.0326  158.3316 H   0  0  0  0  0  0  0  0  0  0  0  0
  129.3833  130.9401  158.2814 H   0  0  0  0  0  0  0  0  0  0  0  0
  129.2471  132.8690  154.4890 H   0  0  0  0  0  0  0  0  0  0  0  0
  129.6024  131.5625  152.4363 H   0  0  0  0  0  0  0  0  0  0  0  0
  131.6431  128.5947  152.2358 H   0  0  0  0  0  0  0  0  0  0  0  0
  130.6528  129.6570  151.3912 H   0  0  0  0  0  0  0  0  0  0  0  0
  132.1228  128.8566  154.5869 H   0  0  0  0  0  0  0  0  0  0  0  0
  131.7813  130.1649  156.6407 H   0  0  0  0  0  0  0  0  0  0  0  0
  129.7655  137.7282  159.9745 H   0  0  0  0  0  0  0  0  0  0  0  0
  129.1112  137.7519  162.2390 H   0  0  0  0  0  0  0  0  0  0  0  0
  130.2107  136.4069  162.6684 H   0  0  0  0  0  0  0  0  0  0  0  0
  130.4509  139.1437  164.3409 H   0  0  0  0  0  0  0  0  0  0  0  0
  132.3759  140.6432  164.6375 H   0  0  0  0  0  0  0  0  0  0  0  0
  134.4866  141.4454  163.7672 H   0  0  0  0  0  0  0  0  0  0  0  0
  135.1452  140.8742  162.3309 H   0  0  0  0  0  0  0  0  0  0  0  0
  134.0542  139.1923  160.9833 H   0  0  0  0  0  0  0  0  0  0  0  0
  132.4432  136.4371  160.5875 H   0  0  0  0  0  0  0  0  0  0  0  0
  132.0726  137.7921  159.4789 H   0  0  0  0  0  0  0  0  0  0  0  0
  1  2  1  0
  1 34  1  0
  1 35  1  0
  1 36  1  0
  2  6  1  0
  2  3  1  0
  3  4  2  0
  4  5  1  0
  4 37  1  0
  5  6  2  0
  5 38  1  0
  6  7  1  0
  7  8  1  1
  7  9  1  0
  7 24  1  0
  9 39  1  0
 10  9  1  0
 10 22  2  0
 10 11  1  0
 11 12  1  0
 11 13  1  0
 13 14  2  0
 13 40  1  0
 14 15  1  0
 14 22  1  0
 15 21  1  0
 15 16  2  0
 16 17  1  0
 16 41  1  0
 17 18  2  0
 17 42  1  0
 18 19  1  0
 18 20  1  0
 19 43  1  0
 19 44  1  0
 20 21  2  0
 20 45  1  0
 21 46  1  0
 22 23  1  0
 24 33  1  0
 24 25  1  0
 24 47  1  6
 25 26  1  0
 25 48  1  0
 25 49  1  0
 26 32  2  0
 26 27  1  0
 27 28  2  0
 27 50  1  0
 28 29  1  0
 28 51  1  0
 29 30  1  0
 29 31  2  0
 30 52  1  0
 30 53  1  0
 31 32  1  0
 31 54  1  0
 32 33  1  0
 33 55  1  0
 33 56  1  0
M  CHG  1  22   1
M  END
>  <DOCK_score>  (1) 
-56.741508

>  <SMILES>  (1) 
Cn1nccc1[C@@H](Nc1[nH]cc(-c2ccc(N)cc2)[nH+]1)C1Cc2ccc(N)cc2C1

$$$$
