Cc1nn(-c2ccccc2)cc1C[NH2+][C@H]1CCC=C1c1ccc(-c2ccccc2)cc1
     RDKit          3D

 59 63  0  0  1  0  0  0  0  0999 V2000
  125.8667  134.3642  159.2226 C   0  0  0  0  0  0  0  0  0  0  0  0
  126.7028  135.4265  159.8885 C   0  0  0  0  0  0  0  0  0  0  0  0
  126.4297  136.0181  161.0235 N   0  0  0  0  0  0  0  0  0  0  0  0
  127.4500  136.9391  161.2941 N   0  0  0  0  0  0  0  0  0  0  0  0
  127.5304  137.7752  162.4164 C   0  0  0  0  0  0  0  0  0  0  0  0
  128.6057  138.6414  162.5629 C   0  0  0  0  0  0  0  0  0  0  0  0
  128.6799  139.4671  163.6676 C   0  0  0  0  0  0  0  0  0  0  0  0
  127.6899  139.4245  164.6322 C   0  0  0  0  0  0  0  0  0  0  0  0
  126.6203  138.5595  164.4913 C   0  0  0  0  0  0  0  0  0  0  0  0
  126.5381  137.7348  163.3865 C   0  0  0  0  0  0  0  0  0  0  0  0
  128.3464  136.8747  160.2837 C   0  0  0  0  0  0  0  0  0  0  0  0
  127.9045  135.9506  159.3995 C   0  0  0  0  0  0  0  0  0  0  0  0
  128.5891  135.5515  158.1176 C   0  0  0  0  0  0  0  0  0  0  0  0
  130.0258  135.3716  158.3652 N   0  0  0  0  0  0  0  0  0  0  0  0
  130.4202  136.2372  158.7018 H   0  0  0  0  0  0  0  0  0  0  0  0
  130.4842  135.1044  157.5070 H   0  0  0  0  0  0  0  0  0  0  0  0
  130.2212  134.3202  159.3725 C   0  0  1  0  0  0  0  0  0  0  0  0
  129.4712  134.4033  160.1591 H   0  0  0  0  0  0  0  0  0  0  0  0
  130.1597  132.9232  158.7094 C   0  0  0  0  0  0  0  0  0  0  0  0
  131.2166  132.1455  159.5267 C   0  0  0  0  0  0  0  0  0  0  0  0
  132.1587  133.2057  160.0481 C   0  0  0  0  0  0  0  0  0  0  0  0
  131.6109  134.4061  159.9597 C   0  0  0  0  0  0  0  0  0  0  0  0
  132.2663  135.6602  160.3834 C   0  0  0  0  0  0  0  0  0  0  0  0
  133.4654  136.0576  159.7881 C   0  0  0  0  0  0  0  0  0  0  0  0
  134.0753  137.2271  160.1834 C   0  0  0  0  0  0  0  0  0  0  0  0
  133.4957  138.0149  161.1777 C   0  0  0  0  0  0  0  0  0  0  0  0
  134.1531  139.2745  161.6023 C   0  0  0  0  0  0  0  0  0  0  0  0
  134.0038  139.7356  162.9094 C   0  0  0  0  0  0  0  0  0  0  0  0
  134.6176  140.9086  163.2988 C   0  0  0  0  0  0  0  0  0  0  0  0
  135.3755  141.6294  162.3935 C   0  0  0  0  0  0  0  0  0  0  0  0
  135.5316  141.1740  161.0966 C   0  0  0  0  0  0  0  0  0  0  0  0
  134.9224  140.0022  160.6959 C   0  0  0  0  0  0  0  0  0  0  0  0
  132.3011  137.6160  161.7769 C   0  0  0  0  0  0  0  0  0  0  0  0
  131.6869  136.4494  161.3792 C   0  0  0  0  0  0  0  0  0  0  0  0
  126.1875  133.3809  159.5664 H   0  0  0  0  0  0  0  0  0  0  0  0
  124.8177  134.5141  159.4782 H   0  0  0  0  0  0  0  0  0  0  0  0
  125.9902  134.4293  158.1416 H   0  0  0  0  0  0  0  0  0  0  0  0
  129.3813  138.6718  161.8121 H   0  0  0  0  0  0  0  0  0  0  0  0
  129.5142  140.1435  163.7805 H   0  0  0  0  0  0  0  0  0  0  0  0
  127.7524  140.0679  165.4972 H   0  0  0  0  0  0  0  0  0  0  0  0
  125.8486  138.5285  165.2463 H   0  0  0  0  0  0  0  0  0  0  0  0
  125.7025  137.0594  163.2772 H   0  0  0  0  0  0  0  0  0  0  0  0
  129.2514  137.4578  160.1969 H   0  0  0  0  0  0  0  0  0  0  0  0
  128.4441  136.3317  157.3703 H   0  0  0  0  0  0  0  0  0  0  0  0
  128.1631  134.6165  157.7540 H   0  0  0  0  0  0  0  0  0  0  0  0
  130.4393  132.9733  157.6571 H   0  0  0  0  0  0  0  0  0  0  0  0
  129.1708  132.4802  158.8279 H   0  0  0  0  0  0  0  0  0  0  0  0
  131.7514  131.4446  158.8858 H   0  0  0  0  0  0  0  0  0  0  0  0
  130.7445  131.6170  160.3550 H   0  0  0  0  0  0  0  0  0  0  0  0
  133.1458  133.0095  160.4402 H   0  0  0  0  0  0  0  0  0  0  0  0
  133.9144  135.4477  159.0181 H   0  0  0  0  0  0  0  0  0  0  0  0
  135.0027  137.5345  159.7231 H   0  0  0  0  0  0  0  0  0  0  0  0
  133.4091  139.1756  163.6160 H   0  0  0  0  0  0  0  0  0  0  0  0
  134.5021  141.2670  164.3111 H   0  0  0  0  0  0  0  0  0  0  0  0
  135.8507  142.5490  162.7016 H   0  0  0  0  0  0  0  0  0  0  0  0
  136.1275  141.7388  160.3952 H   0  0  0  0  0  0  0  0  0  0  0  0
  135.0418  139.6495  159.6820 H   0  0  0  0  0  0  0  0  0  0  0  0
  131.8554  138.2242  162.5500 H   0  0  0  0  0  0  0  0  0  0  0  0
  130.7595  136.1429  161.8402 H   0  0  0  0  0  0  0  0  0  0  0  0
  1  2  1  0
  1 35  1  0
  1 36  1  0
  1 37  1  0
  2 12  1  0
  2  3  2  0
  3  4  1  0
  4  5  1  0
  4 11  1  0
  5 10  1  0
  5  6  2  0
  6  7  1  0
  6 38  1  0
  7  8  2  0
  7 39  1  0
  8  9  1  0
  8 40  1  0
  9 10  2  0
  9 41  1  0
 10 42  1  0
 11 12  2  0
 11 43  1  0
 12 13  1  0
 13 14  1  0
 13 44  1  0
 13 45  1  0
 14 15  1  0
 14 16  1  0
 14 17  1  0
 17 18  1  1
 17 22  1  0
 17 19  1  0
 19 20  1  0
 19 46  1  0
 19 47  1  0
 20 21  1  0
 20 48  1  0
 20 49  1  0
 21 22  2  0
 21 50  1  0
 22 23  1  0
 23 34  1  0
 23 24  2  0
 24 25  1  0
 24 51  1  0
 25 26  2  0
 25 52  1  0
 26 27  1  0
 26 33  1  0
 27 32  1  0
 27 28  2  0
 28 29  1  0
 28 53  1  0
 29 30  2  0
 29 54  1  0
 30 31  1  0
 30 55  1  0
 31 32  2  0
 31 56  1  0
 32 57  1  0
 33 34  2  0
 33 58  1  0
 34 59  1  0
M  CHG  1  14   1
M  END
>  <DOCK_score>  (1) 
-45.158283

>  <SMILES>  (1) 
Cc1nn(-c2ccccc2)cc1C[NH2+][C@H]1CCC=C1c1ccc(-c2ccccc2)cc1

$$$$
