C[C@@H](Nc1[nH]cc(-c2ccc(N)cc2)[nH+]1)c1cnn(-c2ccccc2)c1
     RDKit          3D

 47 50  0  0  1  0  0  0  0  0999 V2000
  127.5989  136.0118  158.6310 C   0  0  0  0  0  0  0  0  0  0  0  0
  128.9453  135.9621  159.3559 C   0  0  1  0  0  0  0  0  0  0  0  0
  128.8680  135.3039  160.2212 H   0  0  0  0  0  0  0  0  0  0  0  0
  129.9722  135.4517  158.4440 N   0  0  0  0  0  0  0  0  0  0  0  0
  129.8422  134.1884  157.8927 C   0  0  0  0  0  0  0  0  0  0  0  0
  129.2097  133.1321  158.4721 N   0  0  0  0  0  0  0  0  0  0  0  0
  128.7729  133.1284  159.3380 H   0  0  0  0  0  0  0  0  0  0  0  0
  129.3048  132.0708  157.6033 C   0  0  0  0  0  0  0  0  0  0  0  0
  129.9920  132.5099  156.5199 C   0  0  0  0  0  0  0  0  0  0  0  0
  130.3376  131.7072  155.3211 C   0  0  0  0  0  0  0  0  0  0  0  0
  129.8743  132.0941  154.0646 C   0  0  0  0  0  0  0  0  0  0  0  0
  130.2012  131.3495  152.9510 C   0  0  0  0  0  0  0  0  0  0  0  0
  130.9821  130.2077  153.0819 C   0  0  0  0  0  0  0  0  0  0  0  0
  131.3070  129.4518  151.9530 N   0  0  0  0  0  0  0  0  0  0  0  0
  131.4407  129.8166  154.3347 C   0  0  0  0  0  0  0  0  0  0  0  0
  131.1212  130.5615  155.4502 C   0  0  0  0  0  0  0  0  0  0  0  0
  130.3034  133.8143  156.7241 N   0  0  0  0  0  0  0  0  0  0  0  0
  130.7915  134.3795  156.1050 H   0  0  0  0  0  0  0  0  0  0  0  0
  129.3221  137.3484  159.8113 C   0  0  0  0  0  0  0  0  0  0  0  0
  130.0628  138.2825  159.0786 C   0  0  0  0  0  0  0  0  0  0  0  0
  130.1812  139.3680  159.8002 N   0  0  0  0  0  0  0  0  0  0  0  0
  129.5265  139.1565  161.0204 N   0  0  0  0  0  0  0  0  0  0  0  0
  129.4252  140.0771  162.0728 C   0  0  0  0  0  0  0  0  0  0  0  0
  128.7438  139.7349  163.2330 C   0  0  0  0  0  0  0  0  0  0  0  0
  128.6460  140.6439  164.2684 C   0  0  0  0  0  0  0  0  0  0  0  0
  129.2264  141.8934  164.1503 C   0  0  0  0  0  0  0  0  0  0  0  0
  129.9057  142.2371  162.9960 C   0  0  0  0  0  0  0  0  0  0  0  0
  130.0064  141.3326  161.9570 C   0  0  0  0  0  0  0  0  0  0  0  0
  129.0043  137.9093  161.0010 C   0  0  0  0  0  0  0  0  0  0  0  0
  126.8349  136.3917  159.3092 H   0  0  0  0  0  0  0  0  0  0  0  0
  127.6762  136.6701  157.7657 H   0  0  0  0  0  0  0  0  0  0  0  0
  127.3262  135.0091  158.3015 H   0  0  0  0  0  0  0  0  0  0  0  0
  130.7431  135.9989  158.2267 H   0  0  0  0  0  0  0  0  0  0  0  0
  128.9083  131.0778  157.7546 H   0  0  0  0  0  0  0  0  0  0  0  0
  129.2634  132.9789  153.9628 H   0  0  0  0  0  0  0  0  0  0  0  0
  129.8462  131.6514  151.9768 H   0  0  0  0  0  0  0  0  0  0  0  0
  131.8526  128.6542  152.0443 H   0  0  0  0  0  0  0  0  0  0  0  0
  130.9877  129.7232  151.0790 H   0  0  0  0  0  0  0  0  0  0  0  0
  132.0475  128.9287  154.4344 H   0  0  0  0  0  0  0  0  0  0  0  0
  131.4780  130.2577  156.4234 H   0  0  0  0  0  0  0  0  0  0  0  0
  130.4634  138.1350  158.0867 H   0  0  0  0  0  0  0  0  0  0  0  0
  128.2909  138.7589  163.3260 H   0  0  0  0  0  0  0  0  0  0  0  0
  128.1161  140.3783  165.1712 H   0  0  0  0  0  0  0  0  0  0  0  0
  129.1452  142.6039  164.9596 H   0  0  0  0  0  0  0  0  0  0  0  0
  130.3581  143.2137  162.9067 H   0  0  0  0  0  0  0  0  0  0  0  0
  130.5374  141.6015  161.0558 H   0  0  0  0  0  0  0  0  0  0  0  0
  128.4354  137.4445  161.7925 H   0  0  0  0  0  0  0  0  0  0  0  0
  1  2  1  0
  1 30  1  0
  1 31  1  0
  1 32  1  0
  2  3  1  1
  2  4  1  0
  2 19  1  0
  4 33  1  0
  5  4  1  0
  5 17  2  0
  5  6  1  0
  6  7  1  0
  6  8  1  0
  8  9  2  0
  8 34  1  0
  9 10  1  0
  9 17  1  0
 10 16  1  0
 10 11  2  0
 11 12  1  0
 11 35  1  0
 12 13  2  0
 12 36  1  0
 13 14  1  0
 13 15  1  0
 14 37  1  0
 14 38  1  0
 15 16  2  0
 15 39  1  0
 16 40  1  0
 17 18  1  0
 19 29  2  0
 19 20  1  0
 20 21  2  0
 20 41  1  0
 21 22  1  0
 22 23  1  0
 22 29  1  0
 23 28  1  0
 23 24  2  0
 24 25  1  0
 24 42  1  0
 25 26  2  0
 25 43  1  0
 26 27  1  0
 26 44  1  0
 27 28  2  0
 27 45  1  0
 28 46  1  0
 29 47  1  0
M  CHG  1  17   1
M  END
>  <DOCK_score>  (1) 
-56.965527

>  <SMILES>  (1) 
C[C@@H](Nc1[nH]cc(-c2ccc(N)cc2)[nH+]1)c1cnn(-c2ccccc2)c1

$$$$
