Nc1ccc(-c2c[nH]c(Nc3ccc(N)c(C(F)F)c3)[nH+]2)cc1
     RDKit          3D

 39 41  0  0  1  0  0  0  0  0999 V2000
  131.2013  129.3026  152.0096 N   0  0  0  0  0  0  0  0  0  0  0  0
  130.9551  130.0411  153.1696 C   0  0  0  0  0  0  0  0  0  0  0  0
  130.0758  131.1168  153.1338 C   0  0  0  0  0  0  0  0  0  0  0  0
  129.8314  131.8472  154.2775 C   0  0  0  0  0  0  0  0  0  0  0  0
  130.4670  131.5059  155.4704 C   0  0  0  0  0  0  0  0  0  0  0  0
  130.2056  132.2902  156.7022 C   0  0  0  0  0  0  0  0  0  0  0  0
  129.6852  131.8098  157.8587 C   0  0  0  0  0  0  0  0  0  0  0  0
  129.6129  132.8678  158.7332 N   0  0  0  0  0  0  0  0  0  0  0  0
  129.2821  132.8384  159.6445 H   0  0  0  0  0  0  0  0  0  0  0  0
  130.0919  133.9640  158.0841 C   0  0  0  0  0  0  0  0  0  0  0  0
  130.1902  135.2384  158.6173 N   0  0  0  0  0  0  0  0  0  0  0  0
  129.2797  135.6611  159.5941 C   0  0  0  0  0  0  0  0  0  0  0  0
  127.9210  135.6972  159.3078 C   0  0  0  0  0  0  0  0  0  0  0  0
  127.0235  136.1136  160.2706 C   0  0  0  0  0  0  0  0  0  0  0  0
  127.4787  136.4910  161.5273 C   0  0  0  0  0  0  0  0  0  0  0  0
  126.5683  136.9077  162.5053 N   0  0  0  0  0  0  0  0  0  0  0  0
  128.8375  136.4608  161.8116 C   0  0  0  0  0  0  0  0  0  0  0  0
  129.3320  136.8767  163.1731 C   0  0  0  0  0  0  0  0  0  0  0  0
  130.6174  137.4168  163.0573 F   0  0  0  0  0  0  0  0  0  0  0  0
  129.3691  135.7612  164.0166 F   0  0  0  0  0  0  0  0  0  0  0  0
  129.7353  136.0443  160.8485 C   0  0  0  0  0  0  0  0  0  0  0  0
  130.4397  133.6157  156.8690 N   0  0  0  0  0  0  0  0  0  0  0  0
  130.8081  134.2105  156.1971 H   0  0  0  0  0  0  0  0  0  0  0  0
  131.3530  130.4301  155.5026 C   0  0  0  0  0  0  0  0  0  0  0  0
  131.5896  129.6986  154.3578 C   0  0  0  0  0  0  0  0  0  0  0  0
  130.7586  129.5406  151.1800 H   0  0  0  0  0  0  0  0  0  0  0  0
  131.8148  128.5517  152.0339 H   0  0  0  0  0  0  0  0  0  0  0  0
  129.5839  131.3811  152.2094 H   0  0  0  0  0  0  0  0  0  0  0  0
  129.1478  132.6828  154.2494 H   0  0  0  0  0  0  0  0  0  0  0  0
  129.3851  130.7911  158.0550 H   0  0  0  0  0  0  0  0  0  0  0  0
  130.8895  135.8384  158.3143 H   0  0  0  0  0  0  0  0  0  0  0  0
  127.5666  135.3991  158.3320 H   0  0  0  0  0  0  0  0  0  0  0  0
  125.9671  136.1413  160.0479 H   0  0  0  0  0  0  0  0  0  0  0  0
  126.8866  137.1754  163.3817 H   0  0  0  0  0  0  0  0  0  0  0  0
  125.6191  136.9289  162.3067 H   0  0  0  0  0  0  0  0  0  0  0  0
  128.6594  137.6259  163.5907 H   0  0  0  0  0  0  0  0  0  0  0  0
  130.7918  136.0168  161.0709 H   0  0  0  0  0  0  0  0  0  0  0  0
  131.8501  130.1670  156.4245 H   0  0  0  0  0  0  0  0  0  0  0  0
  132.2722  128.8622  154.3835 H   0  0  0  0  0  0  0  0  0  0  0  0
  1  2  1  0
  1 26  1  0
  1 27  1  0
  2 25  2  0
  2  3  1  0
  3  4  2  0
  3 28  1  0
  4  5  1  0
  4 29  1  0
  5  6  1  0
  5 24  2  0
  6 22  1  0
  6  7  2  0
  7  8  1  0
  7 30  1  0
  8  9  1  0
  8 10  1  0
 10 11  1  0
 10 22  2  0
 11 12  1  0
 11 31  1  0
 12 21  1  0
 12 13  2  0
 13 14  1  0
 13 32  1  0
 14 15  2  0
 14 33  1  0
 15 16  1  0
 15 17  1  0
 16 34  1  0
 16 35  1  0
 17 18  1  0
 17 21  2  0
 18 19  1  0
 18 20  1  0
 18 36  1  0
 21 37  1  0
 22 23  1  0
 24 25  1  0
 24 38  1  0
 25 39  1  0
M  CHG  1  22   1
M  END
>  <DOCK_score>  (1) 
-51.130642

>  <SMILES>  (1) 
Nc1ccc(-c2c[nH]c(Nc3ccc(N)c(C(F)F)c3)[nH+]2)cc1

$$$$
