Oc1ccc(Nc2[nH]cc(-c3ccc(C(F)(F)F)cc3)[nH+]2)cc1O
     RDKit          3D

 37 39  0  0  1  0  0  0  0  0999 V2000
  126.3870  136.1053  162.4398 O   0  0  0  0  0  0  0  0  0  0  0  0
  127.2384  135.8718  161.4042 C   0  0  0  0  0  0  0  0  0  0  0  0
  126.8583  136.1883  160.1100 C   0  0  0  0  0  0  0  0  0  0  0  0
  127.7218  135.9523  159.0572 C   0  0  0  0  0  0  0  0  0  0  0  0
  128.9722  135.3965  159.2942 C   0  0  0  0  0  0  0  0  0  0  0  0
  129.8459  135.1579  158.2267 N   0  0  0  0  0  0  0  0  0  0  0  0
  129.8151  133.9415  157.5650 C   0  0  0  0  0  0  0  0  0  0  0  0
  129.4647  132.7473  158.1168 N   0  0  0  0  0  0  0  0  0  0  0  0
  129.1946  132.5964  159.0361 H   0  0  0  0  0  0  0  0  0  0  0  0
  129.5652  131.7957  157.1318 C   0  0  0  0  0  0  0  0  0  0  0  0
  129.9736  132.4345  156.0073 C   0  0  0  0  0  0  0  0  0  0  0  0
  130.2179  131.8060  154.6860 C   0  0  0  0  0  0  0  0  0  0  0  0
  130.0165  132.5361  153.5161 C   0  0  0  0  0  0  0  0  0  0  0  0
  130.2496  131.9475  152.2898 C   0  0  0  0  0  0  0  0  0  0  0  0
  130.6729  130.6324  152.2202 C   0  0  0  0  0  0  0  0  0  0  0  0
  130.9206  129.9937  150.8779 C   0  0  0  0  0  0  0  0  0  0  0  0
  130.6561  130.9209  149.8643 F   0  0  0  0  0  0  0  0  0  0  0  0
  132.2550  129.5816  150.7965 F   0  0  0  0  0  0  0  0  0  0  0  0
  130.0803  128.8854  150.7267 F   0  0  0  0  0  0  0  0  0  0  0  0
  130.8693  129.9013  153.3780 C   0  0  0  0  0  0  0  0  0  0  0  0
  130.6440  130.4811  154.6098 C   0  0  0  0  0  0  0  0  0  0  0  0
  130.1130  133.7510  156.3028 N   0  0  0  0  0  0  0  0  0  0  0  0
  130.3907  134.4409  155.6802 H   0  0  0  0  0  0  0  0  0  0  0  0
  129.3564  135.0786  160.5900 C   0  0  0  0  0  0  0  0  0  0  0  0
  128.4909  135.3156  161.6451 C   0  0  0  0  0  0  0  0  0  0  0  0
  128.8648  135.0047  162.9151 O   0  0  0  0  0  0  0  0  0  0  0  0
  125.5419  136.4931  162.1744 H   0  0  0  0  0  0  0  0  0  0  0  0
  125.8861  136.6204  159.9238 H   0  0  0  0  0  0  0  0  0  0  0  0
  127.4238  136.2001  158.0492 H   0  0  0  0  0  0  0  0  0  0  0  0
  130.4729  135.8446  157.9504 H   0  0  0  0  0  0  0  0  0  0  0  0
  129.3590  130.7405  157.2334 H   0  0  0  0  0  0  0  0  0  0  0  0
  129.6824  133.5618  153.5692 H   0  0  0  0  0  0  0  0  0  0  0  0
  130.0976  132.5136  151.3826 H   0  0  0  0  0  0  0  0  0  0  0  0
  131.1998  128.8748  153.3177 H   0  0  0  0  0  0  0  0  0  0  0  0
  130.7973  129.9093  155.5132 H   0  0  0  0  0  0  0  0  0  0  0  0
  130.3306  134.6510  160.7755 H   0  0  0  0  0  0  0  0  0  0  0  0
  129.7509  134.6237  162.9821 H   0  0  0  0  0  0  0  0  0  0  0  0
  1  2  1  0
  1 27  1  0
  2 25  2  0
  2  3  1  0
  3  4  2  0
  3 28  1  0
  4  5  1  0
  4 29  1  0
  5  6  1  0
  5 24  2  0
  6 30  1  0
  7  6  1  0
  7 22  2  0
  7  8  1  0
  8  9  1  0
  8 10  1  0
 10 11  2  0
 10 31  1  0
 11 12  1  0
 11 22  1  0
 12 21  1  0
 12 13  2  0
 13 14  1  0
 13 32  1  0
 14 15  2  0
 14 33  1  0
 15 16  1  0
 15 20  1  0
 16 17  1  0
 16 18  1  0
 16 19  1  0
 20 21  2  0
 20 34  1  0
 21 35  1  0
 22 23  1  0
 24 25  1  0
 24 36  1  0
 25 26  1  0
 26 37  1  0
M  CHG  1  22   1
M  END
>  <DOCK_score>  (1) 
-48.215687

>  <SMILES>  (1) 
Oc1ccc(Nc2[nH]cc(-c3ccc(C(F)(F)F)cc3)[nH+]2)cc1O

$$$$
