Cc1cccc(N2CC[NH+](C(c3ccccc3)c3ccccc3)CC2)c1CCl
     RDKit          3D

 56 59  0  0  0  0  0  0  0  0999 V2000
  135.4569  140.9704  163.2452 C   0  0  0  0  0  0  0  0  0  0  0  0
  134.9736  140.3509  161.9592 C   0  0  0  0  0  0  0  0  0  0  0  0
  135.4528  140.8130  160.7468 C   0  0  0  0  0  0  0  0  0  0  0  0
  135.0123  140.2471  159.5648 C   0  0  0  0  0  0  0  0  0  0  0  0
  134.0912  139.2182  159.5909 C   0  0  0  0  0  0  0  0  0  0  0  0
  133.6111  138.7487  160.8068 C   0  0  0  0  0  0  0  0  0  0  0  0
  132.6833  137.7050  160.8372 N   0  0  0  0  0  0  0  0  0  0  0  0
  133.2617  136.4701  160.2892 C   0  0  0  0  0  0  0  0  0  0  0  0
  132.2362  135.3392  160.3951 C   0  0  0  0  0  0  0  0  0  0  0  0
  131.0244  135.7056  159.6500 N   0  0  0  0  0  0  0  0  0  0  0  0
  131.2611  135.8686  158.6827 H   0  0  0  0  0  0  0  0  0  0  0  0
  130.0473  134.6122  159.7370 C   0  0  0  0  0  0  0  0  0  0  0  0
  128.8040  134.9878  158.9726 C   0  0  0  0  0  0  0  0  0  0  0  0
  127.5751  134.4908  159.3647 C   0  0  0  0  0  0  0  0  0  0  0  0
  126.4339  134.8390  158.6665 C   0  0  0  0  0  0  0  0  0  0  0  0
  126.5231  135.6759  157.5699 C   0  0  0  0  0  0  0  0  0  0  0  0
  127.7525  136.1686  157.1746 C   0  0  0  0  0  0  0  0  0  0  0  0
  128.8931  135.8245  157.8760 C   0  0  0  0  0  0  0  0  0  0  0  0
  130.6411  133.3596  159.1460 C   0  0  0  0  0  0  0  0  0  0  0  0
  130.4754  133.0838  157.8017 C   0  0  0  0  0  0  0  0  0  0  0  0
  131.0242  131.9372  157.2586 C   0  0  0  0  0  0  0  0  0  0  0  0
  131.7297  131.0610  158.0620 C   0  0  0  0  0  0  0  0  0  0  0  0
  131.8908  131.3342  159.4075 C   0  0  0  0  0  0  0  0  0  0  0  0
  131.3465  132.4834  159.9495 C   0  0  0  0  0  0  0  0  0  0  0  0
  130.4449  136.9269  160.2244 C   0  0  0  0  0  0  0  0  0  0  0  0
  131.4554  138.0708  160.1170 C   0  0  0  0  0  0  0  0  0  0  0  0
  134.0523  139.3228  161.9926 C   0  0  0  0  0  0  0  0  0  0  0  0
  133.5306  138.8200  163.3140 C   0  0  0  0  0  0  0  0  0  0  0  0
  132.0566  139.7519  163.7718 Cl  0  0  0  0  0  0  0  0  0  0  0  0
  136.3388  140.4353  163.5973 H   0  0  0  0  0  0  0  0  0  0  0  0
  135.7115  142.0159  163.0715 H   0  0  0  0  0  0  0  0  0  0  0  0
  134.6700  140.9081  163.9967 H   0  0  0  0  0  0  0  0  0  0  0  0
  136.1730  141.6175  160.7235 H   0  0  0  0  0  0  0  0  0  0  0  0
  135.3886  140.6103  158.6199 H   0  0  0  0  0  0  0  0  0  0  0  0
  133.7476  138.7766  158.6672 H   0  0  0  0  0  0  0  0  0  0  0  0
  133.5254  136.6251  159.2430 H   0  0  0  0  0  0  0  0  0  0  0  0
  134.1552  136.2048  160.8543 H   0  0  0  0  0  0  0  0  0  0  0  0
  131.9828  135.1754  161.4426 H   0  0  0  0  0  0  0  0  0  0  0  0
  132.6581  134.4257  159.9763 H   0  0  0  0  0  0  0  0  0  0  0  0
  129.7919  134.4354  160.7817 H   0  0  0  0  0  0  0  0  0  0  0  0
  127.5060  133.8334  160.2188 H   0  0  0  0  0  0  0  0  0  0  0  0
  125.4734  134.4537  158.9752 H   0  0  0  0  0  0  0  0  0  0  0  0
  125.6321  135.9444  157.0217 H   0  0  0  0  0  0  0  0  0  0  0  0
  127.8222  136.8222  156.3176 H   0  0  0  0  0  0  0  0  0  0  0  0
  129.8537  136.2093  157.5669 H   0  0  0  0  0  0  0  0  0  0  0  0
  129.9205  133.7660  157.1748 H   0  0  0  0  0  0  0  0  0  0  0  0
  130.8981  131.7236  156.2074 H   0  0  0  0  0  0  0  0  0  0  0  0
  132.1547  130.1630  157.6386 H   0  0  0  0  0  0  0  0  0  0  0  0
  132.4417  130.6495  160.0354 H   0  0  0  0  0  0  0  0  0  0  0  0
  131.4720  132.6967  161.0007 H   0  0  0  0  0  0  0  0  0  0  0  0
  130.2007  136.7549  161.2728 H   0  0  0  0  0  0  0  0  0  0  0  0
  129.5387  137.1902  159.6790 H   0  0  0  0  0  0  0  0  0  0  0  0
  131.0311  138.9735  160.5567 H   0  0  0  0  0  0  0  0  0  0  0  0
  131.6895  138.2522  159.0680 H   0  0  0  0  0  0  0  0  0  0  0  0
  133.2797  137.7629  163.2271 H   0  0  0  0  0  0  0  0  0  0  0  0
  134.2952  138.9503  164.0799 H   0  0  0  0  0  0  0  0  0  0  0  0
  1  2  1  0
  1 30  1  0
  1 31  1  0
  1 32  1  0
  2 27  2  0
  2  3  1  0
  3  4  2  0
  3 33  1  0
  4  5  1  0
  4 34  1  0
  5  6  2  0
  5 35  1  0
  6  7  1  0
  6 27  1  0
  7 26  1  0
  7  8  1  0
  8  9  1  0
  8 36  1  0
  8 37  1  0
  9 10  1  0
  9 38  1  0
  9 39  1  0
 10 11  1  0
 10 12  1  0
 10 25  1  0
 12 13  1  0
 12 19  1  0
 12 40  1  0
 13 18  1  0
 13 14  2  0
 14 15  1  0
 14 41  1  0
 15 16  2  0
 15 42  1  0
 16 17  1  0
 16 43  1  0
 17 18  2  0
 17 44  1  0
 18 45  1  0
 19 24  1  0
 19 20  2  0
 20 21  1  0
 20 46  1  0
 21 22  2  0
 21 47  1  0
 22 23  1  0
 22 48  1  0
 23 24  2  0
 23 49  1  0
 24 50  1  0
 25 26  1  0
 25 51  1  0
 25 52  1  0
 26 53  1  0
 26 54  1  0
 27 28  1  0
 28 29  1  0
 28 55  1  0
 28 56  1  0
M  CHG  1  10   1
M  END
>  <DOCK_score>  (1) 
-56.6166

>  <SMILES>  (1) 
Cc1cccc(N2CC[NH+](C(c3ccccc3)c3ccccc3)CC2)c1CCl

$$$$
