Cc1cccc([C@H](Nc2[nH]cc(-c3ccc(N)cc3)[nH+]2)C2=C(N)CCC2)c1CBr
     RDKit          3D

 56 59  0  0  1  0  0  0  0  0999 V2000
  130.7612  138.3835  164.0069 C   0  0  0  0  0  0  0  0  0  0  0  0
  130.6029  138.1390  162.5283 C   0  0  0  0  0  0  0  0  0  0  0  0
  130.7847  139.1763  161.6327 C   0  0  0  0  0  0  0  0  0  0  0  0
  130.6344  138.9533  160.2770 C   0  0  0  0  0  0  0  0  0  0  0  0
  130.3122  137.6903  159.8158 C   0  0  0  0  0  0  0  0  0  0  0  0
  130.1309  136.6531  160.7112 C   0  0  0  0  0  0  0  0  0  0  0  0
  129.7751  135.2775  160.2088 C   0  0  2  0  0  0  0  0  0  0  0  0
  130.1751  134.5271  160.8905 H   0  0  0  0  0  0  0  0  0  0  0  0
  130.3489  135.0812  158.8752 N   0  0  0  0  0  0  0  0  0  0  0  0
  130.1537  133.8844  158.2071 C   0  0  0  0  0  0  0  0  0  0  0  0
  129.4468  132.8207  158.6765 N   0  0  0  0  0  0  0  0  0  0  0  0
  128.9935  132.7646  159.5323 H   0  0  0  0  0  0  0  0  0  0  0  0
  129.4944  131.8400  157.7142 C   0  0  0  0  0  0  0  0  0  0  0  0
  130.2282  132.3333  156.6862 C   0  0  0  0  0  0  0  0  0  0  0  0
  130.5467  131.6249  155.4222 C   0  0  0  0  0  0  0  0  0  0  0  0
  130.1328  132.1554  154.2013 C   0  0  0  0  0  0  0  0  0  0  0  0
  130.4350  131.4982  153.0273 C   0  0  0  0  0  0  0  0  0  0  0  0
  131.1416  130.3019  153.0614 C   0  0  0  0  0  0  0  0  0  0  0  0
  131.4421  129.6349  151.8713 N   0  0  0  0  0  0  0  0  0  0  0  0
  131.5504  129.7683  154.2778 C   0  0  0  0  0  0  0  0  0  0  0  0
  131.2554  130.4250  155.4539 C   0  0  0  0  0  0  0  0  0  0  0  0
  130.6146  133.5913  157.0154 N   0  0  0  0  0  0  0  0  0  0  0  0
  131.1485  134.1794  156.4588 H   0  0  0  0  0  0  0  0  0  0  0  0
  128.2760  135.1417  160.1357 C   0  0  0  0  0  0  0  0  0  0  0  0
  127.5749  134.2485  160.8000 C   0  0  0  0  0  0  0  0  0  0  0  0
  128.1173  133.3043  161.6625 N   0  0  0  0  0  0  0  0  0  0  0  0
  126.1005  134.3872  160.4995 C   0  0  0  0  0  0  0  0  0  0  0  0
  126.0388  135.2433  159.2135 C   0  0  0  0  0  0  0  0  0  0  0  0
  127.3766  136.0174  159.2947 C   0  0  0  0  0  0  0  0  0  0  0  0
  130.2766  136.8773  162.0676 C   0  0  0  0  0  0  0  0  0  0  0  0
  130.0789  135.7464  163.0438 C   0  0  0  0  0  0  0  0  0  0  0  0
  131.7939  134.8336  163.3455 Br  0  0  0  0  0  0  0  0  0  0  0  0
  129.8010  138.6762  164.4316 H   0  0  0  0  0  0  0  0  0  0  0  0
  131.1095  137.4711  164.4908 H   0  0  0  0  0  0  0  0  0  0  0  0
  131.4876  139.1801  164.1677 H   0  0  0  0  0  0  0  0  0  0  0  0
  131.0397  140.1621  161.9927 H   0  0  0  0  0  0  0  0  0  0  0  0
  130.7719  139.7646  159.5777 H   0  0  0  0  0  0  0  0  0  0  0  0
  130.1987  137.5149  158.7562 H   0  0  0  0  0  0  0  0  0  0  0  0
  130.8654  135.7896  158.4602 H   0  0  0  0  0  0  0  0  0  0  0  0
  129.0353  130.8639  157.7669 H   0  0  0  0  0  0  0  0  0  0  0  0
  129.5793  133.0825  154.1747 H   0  0  0  0  0  0  0  0  0  0  0  0
  130.1181  131.9109  152.0809 H   0  0  0  0  0  0  0  0  0  0  0  0
  131.9356  128.8004  151.8942 H   0  0  0  0  0  0  0  0  0  0  0  0
  131.1572  130.0070  151.0217 H   0  0  0  0  0  0  0  0  0  0  0  0
  132.0992  128.8384  154.3021 H   0  0  0  0  0  0  0  0  0  0  0  0
  131.5735  130.0101  156.3990 H   0  0  0  0  0  0  0  0  0  0  0  0
  129.0758  133.2740  161.8078 H   0  0  0  0  0  0  0  0  0  0  0  0
  127.5375  132.6752  162.1196 H   0  0  0  0  0  0  0  0  0  0  0  0
  125.6548  133.4078  160.3251 H   0  0  0  0  0  0  0  0  0  0  0  0
  125.5922  134.8941  161.3196 H   0  0  0  0  0  0  0  0  0  0  0  0
  126.0012  134.6124  158.3255 H   0  0  0  0  0  0  0  0  0  0  0  0
  125.1914  135.9284  159.2404 H   0  0  0  0  0  0  0  0  0  0  0  0
  127.2300  136.9842  159.7764 H   0  0  0  0  0  0  0  0  0  0  0  0
  127.7985  136.1490  158.2983 H   0  0  0  0  0  0  0  0  0  0  0  0
  129.7072  136.1428  163.9887 H   0  0  0  0  0  0  0  0  0  0  0  0
  129.3567  135.0381  162.6378 H   0  0  0  0  0  0  0  0  0  0  0  0
  1  2  1  0
  1 33  1  0
  1 34  1  0
  1 35  1  0
  2 30  2  0
  2  3  1  0
  3  4  2  0
  3 36  1  0
  4  5  1  0
  4 37  1  0
  5  6  2  0
  5 38  1  0
  6  7  1  0
  6 30  1  0
  7  8  1  1
  7  9  1  0
  7 24  1  0
  9 39  1  0
 10  9  1  0
 10 22  2  0
 10 11  1  0
 11 12  1  0
 11 13  1  0
 13 14  2  0
 13 40  1  0
 14 15  1  0
 14 22  1  0
 15 21  1  0
 15 16  2  0
 16 17  1  0
 16 41  1  0
 17 18  2  0
 17 42  1  0
 18 19  1  0
 18 20  1  0
 19 43  1  0
 19 44  1  0
 20 21  2  0
 20 45  1  0
 21 46  1  0
 22 23  1  0
 24 29  1  0
 24 25  2  0
 25 26  1  0
 25 27  1  0
 26 47  1  0
 26 48  1  0
 27 28  1  0
 27 49  1  0
 27 50  1  0
 28 29  1  0
 28 51  1  0
 28 52  1  0
 29 53  1  0
 29 54  1  0
 30 31  1  0
 31 32  1  0
 31 55  1  0
 31 56  1  0
M  CHG  1  22   1
M  END
>  <DOCK_score>  (1) 
-59.247578

>  <SMILES>  (1) 
Cc1cccc([C@H](Nc2[nH]cc(-c3ccc(N)cc3)[nH+]2)C2=C(N)CCC2)c1CBr

$$$$
