Oc1cccc([C@@H](CNc2ccccc2)[NH+]=C2NCC(O)CN2)c1
     RDKit          3D

 47 49  0  0  1  0  0  0  0  0999 V2000
  126.7247  137.9593  162.6390 O   0  0  0  0  0  0  0  0  0  0  0  0
  127.7698  137.1167  162.4274 C   0  0  0  0  0  0  0  0  0  0  0  0
  127.8742  135.9417  163.1580 C   0  0  0  0  0  0  0  0  0  0  0  0
  128.9375  135.0872  162.9413 C   0  0  0  0  0  0  0  0  0  0  0  0
  129.8978  135.4021  161.9975 C   0  0  0  0  0  0  0  0  0  0  0  0
  129.7962  136.5721  161.2682 C   0  0  0  0  0  0  0  0  0  0  0  0
  130.8445  136.9123  160.2404 C   0  0  1  0  0  0  0  0  0  0  0  0
  130.3928  137.5005  159.4416 H   0  0  0  0  0  0  0  0  0  0  0  0
  131.9623  137.7219  160.9006 C   0  0  0  0  0  0  0  0  0  0  0  0
  132.9814  138.0525  159.9014 N   0  0  0  0  0  0  0  0  0  0  0  0
  134.1070  138.7925  160.2704 C   0  0  0  0  0  0  0  0  0  0  0  0
  135.0771  139.1021  159.3254 C   0  0  0  0  0  0  0  0  0  0  0  0
  136.1865  139.8380  159.6926 C   0  0  0  0  0  0  0  0  0  0  0  0
  136.3374  140.2578  161.0016 C   0  0  0  0  0  0  0  0  0  0  0  0
  135.3763  139.9470  161.9459 C   0  0  0  0  0  0  0  0  0  0  0  0
  134.2619  139.2158  161.5843 C   0  0  0  0  0  0  0  0  0  0  0  0
  131.4004  135.6768  159.6827 N   0  0  0  0  0  0  0  0  0  0  0  0
  132.3480  135.4889  159.7694 H   0  0  0  0  0  0  0  0  0  0  0  0
  130.6215  134.8302  159.0698 C   0  0  0  0  0  0  0  0  0  0  0  0
  131.1093  133.6531  158.5233 N   0  0  0  0  0  0  0  0  0  0  0  0
  130.3099  132.4309  158.7324 C   0  0  0  0  0  0  0  0  0  0  0  0
  128.8566  132.7259  158.3440 C   0  0  0  0  0  0  0  0  0  0  0  0
  128.0443  131.5850  158.6281 O   0  0  0  0  0  0  0  0  0  0  0  0
  128.3531  133.9273  159.1526 C   0  0  0  0  0  0  0  0  0  0  0  0
  129.2621  135.0620  158.9248 N   0  0  0  0  0  0  0  0  0  0  0  0
  128.7344  137.4303  161.4812 C   0  0  0  0  0  0  0  0  0  0  0  0
  126.1056  137.6555  163.3168 H   0  0  0  0  0  0  0  0  0  0  0  0
  127.1244  135.6954  163.8954 H   0  0  0  0  0  0  0  0  0  0  0  0
  129.0193  134.1726  163.5099 H   0  0  0  0  0  0  0  0  0  0  0  0
  130.7286  134.7327  161.8295 H   0  0  0  0  0  0  0  0  0  0  0  0
  131.5487  138.6410  161.3156 H   0  0  0  0  0  0  0  0  0  0  0  0
  132.4140  137.1336  161.6993 H   0  0  0  0  0  0  0  0  0  0  0  0
  132.8744  137.7574  158.9835 H   0  0  0  0  0  0  0  0  0  0  0  0
  134.9620  138.7708  158.3040 H   0  0  0  0  0  0  0  0  0  0  0  0
  136.9391  140.0826  158.9576 H   0  0  0  0  0  0  0  0  0  0  0  0
  137.2082  140.8294  161.2870 H   0  0  0  0  0  0  0  0  0  0  0  0
  135.4974  140.2759  162.9674 H   0  0  0  0  0  0  0  0  0  0  0  0
  133.5117  138.9730  162.3224 H   0  0  0  0  0  0  0  0  0  0  0  0
  131.9422  133.6355  158.0264 H   0  0  0  0  0  0  0  0  0  0  0  0
  130.3557  132.1349  159.7804 H   0  0  0  0  0  0  0  0  0  0  0  0
  130.6994  131.6269  158.1079 H   0  0  0  0  0  0  0  0  0  0  0  0
  128.8033  132.9552  157.2797 H   0  0  0  0  0  0  0  0  0  0  0  0
  128.3065  130.7867  158.1497 H   0  0  0  0  0  0  0  0  0  0  0  0
  128.3413  133.6753  160.2130 H   0  0  0  0  0  0  0  0  0  0  0  0
  127.3472  134.1937  158.8286 H   0  0  0  0  0  0  0  0  0  0  0  0
  128.9234  135.9380  158.6823 H   0  0  0  0  0  0  0  0  0  0  0  0
  128.6579  138.3465  160.9147 H   0  0  0  0  0  0  0  0  0  0  0  0
  1  2  1  0
  1 27  1  0
  2 26  2  0
  2  3  1  0
  3  4  2  0
  3 28  1  0
  4  5  1  0
  4 29  1  0
  5  6  2  0
  5 30  1  0
  6  7  1  0
  6 26  1  0
  7  8  1  6
  7  9  1  0
  7 17  1  0
  9 10  1  0
  9 31  1  0
  9 32  1  0
 10 11  1  0
 10 33  1  0
 11 16  1  0
 11 12  2  0
 12 13  1  0
 12 34  1  0
 13 14  2  0
 13 35  1  0
 14 15  1  0
 14 36  1  0
 15 16  2  0
 15 37  1  0
 16 38  1  0
 17 18  1  0
 19 17  2  0
 19 25  1  0
 19 20  1  0
 20 21  1  0
 20 39  1  0
 21 22  1  0
 21 40  1  0
 21 41  1  0
 22 23  1  0
 22 24  1  0
 22 42  1  0
 23 43  1  0
 24 25  1  0
 24 44  1  0
 24 45  1  0
 25 46  1  0
 26 47  1  0
M  CHG  1  17   1
M  END
>  <DOCK_score>  (1) 
-41.192631

>  <SMILES>  (1) 
Oc1cccc([C@@H](CNc2ccccc2)[NH+]=C2NCC(O)CN2)c1

$$$$
