CCc1ccc(-c2c[nH]c(NC[C@H]3C=CCC4C5C=CC(C5)C43)[nH+]2)cc1
     RDKit          3D

 54 58  0  0  1  0  0  0  0  0999 V2000
  130.1785  128.7093  151.4754 C   0  0  0  0  0  0  0  0  0  0  0  0
  131.3200  129.6585  151.8451 C   0  0  0  0  0  0  0  0  0  0  0  0
  130.9859  130.3694  153.1312 C   0  0  0  0  0  0  0  0  0  0  0  0
  131.3619  129.8151  154.3422 C   0  0  0  0  0  0  0  0  0  0  0  0
  131.0581  130.4609  155.5233 C   0  0  0  0  0  0  0  0  0  0  0  0
  130.3715  131.6736  155.4949 C   0  0  0  0  0  0  0  0  0  0  0  0
  130.0422  132.3725  156.7611 C   0  0  0  0  0  0  0  0  0  0  0  0
  129.2769  131.8822  157.7675 C   0  0  0  0  0  0  0  0  0  0  0  0
  129.2309  132.8502  158.7412 N   0  0  0  0  0  0  0  0  0  0  0  0
  128.7591  132.7925  159.5867 H   0  0  0  0  0  0  0  0  0  0  0  0
  129.9704  133.9045  158.3010 C   0  0  0  0  0  0  0  0  0  0  0  0
  130.1773  135.0876  158.9893 N   0  0  0  0  0  0  0  0  0  0  0  0
  129.5747  135.2815  160.3105 C   0  0  0  0  0  0  0  0  0  0  0  0
  128.1971  135.9113  160.1526 C   0  0  1  0  0  0  0  0  0  0  0  0
  128.3633  136.8893  159.6367 H   0  0  0  0  0  0  0  0  0  0  0  0
  127.3637  135.0861  159.2020 C   0  0  0  0  0  0  0  0  0  0  0  0
  126.5985  134.1200  159.6582 C   0  0  0  0  0  0  0  0  0  0  0  0
  126.5714  133.8749  161.1497 C   0  0  0  0  0  0  0  0  0  0  0  0
  126.4066  135.2096  161.8622 C   0  0  1  0  0  0  0  0  0  0  0  0
  126.6569  135.0115  163.3917 C   0  0  1  0  0  0  0  0  0  0  0  0
  127.9367  134.1655  163.4380 C   0  0  0  0  0  0  0  0  0  0  0  0
  128.9302  134.9281  163.0270 C   0  0  0  0  0  0  0  0  0  0  0  0
  128.4015  136.3228  162.6889 C   0  0  2  0  0  0  0  0  0  0  0  0
  127.2673  136.4065  163.7894 C   0  0  0  0  0  0  0  0  0  0  0  0
  127.4900  136.2117  161.4397 C   0  0  1  0  0  0  0  0  0  0  0  0
  130.4495  133.6172  157.1153 N   0  0  0  0  0  0  0  0  0  0  0  0
  131.0076  134.2007  156.5777 H   0  0  0  0  0  0  0  0  0  0  0  0
  129.9904  132.2241  154.2724 C   0  0  0  0  0  0  0  0  0  0  0  0
  130.3037  131.5718  153.0974 C   0  0  0  0  0  0  0  0  0  0  0  0
  130.4202  128.1956  150.5449 H   0  0  0  0  0  0  0  0  0  0  0  0
  130.0434  127.9762  152.2705 H   0  0  0  0  0  0  0  0  0  0  0  0
  129.2587  129.2797  151.3470 H   0  0  0  0  0  0  0  0  0  0  0  0
  131.4551  130.3915  151.0499 H   0  0  0  0  0  0  0  0  0  0  0  0
  132.2398  129.0879  151.9735 H   0  0  0  0  0  0  0  0  0  0  0  0
  131.8939  128.8755  154.3630 H   0  0  0  0  0  0  0  0  0  0  0  0
  131.3516  130.0274  156.4680 H   0  0  0  0  0  0  0  0  0  0  0  0
  128.7950  130.9162  157.7975 H   0  0  0  0  0  0  0  0  0  0  0  0
  130.7215  135.7883  158.5970 H   0  0  0  0  0  0  0  0  0  0  0  0
  130.2085  135.9384  160.9062 H   0  0  0  0  0  0  0  0  0  0  0  0
  129.4784  134.3178  160.8108 H   0  0  0  0  0  0  0  0  0  0  0  0
  127.3977  135.2921  158.1304 H   0  0  0  0  0  0  0  0  0  0  0  0
  126.0005  133.5124  158.9851 H   0  0  0  0  0  0  0  0  0  0  0  0
  127.4975  133.3920  161.4516 H   0  0  0  0  0  0  0  0  0  0  0  0
  125.7282  133.2267  161.3936 H   0  0  0  0  0  0  0  0  0  0  0  0
  125.4092  135.6181  161.6859 H   0  0  0  0  0  0  0  0  0  0  0  0
  125.8155  134.6554  163.9824 H   0  0  0  0  0  0  0  0  0  0  0  0
  128.0076  133.1365  163.7501 H   0  0  0  0  0  0  0  0  0  0  0  0
  129.9639  134.6090  162.9597 H   0  0  0  0  0  0  0  0  0  0  0  0
  129.1308  137.1358  162.7013 H   0  0  0  0  0  0  0  0  0  0  0  0
  127.6763  136.4134  164.7980 H   0  0  0  0  0  0  0  0  0  0  0  0
  126.5820  137.2320  163.6090 H   0  0  0  0  0  0  0  0  0  0  0  0
  126.9769  137.2032  161.3148 H   0  0  0  0  0  0  0  0  0  0  0  0
  129.4539  133.1610  154.2448 H   0  0  0  0  0  0  0  0  0  0  0  0
  130.0123  131.9993  152.1493 H   0  0  0  0  0  0  0  0  0  0  0  0
  1  2  1  0
  1 30  1  0
  1 31  1  0
  1 32  1  0
  2  3  1  0
  2 33  1  0
  2 34  1  0
  3 29  2  0
  3  4  1  0
  4  5  2  0
  4 35  1  0
  5  6  1  0
  5 36  1  0
  6  7  1  0
  6 28  2  0
  7 26  1  0
  7  8  2  0
  8  9  1  0
  8 37  1  0
  9 10  1  0
  9 11  1  0
 11 12  1  0
 11 26  2  0
 12 13  1  0
 12 38  1  0
 13 14  1  0
 13 39  1  0
 13 40  1  0
 14 15  1  6
 14 25  1  0
 14 16  1  0
 16 17  2  0
 16 41  1  0
 17 18  1  0
 17 42  1  0
 18 19  1  0
 18 43  1  0
 18 44  1  0
 19 25  1  0
 19 20  1  0
 19 45  1  1
 20 24  1  0
 20 21  1  0
 20 46  1  1
 21 22  2  0
 21 47  1  0
 22 23  1  0
 22 48  1  0
 23 24  1  0
 23 25  1  0
 23 49  1  6
 24 50  1  0
 24 51  1  0
 25 52  1  6
 26 27  1  0
 28 29  1  0
 28 53  1  0
 29 54  1  0
M  CHG  1  26   1
M  END
>  <DOCK_score>  (1) 
-56.807598

>  <SMILES>  (1) 
CCc1ccc(-c2c[nH]c(NC[C@H]3C=CCC4C5C=CC(C5)C43)[nH+]2)cc1

$$$$
