C=CC=CO[C@H](C=COCC(NC1=[NH+]CCN1)c1ccnn1C)C=C(C)C
     RDKit          3D

 57 58  0  0  1  0  0  0  0  0999 V2000
  136.7822  140.5142  161.6006 C   0  0  0  0  0  0  0  0  0  0  0  0
  135.7959  140.1543  162.4177 C   0  0  0  0  0  0  0  0  0  0  0  0
  134.4408  140.6810  162.2097 C   0  0  0  0  0  0  0  0  0  0  0  0
  133.4498  140.3192  163.0307 C   0  0  0  0  0  0  0  0  0  0  0  0
  132.2000  140.8050  162.8390 O   0  0  0  0  0  0  0  0  0  0  0  0
  131.1898  140.3762  163.7542 C   0  0  2  0  0  0  0  0  0  0  0  0
  131.6033  140.3423  164.7620 H   0  0  0  0  0  0  0  0  0  0  0  0
  130.7072  139.0033  163.3627 C   0  0  0  0  0  0  0  0  0  0  0  0
  130.7251  138.6348  162.0983 C   0  0  0  0  0  0  0  0  0  0  0  0
  130.2906  137.3988  161.7458 O   0  0  0  0  0  0  0  0  0  0  0  0
  130.3381  137.0661  160.3570 C   0  0  0  0  0  0  0  0  0  0  0  0
  129.8122  135.6436  160.1551 C   0  0  2  0  0  0  0  0  0  0  0  0
  130.2852  135.1261  158.8688 N   0  0  0  0  0  0  0  0  0  0  0  0
  129.9389  133.8642  158.4701 C   0  0  0  0  0  0  0  0  0  0  0  0
  129.1846  133.0641  159.2058 N   0  0  0  0  0  0  0  0  0  0  0  0
  128.8132  133.2843  160.0744 H   0  0  0  0  0  0  0  0  0  0  0  0
  128.9953  131.7889  158.4968 C   0  0  0  0  0  0  0  0  0  0  0  0
  129.7958  131.9812  157.1928 C   0  0  0  0  0  0  0  0  0  0  0  0
  130.3359  133.3438  157.3204 N   0  0  0  0  0  0  0  0  0  0  0  0
  128.3053  135.6588  160.1668 C   0  0  0  0  0  0  0  0  0  0  0  0
  127.5007  135.8229  159.0912 C   0  0  0  0  0  0  0  0  0  0  0  0
  126.1748  135.7717  159.5338 C   0  0  0  0  0  0  0  0  0  0  0  0
  126.1832  135.5915  160.8297 N   0  0  0  0  0  0  0  0  0  0  0  0
  127.5165  135.5170  161.2526 N   0  0  0  0  0  0  0  0  0  0  0  0
  127.9740  135.3198  162.6303 C   0  0  0  0  0  0  0  0  0  0  0  0
  130.0352  141.3439  163.7173 C   0  0  0  0  0  0  0  0  0  0  0  0
  128.9899  141.1459  164.4818 C   0  0  0  0  0  0  0  0  0  0  0  0
  129.0174  140.0639  165.5303 C   0  0  0  0  0  0  0  0  0  0  0  0
  127.7599  142.0001  164.3125 C   0  0  0  0  0  0  0  0  0  0  0  0
  137.7786  140.1269  161.7536 H   0  0  0  0  0  0  0  0  0  0  0  0
  136.5863  141.1937  160.7843 H   0  0  0  0  0  0  0  0  0  0  0  0
  135.9917  139.4748  163.2340 H   0  0  0  0  0  0  0  0  0  0  0  0
  134.2449  141.3605  161.3933 H   0  0  0  0  0  0  0  0  0  0  0  0
  133.6456  139.6397  163.8471 H   0  0  0  0  0  0  0  0  0  0  0  0
  130.3466  138.3216  164.1188 H   0  0  0  0  0  0  0  0  0  0  0  0
  131.0857  139.3165  161.3422 H   0  0  0  0  0  0  0  0  0  0  0  0
  131.3677  137.1263  160.0041 H   0  0  0  0  0  0  0  0  0  0  0  0
  129.7198  137.7654  159.7944 H   0  0  0  0  0  0  0  0  0  0  0  0
  130.1753  135.0043  160.9597 H   0  0  0  0  0  0  0  0  0  0  0  0
  130.8442  135.6782  158.2998 H   0  0  0  0  0  0  0  0  0  0  0  0
  127.9408  131.6198  158.2785 H   0  0  0  0  0  0  0  0  0  0  0  0
  129.4046  130.9645  159.0806 H   0  0  0  0  0  0  0  0  0  0  0  0
  129.1400  131.9078  156.3253 H   0  0  0  0  0  0  0  0  0  0  0  0
  130.6038  131.2527  157.1245 H   0  0  0  0  0  0  0  0  0  0  0  0
  130.8949  133.7899  156.6653 H   0  0  0  0  0  0  0  0  0  0  0  0
  127.8250  135.9659  158.0710 H   0  0  0  0  0  0  0  0  0  0  0  0
  125.2961  135.8683  158.9135 H   0  0  0  0  0  0  0  0  0  0  0  0
  128.0997  136.2885  163.1137 H   0  0  0  0  0  0  0  0  0  0  0  0
  127.2359  134.7336  163.1778 H   0  0  0  0  0  0  0  0  0  0  0  0
  128.9269  134.7904  162.6244 H   0  0  0  0  0  0  0  0  0  0  0  0
  130.0694  142.2008  163.0608 H   0  0  0  0  0  0  0  0  0  0  0  0
  130.0144  139.6253  165.5739 H   0  0  0  0  0  0  0  0  0  0  0  0
  128.7660  140.4919  166.5008 H   0  0  0  0  0  0  0  0  0  0  0  0
  128.2918  139.2917  165.2747 H   0  0  0  0  0  0  0  0  0  0  0  0
  127.0911  141.5347  163.5887 H   0  0  0  0  0  0  0  0  0  0  0  0
  127.2490  142.0953  165.2707 H   0  0  0  0  0  0  0  0  0  0  0  0
  128.0502  142.9884  163.9560 H   0  0  0  0  0  0  0  0  0  0  0  0
  1  2  2  0
  1 30  1  0
  1 31  1  0
  2  3  1  0
  2 32  1  0
  3  4  2  0
  3 33  1  0
  4  5  1  0
  4 34  1  0
  5  6  1  0
  6  7  1  1
  6  8  1  0
  6 26  1  0
  8  9  2  0
  8 35  1  0
  9 10  1  0
  9 36  1  0
 10 11  1  0
 11 12  1  0
 11 37  1  0
 11 38  1  0
 12 13  1  0
 12 20  1  0
 12 39  1  1
 13 14  1  0
 13 40  1  0
 14 19  2  0
 14 15  1  0
 15 16  1  0
 15 17  1  0
 17 18  1  0
 17 41  1  0
 17 42  1  0
 18 19  1  0
 18 43  1  0
 18 44  1  0
 19 45  1  0
 20 24  1  0
 20 21  2  0
 21 22  1  0
 21 46  1  0
 22 23  2  0
 22 47  1  0
 23 24  1  0
 24 25  1  0
 25 48  1  0
 25 49  1  0
 25 50  1  0
 26 27  2  0
 26 51  1  0
 27 28  1  0
 27 29  1  0
 28 52  1  0
 28 53  1  0
 28 54  1  0
 29 55  1  0
 29 56  1  0
 29 57  1  0
M  CHG  1  19   1
M  END
>  <DOCK_score>  (1) 
-46.058704

>  <SMILES>  (1) 
C=CC=CO[C@H](C=COCC(NC1=[NH+]CCN1)c1ccnn1C)C=C(C)C

$$$$
