CC1(C)C(O)C[C@H]1NC=CC[NH+]=C(NC1CC=CC1)N[C@H]1CCC(=O)NC1
     RDKit          3D

 61 63  0  0  1  0  0  0  0  0999 V2000
  135.2632  138.0229  162.7044 C   0  0  0  0  0  0  0  0  0  0  0  0
  134.0100  138.7609  163.1790 C   0  0  0  0  0  0  0  0  0  0  0  0
  133.4879  138.2433  164.5209 C   0  0  0  0  0  0  0  0  0  0  0  0
  134.1361  140.2923  163.1166 C   0  0  1  0  0  0  0  0  0  0  0  0
  135.4835  140.7612  163.1969 O   0  0  0  0  0  0  0  0  0  0  0  0
  133.6011  140.1991  161.6778 C   0  0  0  0  0  0  0  0  0  0  0  0
  132.9221  138.8842  162.0966 C   0  0  1  0  0  0  0  0  0  0  0  0
  131.9185  139.0203  162.4995 H   0  0  0  0  0  0  0  0  0  0  0  0
  132.9889  137.8375  161.0738 N   0  0  0  0  0  0  0  0  0  0  0  0
  132.4639  136.5780  161.3336 C   0  0  0  0  0  0  0  0  0  0  0  0
  132.5240  135.6350  160.4121 C   0  0  0  0  0  0  0  0  0  0  0  0
  131.9544  134.2686  160.6939 C   0  0  0  0  0  0  0  0  0  0  0  0
  131.4825  133.6688  159.4435 N   0  0  0  0  0  0  0  0  0  0  0  0
  132.0842  133.1291  158.9072 H   0  0  0  0  0  0  0  0  0  0  0  0
  130.2543  133.8602  159.0516 C   0  0  0  0  0  0  0  0  0  0  0  0
  129.8114  133.2973  157.8781 N   0  0  0  0  0  0  0  0  0  0  0  0
  130.7201  132.4823  157.0680 C   0  0  0  0  0  0  0  0  0  0  0  0
  130.2428  132.4128  155.5988 C   0  0  0  0  0  0  0  0  0  0  0  0
  130.5560  131.0012  155.1596 C   0  0  0  0  0  0  0  0  0  0  0  0
  130.7782  130.2277  156.1873 C   0  0  0  0  0  0  0  0  0  0  0  0
  130.6503  130.9942  157.4830 C   0  0  0  0  0  0  0  0  0  0  0  0
  129.4015  134.6250  159.8119 N   0  0  0  0  0  0  0  0  0  0  0  0
  127.9630  134.3476  159.8019 C   0  0  1  0  0  0  0  0  0  0  0  0
  127.5770  134.4544  158.7882 H   0  0  0  0  0  0  0  0  0  0  0  0
  127.7106  132.9210  160.3045 C   0  0  0  0  0  0  0  0  0  0  0  0
  126.2274  132.5954  160.1125 C   0  0  0  0  0  0  0  0  0  0  0  0
  125.3843  133.7108  160.6604 C   0  0  0  0  0  0  0  0  0  0  0  0
  124.2139  133.4875  160.8872 O   0  0  0  0  0  0  0  0  0  0  0  0
  125.8534  134.9337  160.9106 N   0  0  0  0  0  0  0  0  0  0  0  0
  127.2450  135.3280  160.7302 C   0  0  0  0  0  0  0  0  0  0  0  0
  136.0070  138.0202  163.5013 H   0  0  0  0  0  0  0  0  0  0  0  0
  135.0041  136.9962  162.4459 H   0  0  0  0  0  0  0  0  0  0  0  0
  135.6714  138.5263  161.8281 H   0  0  0  0  0  0  0  0  0  0  0  0
  132.6912  138.8964  164.8772 H   0  0  0  0  0  0  0  0  0  0  0  0
  133.0998  137.2326  164.3942 H   0  0  0  0  0  0  0  0  0  0  0  0
  134.3006  138.2321  165.2470 H   0  0  0  0  0  0  0  0  0  0  0  0
  133.4649  140.8139  163.7990 H   0  0  0  0  0  0  0  0  0  0  0  0
  135.5718  141.7204  163.1127 H   0  0  0  0  0  0  0  0  0  0  0  0
  132.8977  140.9912  161.4213 H   0  0  0  0  0  0  0  0  0  0  0  0
  134.3824  140.0678  160.9291 H   0  0  0  0  0  0  0  0  0  0  0  0
  133.3999  138.0241  160.2151 H   0  0  0  0  0  0  0  0  0  0  0  0
  132.0063  136.3705  162.2896 H   0  0  0  0  0  0  0  0  0  0  0  0
  132.9815  135.8426  159.4561 H   0  0  0  0  0  0  0  0  0  0  0  0
  132.7268  133.6361  161.1316 H   0  0  0  0  0  0  0  0  0  0  0  0
  131.1210  134.3590  161.3907 H   0  0  0  0  0  0  0  0  0  0  0  0
  128.8974  133.4397  157.5865 H   0  0  0  0  0  0  0  0  0  0  0  0
  131.7411  132.8585  157.1309 H   0  0  0  0  0  0  0  0  0  0  0  0
  129.1707  132.6000  155.5386 H   0  0  0  0  0  0  0  0  0  0  0  0
  130.7895  133.1308  154.9875 H   0  0  0  0  0  0  0  0  0  0  0  0
  130.5916  130.6753  154.1305 H   0  0  0  0  0  0  0  0  0  0  0  0
  131.0212  129.1776  156.1200 H   0  0  0  0  0  0  0  0  0  0  0  0
  131.4742  130.7479  158.1528 H   0  0  0  0  0  0  0  0  0  0  0  0
  129.6952  130.7779  157.9614 H   0  0  0  0  0  0  0  0  0  0  0  0
  129.7521  135.3482  160.3548 H   0  0  0  0  0  0  0  0  0  0  0  0
  128.3176  132.2181  159.7340 H   0  0  0  0  0  0  0  0  0  0  0  0
  127.9668  132.8538  161.3619 H   0  0  0  0  0  0  0  0  0  0  0  0
  125.9891  131.6701  160.6370 H   0  0  0  0  0  0  0  0  0  0  0  0
  126.0184  132.4720  159.0498 H   0  0  0  0  0  0  0  0  0  0  0  0
  125.2296  135.6028  161.2334 H   0  0  0  0  0  0  0  0  0  0  0  0
  127.7448  135.3390  161.6987 H   0  0  0  0  0  0  0  0  0  0  0  0
  127.2829  136.3276  160.2972 H   0  0  0  0  0  0  0  0  0  0  0  0
  1  2  1  0
  1 31  1  0
  1 32  1  0
  1 33  1  0
  2  7  1  0
  2  3  1  0
  2  4  1  0
  3 34  1  0
  3 35  1  0
  3 36  1  0
  4  5  1  0
  4  6  1  0
  4 37  1  1
  5 38  1  0
  6  7  1  0
  6 39  1  0
  6 40  1  0
  7  8  1  1
  7  9  1  0
  9 10  1  0
  9 41  1  0
 10 11  2  0
 10 42  1  0
 11 12  1  0
 11 43  1  0
 12 13  1  0
 12 44  1  0
 12 45  1  0
 13 14  1  0
 15 13  2  0
 15 16  1  0
 15 22  1  0
 16 17  1  0
 16 46  1  0
 17 21  1  0
 17 18  1  0
 17 47  1  0
 18 19  1  0
 18 48  1  0
 18 49  1  0
 19 20  2  0
 19 50  1  0
 20 21  1  0
 20 51  1  0
 21 52  1  0
 21 53  1  0
 22 23  1  0
 22 54  1  0
 23 24  1  6
 23 30  1  0
 23 25  1  0
 25 26  1  0
 25 55  1  0
 25 56  1  0
 26 27  1  0
 26 57  1  0
 26 58  1  0
 27 28  2  0
 27 29  1  0
 29 30  1  0
 29 59  1  0
 30 60  1  0
 30 61  1  0
M  CHG  1  13   1
M  END
>  <DOCK_score>  (1) 
-43.073277

>  <SMILES>  (1) 
CC1(C)C(O)C[C@H]1NC=CC[NH+]=C(NC1CC=CC1)N[C@H]1CCC(=O)NC1

$$$$
