Cc1ccc(C[C@H](Nc2[nH]c(C)c(-c3ccccc3)[nH+]2)c2ccccc2C(C)(F)F)cc1
     RDKit          3D

 60 63  0  0  1  0  0  0  0  0999 V2000
  135.2777  139.0818  160.5009 C   0  0  0  0  0  0  0  0  0  0  0  0
  133.8264  138.7012  160.6411 C   0  0  0  0  0  0  0  0  0  0  0  0
  133.3292  138.3137  161.8714 C   0  0  0  0  0  0  0  0  0  0  0  0
  131.9967  137.9700  162.0014 C   0  0  0  0  0  0  0  0  0  0  0  0
  131.1624  138.0084  160.8999 C   0  0  0  0  0  0  0  0  0  0  0  0
  129.7099  137.6327  161.0413 C   0  0  0  0  0  0  0  0  0  0  0  0
  129.5448  136.1319  160.7946 C   0  0  2  0  0  0  0  0  0  0  0  0
  130.1361  135.5766  161.5228 H   0  0  0  0  0  0  0  0  0  0  0  0
  130.0039  135.8059  159.4421 N   0  0  0  0  0  0  0  0  0  0  0  0
  129.9507  134.4987  158.9893 C   0  0  0  0  0  0  0  0  0  0  0  0
  129.5009  133.4304  159.7025 N   0  0  0  0  0  0  0  0  0  0  0  0
  129.1631  133.4477  160.6116 H   0  0  0  0  0  0  0  0  0  0  0  0
  129.6107  132.3237  158.8962 C   0  0  0  0  0  0  0  0  0  0  0  0
  129.2301  130.9103  159.2547 C   0  0  0  0  0  0  0  0  0  0  0  0
  130.1326  132.7456  157.7178 C   0  0  0  0  0  0  0  0  0  0  0  0
  130.4341  131.8934  156.5417 C   0  0  0  0  0  0  0  0  0  0  0  0
  129.8065  132.1379  155.3214 C   0  0  0  0  0  0  0  0  0  0  0  0
  130.0960  131.3461  154.2288 C   0  0  0  0  0  0  0  0  0  0  0  0
  130.9974  130.3034  154.3463 C   0  0  0  0  0  0  0  0  0  0  0  0
  131.6185  130.0522  155.5567 C   0  0  0  0  0  0  0  0  0  0  0  0
  131.3418  130.8418  156.6542 C   0  0  0  0  0  0  0  0  0  0  0  0
  130.3306  134.0850  157.8051 N   0  0  0  0  0  0  0  0  0  0  0  0
  130.6945  134.6467  157.1031 H   0  0  0  0  0  0  0  0  0  0  0  0
  128.0921  135.7563  160.9361 C   0  0  0  0  0  0  0  0  0  0  0  0
  127.2578  135.7943  159.8344 C   0  0  0  0  0  0  0  0  0  0  0  0
  125.9256  135.4496  159.9641 C   0  0  0  0  0  0  0  0  0  0  0  0
  125.4273  135.0670  161.1957 C   0  0  0  0  0  0  0  0  0  0  0  0
  126.2615  135.0290  162.2972 C   0  0  0  0  0  0  0  0  0  0  0  0
  127.5953  135.3685  162.1662 C   0  0  0  0  0  0  0  0  0  0  0  0
  128.5062  135.3210  163.3658 C   0  0  0  0  0  0  0  0  0  0  0  0
  129.1398  133.9322  163.4704 C   0  0  0  0  0  0  0  0  0  0  0  0
  129.5121  136.2832  163.2260 F   0  0  0  0  0  0  0  0  0  0  0  0
  127.7665  135.5845  164.5236 F   0  0  0  0  0  0  0  0  0  0  0  0
  131.6607  138.3908  159.6684 C   0  0  0  0  0  0  0  0  0  0  0  0
  132.9930  138.7354  159.5387 C   0  0  0  0  0  0  0  0  0  0  0  0
  135.8634  138.1962  160.2543 H   0  0  0  0  0  0  0  0  0  0  0  0
  135.3844  139.8206  159.7066 H   0  0  0  0  0  0  0  0  0  0  0  0
  135.6351  139.5040  161.4401 H   0  0  0  0  0  0  0  0  0  0  0  0
  133.9811  138.2836  162.7321 H   0  0  0  0  0  0  0  0  0  0  0  0
  131.6074  137.6712  162.9634 H   0  0  0  0  0  0  0  0  0  0  0  0
  129.3682  137.8753  162.0476 H   0  0  0  0  0  0  0  0  0  0  0  0
  129.1185  138.1878  160.3132 H   0  0  0  0  0  0  0  0  0  0  0  0
  130.3450  136.5059  158.8639 H   0  0  0  0  0  0  0  0  0  0  0  0
  130.0864  130.4060  159.7024 H   0  0  0  0  0  0  0  0  0  0  0  0
  128.4047  130.9258  159.9664 H   0  0  0  0  0  0  0  0  0  0  0  0
  128.9240  130.3770  158.3547 H   0  0  0  0  0  0  0  0  0  0  0  0
  129.0988  132.9486  155.2299 H   0  0  0  0  0  0  0  0  0  0  0  0
  129.6142  131.5378  153.2814 H   0  0  0  0  0  0  0  0  0  0  0  0
  131.2171  129.6832  153.4899 H   0  0  0  0  0  0  0  0  0  0  0  0
  132.3217  129.2370  155.6426 H   0  0  0  0  0  0  0  0  0  0  0  0
  131.8279  130.6453  157.5983 H   0  0  0  0  0  0  0  0  0  0  0  0
  127.6470  136.0932  158.8723 H   0  0  0  0  0  0  0  0  0  0  0  0
  125.2738  135.4793  159.1034 H   0  0  0  0  0  0  0  0  0  0  0  0
  124.3863  134.7983  161.2972 H   0  0  0  0  0  0  0  0  0  0  0  0
  125.8722  134.7306  163.2592 H   0  0  0  0  0  0  0  0  0  0  0  0
  129.7160  133.7269  162.5682 H   0  0  0  0  0  0  0  0  0  0  0  0
  129.7986  133.8979  164.3381 H   0  0  0  0  0  0  0  0  0  0  0  0
  128.3561  133.1826  163.5792 H   0  0  0  0  0  0  0  0  0  0  0  0
  131.0090  138.4202  158.8077 H   0  0  0  0  0  0  0  0  0  0  0  0
  133.3823  139.0339  158.5766 H   0  0  0  0  0  0  0  0  0  0  0  0
  1  2  1  0
  1 36  1  0
  1 37  1  0
  1 38  1  0
  2 35  2  0
  2  3  1  0
  3  4  2  0
  3 39  1  0
  4  5  1  0
  4 40  1  0
  5  6  1  0
  5 34  2  0
  6  7  1  0
  6 41  1  0
  6 42  1  0
  7  8  1  1
  7  9  1  0
  7 24  1  0
  9 43  1  0
 10  9  1  0
 10 22  2  0
 10 11  1  0
 11 12  1  0
 11 13  1  0
 13 14  1  0
 13 15  2  0
 14 44  1  0
 14 45  1  0
 14 46  1  0
 15 16  1  0
 15 22  1  0
 16 21  1  0
 16 17  2  0
 17 18  1  0
 17 47  1  0
 18 19  2  0
 18 48  1  0
 19 20  1  0
 19 49  1  0
 20 21  2  0
 20 50  1  0
 21 51  1  0
 22 23  1  0
 24 29  1  0
 24 25  2  0
 25 26  1  0
 25 52  1  0
 26 27  2  0
 26 53  1  0
 27 28  1  0
 27 54  1  0
 28 29  2  0
 28 55  1  0
 29 30  1  0
 30 31  1  0
 30 32  1  0
 30 33  1  0
 31 56  1  0
 31 57  1  0
 31 58  1  0
 34 35  1  0
 34 59  1  0
 35 60  1  0
M  CHG  1  22   1
M  END
>  <DOCK_score>  (1) 
-56.631069

>  <SMILES>  (1) 
Cc1ccc(C[C@H](Nc2[nH]c(C)c(-c3ccccc3)[nH+]2)c2ccccc2C(C)(F)F)cc1

$$$$
