c1ccc(-c2ccc(C[C@H](Nc3[nH]cc(-c4ccccc4)[nH+]3)c3ccccc3)cc2)cc1
     RDKit          3D

 58 62  0  0  1  0  0  0  0  0999 V2000
  137.8102  139.5974  161.0228 C   0  0  0  0  0  0  0  0  0  0  0  0
  137.3441  138.5950  161.8541 C   0  0  0  0  0  0  0  0  0  0  0  0
  136.0098  138.2426  161.8336 C   0  0  0  0  0  0  0  0  0  0  0  0
  135.1317  138.8990  160.9735 C   0  0  0  0  0  0  0  0  0  0  0  0
  133.6961  138.5246  160.9472 C   0  0  0  0  0  0  0  0  0  0  0  0
  133.0784  138.0405  162.0985 C   0  0  0  0  0  0  0  0  0  0  0  0
  131.7426  137.6942  162.0683 C   0  0  0  0  0  0  0  0  0  0  0  0
  131.0174  137.8269  160.8979 C   0  0  0  0  0  0  0  0  0  0  0  0
  129.5593  137.4472  160.8712 C   0  0  0  0  0  0  0  0  0  0  0  0
  129.4234  135.9721  160.4884 C   0  0  2  0  0  0  0  0  0  0  0  0
  129.9457  135.3570  161.2211 H   0  0  0  0  0  0  0  0  0  0  0  0
  130.0088  135.7557  159.1629 N   0  0  0  0  0  0  0  0  0  0  0  0
  130.0030  134.4901  158.6020 C   0  0  0  0  0  0  0  0  0  0  0  0
  129.4815  133.3713  159.1752 N   0  0  0  0  0  0  0  0  0  0  0  0
  129.0507  133.3177  160.0427 H   0  0  0  0  0  0  0  0  0  0  0  0
  129.6779  132.3320  158.2986 C   0  0  0  0  0  0  0  0  0  0  0  0
  130.3130  132.8450  157.2159 C   0  0  0  0  0  0  0  0  0  0  0  0
  130.7311  132.0895  156.0098 C   0  0  0  0  0  0  0  0  0  0  0  0
  130.7808  132.7235  154.7696 C   0  0  0  0  0  0  0  0  0  0  0  0
  131.1768  132.0172  153.6520 C   0  0  0  0  0  0  0  0  0  0  0  0
  131.5116  130.6790  153.7590 C   0  0  0  0  0  0  0  0  0  0  0  0
  131.4583  130.0435  154.9861 C   0  0  0  0  0  0  0  0  0  0  0  0
  131.0701  130.7415  156.1116 C   0  0  0  0  0  0  0  0  0  0  0  0
  130.4939  134.1727  157.4289 N   0  0  0  0  0  0  0  0  0  0  0  0
  130.9207  134.7882  156.8125 H   0  0  0  0  0  0  0  0  0  0  0  0
  127.9653  135.5923  160.4616 C   0  0  0  0  0  0  0  0  0  0  0  0
  127.3562  135.1073  161.6038 C   0  0  0  0  0  0  0  0  0  0  0  0
  126.0177  134.7625  161.5802 C   0  0  0  0  0  0  0  0  0  0  0  0
  125.2904  134.8952  160.4121 C   0  0  0  0  0  0  0  0  0  0  0  0
  125.9008  135.3753  159.2686 C   0  0  0  0  0  0  0  0  0  0  0  0
  127.2382  135.7236  159.2931 C   0  0  0  0  0  0  0  0  0  0  0  0
  131.6257  138.3065  159.7520 C   0  0  0  0  0  0  0  0  0  0  0  0
  132.9608  138.6558  159.7709 C   0  0  0  0  0  0  0  0  0  0  0  0
  135.6077  139.9043  160.1344 C   0  0  0  0  0  0  0  0  0  0  0  0
  136.9431  140.2518  160.1666 C   0  0  0  0  0  0  0  0  0  0  0  0
  138.8551  139.8696  161.0417 H   0  0  0  0  0  0  0  0  0  0  0  0
  138.0255  138.0869  162.5205 H   0  0  0  0  0  0  0  0  0  0  0  0
  135.6469  137.4594  162.4827 H   0  0  0  0  0  0  0  0  0  0  0  0
  133.6436  137.9368  163.0128 H   0  0  0  0  0  0  0  0  0  0  0  0
  131.2617  137.3231  162.9612 H   0  0  0  0  0  0  0  0  0  0  0  0
  129.1238  137.6082  161.8574 H   0  0  0  0  0  0  0  0  0  0  0  0
  129.0369  138.0623  160.1385 H   0  0  0  0  0  0  0  0  0  0  0  0
  130.4003  136.4991  158.6784 H   0  0  0  0  0  0  0  0  0  0  0  0
  129.3831  131.3032  158.4440 H   0  0  0  0  0  0  0  0  0  0  0  0
  130.5146  133.7667  154.6842 H   0  0  0  0  0  0  0  0  0  0  0  0
  131.2207  132.5089  152.6913 H   0  0  0  0  0  0  0  0  0  0  0  0
  131.8161  130.1287  152.8810 H   0  0  0  0  0  0  0  0  0  0  0  0
  131.7213  128.9988  155.0638 H   0  0  0  0  0  0  0  0  0  0  0  0
  131.0293  130.2440  157.0694 H   0  0  0  0  0  0  0  0  0  0  0  0
  127.9254  135.0005  162.5154 H   0  0  0  0  0  0  0  0  0  0  0  0
  125.5410  134.3872  162.4736 H   0  0  0  0  0  0  0  0  0  0  0  0
  124.2453  134.6234  160.3930 H   0  0  0  0  0  0  0  0  0  0  0  0
  125.3325  135.4785  158.3559 H   0  0  0  0  0  0  0  0  0  0  0  0
  127.7150  136.0986  158.3997 H   0  0  0  0  0  0  0  0  0  0  0  0
  131.0548  138.4081  158.8409 H   0  0  0  0  0  0  0  0  0  0  0  0
  133.4349  139.0298  158.8754 H   0  0  0  0  0  0  0  0  0  0  0  0
  134.9323  140.4129  159.4624 H   0  0  0  0  0  0  0  0  0  0  0  0
  137.3124  141.0334  159.5193 H   0  0  0  0  0  0  0  0  0  0  0  0
  1 35  2  0
  1  2  1  0
  1 36  1  0
  2  3  2  0
  2 37  1  0
  3  4  1  0
  3 38  1  0
  4  5  1  0
  4 34  2  0
  5 33  1  0
  5  6  2  0
  6  7  1  0
  6 39  1  0
  7  8  2  0
  7 40  1  0
  8  9  1  0
  8 32  1  0
  9 10  1  0
  9 41  1  0
  9 42  1  0
 10 11  1  1
 10 12  1  0
 10 26  1  0
 12 43  1  0
 13 12  1  0
 13 24  2  0
 13 14  1  0
 14 15  1  0
 14 16  1  0
 16 17  2  0
 16 44  1  0
 17 18  1  0
 17 24  1  0
 18 23  1  0
 18 19  2  0
 19 20  1  0
 19 45  1  0
 20 21  2  0
 20 46  1  0
 21 22  1  0
 21 47  1  0
 22 23  2  0
 22 48  1  0
 23 49  1  0
 24 25  1  0
 26 31  1  0
 26 27  2  0
 27 28  1  0
 27 50  1  0
 28 29  2  0
 28 51  1  0
 29 30  1  0
 29 52  1  0
 30 31  2  0
 30 53  1  0
 31 54  1  0
 32 33  2  0
 32 55  1  0
 33 56  1  0
 34 35  1  0
 34 57  1  0
 35 58  1  0
M  CHG  1  24   1
M  END
>  <DOCK_score>  (1) 
-65.474533

>  <SMILES>  (1) 
c1ccc(-c2ccc(C[C@H](Nc3[nH]cc(-c4ccccc4)[nH+]3)c3ccccc3)cc2)cc1

$$$$
