COC1=C[C@@](O)(c2ccc(N)cc2Nc2[nH]cc(-c3ccc(N)cc3)[nH+]2)CC1
     RDKit          3D

 52 55  0  0  1  0  0  0  0  0999 V2000
  131.5906  141.4584  162.4517 C   0  0  0  0  0  0  0  0  0  0  0  0
  131.4158  140.1395  162.9734 O   0  0  0  0  0  0  0  0  0  0  0  0
  131.2641  139.1361  162.0730 C   0  0  0  0  0  0  0  0  0  0  0  0
  131.0940  137.8734  162.3884 C   0  0  0  0  0  0  0  0  0  0  0  0
  130.9586  137.0195  161.1491 C   0  0  1  0  0  0  0  0  0  0  0  0
  131.7461  135.8333  161.2709 O   0  0  0  0  0  0  0  0  0  0  0  0
  129.5131  136.6664  160.9105 C   0  0  0  0  0  0  0  0  0  0  0  0
  128.5392  137.1222  161.7781 C   0  0  0  0  0  0  0  0  0  0  0  0
  127.2129  136.8011  161.5628 C   0  0  0  0  0  0  0  0  0  0  0  0
  126.8542  136.0174  160.4723 C   0  0  0  0  0  0  0  0  0  0  0  0
  125.5132  135.6926  160.2559 N   0  0  0  0  0  0  0  0  0  0  0  0
  127.8291  135.5630  159.5958 C   0  0  0  0  0  0  0  0  0  0  0  0
  129.1613  135.8833  159.8180 C   0  0  0  0  0  0  0  0  0  0  0  0
  130.1470  135.4235  158.9402 N   0  0  0  0  0  0  0  0  0  0  0  0
  129.9739  134.2224  158.2719 C   0  0  0  0  0  0  0  0  0  0  0  0
  129.2716  133.1521  158.7340 N   0  0  0  0  0  0  0  0  0  0  0  0
  128.8060  133.0935  159.5829 H   0  0  0  0  0  0  0  0  0  0  0  0
  129.3385  132.1723  157.7726 C   0  0  0  0  0  0  0  0  0  0  0  0
  130.0867  132.6688  156.7564 C   0  0  0  0  0  0  0  0  0  0  0  0
  130.4314  131.9604  155.4991 C   0  0  0  0  0  0  0  0  0  0  0  0
  130.0353  132.4865  154.2705 C   0  0  0  0  0  0  0  0  0  0  0  0
  130.3620  131.8297  153.1029 C   0  0  0  0  0  0  0  0  0  0  0  0
  131.0810  130.6413  153.1508 C   0  0  0  0  0  0  0  0  0  0  0  0
  131.4117  129.9779  151.9666 N   0  0  0  0  0  0  0  0  0  0  0  0
  131.4720  130.1120  154.3750 C   0  0  0  0  0  0  0  0  0  0  0  0
  131.1472  130.7651  155.5450 C   0  0  0  0  0  0  0  0  0  0  0  0
  130.4593  133.9294  157.0900 N   0  0  0  0  0  0  0  0  0  0  0  0
  130.9986  134.5200  156.5413 H   0  0  0  0  0  0  0  0  0  0  0  0
  131.4934  137.9051  160.0002 C   0  0  0  0  0  0  0  0  0  0  0  0
  131.2689  139.3232  160.5737 C   0  0  0  0  0  0  0  0  0  0  0  0
  131.6999  142.1635  163.2756 H   0  0  0  0  0  0  0  0  0  0  0  0
  132.4842  141.4869  161.8280 H   0  0  0  0  0  0  0  0  0  0  0  0
  130.7211  141.7306  161.8534 H   0  0  0  0  0  0  0  0  0  0  0  0
  131.0555  137.4950  163.3993 H   0  0  0  0  0  0  0  0  0  0  0  0
  131.7335  135.2702  160.4847 H   0  0  0  0  0  0  0  0  0  0  0  0
  128.8153  137.7309  162.6264 H   0  0  0  0  0  0  0  0  0  0  0  0
  126.4540  137.1592  162.2426 H   0  0  0  0  0  0  0  0  0  0  0  0
  124.8315  136.0140  160.8667 H   0  0  0  0  0  0  0  0  0  0  0  0
  125.2634  135.1458  159.4947 H   0  0  0  0  0  0  0  0  0  0  0  0
  127.5525  134.9579  158.7451 H   0  0  0  0  0  0  0  0  0  0  0  0
  130.9524  135.9455  158.7989 H   0  0  0  0  0  0  0  0  0  0  0  0
  128.8844  131.1935  157.8189 H   0  0  0  0  0  0  0  0  0  0  0  0
  129.4767  133.4101  154.2328 H   0  0  0  0  0  0  0  0  0  0  0  0
  130.0591  132.2392  152.1506 H   0  0  0  0  0  0  0  0  0  0  0  0
  131.1396  130.3470  151.1119 H   0  0  0  0  0  0  0  0  0  0  0  0
  131.9137  129.1485  151.9993 H   0  0  0  0  0  0  0  0  0  0  0  0
  132.0311  129.1886  154.4098 H   0  0  0  0  0  0  0  0  0  0  0  0
  131.4515  130.3537  156.4962 H   0  0  0  0  0  0  0  0  0  0  0  0
  132.5526  137.7183  159.8228 H   0  0  0  0  0  0  0  0  0  0  0  0
  130.9139  137.7556  159.0891 H   0  0  0  0  0  0  0  0  0  0  0  0
  132.0816  139.9859  160.2764 H   0  0  0  0  0  0  0  0  0  0  0  0
  130.3122  139.7221  160.2362 H   0  0  0  0  0  0  0  0  0  0  0  0
  1  2  1  0
  1 31  1  0
  1 32  1  0
  1 33  1  0
  2  3  1  0
  3 30  1  0
  3  4  2  0
  4  5  1  0
  4 34  1  0
  5  6  1  1
  5  7  1  0
  5 29  1  0
  6 35  1  0
  7 13  1  0
  7  8  2  0
  8  9  1  0
  8 36  1  0
  9 10  2  0
  9 37  1  0
 10 11  1  0
 10 12  1  0
 11 38  1  0
 11 39  1  0
 12 13  2  0
 12 40  1  0
 13 14  1  0
 14 41  1  0
 15 14  1  0
 15 27  2  0
 15 16  1  0
 16 17  1  0
 16 18  1  0
 18 19  2  0
 18 42  1  0
 19 20  1  0
 19 27  1  0
 20 26  1  0
 20 21  2  0
 21 22  1  0
 21 43  1  0
 22 23  2  0
 22 44  1  0
 23 24  1  0
 23 25  1  0
 24 45  1  0
 24 46  1  0
 25 26  2  0
 25 47  1  0
 26 48  1  0
 27 28  1  0
 29 30  1  0
 29 49  1  0
 29 50  1  0
 30 51  1  0
 30 52  1  0
M  CHG  1  27   1
M  END
>  <DOCK_score>  (1) 
-57.199337

>  <SMILES>  (1) 
COC1=C[C@@](O)(c2ccc(N)cc2Nc2[nH]cc(-c3ccc(N)cc3)[nH+]2)CC1

$$$$
