CCc1ccc(-c2c[nH]c(Nc3ccc(NC4CC4)c4ccccc34)[nH+]2)cc1
     RDKit          3D

 53 57  0  0  1  0  0  0  0  0999 V2000
  130.0649  128.4482  151.4691 C   0  0  0  0  0  0  0  0  0  0  0  0
  131.2092  129.4256  151.7439 C   0  0  0  0  0  0  0  0  0  0  0  0
  130.9173  130.1998  153.0035 C   0  0  0  0  0  0  0  0  0  0  0  0
  131.3465  129.7140  154.2255 C   0  0  0  0  0  0  0  0  0  0  0  0
  131.0864  130.4206  155.3819 C   0  0  0  0  0  0  0  0  0  0  0  0
  130.3806  131.6209  155.3180 C   0  0  0  0  0  0  0  0  0  0  0  0
  130.0935  132.3825  156.5581 C   0  0  0  0  0  0  0  0  0  0  0  0
  129.3873  131.9330  157.6254 C   0  0  0  0  0  0  0  0  0  0  0  0
  129.3631  132.9523  158.5453 N   0  0  0  0  0  0  0  0  0  0  0  0
  128.9315  132.9323  159.4138 H   0  0  0  0  0  0  0  0  0  0  0  0
  130.0560  133.9963  158.0131 C   0  0  0  0  0  0  0  0  0  0  0  0
  130.2668  135.2204  158.6253 N   0  0  0  0  0  0  0  0  0  0  0  0
  129.7470  135.4631  159.9005 C   0  0  0  0  0  0  0  0  0  0  0  0
  130.5918  135.7648  160.9463 C   0  0  0  0  0  0  0  0  0  0  0  0
  130.0896  136.0145  162.2197 C   0  0  0  0  0  0  0  0  0  0  0  0
  128.7358  135.9552  162.4693 C   0  0  0  0  0  0  0  0  0  0  0  0
  128.2477  136.2024  163.7550 N   0  0  0  0  0  0  0  0  0  0  0  0
  128.6754  135.3608  164.8753 C   0  0  0  0  0  0  0  0  0  0  0  0
  127.6258  134.9993  165.9281 C   0  0  0  0  0  0  0  0  0  0  0  0
  128.7295  136.0048  166.2621 C   0  0  0  0  0  0  0  0  0  0  0  0
  127.8451  135.6431  161.4209 C   0  0  0  0  0  0  0  0  0  0  0  0
  126.4597  135.5740  161.6408 C   0  0  0  0  0  0  0  0  0  0  0  0
  125.6276  135.2697  160.6072 C   0  0  0  0  0  0  0  0  0  0  0  0
  126.1300  135.0250  159.3307 C   0  0  0  0  0  0  0  0  0  0  0  0
  127.4673  135.0834  159.0814 C   0  0  0  0  0  0  0  0  0  0  0  0
  128.3559  135.3945  160.1233 C   0  0  0  0  0  0  0  0  0  0  0  0
  130.4958  133.6494  156.8279 N   0  0  0  0  0  0  0  0  0  0  0  0
  131.0224  134.2101  156.2369 H   0  0  0  0  0  0  0  0  0  0  0  0
  129.9461  132.1029  154.0846 C   0  0  0  0  0  0  0  0  0  0  0  0
  130.2164  131.3903  152.9341 C   0  0  0  0  0  0  0  0  0  0  0  0
  130.2760  127.8886  150.5578 H   0  0  0  0  0  0  0  0  0  0  0  0
  129.9693  127.7568  152.3062 H   0  0  0  0  0  0  0  0  0  0  0  0
  129.1343  129.0027  151.3476 H   0  0  0  0  0  0  0  0  0  0  0  0
  132.1397  128.8717  151.8651 H   0  0  0  0  0  0  0  0  0  0  0  0
  131.3048  130.1176  150.9065 H   0  0  0  0  0  0  0  0  0  0  0  0
  131.8898  128.7817  154.2742 H   0  0  0  0  0  0  0  0  0  0  0  0
  131.4255  130.0426  156.3350 H   0  0  0  0  0  0  0  0  0  0  0  0
  128.9310  130.9599  157.7312 H   0  0  0  0  0  0  0  0  0  0  0  0
  130.7751  135.9094  158.1695 H   0  0  0  0  0  0  0  0  0  0  0  0
  131.6570  135.8125  160.7744 H   0  0  0  0  0  0  0  0  0  0  0  0
  130.7700  136.2533  163.0238 H   0  0  0  0  0  0  0  0  0  0  0  0
  127.6257  136.9313  163.9057 H   0  0  0  0  0  0  0  0  0  0  0  0
  129.4305  134.6112  164.6387 H   0  0  0  0  0  0  0  0  0  0  0  0
  126.6170  135.3875  165.7872 H   0  0  0  0  0  0  0  0  0  0  0  0
  127.6901  134.0114  166.3843 H   0  0  0  0  0  0  0  0  0  0  0  0
  129.5199  135.6784  166.9380 H   0  0  0  0  0  0  0  0  0  0  0  0
  128.4469  137.0545  166.3409 H   0  0  0  0  0  0  0  0  0  0  0  0
  126.0566  135.7609  162.6251 H   0  0  0  0  0  0  0  0  0  0  0  0
  124.5627  135.2174  160.7791 H   0  0  0  0  0  0  0  0  0  0  0  0
  125.4489  134.7858  158.5274 H   0  0  0  0  0  0  0  0  0  0  0  0
  127.8427  134.8918  158.0871 H   0  0  0  0  0  0  0  0  0  0  0  0
  129.3985  133.0322  154.0295 H   0  0  0  0  0  0  0  0  0  0  0  0
  129.8799  131.7628  151.9779 H   0  0  0  0  0  0  0  0  0  0  0  0
  1  2  1  0
  1 31  1  0
  1 32  1  0
  1 33  1  0
  2  3  1  0
  2 34  1  0
  2 35  1  0
  3 30  2  0
  3  4  1  0
  4  5  2  0
  4 36  1  0
  5  6  1  0
  5 37  1  0
  6  7  1  0
  6 29  2  0
  7 27  1  0
  7  8  2  0
  8  9  1  0
  8 38  1  0
  9 10  1  0
  9 11  1  0
 11 12  1  0
 11 27  2  0
 12 13  1  0
 12 39  1  0
 13 26  1  0
 13 14  2  0
 14 15  1  0
 14 40  1  0
 15 16  2  0
 15 41  1  0
 16 17  1  0
 16 21  1  0
 17 18  1  0
 17 42  1  0
 18 20  1  0
 18 19  1  0
 18 43  1  0
 19 20  1  0
 19 44  1  0
 19 45  1  0
 20 46  1  0
 20 47  1  0
 21 26  2  0
 21 22  1  0
 22 23  2  0
 22 48  1  0
 23 24  1  0
 23 49  1  0
 24 25  2  0
 24 50  1  0
 25 26  1  0
 25 51  1  0
 27 28  1  0
 29 30  1  0
 29 52  1  0
 30 53  1  0
M  CHG  1  27   1
M  END
>  <DOCK_score>  (1) 
-57.075607

>  <SMILES>  (1) 
CCc1ccc(-c2c[nH]c(Nc3ccc(NC4CC4)c4ccccc34)[nH+]2)cc1

$$$$
