C[C@H](Br)C(Cc1ccccc1)Nc1[nH]cc(-c2ccc(N)cc2)[nH+]1
     RDKit          3D

 46 48  0  0  1  0  0  0  0  0999 V2000
  131.1975  134.2112  162.7793 C   0  0  0  0  0  0  0  0  0  0  0  0
  131.7374  134.1422  161.3493 C   0  0  2  0  0  0  0  0  0  0  0  0
  132.2770  133.2055  161.2097 H   0  0  0  0  0  0  0  0  0  0  0  0
  132.9550  135.6534  161.0351 Br  0  0  0  0  0  0  0  0  0  0  0  0
  130.5722  134.2119  160.3603 C   0  0  1  0  0  0  0  0  0  0  0  0
  129.8146  135.5266  160.5565 C   0  0  0  0  0  0  0  0  0  0  0  0
  128.6669  135.5952  159.5824 C   0  0  0  0  0  0  0  0  0  0  0  0
  128.8518  136.1622  158.3353 C   0  0  0  0  0  0  0  0  0  0  0  0
  127.8002  136.2208  157.4399 C   0  0  0  0  0  0  0  0  0  0  0  0
  126.5610  135.7218  157.7955 C   0  0  0  0  0  0  0  0  0  0  0  0
  126.3748  135.1596  159.0445 C   0  0  0  0  0  0  0  0  0  0  0  0
  127.4276  135.0963  159.9379 C   0  0  0  0  0  0  0  0  0  0  0  0
  131.0892  134.1458  158.9912 N   0  0  0  0  0  0  0  0  0  0  0  0
  130.6954  133.1180  158.1514 C   0  0  0  0  0  0  0  0  0  0  0  0
  129.8374  132.1133  158.4769 N   0  0  0  0  0  0  0  0  0  0  0  0
  129.3960  131.9889  159.3316 H   0  0  0  0  0  0  0  0  0  0  0  0
  129.7083  131.3096  157.3690 C   0  0  0  0  0  0  0  0  0  0  0  0
  130.4971  131.8419  156.4031 C   0  0  0  0  0  0  0  0  0  0  0  0
  130.6777  131.3079  155.0308 C   0  0  0  0  0  0  0  0  0  0  0  0
  130.3430  132.0911  153.9273 C   0  0  0  0  0  0  0  0  0  0  0  0
  130.5121  131.5928  152.6527 C   0  0  0  0  0  0  0  0  0  0  0  0
  131.0163  130.3109  152.4678 C   0  0  0  0  0  0  0  0  0  0  0  0
  131.1870  129.8083  151.1756 N   0  0  0  0  0  0  0  0  0  0  0  0
  131.3453  129.5261  153.5668 C   0  0  0  0  0  0  0  0  0  0  0  0
  131.1827  130.0222  154.8430 C   0  0  0  0  0  0  0  0  0  0  0  0
  131.0874  132.9523  156.9116 N   0  0  0  0  0  0  0  0  0  0  0  0
  131.7015  133.5317  156.4338 H   0  0  0  0  0  0  0  0  0  0  0  0
  130.5223  133.3733  162.9535 H   0  0  0  0  0  0  0  0  0  0  0  0
  132.0275  134.1616  163.4839 H   0  0  0  0  0  0  0  0  0  0  0  0
  130.6576  135.1478  162.9190 H   0  0  0  0  0  0  0  0  0  0  0  0
  129.8971  133.3741  160.5346 H   0  0  0  0  0  0  0  0  0  0  0  0
  129.4300  135.5757  161.5753 H   0  0  0  0  0  0  0  0  0  0  0  0
  130.4897  136.3644  160.3823 H   0  0  0  0  0  0  0  0  0  0  0  0
  129.8187  136.5562  158.0591 H   0  0  0  0  0  0  0  0  0  0  0  0
  127.9455  136.6604  156.4642 H   0  0  0  0  0  0  0  0  0  0  0  0
  125.7383  135.7716  157.0976 H   0  0  0  0  0  0  0  0  0  0  0  0
  125.4065  134.7701  159.3225 H   0  0  0  0  0  0  0  0  0  0  0  0
  127.2820  134.6573  160.9139 H   0  0  0  0  0  0  0  0  0  0  0  0
  131.7073  134.8223  158.6730 H   0  0  0  0  0  0  0  0  0  0  0  0
  129.0974  130.4229  157.2848 H   0  0  0  0  0  0  0  0  0  0  0  0
  129.9513  133.0872  154.0704 H   0  0  0  0  0  0  0  0  0  0  0  0
  130.2530  132.1991  151.7974 H   0  0  0  0  0  0  0  0  0  0  0  0
  130.9541  130.3539  150.4082 H   0  0  0  0  0  0  0  0  0  0  0  0
  131.5426  128.9151  151.0457 H   0  0  0  0  0  0  0  0  0  0  0  0
  131.7324  128.5284  153.4208 H   0  0  0  0  0  0  0  0  0  0  0  0
  131.4426  129.4137  155.6966 H   0  0  0  0  0  0  0  0  0  0  0  0
  1  2  1  0
  1 28  1  0
  1 29  1  0
  1 30  1  0
  2  3  1  1
  2  4  1  0
  2  5  1  0
  5  6  1  0
  5 13  1  0
  5 31  1  1
  6  7  1  0
  6 32  1  0
  6 33  1  0
  7 12  1  0
  7  8  2  0
  8  9  1  0
  8 34  1  0
  9 10  2  0
  9 35  1  0
 10 11  1  0
 10 36  1  0
 11 12  2  0
 11 37  1  0
 12 38  1  0
 13 39  1  0
 14 13  1  0
 14 26  2  0
 14 15  1  0
 15 16  1  0
 15 17  1  0
 17 18  2  0
 17 40  1  0
 18 19  1  0
 18 26  1  0
 19 25  1  0
 19 20  2  0
 20 21  1  0
 20 41  1  0
 21 22  2  0
 21 42  1  0
 22 23  1  0
 22 24  1  0
 23 43  1  0
 23 44  1  0
 24 25  2  0
 24 45  1  0
 25 46  1  0
 26 27  1  0
M  CHG  1  26   1
M  END
>  <DOCK_score>  (1) 
-60.118324

>  <SMILES>  (1) 
C[C@H](Br)C(Cc1ccccc1)Nc1[nH]cc(-c2ccc(N)cc2)[nH+]1

$$$$
