Cc1ccc(/C=C/C(Nc2[nH]cc(-c3ccc(N)cc3)[nH+]2)[C@@H]2CCCc3ccc(N)cc32)cc1
     RDKit          3D

 66 70  0  0  1  0  0  0  0  0999 V2000
  135.1237  141.4252  161.7009 C   0  0  0  0  0  0  0  0  0  0  0  0
  134.3834  140.1631  161.3396 C   0  0  0  0  0  0  0  0  0  0  0  0
  133.0094  140.1047  161.4877 C   0  0  0  0  0  0  0  0  0  0  0  0
  132.3254  138.9525  161.1586 C   0  0  0  0  0  0  0  0  0  0  0  0
  133.0229  137.8447  160.6755 C   0  0  0  0  0  0  0  0  0  0  0  0
  132.2964  136.6072  160.3209 C   0  0  0  0  0  0  0  0  0  0  0  0
  131.0843  136.3867  160.8107 C   0  0  0  0  0  0  0  0  0  0  0  0
  130.3435  135.1251  160.4492 C   0  0  2  0  0  0  0  0  0  0  0  0
  130.1542  135.0689  158.9976 N   0  0  0  0  0  0  0  0  0  0  0  0
  130.0925  133.8444  158.3545 C   0  0  0  0  0  0  0  0  0  0  0  0
  129.6267  132.6869  158.8972 N   0  0  0  0  0  0  0  0  0  0  0  0
  129.2819  132.5717  159.7965 H   0  0  0  0  0  0  0  0  0  0  0  0
  129.7359  131.7104  157.9356 C   0  0  0  0  0  0  0  0  0  0  0  0
  130.2646  132.3000  156.8349 C   0  0  0  0  0  0  0  0  0  0  0  0
  130.5621  131.6315  155.5443 C   0  0  0  0  0  0  0  0  0  0  0  0
  129.9390  132.0635  154.3745 C   0  0  0  0  0  0  0  0  0  0  0  0
  130.2214  131.4444  153.1752 C   0  0  0  0  0  0  0  0  0  0  0  0
  131.1177  130.3830  153.1339 C   0  0  0  0  0  0  0  0  0  0  0  0
  131.3976  129.7537  151.9184 N   0  0  0  0  0  0  0  0  0  0  0  0
  131.7357  129.9468  154.2998 C   0  0  0  0  0  0  0  0  0  0  0  0
  131.4607  130.5667  155.5005 C   0  0  0  0  0  0  0  0  0  0  0  0
  130.4726  133.6093  157.1222 N   0  0  0  0  0  0  0  0  0  0  0  0
  130.8402  134.2675  156.5119 H   0  0  0  0  0  0  0  0  0  0  0  0
  128.9795  135.1184  161.1421 C   0  0  2  0  0  0  0  0  0  0  0  0
  128.6016  134.0967  161.1819 H   0  0  0  0  0  0  0  0  0  0  0  0
  128.0058  135.9848  160.3458 C   0  0  0  0  0  0  0  0  0  0  0  0
  126.7182  136.1407  161.1634 C   0  0  0  0  0  0  0  0  0  0  0  0
  127.0190  137.0253  162.3716 C   0  0  0  0  0  0  0  0  0  0  0  0
  128.2297  136.5185  163.1113 C   0  0  0  0  0  0  0  0  0  0  0  0
  128.4234  136.9634  164.4137 C   0  0  0  0  0  0  0  0  0  0  0  0
  129.5127  136.5461  165.1440 C   0  0  0  0  0  0  0  0  0  0  0  0
  130.4276  135.6689  164.5747 C   0  0  0  0  0  0  0  0  0  0  0  0
  131.5377  135.2396  165.3055 N   0  0  0  0  0  0  0  0  0  0  0  0
  130.2323  135.2229  163.2769 C   0  0  0  0  0  0  0  0  0  0  0  0
  129.1319  135.6466  162.5446 C   0  0  0  0  0  0  0  0  0  0  0  0
  134.4095  137.9081  160.5339 C   0  0  0  0  0  0  0  0  0  0  0  0
  135.0811  139.0681  160.8614 C   0  0  0  0  0  0  0  0  0  0  0  0
  135.4212  141.3848  162.7484 H   0  0  0  0  0  0  0  0  0  0  0  0
  136.0118  141.5171  161.0744 H   0  0  0  0  0  0  0  0  0  0  0  0
  134.4752  142.2858  161.5394 H   0  0  0  0  0  0  0  0  0  0  0  0
  132.4707  140.9629  161.8617 H   0  0  0  0  0  0  0  0  0  0  0  0
  131.2526  138.9081  161.2749 H   0  0  0  0  0  0  0  0  0  0  0  0
  132.7529  135.8827  159.6628 H   0  0  0  0  0  0  0  0  0  0  0  0
  130.6279  137.1112  161.4688 H   0  0  0  0  0  0  0  0  0  0  0  0
  130.9204  134.2592  160.7742 H   0  0  0  0  0  0  0  0  0  0  0  0
  130.0722  135.8896  158.4871 H   0  0  0  0  0  0  0  0  0  0  0  0
  129.4545  130.6727  158.0373 H   0  0  0  0  0  0  0  0  0  0  0  0
  129.2388  132.8851  154.4069 H   0  0  0  0  0  0  0  0  0  0  0  0
  129.7426  131.7820  152.2678 H   0  0  0  0  0  0  0  0  0  0  0  0
  132.0227  129.0122  151.8890 H   0  0  0  0  0  0  0  0  0  0  0  0
  130.9665  130.0570  151.1044 H   0  0  0  0  0  0  0  0  0  0  0  0
  132.4322  129.1221  154.2654 H   0  0  0  0  0  0  0  0  0  0  0  0
  131.9415  130.2276  156.4063 H   0  0  0  0  0  0  0  0  0  0  0  0
  128.4482  136.9647  160.1670 H   0  0  0  0  0  0  0  0  0  0  0  0
  127.7809  135.5042  159.3937 H   0  0  0  0  0  0  0  0  0  0  0  0
  125.9476  136.6072  160.5496 H   0  0  0  0  0  0  0  0  0  0  0  0
  126.3763  135.1620  161.5004 H   0  0  0  0  0  0  0  0  0  0  0  0
  127.2051  138.0446  162.0332 H   0  0  0  0  0  0  0  0  0  0  0  0
  126.1603  137.0208  163.0430 H   0  0  0  0  0  0  0  0  0  0  0  0
  127.7130  137.6457  164.8568 H   0  0  0  0  0  0  0  0  0  0  0  0
  129.6552  136.8977  166.1552 H   0  0  0  0  0  0  0  0  0  0  0  0
  132.1341  134.5710  164.9337 H   0  0  0  0  0  0  0  0  0  0  0  0
  131.7122  135.6099  166.1848 H   0  0  0  0  0  0  0  0  0  0  0  0
  130.9418  134.5409  162.8321 H   0  0  0  0  0  0  0  0  0  0  0  0
  134.9556  137.0525  160.1649 H   0  0  0  0  0  0  0  0  0  0  0  0
  136.1538  139.1200  160.7481 H   0  0  0  0  0  0  0  0  0  0  0  0
  1  2  1  0
  1 38  1  0
  1 39  1  0
  1 40  1  0
  2 37  2  0
  2  3  1  0
  3  4  2  0
  3 41  1  0
  4  5  1  0
  4 42  1  0
  5  6  1  0
  5 36  2  0
  6  7  2  0
  6 43  1  0
  7  8  1  0
  7 44  1  0
  8  9  1  0
  8 24  1  0
  8 45  1  1
  9 46  1  0
 10  9  1  0
 10 22  2  0
 10 11  1  0
 11 12  1  0
 11 13  1  0
 13 14  2  0
 13 47  1  0
 14 15  1  0
 14 22  1  0
 15 21  1  0
 15 16  2  0
 16 17  1  0
 16 48  1  0
 17 18  2  0
 17 49  1  0
 18 19  1  0
 18 20  1  0
 19 50  1  0
 19 51  1  0
 20 21  2  0
 20 52  1  0
 21 53  1  0
 22 23  1  0
 24 25  1  1
 24 35  1  0
 24 26  1  0
 26 27  1  0
 26 54  1  0
 26 55  1  0
 27 28  1  0
 27 56  1  0
 27 57  1  0
 28 29  1  0
 28 58  1  0
 28 59  1  0
 29 35  2  0
 29 30  1  0
 30 31  2  0
 30 60  1  0
 31 32  1  0
 31 61  1  0
 32 33  1  0
 32 34  2  0
 33 62  1  0
 33 63  1  0
 34 35  1  0
 34 64  1  0
 36 37  1  0
 36 65  1  0
 37 66  1  0
M  CHG  1  22   1
M  END
>  <DOCK_score>  (1) 
-56.459389

>  <SMILES>  (1) 
Cc1ccc(/C=C/C(Nc2[nH]cc(-c3ccc(N)cc3)[nH+]2)[C@@H]2CCCc3ccc(N)cc32)cc1

$$$$
