O=[N+]([O-])c1ccc([C@@H]2CCC(O)C2)c(C[NH+]=C(NC2CC(F)C2)NC2CCc3ccsc32)c1
     RDKit          3D

 63 67  0  0  1  0  0  0  0  0999 V2000
  126.4238  139.2279  162.6492 O   0  0  0  0  0  0  0  0  0  0  0  0
  126.6861  139.5275  163.8002 N   0  0  0  0  0  0  0  0  0  0  0  0
  125.9533  140.2810  164.4156 O   0  0  0  0  0  0  0  0  0  0  0  0
  127.8956  138.9760  164.4512 C   0  0  0  0  0  0  0  0  0  0  0  0
  128.1931  139.3156  165.7580 C   0  0  0  0  0  0  0  0  0  0  0  0
  129.3225  138.8007  166.3660 C   0  0  0  0  0  0  0  0  0  0  0  0
  130.1514  137.9410  165.6693 C   0  0  0  0  0  0  0  0  0  0  0  0
  131.3793  137.3741  166.3343 C   0  0  2  0  0  0  0  0  0  0  0  0
  131.9160  136.7194  165.6478 H   0  0  0  0  0  0  0  0  0  0  0  0
  130.9925  136.6076  167.6236 C   0  0  0  0  0  0  0  0  0  0  0  0
  132.3033  136.6426  168.4482 C   0  0  0  0  0  0  0  0  0  0  0  0
  132.8849  138.0449  168.1746 C   0  0  1  0  0  0  0  0  0  0  0  0
  134.3096  137.9757  168.0894 O   0  0  0  0  0  0  0  0  0  0  0  0
  132.2975  138.5101  166.8306 C   0  0  0  0  0  0  0  0  0  0  0  0
  129.8568  137.6055  164.3613 C   0  0  0  0  0  0  0  0  0  0  0  0
  130.7635  136.6729  163.6000 C   0  0  0  0  0  0  0  0  0  0  0  0
  130.2376  136.4771  162.2468 N   0  0  0  0  0  0  0  0  0  0  0  0
  129.3531  136.0994  162.1201 H   0  0  0  0  0  0  0  0  0  0  0  0
  130.9581  136.8104  161.2130 C   0  0  0  0  0  0  0  0  0  0  0  0
  131.8595  137.8442  161.3076 N   0  0  0  0  0  0  0  0  0  0  0  0
  132.6693  138.2187  160.1455 C   0  0  2  0  0  0  0  0  0  0  0  0
  133.9198  137.3433  159.9584 C   0  0  0  0  0  0  0  0  0  0  0  0
  134.6676  138.6315  159.5755 C   0  0  2  0  0  0  0  0  0  0  0  0
  135.9650  138.7015  160.0944 F   0  0  0  0  0  0  0  0  0  0  0  0
  133.6268  139.3916  160.4143 C   0  0  0  0  0  0  0  0  0  0  0  0
  130.8167  136.1281  160.0278 N   0  0  0  0  0  0  0  0  0  0  0  0
  129.8561  135.0266  159.9268 C   0  0  2  0  0  0  0  0  0  0  0  0
  130.2689  133.8678  160.8570 C   0  0  0  0  0  0  0  0  0  0  0  0
  131.1152  132.9931  159.9113 C   0  0  0  0  0  0  0  0  0  0  0  0
  130.5813  133.2911  158.5110 C   0  0  0  0  0  0  0  0  0  0  0  0
  130.6428  132.6856  157.2489 C   0  0  0  0  0  0  0  0  0  0  0  0
  130.0071  133.3232  156.2751 C   0  0  0  0  0  0  0  0  0  0  0  0
  129.2630  134.7808  156.9110 S   0  0  0  0  0  0  0  0  0  0  0  0
  129.8795  134.4304  158.5277 C   0  0  0  0  0  0  0  0  0  0  0  0
  128.7274  138.1210  163.7529 C   0  0  0  0  0  0  0  0  0  0  0  0
  127.5432  139.9837  166.3036 H   0  0  0  0  0  0  0  0  0  0  0  0
  129.5551  139.0663  167.3865 H   0  0  0  0  0  0  0  0  0  0  0  0
  130.1896  137.1214  168.1522 H   0  0  0  0  0  0  0  0  0  0  0  0
  130.7090  135.5809  167.3920 H   0  0  0  0  0  0  0  0  0  0  0  0
  132.0894  136.5186  169.5098 H   0  0  0  0  0  0  0  0  0  0  0  0
  132.9902  135.8689  168.1055 H   0  0  0  0  0  0  0  0  0  0  0  0
  132.5916  138.7322  168.9681 H   0  0  0  0  0  0  0  0  0  0  0  0
  134.7339  138.8230  167.8964 H   0  0  0  0  0  0  0  0  0  0  0  0
  133.0991  138.6828  166.1125 H   0  0  0  0  0  0  0  0  0  0  0  0
  131.7190  139.4230  166.9719 H   0  0  0  0  0  0  0  0  0  0  0  0
  130.8112  135.7129  164.1138 H   0  0  0  0  0  0  0  0  0  0  0  0
  131.7628  137.1044  163.5426 H   0  0  0  0  0  0  0  0  0  0  0  0
  131.9592  138.3255  162.1437 H   0  0  0  0  0  0  0  0  0  0  0  0
  132.0776  138.3371  159.2379 H   0  0  0  0  0  0  0  0  0  0  0  0
  134.2772  136.8892  160.8825 H   0  0  0  0  0  0  0  0  0  0  0  0
  133.8339  136.6287  159.1399 H   0  0  0  0  0  0  0  0  0  0  0  0
  134.6234  138.8621  158.5111 H   0  0  0  0  0  0  0  0  0  0  0  0
  133.3044  140.3304  159.9639 H   0  0  0  0  0  0  0  0  0  0  0  0
  133.9029  139.4983  161.4633 H   0  0  0  0  0  0  0  0  0  0  0  0
  131.3500  136.3787  159.2572 H   0  0  0  0  0  0  0  0  0  0  0  0
  128.8533  135.3749  160.1741 H   0  0  0  0  0  0  0  0  0  0  0  0
  130.8674  134.2319  161.6921 H   0  0  0  0  0  0  0  0  0  0  0  0
  129.3945  133.3233  161.2136 H   0  0  0  0  0  0  0  0  0  0  0  0
  130.9823  131.9381  160.1506 H   0  0  0  0  0  0  0  0  0  0  0  0
  132.1680  133.2669  159.9814 H   0  0  0  0  0  0  0  0  0  0  0  0
  131.1730  131.7599  157.0803 H   0  0  0  0  0  0  0  0  0  0  0  0
  129.9548  132.9954  155.2474 H   0  0  0  0  0  0  0  0  0  0  0  0
  128.4948  137.8555  162.7323 H   0  0  0  0  0  0  0  0  0  0  0  0
  1  2  2  0
  2  3  1  0
  2  4  1  0
  4 35  2  0
  4  5  1  0
  5  6  2  0
  5 36  1  0
  6  7  1  0
  6 37  1  0
  7  8  1  0
  7 15  2  0
  8  9  1  6
  8 14  1  0
  8 10  1  0
 10 11  1  0
 10 38  1  0
 10 39  1  0
 11 12  1  0
 11 40  1  0
 11 41  1  0
 12 13  1  0
 12 14  1  0
 12 42  1  1
 13 43  1  0
 14 44  1  0
 14 45  1  0
 15 16  1  0
 15 35  1  0
 16 17  1  0
 16 46  1  0
 16 47  1  0
 17 18  1  0
 19 17  2  0
 19 20  1  0
 19 26  1  0
 20 21  1  0
 20 48  1  0
 21 25  1  0
 21 22  1  0
 21 49  1  6
 22 23  1  0
 22 50  1  0
 22 51  1  0
 23 24  1  0
 23 25  1  0
 23 52  1  6
 25 53  1  0
 25 54  1  0
 26 27  1  0
 26 55  1  0
 27 34  1  0
 27 28  1  0
 27 56  1  1
 28 29  1  0
 28 57  1  0
 28 58  1  0
 29 30  1  0
 29 59  1  0
 29 60  1  0
 30 34  2  0
 30 31  1  0
 31 32  2  0
 31 61  1  0
 32 33  1  0
 32 62  1  0
 33 34  1  0
 35 63  1  0
M  CHG  3   2   1   3  -1  17   1
M  END
>  <DOCK_score>  (1) 
-41.183369

>  <SMILES>  (1) 
O=[N+]([O-])c1ccc([C@@H]2CCC(O)C2)c(C[NH+]=C(NC2CC(F)C2)NC2CCc3ccsc32)c1

$$$$
