Oc1cc(F)c(Nc2[nH]cc(-c3ccccc3)[nH+]2)cc1C1=CCC=CC1
     RDKit          3D

 45 48  0  0  1  0  0  0  0  0999 V2000
  126.3857  136.7454  162.6460 O   0  0  0  0  0  0  0  0  0  0  0  0
  127.3151  136.3461  161.7384 C   0  0  0  0  0  0  0  0  0  0  0  0
  126.9477  136.1236  160.4214 C   0  0  0  0  0  0  0  0  0  0  0  0
  127.8920  135.7170  159.4961 C   0  0  0  0  0  0  0  0  0  0  0  0
  127.5278  135.5016  158.2132 F   0  0  0  0  0  0  0  0  0  0  0  0
  129.2176  135.5351  159.8809 C   0  0  0  0  0  0  0  0  0  0  0  0
  130.1709  135.1291  158.9372 N   0  0  0  0  0  0  0  0  0  0  0  0
  130.0165  133.9249  158.2710 C   0  0  0  0  0  0  0  0  0  0  0  0
  129.4042  132.8159  158.7691 N   0  0  0  0  0  0  0  0  0  0  0  0
  129.0006  132.7276  159.6468 H   0  0  0  0  0  0  0  0  0  0  0  0
  129.4607  131.8458  157.7986 C   0  0  0  0  0  0  0  0  0  0  0  0
  130.1125  132.3865  156.7391 C   0  0  0  0  0  0  0  0  0  0  0  0
  130.4131  131.7024  155.4576 C   0  0  0  0  0  0  0  0  0  0  0  0
  129.9097  132.2076  154.2601 C   0  0  0  0  0  0  0  0  0  0  0  0
  130.1973  131.5704  153.0704 C   0  0  0  0  0  0  0  0  0  0  0  0
  130.9738  130.4258  153.0659 C   0  0  0  0  0  0  0  0  0  0  0  0
  131.4715  129.9165  154.2521 C   0  0  0  0  0  0  0  0  0  0  0  0
  131.1953  130.5489  155.4473 C   0  0  0  0  0  0  0  0  0  0  0  0
  130.4410  133.6630  157.0587 N   0  0  0  0  0  0  0  0  0  0  0  0
  130.9147  134.2830  156.4824 H   0  0  0  0  0  0  0  0  0  0  0  0
  129.5945  135.7496  161.1961 C   0  0  0  0  0  0  0  0  0  0  0  0
  128.6451  136.1594  162.1328 C   0  0  0  0  0  0  0  0  0  0  0  0
  129.0420  136.3958  163.5358 C   0  0  0  0  0  0  0  0  0  0  0  0
  129.9503  137.3130  163.7891 C   0  0  0  0  0  0  0  0  0  0  0  0
  130.4174  137.6259  165.1790 C   0  0  0  0  0  0  0  0  0  0  0  0
  129.4341  137.1446  166.2027 C   0  0  0  0  0  0  0  0  0  0  0  0
  128.5386  136.2395  165.9528 C   0  0  0  0  0  0  0  0  0  0  0  0
  128.3895  135.5849  164.6150 C   0  0  0  0  0  0  0  0  0  0  0  0
  125.4965  136.8469  162.2797 H   0  0  0  0  0  0  0  0  0  0  0  0
  125.9216  136.2673  160.1166 H   0  0  0  0  0  0  0  0  0  0  0  0
  130.9387  135.6917  158.7506 H   0  0  0  0  0  0  0  0  0  0  0  0
  129.0650  130.8433  157.8672 H   0  0  0  0  0  0  0  0  0  0  0  0
  129.2993  133.0986  154.2630 H   0  0  0  0  0  0  0  0  0  0  0  0
  129.8118  131.9636  152.1413 H   0  0  0  0  0  0  0  0  0  0  0  0
  131.1927  129.9278  152.1329 H   0  0  0  0  0  0  0  0  0  0  0  0
  132.0774  129.0225  154.2428 H   0  0  0  0  0  0  0  0  0  0  0  0
  131.5849  130.1510  156.3725 H   0  0  0  0  0  0  0  0  0  0  0  0
  130.6221  135.6045  161.4950 H   0  0  0  0  0  0  0  0  0  0  0  0
  130.3760  137.8631  162.9629 H   0  0  0  0  0  0  0  0  0  0  0  0
  131.3781  137.1406  165.3506 H   0  0  0  0  0  0  0  0  0  0  0  0
  130.5389  138.7043  165.2809 H   0  0  0  0  0  0  0  0  0  0  0  0
  129.4724  137.5713  167.1942 H   0  0  0  0  0  0  0  0  0  0  0  0
  127.8666  135.9471  166.7461 H   0  0  0  0  0  0  0  0  0  0  0  0
  127.3296  135.4728  164.3863 H   0  0  0  0  0  0  0  0  0  0  0  0
  128.8524  134.5986  164.6501 H   0  0  0  0  0  0  0  0  0  0  0  0
  1  2  1  0
  1 29  1  0
  2 22  2  0
  2  3  1  0
  3  4  2  0
  3 30  1  0
  4  5  1  0
  4  6  1  0
  6  7  1  0
  6 21  2  0
  7 31  1  0
  8  7  1  0
  8 19  2  0
  8  9  1  0
  9 10  1  0
  9 11  1  0
 11 12  2  0
 11 32  1  0
 12 13  1  0
 12 19  1  0
 13 18  1  0
 13 14  2  0
 14 15  1  0
 14 33  1  0
 15 16  2  0
 15 34  1  0
 16 17  1  0
 16 35  1  0
 17 18  2  0
 17 36  1  0
 18 37  1  0
 19 20  1  0
 21 22  1  0
 21 38  1  0
 22 23  1  0
 23 28  1  0
 23 24  2  0
 24 25  1  0
 24 39  1  0
 25 26  1  0
 25 40  1  0
 25 41  1  0
 26 27  2  0
 26 42  1  0
 27 28  1  0
 27 43  1  0
 28 44  1  0
 28 45  1  0
M  CHG  1  19   1
M  END
>  <DOCK_score>  (1) 
-53.795265

>  <SMILES>  (1) 
Oc1cc(F)c(Nc2[nH]cc(-c3ccccc3)[nH+]2)cc1C1=CCC=CC1

$$$$
