CCc1ccc(-c2c[nH]c(Nc3cccc(N)c3C)[nH+]2)cc1
     RDKit          3D

 43 45  0  0  1  0  0  0  0  0999 V2000
  130.3332  128.5386  151.5490 C   0  0  0  0  0  0  0  0  0  0  0  0
  131.4088  129.5861  151.8430 C   0  0  0  0  0  0  0  0  0  0  0  0
  131.0794  130.2968  153.1305 C   0  0  0  0  0  0  0  0  0  0  0  0
  131.5579  129.8046  154.3310 C   0  0  0  0  0  0  0  0  0  0  0  0
  131.2634  130.4540  155.5126 C   0  0  0  0  0  0  0  0  0  0  0  0
  130.4735  131.6022  155.4955 C   0  0  0  0  0  0  0  0  0  0  0  0
  130.1492  132.3017  156.7628 C   0  0  0  0  0  0  0  0  0  0  0  0
  129.4905  131.7694  157.8223 C   0  0  0  0  0  0  0  0  0  0  0  0
  129.4061  132.7547  158.7750 N   0  0  0  0  0  0  0  0  0  0  0  0
  128.9883  132.6765  159.6470 H   0  0  0  0  0  0  0  0  0  0  0  0
  130.0163  133.8616  158.2698 C   0  0  0  0  0  0  0  0  0  0  0  0
  130.1482  135.0780  158.9197 N   0  0  0  0  0  0  0  0  0  0  0  0
  129.1813  135.4853  159.8432 C   0  0  0  0  0  0  0  0  0  0  0  0
  129.5410  135.7361  161.1621 C   0  0  0  0  0  0  0  0  0  0  0  0
  128.5862  136.1392  162.0754 C   0  0  0  0  0  0  0  0  0  0  0  0
  127.2708  136.2939  161.6814 C   0  0  0  0  0  0  0  0  0  0  0  0
  126.9044  136.0444  160.3645 C   0  0  0  0  0  0  0  0  0  0  0  0
  125.5746  136.2015  159.9671 N   0  0  0  0  0  0  0  0  0  0  0  0
  127.8624  135.6452  159.4430 C   0  0  0  0  0  0  0  0  0  0  0  0
  127.4699  135.3806  158.0123 C   0  0  0  0  0  0  0  0  0  0  0  0
  130.4641  133.5848  157.0694 N   0  0  0  0  0  0  0  0  0  0  0  0
  130.9424  134.2000  156.4917 H   0  0  0  0  0  0  0  0  0  0  0  0
  129.9897  132.0908  154.2833 C   0  0  0  0  0  0  0  0  0  0  0  0
  130.2948  131.4363  153.1073 C   0  0  0  0  0  0  0  0  0  0  0  0
  129.3641  129.0289  151.4556 H   0  0  0  0  0  0  0  0  0  0  0  0
  130.5714  128.0245  150.6178 H   0  0  0  0  0  0  0  0  0  0  0  0
  130.2977  127.8159  152.3642 H   0  0  0  0  0  0  0  0  0  0  0  0
  132.3777  129.0960  151.9362 H   0  0  0  0  0  0  0  0  0  0  0  0
  131.4442  130.3091  151.0277 H   0  0  0  0  0  0  0  0  0  0  0  0
  132.1661  128.9123  154.3435 H   0  0  0  0  0  0  0  0  0  0  0  0
  131.6413  130.0712  156.4491 H   0  0  0  0  0  0  0  0  0  0  0  0
  129.1054  130.7634  157.9011 H   0  0  0  0  0  0  0  0  0  0  0  0
  130.9115  135.6469  158.7337 H   0  0  0  0  0  0  0  0  0  0  0  0
  130.5683  135.6162  161.4733 H   0  0  0  0  0  0  0  0  0  0  0  0
  128.8685  136.3342  163.0994 H   0  0  0  0  0  0  0  0  0  0  0  0
  126.5267  136.6095  162.3978 H   0  0  0  0  0  0  0  0  0  0  0  0
  124.9063  136.4848  160.6105 H   0  0  0  0  0  0  0  0  0  0  0  0
  125.3194  136.0270  159.0476 H   0  0  0  0  0  0  0  0  0  0  0  0
  127.1853  134.3343  157.9011 H   0  0  0  0  0  0  0  0  0  0  0  0
  126.6271  136.0170  157.7430 H   0  0  0  0  0  0  0  0  0  0  0  0
  128.3137  135.5990  157.3577 H   0  0  0  0  0  0  0  0  0  0  0  0
  129.3768  132.9799  154.2642 H   0  0  0  0  0  0  0  0  0  0  0  0
  129.9202  131.8138  152.1673 H   0  0  0  0  0  0  0  0  0  0  0  0
  1  2  1  0
  1 25  1  0
  1 26  1  0
  1 27  1  0
  2  3  1  0
  2 28  1  0
  2 29  1  0
  3 24  2  0
  3  4  1  0
  4  5  2  0
  4 30  1  0
  5  6  1  0
  5 31  1  0
  6  7  1  0
  6 23  2  0
  7 21  1  0
  7  8  2  0
  8  9  1  0
  8 32  1  0
  9 10  1  0
  9 11  1  0
 11 12  1  0
 11 21  2  0
 12 13  1  0
 12 33  1  0
 13 19  1  0
 13 14  2  0
 14 15  1  0
 14 34  1  0
 15 16  2  0
 15 35  1  0
 16 17  1  0
 16 36  1  0
 17 18  1  0
 17 19  2  0
 18 37  1  0
 18 38  1  0
 19 20  1  0
 20 39  1  0
 20 40  1  0
 20 41  1  0
 21 22  1  0
 23 24  1  0
 23 42  1  0
 24 43  1  0
M  CHG  1  21   1
M  END
>  <DOCK_score>  (1) 
-55.073139

>  <SMILES>  (1) 
CCc1ccc(-c2c[nH]c(Nc3cccc(N)c3C)[nH+]2)cc1

$$$$
