Cc1n[nH]cc1C[NH2+]Cc1c[nH]nc1-c1ccc(NC2CCC(Cc3ccccc3)CC2)o1
     RDKit          3D

 66 70  0  0  1  0  0  0  0  0999 V2000
  135.1937  139.5621  161.8349 C   0  0  0  0  0  0  0  0  0  0  0  0
  134.6763  139.6030  160.4201 C   0  0  0  0  0  0  0  0  0  0  0  0
  135.1873  140.2974  159.4360 N   0  0  0  0  0  0  0  0  0  0  0  0
  134.4176  140.0632  158.2892 N   0  0  0  0  0  0  0  0  0  0  0  0
  134.5683  140.4492  157.4121 H   0  0  0  0  0  0  0  0  0  0  0  0
  133.4328  139.2014  158.6188 C   0  0  0  0  0  0  0  0  0  0  0  0
  133.5665  138.9051  159.9323 C   0  0  0  0  0  0  0  0  0  0  0  0
  132.6803  137.9815  160.7276 C   0  0  0  0  0  0  0  0  0  0  0  0
  132.4281  136.7583  159.9539 N   0  0  0  0  0  0  0  0  0  0  0  0
  133.3042  136.2978  159.7579 H   0  0  0  0  0  0  0  0  0  0  0  0
  131.9722  136.9973  159.0861 H   0  0  0  0  0  0  0  0  0  0  0  0
  131.5642  135.8581  160.7292 C   0  0  0  0  0  0  0  0  0  0  0  0
  131.3055  134.6034  159.9355 C   0  0  0  0  0  0  0  0  0  0  0  0
  132.2261  133.8913  159.2509 C   0  0  0  0  0  0  0  0  0  0  0  0
  131.6010  132.8396  158.6788 N   0  0  0  0  0  0  0  0  0  0  0  0
  132.0198  132.1594  158.1288 H   0  0  0  0  0  0  0  0  0  0  0  0
  130.2421  132.9046  159.0120 N   0  0  0  0  0  0  0  0  0  0  0  0
  130.0571  133.9670  159.7706 C   0  0  0  0  0  0  0  0  0  0  0  0
  128.7711  134.4118  160.3463 C   0  0  0  0  0  0  0  0  0  0  0  0
  127.5718  133.7919  160.1895 C   0  0  0  0  0  0  0  0  0  0  0  0
  126.6236  134.5511  160.9032 C   0  0  0  0  0  0  0  0  0  0  0  0
  127.2891  135.5942  161.4590 C   0  0  0  0  0  0  0  0  0  0  0  0
  126.7246  136.5899  162.2479 N   0  0  0  0  0  0  0  0  0  0  0  0
  127.5649  137.6625  162.7859 C   0  0  2  0  0  0  0  0  0  0  0  0
  128.6544  137.0598  163.6750 C   0  0  0  0  0  0  0  0  0  0  0  0
  129.5320  138.1802  164.2368 C   0  0  0  0  0  0  0  0  0  0  0  0
  128.6705  139.1367  165.0636 C   0  0  1  0  0  0  0  0  0  0  0  0
  129.5480  140.2571  165.6253 C   0  0  0  0  0  0  0  0  0  0  0  0
  128.8535  140.8985  166.7990 C   0  0  0  0  0  0  0  0  0  0  0  0
  128.0136  141.9782  166.5996 C   0  0  0  0  0  0  0  0  0  0  0  0
  127.3729  142.5634  167.6757 C   0  0  0  0  0  0  0  0  0  0  0  0
  127.5801  142.0755  168.9523 C   0  0  0  0  0  0  0  0  0  0  0  0
  128.4240  140.9991  169.1523 C   0  0  0  0  0  0  0  0  0  0  0  0
  129.0607  140.4105  168.0757 C   0  0  0  0  0  0  0  0  0  0  0  0
  127.5810  139.7395  164.1745 C   0  0  0  0  0  0  0  0  0  0  0  0
  126.7035  138.6192  163.6127 C   0  0  0  0  0  0  0  0  0  0  0  0
  128.5869  135.5001  161.1231 O   0  0  0  0  0  0  0  0  0  0  0  0
  135.9245  138.7592  161.9315 H   0  0  0  0  0  0  0  0  0  0  0  0
  135.6660  140.5143  162.0766 H   0  0  0  0  0  0  0  0  0  0  0  0
  134.3649  139.3833  162.5199 H   0  0  0  0  0  0  0  0  0  0  0  0
  132.6725  138.8190  157.9540 H   0  0  0  0  0  0  0  0  0  0  0  0
  131.7339  138.4789  160.9394 H   0  0  0  0  0  0  0  0  0  0  0  0
  133.1729  137.7233  161.6651 H   0  0  0  0  0  0  0  0  0  0  0  0
  132.0566  135.5999  161.6666 H   0  0  0  0  0  0  0  0  0  0  0  0
  130.6178  136.3556  160.9408 H   0  0  0  0  0  0  0  0  0  0  0  0
  133.2787  134.1214  159.1759 H   0  0  0  0  0  0  0  0  0  0  0  0
  127.3820  132.8907  159.6255 H   0  0  0  0  0  0  0  0  0  0  0  0
  125.5677  134.3423  160.9911 H   0  0  0  0  0  0  0  0  0  0  0  0
  125.7745  136.5743  162.4422 H   0  0  0  0  0  0  0  0  0  0  0  0
  128.0276  138.2086  161.9637 H   0  0  0  0  0  0  0  0  0  0  0  0
  128.1918  136.5137  164.4971 H   0  0  0  0  0  0  0  0  0  0  0  0
  129.2682  136.3782  163.0860 H   0  0  0  0  0  0  0  0  0  0  0  0
  129.9947  138.7262  163.4148 H   0  0  0  0  0  0  0  0  0  0  0  0
  130.3082  137.7508  164.8701 H   0  0  0  0  0  0  0  0  0  0  0  0
  128.2078  138.5907  165.8856 H   0  0  0  0  0  0  0  0  0  0  0  0
  130.5026  139.8430  165.9499 H   0  0  0  0  0  0  0  0  0  0  0  0
  129.7208  141.0057  164.8521 H   0  0  0  0  0  0  0  0  0  0  0  0
  127.8553  142.3622  165.6027 H   0  0  0  0  0  0  0  0  0  0  0  0
  126.7139  143.4046  167.5194 H   0  0  0  0  0  0  0  0  0  0  0  0
  127.0831  142.5356  169.7935 H   0  0  0  0  0  0  0  0  0  0  0  0
  128.5862  140.6181  170.1498 H   0  0  0  0  0  0  0  0  0  0  0  0
  129.7204  139.5699  168.2320 H   0  0  0  0  0  0  0  0  0  0  0  0
  128.0436  140.2856  163.3524 H   0  0  0  0  0  0  0  0  0  0  0  0
  126.9672  140.4211  164.7636 H   0  0  0  0  0  0  0  0  0  0  0  0
  125.9272  139.0486  162.9793 H   0  0  0  0  0  0  0  0  0  0  0  0
  126.2408  138.0732  164.4347 H   0  0  0  0  0  0  0  0  0  0  0  0
  1  2  1  0
  1 38  1  0
  1 39  1  0
  1 40  1  0
  2  7  1  0
  2  3  2  0
  3  4  1  0
  4  5  1  0
  4  6  1  0
  6  7  2  0
  6 41  1  0
  7  8  1  0
  8  9  1  0
  8 42  1  0
  8 43  1  0
  9 10  1  0
  9 11  1  0
  9 12  1  0
 12 13  1  0
 12 44  1  0
 12 45  1  0
 13 18  1  0
 13 14  2  0
 14 15  1  0
 14 46  1  0
 15 16  1  0
 15 17  1  0
 17 18  2  0
 18 19  1  0
 19 37  1  0
 19 20  2  0
 20 21  1  0
 20 47  1  0
 21 22  2  0
 21 48  1  0
 22 23  1  0
 22 37  1  0
 23 24  1  0
 23 49  1  0
 24 36  1  0
 24 25  1  0
 24 50  1  6
 25 26  1  0
 25 51  1  0
 25 52  1  0
 26 27  1  0
 26 53  1  0
 26 54  1  0
 27 28  1  0
 27 35  1  0
 27 55  1  1
 28 29  1  0
 28 56  1  0
 28 57  1  0
 29 34  1  0
 29 30  2  0
 30 31  1  0
 30 58  1  0
 31 32  2  0
 31 59  1  0
 32 33  1  0
 32 60  1  0
 33 34  2  0
 33 61  1  0
 34 62  1  0
 35 36  1  0
 35 63  1  0
 35 64  1  0
 36 65  1  0
 36 66  1  0
M  CHG  1   9   1
M  END
>  <DOCK_score>  (1) 
-50.225204

>  <SMILES>  (1) 
Cc1n[nH]cc1C[NH2+]Cc1c[nH]nc1-c1ccc(NC2CCC(Cc3ccccc3)CC2)o1

$$$$
