Cc1cccc(N2CC[NH+]([C@@H](c3ccccc3)c3ccccc3Cl)CC2)c1Cl
     RDKit          3D

 53 56  0  0  1  0  0  0  0  0999 V2000
  135.8497  141.3953  162.6903 C   0  0  0  0  0  0  0  0  0  0  0  0
  135.2842  140.6622  161.5013 C   0  0  0  0  0  0  0  0  0  0  0  0
  135.6653  141.0232  160.2218 C   0  0  0  0  0  0  0  0  0  0  0  0
  135.1485  140.3536  159.1282 C   0  0  0  0  0  0  0  0  0  0  0  0
  134.2531  139.3174  159.3101 C   0  0  0  0  0  0  0  0  0  0  0  0
  133.8637  138.9552  160.5926 C   0  0  0  0  0  0  0  0  0  0  0  0
  132.9545  137.9106  160.7798 N   0  0  0  0  0  0  0  0  0  0  0  0
  131.6478  138.2380  160.1918 C   0  0  0  0  0  0  0  0  0  0  0  0
  130.6666  137.0971  160.4697 C   0  0  0  0  0  0  0  0  0  0  0  0
  131.1859  135.8519  159.8889 N   0  0  0  0  0  0  0  0  0  0  0  0
  131.3071  135.9699  158.8941 H   0  0  0  0  0  0  0  0  0  0  0  0
  130.2351  134.7608  160.1402 C   0  0  1  0  0  0  0  0  0  0  0  0
  130.1038  134.6335  161.2148 H   0  0  0  0  0  0  0  0  0  0  0  0
  128.9084  135.0950  159.5082 C   0  0  0  0  0  0  0  0  0  0  0  0
  127.7376  134.6134  160.0632 C   0  0  0  0  0  0  0  0  0  0  0  0
  126.5204  134.9237  159.4860 C   0  0  0  0  0  0  0  0  0  0  0  0
  126.4747  135.7075  158.3483 C   0  0  0  0  0  0  0  0  0  0  0  0
  127.6459  136.1849  157.7904 C   0  0  0  0  0  0  0  0  0  0  0  0
  128.8628  135.8785  158.3702 C   0  0  0  0  0  0  0  0  0  0  0  0
  130.7677  133.4831  159.5444 C   0  0  0  0  0  0  0  0  0  0  0  0
  131.0152  133.4041  158.1866 C   0  0  0  0  0  0  0  0  0  0  0  0
  131.5087  132.2340  157.6408 C   0  0  0  0  0  0  0  0  0  0  0  0
  131.7441  131.1384  158.4505 C   0  0  0  0  0  0  0  0  0  0  0  0
  131.4921  131.2144  159.8071 C   0  0  0  0  0  0  0  0  0  0  0  0
  131.0035  132.3875  160.3551 C   0  0  0  0  0  0  0  0  0  0  0  0
  130.6860  132.4836  162.0591 Cl  0  0  0  0  0  0  0  0  0  0  0  0
  132.4792  135.5253  160.5039 C   0  0  0  0  0  0  0  0  0  0  0  0
  133.4757  136.6529  160.2260 C   0  0  0  0  0  0  0  0  0  0  0  0
  134.3850  139.6303  161.6905 C   0  0  0  0  0  0  0  0  0  0  0  0
  133.9074  139.1771  163.2968 Cl  0  0  0  0  0  0  0  0  0  0  0  0
  136.7642  140.9021  163.0201 H   0  0  0  0  0  0  0  0  0  0  0  0
  136.0731  142.4247  162.4100 H   0  0  0  0  0  0  0  0  0  0  0  0
  135.1212  141.3895  163.5011 H   0  0  0  0  0  0  0  0  0  0  0  0
  136.3686  141.8300  160.0765 H   0  0  0  0  0  0  0  0  0  0  0  0
  135.4481  140.6386  158.1305 H   0  0  0  0  0  0  0  0  0  0  0  0
  133.8532  138.7923  158.4553 H   0  0  0  0  0  0  0  0  0  0  0  0
  131.7564  138.3703  159.1153 H   0  0  0  0  0  0  0  0  0  0  0  0
  131.2698  139.1590  160.6355 H   0  0  0  0  0  0  0  0  0  0  0  0
  129.7008  137.3315  160.0221 H   0  0  0  0  0  0  0  0  0  0  0  0
  130.5479  136.9740  161.5462 H   0  0  0  0  0  0  0  0  0  0  0  0
  127.7736  133.9977  160.9498 H   0  0  0  0  0  0  0  0  0  0  0  0
  125.6054  134.5508  159.9220 H   0  0  0  0  0  0  0  0  0  0  0  0
  125.5240  135.9469  157.8954 H   0  0  0  0  0  0  0  0  0  0  0  0
  127.6102  136.7973  156.9016 H   0  0  0  0  0  0  0  0  0  0  0  0
  129.7779  136.2513  157.9342 H   0  0  0  0  0  0  0  0  0  0  0  0
  130.8270  134.2581  157.5529 H   0  0  0  0  0  0  0  0  0  0  0  0
  131.7064  132.1743  156.5808 H   0  0  0  0  0  0  0  0  0  0  0  0
  132.1255  130.2228  158.0228 H   0  0  0  0  0  0  0  0  0  0  0  0
  131.6761  130.3585  160.4395 H   0  0  0  0  0  0  0  0  0  0  0  0
  132.3511  135.4104  161.5802 H   0  0  0  0  0  0  0  0  0  0  0  0
  132.8575  134.5943  160.0817 H   0  0  0  0  0  0  0  0  0  0  0  0
  133.6143  136.7592  159.1501 H   0  0  0  0  0  0  0  0  0  0  0  0
  134.4315  136.4178  160.6943 H   0  0  0  0  0  0  0  0  0  0  0  0
  1  2  1  0
  1 31  1  0
  1 32  1  0
  1 33  1  0
  2 29  2  0
  2  3  1  0
  3  4  2  0
  3 34  1  0
  4  5  1  0
  4 35  1  0
  5  6  2  0
  5 36  1  0
  6  7  1  0
  6 29  1  0
  7 28  1  0
  7  8  1  0
  8  9  1  0
  8 37  1  0
  8 38  1  0
  9 10  1  0
  9 39  1  0
  9 40  1  0
 10 11  1  0
 10 12  1  0
 10 27  1  0
 12 13  1  1
 12 14  1  0
 12 20  1  0
 14 19  1  0
 14 15  2  0
 15 16  1  0
 15 41  1  0
 16 17  2  0
 16 42  1  0
 17 18  1  0
 17 43  1  0
 18 19  2  0
 18 44  1  0
 19 45  1  0
 20 25  1  0
 20 21  2  0
 21 22  1  0
 21 46  1  0
 22 23  2  0
 22 47  1  0
 23 24  1  0
 23 48  1  0
 24 25  2  0
 24 49  1  0
 25 26  1  0
 27 28  1  0
 27 50  1  0
 27 51  1  0
 28 52  1  0
 28 53  1  0
 29 30  1  0
M  CHG  1  10   1
M  END
>  <DOCK_score>  (1) 
-56.375305

>  <SMILES>  (1) 
Cc1cccc(N2CC[NH+]([C@@H](c3ccccc3)c3ccccc3Cl)CC2)c1Cl

$$$$
