C[C@H](CO)Cn1nc(-c2cc[nH]n2)nc1C1=CCC([NH2+]CC(O)c2cc3ccccc3o2)CC1
     RDKit          3D

 65 69  0  0  1  0  0  0  0  0999 V2000
  124.1321  133.1857  161.5396 C   0  0  0  0  0  0  0  0  0  0  0  0
  125.4337  132.9676  160.7655 C   0  0  2  0  0  0  0  0  0  0  0  0
  125.4820  133.6674  159.9312 H   0  0  0  0  0  0  0  0  0  0  0  0
  125.4757  131.5342  160.2320 C   0  0  0  0  0  0  0  0  0  0  0  0
  126.6913  131.3304  159.5091 O   0  0  0  0  0  0  0  0  0  0  0  0
  126.6256  133.2005  161.6960 C   0  0  0  0  0  0  0  0  0  0  0  0
  126.8697  134.6393  161.8262 N   0  0  0  0  0  0  0  0  0  0  0  0
  126.3145  135.5042  162.7831 N   0  0  0  0  0  0  0  0  0  0  0  0
  126.7975  136.7040  162.5426 C   0  0  0  0  0  0  0  0  0  0  0  0
  126.4787  137.9311  163.3147 C   0  0  0  0  0  0  0  0  0  0  0  0
  125.6084  138.0123  164.4190 C   0  0  0  0  0  0  0  0  0  0  0  0
  125.5909  139.2962  164.8387 C   0  0  0  0  0  0  0  0  0  0  0  0
  126.4074  140.0092  164.0335 N   0  0  0  0  0  0  0  0  0  0  0  0
  126.5841  140.9605  164.1005 H   0  0  0  0  0  0  0  0  0  0  0  0
  126.9547  139.1362  163.0845 N   0  0  0  0  0  0  0  0  0  0  0  0
  127.6263  136.6405  161.4957 N   0  0  0  0  0  0  0  0  0  0  0  0
  127.6794  135.4031  161.0447 C   0  0  0  0  0  0  0  0  0  0  0  0
  128.4789  134.9302  159.9012 C   0  0  0  0  0  0  0  0  0  0  0  0
  129.7041  134.5164  160.1319 C   0  0  0  0  0  0  0  0  0  0  0  0
  130.6325  134.0178  159.0631 C   0  0  0  0  0  0  0  0  0  0  0  0
  129.8457  133.6658  157.7996 C   0  0  2  0  0  0  0  0  0  0  0  0
  130.7741  133.4276  156.6863 N   0  0  0  0  0  0  0  0  0  0  0  0
  131.0742  134.3117  156.3035 H   0  0  0  0  0  0  0  0  0  0  0  0
  131.5768  132.9163  157.0213 H   0  0  0  0  0  0  0  0  0  0  0  0
  130.0969  132.6467  155.6424 C   0  0  0  0  0  0  0  0  0  0  0  0
  131.0637  132.3987  154.4830 C   0  0  2  0  0  0  0  0  0  0  0  0
  131.1267  133.5637  153.6576 O   0  0  0  0  0  0  0  0  0  0  0  0
  130.5784  131.2295  153.6654 C   0  0  0  0  0  0  0  0  0  0  0  0
  131.2668  130.0982  153.4607 C   0  0  0  0  0  0  0  0  0  0  0  0
  130.4167  129.2488  152.6178 C   0  0  0  0  0  0  0  0  0  0  0  0
  130.5517  127.9753  152.0673 C   0  0  0  0  0  0  0  0  0  0  0  0
  129.5449  127.4581  151.3002 C   0  0  0  0  0  0  0  0  0  0  0  0
  128.3912  128.1928  151.0671 C   0  0  0  0  0  0  0  0  0  0  0  0
  128.2398  129.4537  151.6031 C   0  0  0  0  0  0  0  0  0  0  0  0
  129.2509  129.9977  152.3855 C   0  0  0  0  0  0  0  0  0  0  0  0
  129.3944  131.1725  153.0310 O   0  0  0  0  0  0  0  0  0  0  0  0
  128.9219  134.8412  157.4577 C   0  0  0  0  0  0  0  0  0  0  0  0
  127.8460  134.9496  158.5403 C   0  0  0  0  0  0  0  0  0  0  0  0
  123.2843  132.9284  160.9047 H   0  0  0  0  0  0  0  0  0  0  0  0
  124.1268  132.5529  162.4270 H   0  0  0  0  0  0  0  0  0  0  0  0
  124.0580  134.2313  161.8385 H   0  0  0  0  0  0  0  0  0  0  0  0
  125.4275  130.8344  161.0664 H   0  0  0  0  0  0  0  0  0  0  0  0
  124.6265  131.3683  159.5693 H   0  0  0  0  0  0  0  0  0  0  0  0
  126.8016  131.9205  158.7509 H   0  0  0  0  0  0  0  0  0  0  0  0
  127.5105  132.7180  161.2808 H   0  0  0  0  0  0  0  0  0  0  0  0
  126.4084  132.7785  162.6774 H   0  0  0  0  0  0  0  0  0  0  0  0
  125.0554  137.1932  164.8546 H   0  0  0  0  0  0  0  0  0  0  0  0
  125.0208  139.6849  165.6697 H   0  0  0  0  0  0  0  0  0  0  0  0
  130.0645  134.5364  161.1498 H   0  0  0  0  0  0  0  0  0  0  0  0
  131.3611  134.7933  158.8269 H   0  0  0  0  0  0  0  0  0  0  0  0
  131.1550  133.1314  159.4230 H   0  0  0  0  0  0  0  0  0  0  0  0
  129.2491  132.7716  157.9803 H   0  0  0  0  0  0  0  0  0  0  0  0
  129.7728  131.6917  156.0558 H   0  0  0  0  0  0  0  0  0  0  0  0
  129.2298  133.1991  155.2805 H   0  0  0  0  0  0  0  0  0  0  0  0
  132.0559  132.1792  154.8778 H   0  0  0  0  0  0  0  0  0  0  0  0
  131.4321  134.3565  154.1192 H   0  0  0  0  0  0  0  0  0  0  0  0
  132.2489  129.8589  153.8410 H   0  0  0  0  0  0  0  0  0  0  0  0
  131.4477  127.3993  152.2462 H   0  0  0  0  0  0  0  0  0  0  0  0
  129.6485  126.4716  150.8727 H   0  0  0  0  0  0  0  0  0  0  0  0
  127.6038  127.7725  150.4589 H   0  0  0  0  0  0  0  0  0  0  0  0
  127.3376  130.0170  151.4157 H   0  0  0  0  0  0  0  0  0  0  0  0
  128.4513  134.6676  156.4898 H   0  0  0  0  0  0  0  0  0  0  0  0
  129.5008  135.7641  157.4230 H   0  0  0  0  0  0  0  0  0  0  0  0
  127.2958  135.8816  158.4109 H   0  0  0  0  0  0  0  0  0  0  0  0
  127.1568  134.1100  158.4502 H   0  0  0  0  0  0  0  0  0  0  0  0
  1  2  1  0
  1 39  1  0
  1 40  1  0
  1 41  1  0
  2  3  1  6
  2  4  1  0
  2  6  1  0
  4  5  1  0
  4 42  1  0
  4 43  1  0
  5 44  1  0
  6  7  1  0
  6 45  1  0
  6 46  1  0
  7 17  1  0
  7  8  1  0
  8  9  2  0
  9 10  1  0
  9 16  1  0
 10 15  2  0
 10 11  1  0
 11 12  2  0
 11 47  1  0
 12 13  1  0
 12 48  1  0
 13 14  1  0
 13 15  1  0
 16 17  2  0
 17 18  1  0
 18 38  1  0
 18 19  2  0
 19 20  1  0
 19 49  1  0
 20 21  1  0
 20 50  1  0
 20 51  1  0
 21 22  1  0
 21 37  1  0
 21 52  1  1
 22 23  1  0
 22 24  1  0
 22 25  1  0
 25 26  1  0
 25 53  1  0
 25 54  1  0
 26 27  1  0
 26 28  1  0
 26 55  1  1
 27 56  1  0
 28 36  1  0
 28 29  2  0
 29 30  1  0
 29 57  1  0
 30 35  2  0
 30 31  1  0
 31 32  2  0
 31 58  1  0
 32 33  1  0
 32 59  1  0
 33 34  2  0
 33 60  1  0
 34 35  1  0
 34 61  1  0
 35 36  1  0
 37 38  1  0
 37 62  1  0
 37 63  1  0
 38 64  1  0
 38 65  1  0
M  CHG  1  22   1
M  END
>  <DOCK_score>  (1) 
-52.99358

>  <SMILES>  (1) 
C[C@H](CO)Cn1nc(-c2cc[nH]n2)nc1C1=CCC([NH2+]CC(O)c2cc3ccccc3o2)CC1

$$$$
