CCc1ccc(-c2c[nH]c(N[C@@H](Cc3ccnn3C)c3ccc(CC)cc3)[nH+]2)cc1
     RDKit          3D

 60 63  0  0  1  0  0  0  0  0999 V2000
  130.0890  128.5534  151.3788 C   0  0  0  0  0  0  0  0  0  0  0  0
  131.2557  129.4798  151.7271 C   0  0  0  0  0  0  0  0  0  0  0  0
  130.9301  130.2477  152.9822 C   0  0  0  0  0  0  0  0  0  0  0  0
  131.2757  129.7288  154.2165 C   0  0  0  0  0  0  0  0  0  0  0  0
  130.9843  130.4298  155.3690 C   0  0  0  0  0  0  0  0  0  0  0  0
  130.3310  131.6583  155.2879 C   0  0  0  0  0  0  0  0  0  0  0  0
  130.0106  132.4141  156.5234 C   0  0  0  0  0  0  0  0  0  0  0  0
  129.2329  131.9793  157.5458 C   0  0  0  0  0  0  0  0  0  0  0  0
  129.2025  132.9864  158.4796 N   0  0  0  0  0  0  0  0  0  0  0  0
  128.7265  132.9721  159.3246 H   0  0  0  0  0  0  0  0  0  0  0  0
  129.9633  134.0080  158.0001 C   0  0  0  0  0  0  0  0  0  0  0  0
  130.1907  135.2137  158.6412 N   0  0  0  0  0  0  0  0  0  0  0  0
  130.1956  135.2756  160.1049 C   0  0  1  0  0  0  0  0  0  0  0  0
  129.4003  134.6424  160.4979 H   0  0  0  0  0  0  0  0  0  0  0  0
  131.5456  134.7846  160.6315 C   0  0  0  0  0  0  0  0  0  0  0  0
  131.5675  133.2778  160.6300 C   0  0  0  0  0  0  0  0  0  0  0  0
  131.9840  132.4870  159.6139 C   0  0  0  0  0  0  0  0  0  0  0  0
  131.8422  131.1556  160.0188 C   0  0  0  0  0  0  0  0  0  0  0  0
  131.3579  131.1474  161.2342 N   0  0  0  0  0  0  0  0  0  0  0  0
  131.1807  132.4753  161.6437 N   0  0  0  0  0  0  0  0  0  0  0  0
  130.6639  132.9152  162.9420 C   0  0  0  0  0  0  0  0  0  0  0  0
  129.9708  136.6982  160.5483 C   0  0  0  0  0  0  0  0  0  0  0  0
  130.8573  137.6887  160.1692 C   0  0  0  0  0  0  0  0  0  0  0  0
  130.6486  138.9944  160.5724 C   0  0  0  0  0  0  0  0  0  0  0  0
  129.5585  139.3079  161.3624 C   0  0  0  0  0  0  0  0  0  0  0  0
  129.3337  140.7305  161.8057 C   0  0  0  0  0  0  0  0  0  0  0  0
  130.0447  140.9675  163.1396 C   0  0  0  0  0  0  0  0  0  0  0  0
  128.6746  138.3166  161.7455 C   0  0  0  0  0  0  0  0  0  0  0  0
  128.8809  137.0117  161.3389 C   0  0  0  0  0  0  0  0  0  0  0  0
  130.4485  133.6602  156.8333 N   0  0  0  0  0  0  0  0  0  0  0  0
  131.0268  134.2073  156.2790 H   0  0  0  0  0  0  0  0  0  0  0  0
  129.9804  132.1742  154.0416 C   0  0  0  0  0  0  0  0  0  0  0  0
  130.2814  131.4669  152.8954 C   0  0  0  0  0  0  0  0  0  0  0  0
  129.9227  127.8551  152.1991 H   0  0  0  0  0  0  0  0  0  0  0  0
  129.1889  129.1467  151.2187 H   0  0  0  0  0  0  0  0  0  0  0  0
  130.3246  127.9980  150.4710 H   0  0  0  0  0  0  0  0  0  0  0  0
  132.1558  128.8870  151.8870 H   0  0  0  0  0  0  0  0  0  0  0  0
  131.4219  130.1787  150.9065 H   0  0  0  0  0  0  0  0  0  0  0  0
  131.7780  128.7746  154.2785 H   0  0  0  0  0  0  0  0  0  0  0  0
  131.2588  130.0255  156.3322 H   0  0  0  0  0  0  0  0  0  0  0  0
  128.7329  131.0244  157.6129 H   0  0  0  0  0  0  0  0  0  0  0  0
  130.3467  136.0175  158.1213 H   0  0  0  0  0  0  0  0  0  0  0  0
  132.3438  135.1602  159.9913 H   0  0  0  0  0  0  0  0  0  0  0  0
  131.6933  135.1490  161.6482 H   0  0  0  0  0  0  0  0  0  0  0  0
  132.3599  132.8243  158.6592 H   0  0  0  0  0  0  0  0  0  0  0  0
  132.0901  130.2850  159.4299 H   0  0  0  0  0  0  0  0  0  0  0  0
  129.5793  133.0103  162.8880 H   0  0  0  0  0  0  0  0  0  0  0  0
  130.9268  132.1825  163.7050 H   0  0  0  0  0  0  0  0  0  0  0  0
  131.1009  133.8802  163.1990 H   0  0  0  0  0  0  0  0  0  0  0  0
  131.7112  137.4430  159.5552 H   0  0  0  0  0  0  0  0  0  0  0  0
  131.3391  139.7690  160.2727 H   0  0  0  0  0  0  0  0  0  0  0  0
  129.7330  141.4126  161.0550 H   0  0  0  0  0  0  0  0  0  0  0  0
  128.2651  140.9088  161.9269 H   0  0  0  0  0  0  0  0  0  0  0  0
  129.6454  140.2855  163.8903 H   0  0  0  0  0  0  0  0  0  0  0  0
  131.1131  140.7893  163.0185 H   0  0  0  0  0  0  0  0  0  0  0  0
  129.8820  141.9966  163.4603 H   0  0  0  0  0  0  0  0  0  0  0  0
  127.8229  138.5617  162.3629 H   0  0  0  0  0  0  0  0  0  0  0  0
  128.1904  136.2371  161.6384 H   0  0  0  0  0  0  0  0  0  0  0  0
  129.4737  133.1255  153.9728 H   0  0  0  0  0  0  0  0  0  0  0  0
  130.0098  131.8655  151.9291 H   0  0  0  0  0  0  0  0  0  0  0  0
  1  2  1  0
  1 34  1  0
  1 35  1  0
  1 36  1  0
  2  3  1  0
  2 37  1  0
  2 38  1  0
  3 33  2  0
  3  4  1  0
  4  5  2  0
  4 39  1  0
  5  6  1  0
  5 40  1  0
  6  7  1  0
  6 32  2  0
  7 30  1  0
  7  8  2  0
  8  9  1  0
  8 41  1  0
  9 10  1  0
  9 11  1  0
 11 12  1  0
 11 30  2  0
 12 13  1  0
 12 42  1  0
 13 14  1  1
 13 15  1  0
 13 22  1  0
 15 16  1  0
 15 43  1  0
 15 44  1  0
 16 20  1  0
 16 17  2  0
 17 18  1  0
 17 45  1  0
 18 19  2  0
 18 46  1  0
 19 20  1  0
 20 21  1  0
 21 47  1  0
 21 48  1  0
 21 49  1  0
 22 29  1  0
 22 23  2  0
 23 24  1  0
 23 50  1  0
 24 25  2  0
 24 51  1  0
 25 26  1  0
 25 28  1  0
 26 27  1  0
 26 52  1  0
 26 53  1  0
 27 54  1  0
 27 55  1  0
 27 56  1  0
 28 29  2  0
 28 57  1  0
 29 58  1  0
 30 31  1  0
 32 33  1  0
 32 59  1  0
 33 60  1  0
M  CHG  1  30   1
M  END
>  <DOCK_score>  (1) 
-63.223255

>  <SMILES>  (1) 
CCc1ccc(-c2c[nH]c(N[C@@H](Cc3ccnn3C)c3ccc(CC)cc3)[nH+]2)cc1

$$$$
