C#CCN(C)Cc1c(C)cccc1N1CC[NH+](C(c2ccccc2)c2ccccc2)CC1
     RDKit          3D

 66 69  0  0  0  0  0  0  0  0999 V2000
  138.6318  137.3564  164.2381 C   0  0  0  0  0  0  0  0  0  0  0  0
  137.4903  137.2660  163.9791 C   0  0  0  0  0  0  0  0  0  0  0  0
  136.0591  137.1526  163.6545 C   0  0  0  0  0  0  0  0  0  0  0  0
  135.3612  138.3711  164.0858 N   0  0  0  0  0  0  0  0  0  0  0  0
  135.0869  138.3380  165.5286 C   0  0  0  0  0  0  0  0  0  0  0  0
  134.1237  138.5683  163.3191 C   0  0  0  0  0  0  0  0  0  0  0  0
  134.4542  139.1716  161.9783 C   0  0  0  0  0  0  0  0  0  0  0  0
  135.3511  140.2187  161.8934 C   0  0  0  0  0  0  0  0  0  0  0  0
  135.9987  140.7581  163.1427 C   0  0  0  0  0  0  0  0  0  0  0  0
  135.6550  140.7728  160.6637 C   0  0  0  0  0  0  0  0  0  0  0  0
  135.0633  140.2804  159.5146 C   0  0  0  0  0  0  0  0  0  0  0  0
  134.1662  139.2336  159.5922 C   0  0  0  0  0  0  0  0  0  0  0  0
  133.8619  138.6716  160.8258 C   0  0  0  0  0  0  0  0  0  0  0  0
  132.9586  137.6094  160.9074 N   0  0  0  0  0  0  0  0  0  0  0  0
  133.4730  136.4255  160.2047 C   0  0  0  0  0  0  0  0  0  0  0  0
  132.4838  135.2692  160.3680 C   0  0  0  0  0  0  0  0  0  0  0  0
  131.1794  135.6590  159.8166 N   0  0  0  0  0  0  0  0  0  0  0  0
  131.2829  135.8904  158.8400 H   0  0  0  0  0  0  0  0  0  0  0  0
  130.2352  134.5424  159.9573 C   0  0  0  0  0  0  0  0  0  0  0  0
  128.8969  134.9420  159.3916 C   0  0  0  0  0  0  0  0  0  0  0  0
  127.7371  134.3954  159.9081 C   0  0  0  0  0  0  0  0  0  0  0  0
  126.5091  134.7656  159.3924 C   0  0  0  0  0  0  0  0  0  0  0  0
  126.4416  135.6748  158.3531 C   0  0  0  0  0  0  0  0  0  0  0  0
  127.6017  136.2176  157.8332 C   0  0  0  0  0  0  0  0  0  0  0  0
  128.8294  135.8512  158.3523 C   0  0  0  0  0  0  0  0  0  0  0  0
  130.7594  133.3440  159.2090 C   0  0  0  0  0  0  0  0  0  0  0  0
  130.4192  133.1543  157.8826 C   0  0  0  0  0  0  0  0  0  0  0  0
  130.9038  132.0576  157.1948 C   0  0  0  0  0  0  0  0  0  0  0  0
  131.7202  131.1450  157.8362 C   0  0  0  0  0  0  0  0  0  0  0  0
  132.0561  131.3318  159.1641 C   0  0  0  0  0  0  0  0  0  0  0  0
  131.5757  132.4314  159.8504 C   0  0  0  0  0  0  0  0  0  0  0  0
  130.6674  136.8275  160.5447 C   0  0  0  0  0  0  0  0  0  0  0  0
  131.6414  137.9966  160.3828 C   0  0  0  0  0  0  0  0  0  0  0  0
  139.6528  137.4373  164.4697 H   0  0  0  0  0  0  0  0  0  0  0  0
  135.6368  136.2901  164.1701 H   0  0  0  0  0  0  0  0  0  0  0  0
  135.9395  137.0271  162.5784 H   0  0  0  0  0  0  0  0  0  0  0  0
  134.4572  137.4787  165.7590 H   0  0  0  0  0  0  0  0  0  0  0  0
  136.0265  138.2571  166.0752 H   0  0  0  0  0  0  0  0  0  0  0  0
  134.5736  139.2537  165.8220 H   0  0  0  0  0  0  0  0  0  0  0  0
  133.4606  139.2389  163.8657 H   0  0  0  0  0  0  0  0  0  0  0  0
  133.6295  137.6077  163.1734 H   0  0  0  0  0  0  0  0  0  0  0  0
  136.9264  140.2184  163.3331 H   0  0  0  0  0  0  0  0  0  0  0  0
  136.2156  141.8181  163.0108 H   0  0  0  0  0  0  0  0  0  0  0  0
  135.3226  140.6279  163.9876 H   0  0  0  0  0  0  0  0  0  0  0  0
  136.3563  141.5916  160.6002 H   0  0  0  0  0  0  0  0  0  0  0  0
  135.3028  140.7155  158.5555 H   0  0  0  0  0  0  0  0  0  0  0  0
  133.7045  138.8495  158.6945 H   0  0  0  0  0  0  0  0  0  0  0  0
  133.5928  136.6546  159.1458 H   0  0  0  0  0  0  0  0  0  0  0  0
  134.4368  136.1419  160.6272 H   0  0  0  0  0  0  0  0  0  0  0  0
  132.3745  135.0314  161.4261 H   0  0  0  0  0  0  0  0  0  0  0  0
  132.8566  134.3943  159.8356 H   0  0  0  0  0  0  0  0  0  0  0  0
  130.1236  134.2918  161.0122 H   0  0  0  0  0  0  0  0  0  0  0  0
  127.7900  133.6817  160.7168 H   0  0  0  0  0  0  0  0  0  0  0  0
  125.6027  134.3413  159.7984 H   0  0  0  0  0  0  0  0  0  0  0  0
  125.4826  135.9607  157.9473 H   0  0  0  0  0  0  0  0  0  0  0  0
  127.5490  136.9276  157.0212 H   0  0  0  0  0  0  0  0  0  0  0  0
  129.7357  136.2751  157.9459 H   0  0  0  0  0  0  0  0  0  0  0  0
  129.7778  133.8651  157.3826 H   0  0  0  0  0  0  0  0  0  0  0  0
  130.6410  131.9113  156.1575 H   0  0  0  0  0  0  0  0  0  0  0  0
  132.0952  130.2857  157.3000 H   0  0  0  0  0  0  0  0  0  0  0  0
  132.6937  130.6185  159.6653 H   0  0  0  0  0  0  0  0  0  0  0  0
  131.8379  132.5772  160.8878 H   0  0  0  0  0  0  0  0  0  0  0  0
  130.5674  136.5816  161.6019 H   0  0  0  0  0  0  0  0  0  0  0  0
  129.6936  137.1076  160.1432 H   0  0  0  0  0  0  0  0  0  0  0  0
  131.2691  138.8593  160.9353 H   0  0  0  0  0  0  0  0  0  0  0  0
  131.7311  138.2516  159.3269 H   0  0  0  0  0  0  0  0  0  0  0  0
  1  2  3  0
  1 34  1  0
  2  3  1  0
  3  4  1  0
  3 35  1  0
  3 36  1  0
  4  5  1  0
  4  6  1  0
  5 37  1  0
  5 38  1  0
  5 39  1  0
  6  7  1  0
  6 40  1  0
  6 41  1  0
  7 13  2  0
  7  8  1  0
  8  9  1  0
  8 10  2  0
  9 42  1  0
  9 43  1  0
  9 44  1  0
 10 11  1  0
 10 45  1  0
 11 12  2  0
 11 46  1  0
 12 13  1  0
 12 47  1  0
 13 14  1  0
 14 33  1  0
 14 15  1  0
 15 16  1  0
 15 48  1  0
 15 49  1  0
 16 17  1  0
 16 50  1  0
 16 51  1  0
 17 18  1  0
 17 19  1  0
 17 32  1  0
 19 20  1  0
 19 26  1  0
 19 52  1  0
 20 25  1  0
 20 21  2  0
 21 22  1  0
 21 53  1  0
 22 23  2  0
 22 54  1  0
 23 24  1  0
 23 55  1  0
 24 25  2  0
 24 56  1  0
 25 57  1  0
 26 31  1  0
 26 27  2  0
 27 28  1  0
 27 58  1  0
 28 29  2  0
 28 59  1  0
 29 30  1  0
 29 60  1  0
 30 31  2  0
 30 61  1  0
 31 62  1  0
 32 33  1  0
 32 63  1  0
 32 64  1  0
 33 65  1  0
 33 66  1  0
M  CHG  1  17   1
M  END
>  <DOCK_score>  (1) 
-57.928932

>  <SMILES>  (1) 
C#CCN(C)Cc1c(C)cccc1N1CC[NH+](C(c2ccccc2)c2ccccc2)CC1

$$$$
