CCc1ccc(-c2c[nH]c(N[C@H](C)Cc3ccc(Cl)cc3)[nH+]2)cc1
     RDKit          3D

 47 49  0  0  1  0  0  0  0  0999 V2000
  130.3218  128.5508  151.4814 C   0  0  0  0  0  0  0  0  0  0  0  0
  131.4735  129.4961  151.8286 C   0  0  0  0  0  0  0  0  0  0  0  0
  131.1378  130.2566  153.0856 C   0  0  0  0  0  0  0  0  0  0  0  0
  131.4948  129.7416  154.3182 C   0  0  0  0  0  0  0  0  0  0  0  0
  131.1951  130.4364  155.4725 C   0  0  0  0  0  0  0  0  0  0  0  0
  130.5210  131.6537  155.3947 C   0  0  0  0  0  0  0  0  0  0  0  0
  130.1911  132.4024  156.6320 C   0  0  0  0  0  0  0  0  0  0  0  0
  129.4234  131.9534  157.6558 C   0  0  0  0  0  0  0  0  0  0  0  0
  129.3779  132.9589  158.5907 N   0  0  0  0  0  0  0  0  0  0  0  0
  128.9042  132.9356  159.4368 H   0  0  0  0  0  0  0  0  0  0  0  0
  130.1198  133.9938  158.1105 C   0  0  0  0  0  0  0  0  0  0  0  0
  130.3284  135.2025  158.7524 N   0  0  0  0  0  0  0  0  0  0  0  0
  129.7249  135.4488  160.0644 C   0  0  2  0  0  0  0  0  0  0  0  0
  129.7879  134.5441  160.6689 H   0  0  0  0  0  0  0  0  0  0  0  0
  128.2569  135.8410  159.8849 C   0  0  0  0  0  0  0  0  0  0  0  0
  130.4740  136.5840  160.7653 C   0  0  0  0  0  0  0  0  0  0  0  0
  131.7421  136.0465  161.3768 C   0  0  0  0  0  0  0  0  0  0  0  0
  132.2616  136.6317  162.5164 C   0  0  0  0  0  0  0  0  0  0  0  0
  133.4217  136.1355  163.0809 C   0  0  0  0  0  0  0  0  0  0  0  0
  134.0691  135.0605  162.4987 C   0  0  0  0  0  0  0  0  0  0  0  0
  135.5302  134.4419  163.2032 Cl  0  0  0  0  0  0  0  0  0  0  0  0
  133.5516  134.4787  161.3550 C   0  0  0  0  0  0  0  0  0  0  0  0
  132.3885  134.9720  160.7948 C   0  0  0  0  0  0  0  0  0  0  0  0
  130.6089  133.6553  156.9425 N   0  0  0  0  0  0  0  0  0  0  0  0
  131.1767  134.2126  156.3876 H   0  0  0  0  0  0  0  0  0  0  0  0
  130.1586  132.1655  154.1500 C   0  0  0  0  0  0  0  0  0  0  0  0
  130.4686  131.4649  153.0020 C   0  0  0  0  0  0  0  0  0  0  0  0
  130.1691  127.8486  152.3009 H   0  0  0  0  0  0  0  0  0  0  0  0
  129.4114  129.1291  151.3241 H   0  0  0  0  0  0  0  0  0  0  0  0
  130.5645  128.0009  150.5722 H   0  0  0  0  0  0  0  0  0  0  0  0
  132.3837  128.9184  151.9854 H   0  0  0  0  0  0  0  0  0  0  0  0
  131.6260  130.1989  151.0086 H   0  0  0  0  0  0  0  0  0  0  0  0
  132.0128  128.7959  154.3776 H   0  0  0  0  0  0  0  0  0  0  0  0
  131.4785  130.0354  156.4344 H   0  0  0  0  0  0  0  0  0  0  0  0
  128.9401  130.9899  157.7231 H   0  0  0  0  0  0  0  0  0  0  0  0
  130.8743  135.8862  158.3336 H   0  0  0  0  0  0  0  0  0  0  0  0
  127.7232  135.0323  159.3856 H   0  0  0  0  0  0  0  0  0  0  0  0
  127.8078  136.0243  160.8610 H   0  0  0  0  0  0  0  0  0  0  0  0
  128.1939  136.7459  159.2803 H   0  0  0  0  0  0  0  0  0  0  0  0
  130.7204  137.3591  160.0398 H   0  0  0  0  0  0  0  0  0  0  0  0
  129.8437  137.0062  161.5481 H   0  0  0  0  0  0  0  0  0  0  0  0
  131.7586  137.4739  162.9682 H   0  0  0  0  0  0  0  0  0  0  0  0
  133.8251  136.5900  163.9737 H   0  0  0  0  0  0  0  0  0  0  0  0
  134.0567  133.6396  160.8999 H   0  0  0  0  0  0  0  0  0  0  0  0
  131.9847  134.5184  159.9016 H   0  0  0  0  0  0  0  0  0  0  0  0
  129.6359  133.1083  154.0839 H   0  0  0  0  0  0  0  0  0  0  0  0
  130.1879  131.8603  152.0370 H   0  0  0  0  0  0  0  0  0  0  0  0
  1  2  1  0
  1 28  1  0
  1 29  1  0
  1 30  1  0
  2  3  1  0
  2 31  1  0
  2 32  1  0
  3 27  2  0
  3  4  1  0
  4  5  2  0
  4 33  1  0
  5  6  1  0
  5 34  1  0
  6  7  1  0
  6 26  2  0
  7 24  1  0
  7  8  2  0
  8  9  1  0
  8 35  1  0
  9 10  1  0
  9 11  1  0
 11 12  1  0
 11 24  2  0
 12 13  1  0
 12 36  1  0
 13 14  1  1
 13 15  1  0
 13 16  1  0
 15 37  1  0
 15 38  1  0
 15 39  1  0
 16 17  1  0
 16 40  1  0
 16 41  1  0
 17 23  1  0
 17 18  2  0
 18 19  1  0
 18 42  1  0
 19 20  2  0
 19 43  1  0
 20 21  1  0
 20 22  1  0
 22 23  2  0
 22 44  1  0
 23 45  1  0
 24 25  1  0
 26 27  1  0
 26 46  1  0
 27 47  1  0
M  CHG  1  24   1
M  END
>  <DOCK_score>  (1) 
-57.222733

>  <SMILES>  (1) 
CCc1ccc(-c2c[nH]c(N[C@H](C)Cc3ccc(Cl)cc3)[nH+]2)cc1

$$$$
