O=C(C[C@H](Nc1[nH]cc(-c2ccc(F)cc2)[nH+]1)C1=CCOCC1)c1cccc2ccccc12
     RDKit          3D

 58 62  0  0  1  0  0  0  0  0999 V2000
  131.9680  136.5539  160.9400 O   0  0  0  0  0  0  0  0  0  0  0  0
  131.1552  137.4540  160.9778 C   0  0  0  0  0  0  0  0  0  0  0  0
  129.7094  137.1778  160.6555 C   0  0  0  0  0  0  0  0  0  0  0  0
  129.5366  135.6959  160.3164 C   0  0  2  0  0  0  0  0  0  0  0  0
  130.1486  135.0953  160.9894 H   0  0  0  0  0  0  0  0  0  0  0  0
  129.9563  135.4594  158.9328 N   0  0  0  0  0  0  0  0  0  0  0  0
  129.8895  134.1844  158.3975 C   0  0  0  0  0  0  0  0  0  0  0  0
  129.4492  133.0735  159.0485 N   0  0  0  0  0  0  0  0  0  0  0  0
  129.1288  133.0326  159.9631 H   0  0  0  0  0  0  0  0  0  0  0  0
  129.5430  132.0201  158.1711 C   0  0  0  0  0  0  0  0  0  0  0  0
  130.0375  132.5175  157.0106 C   0  0  0  0  0  0  0  0  0  0  0  0
  130.3092  131.7435  155.7745 C   0  0  0  0  0  0  0  0  0  0  0  0
  129.6530  132.0677  154.5885 C   0  0  0  0  0  0  0  0  0  0  0  0
  129.9131  131.3489  153.4397 C   0  0  0  0  0  0  0  0  0  0  0  0
  130.8165  130.2988  153.4671 C   0  0  0  0  0  0  0  0  0  0  0  0
  131.0643  129.5936  152.3416 F   0  0  0  0  0  0  0  0  0  0  0  0
  131.4667  129.9693  154.6452 C   0  0  0  0  0  0  0  0  0  0  0  0
  131.2172  130.6864  155.7972 C   0  0  0  0  0  0  0  0  0  0  0  0
  130.2349  133.8493  157.1783 N   0  0  0  0  0  0  0  0  0  0  0  0
  130.5791  134.4560  156.5043 H   0  0  0  0  0  0  0  0  0  0  0  0
  128.0884  135.3097  160.4749 C   0  0  0  0  0  0  0  0  0  0  0  0
  127.2960  135.4215  159.4506 C   0  0  0  0  0  0  0  0  0  0  0  0
  125.8362  135.0713  159.5073 C   0  0  0  0  0  0  0  0  0  0  0  0
  125.5625  134.2911  160.6727 O   0  0  0  0  0  0  0  0  0  0  0  0
  126.0869  134.8730  161.8727 C   0  0  0  0  0  0  0  0  0  0  0  0
  127.6170  134.8041  161.8103 C   0  0  0  0  0  0  0  0  0  0  0  0
  131.5802  138.8108  161.3372 C   0  0  0  0  0  0  0  0  0  0  0  0
  130.7052  139.6838  161.9785 C   0  0  0  0  0  0  0  0  0  0  0  0
  131.1092  140.9681  162.3117 C   0  0  0  0  0  0  0  0  0  0  0  0
  132.3648  141.4203  162.0395 C   0  0  0  0  0  0  0  0  0  0  0  0
  133.3007  140.5948  161.3937 C   0  0  0  0  0  0  0  0  0  0  0  0
  134.5979  141.0504  161.1013 C   0  0  0  0  0  0  0  0  0  0  0  0
  135.4775  140.2210  160.4748 C   0  0  0  0  0  0  0  0  0  0  0  0
  135.1116  138.9254  160.1180 C   0  0  0  0  0  0  0  0  0  0  0  0
  133.8616  138.4514  160.3868 C   0  0  0  0  0  0  0  0  0  0  0  0
  132.9325  139.2768  161.0292 C   0  0  0  0  0  0  0  0  0  0  0  0
  129.0908  137.4277  161.5174 H   0  0  0  0  0  0  0  0  0  0  0  0
  129.4052  137.7836  159.8020 H   0  0  0  0  0  0  0  0  0  0  0  0
  130.2809  136.1961  158.3917 H   0  0  0  0  0  0  0  0  0  0  0  0
  129.2739  130.9928  158.3678 H   0  0  0  0  0  0  0  0  0  0  0  0
  128.9454  132.8834  154.5674 H   0  0  0  0  0  0  0  0  0  0  0  0
  129.4082  131.6020  152.5193 H   0  0  0  0  0  0  0  0  0  0  0  0
  132.1699  129.1497  154.6619 H   0  0  0  0  0  0  0  0  0  0  0  0
  131.7248  130.4290  156.7151 H   0  0  0  0  0  0  0  0  0  0  0  0
  127.7048  135.7820  158.5183 H   0  0  0  0  0  0  0  0  0  0  0  0
  125.2459  135.9871  159.5387 H   0  0  0  0  0  0  0  0  0  0  0  0
  125.5673  134.4983  158.6199 H   0  0  0  0  0  0  0  0  0  0  0  0
  125.7653  135.9117  161.9480 H   0  0  0  0  0  0  0  0  0  0  0  0
  125.7298  134.3146  162.7381 H   0  0  0  0  0  0  0  0  0  0  0  0
  127.9428  133.7726  161.9436 H   0  0  0  0  0  0  0  0  0  0  0  0
  128.0388  135.4229  162.6023 H   0  0  0  0  0  0  0  0  0  0  0  0
  129.7025  139.3597  162.2147 H   0  0  0  0  0  0  0  0  0  0  0  0
  130.4099  141.6268  162.8050 H   0  0  0  0  0  0  0  0  0  0  0  0
  132.6425  142.4260  162.3187 H   0  0  0  0  0  0  0  0  0  0  0  0
  134.8953  142.0528  161.3719 H   0  0  0  0  0  0  0  0  0  0  0  0
  136.4735  140.5731  160.2509 H   0  0  0  0  0  0  0  0  0  0  0  0
  135.8278  138.2874  159.6214 H   0  0  0  0  0  0  0  0  0  0  0  0
  133.5904  137.4447  160.1053 H   0  0  0  0  0  0  0  0  0  0  0  0
  1  2  2  0
  2  3  1  0
  2 27  1  0
  3  4  1  0
  3 37  1  0
  3 38  1  0
  4  5  1  1
  4  6  1  0
  4 21  1  0
  6 39  1  0
  7  6  1  0
  7 19  2  0
  7  8  1  0
  8  9  1  0
  8 10  1  0
 10 11  2  0
 10 40  1  0
 11 12  1  0
 11 19  1  0
 12 18  1  0
 12 13  2  0
 13 14  1  0
 13 41  1  0
 14 15  2  0
 14 42  1  0
 15 16  1  0
 15 17  1  0
 17 18  2  0
 17 43  1  0
 18 44  1  0
 19 20  1  0
 21 26  1  0
 21 22  2  0
 22 23  1  0
 22 45  1  0
 23 24  1  0
 23 46  1  0
 23 47  1  0
 24 25  1  0
 25 26  1  0
 25 48  1  0
 25 49  1  0
 26 50  1  0
 26 51  1  0
 27 36  1  0
 27 28  2  0
 28 29  1  0
 28 52  1  0
 29 30  2  0
 29 53  1  0
 30 31  1  0
 30 54  1  0
 31 36  2  0
 31 32  1  0
 32 33  2  0
 32 55  1  0
 33 34  1  0
 33 56  1  0
 34 35  2  0
 34 57  1  0
 35 36  1  0
 35 58  1  0
M  CHG  1  19   1
M  END
>  <DOCK_score>  (1) 
-56.261383

>  <SMILES>  (1) 
O=C(C[C@H](Nc1[nH]cc(-c2ccc(F)cc2)[nH+]1)C1=CCOCC1)c1cccc2ccccc12

$$$$
