[NH3+][C@H](Cc1ccccc1)c1ccc(C(=O)c2ccc(C(=O)C3=CCCC=CCC3)cc2)cc1
     RDKit          3D

 63 66  0  0  1  0  0  0  0  0999 V2000
  130.6797  134.5976  158.2334 N   0  0  0  0  0  0  0  0  0  0  0  0
  129.8978  135.0351  157.7693 H   0  0  0  0  0  0  0  0  0  0  0  0
  131.2825  135.3086  158.6196 H   0  0  0  0  0  0  0  0  0  0  0  0
  131.1974  134.0422  157.5688 H   0  0  0  0  0  0  0  0  0  0  0  0
  130.1865  133.7336  159.3144 C   0  0  2  0  0  0  0  0  0  0  0  0
  131.0310  133.2610  159.8157 H   0  0  0  0  0  0  0  0  0  0  0  0
  129.2724  132.6555  158.7288 C   0  0  0  0  0  0  0  0  0  0  0  0
  130.0458  131.8262  157.7362 C   0  0  0  0  0  0  0  0  0  0  0  0
  130.0739  132.1916  156.4033 C   0  0  0  0  0  0  0  0  0  0  0  0
  130.7872  131.4336  155.4937 C   0  0  0  0  0  0  0  0  0  0  0  0
  131.4638  130.3043  155.9151 C   0  0  0  0  0  0  0  0  0  0  0  0
  131.4315  129.9359  157.2471 C   0  0  0  0  0  0  0  0  0  0  0  0
  130.7224  130.6968  158.1576 C   0  0  0  0  0  0  0  0  0  0  0  0
  129.4131  134.5630  160.3069 C   0  0  0  0  0  0  0  0  0  0  0  0
  128.2910  135.2607  159.8953 C   0  0  0  0  0  0  0  0  0  0  0  0
  127.5785  136.0218  160.7982 C   0  0  0  0  0  0  0  0  0  0  0  0
  127.9920  136.0874  162.1310 C   0  0  0  0  0  0  0  0  0  0  0  0
  127.2340  136.9004  163.1039 C   0  0  0  0  0  0  0  0  0  0  0  0
  126.6392  137.8933  162.7333 O   0  0  0  0  0  0  0  0  0  0  0  0
  127.1987  136.5059  164.5290 C   0  0  0  0  0  0  0  0  0  0  0  0
  127.0683  137.4809  165.5206 C   0  0  0  0  0  0  0  0  0  0  0  0
  127.0348  137.1134  166.8477 C   0  0  0  0  0  0  0  0  0  0  0  0
  127.1312  135.7668  167.2020 C   0  0  0  0  0  0  0  0  0  0  0  0
  127.0953  135.3711  168.6278 C   0  0  0  0  0  0  0  0  0  0  0  0
  126.2221  134.6271  169.0310 O   0  0  0  0  0  0  0  0  0  0  0  0
  128.1150  135.8782  169.5563 C   0  0  0  0  0  0  0  0  0  0  0  0
  127.8063  136.0527  170.8391 C   0  0  0  0  0  0  0  0  0  0  0  0
  128.8379  136.5388  171.8188 C   0  0  0  0  0  0  0  0  0  0  0  0
  128.7759  138.0555  171.8977 C   0  0  0  0  0  0  0  0  0  0  0  0
  128.2392  138.6979  170.6726 C   0  0  0  0  0  0  0  0  0  0  0  0
  128.7305  138.5578  169.4592 C   0  0  0  0  0  0  0  0  0  0  0  0
  129.8851  137.6356  169.2165 C   0  0  0  0  0  0  0  0  0  0  0  0
  129.4789  136.1894  169.0529 C   0  0  0  0  0  0  0  0  0  0  0  0
  127.2668  134.7914  166.2107 C   0  0  0  0  0  0  0  0  0  0  0  0
  127.2954  135.1583  164.8832 C   0  0  0  0  0  0  0  0  0  0  0  0
  129.1290  135.3852  162.5383 C   0  0  0  0  0  0  0  0  0  0  0  0
  129.8283  134.6232  161.6258 C   0  0  0  0  0  0  0  0  0  0  0  0
  128.9065  132.0146  159.5309 H   0  0  0  0  0  0  0  0  0  0  0  0
  128.4279  133.1283  158.2274 H   0  0  0  0  0  0  0  0  0  0  0  0
  129.5415  133.0715  156.0733 H   0  0  0  0  0  0  0  0  0  0  0  0
  130.8122  131.7213  154.4530 H   0  0  0  0  0  0  0  0  0  0  0  0
  132.0175  129.7095  155.2037 H   0  0  0  0  0  0  0  0  0  0  0  0
  131.9598  129.0533  157.5763 H   0  0  0  0  0  0  0  0  0  0  0  0
  130.6968  130.4088  159.1982 H   0  0  0  0  0  0  0  0  0  0  0  0
  127.9723  135.2087  158.8647 H   0  0  0  0  0  0  0  0  0  0  0  0
  126.7032  136.5659  160.4756 H   0  0  0  0  0  0  0  0  0  0  0  0
  126.9938  138.5231  165.2469 H   0  0  0  0  0  0  0  0  0  0  0  0
  126.9339  137.8673  167.6145 H   0  0  0  0  0  0  0  0  0  0  0  0
  126.8049  135.8291  171.1809 H   0  0  0  0  0  0  0  0  0  0  0  0
  128.6308  136.1148  172.8058 H   0  0  0  0  0  0  0  0  0  0  0  0
  129.8319  136.2242  171.5017 H   0  0  0  0  0  0  0  0  0  0  0  0
  128.1456  138.3374  172.7448 H   0  0  0  0  0  0  0  0  0  0  0  0
  129.7827  138.4383  172.0838 H   0  0  0  0  0  0  0  0  0  0  0  0
  127.3706  139.3380  170.7831 H   0  0  0  0  0  0  0  0  0  0  0  0
  128.2854  139.0926  168.6306 H   0  0  0  0  0  0  0  0  0  0  0  0
  130.5772  137.7093  170.0535 H   0  0  0  0  0  0  0  0  0  0  0  0
  130.4008  137.9538  168.3103 H   0  0  0  0  0  0  0  0  0  0  0  0
  130.1971  135.5655  169.5818 H   0  0  0  0  0  0  0  0  0  0  0  0
  129.5190  135.9397  167.9927 H   0  0  0  0  0  0  0  0  0  0  0  0
  127.3454  133.7497  166.4850 H   0  0  0  0  0  0  0  0  0  0  0  0
  127.3967  134.4043  164.1167 H   0  0  0  0  0  0  0  0  0  0  0  0
  129.4568  135.4351  163.5661 H   0  0  0  0  0  0  0  0  0  0  0  0
  130.7047  134.0760  161.9402 H   0  0  0  0  0  0  0  0  0  0  0  0
  1  2  1  0
  1  3  1  0
  1  4  1  0
  1  5  1  0
  5  6  1  1
  5  7  1  0
  5 14  1  0
  7  8  1  0
  7 38  1  0
  7 39  1  0
  8 13  1  0
  8  9  2  0
  9 10  1  0
  9 40  1  0
 10 11  2  0
 10 41  1  0
 11 12  1  0
 11 42  1  0
 12 13  2  0
 12 43  1  0
 13 44  1  0
 14 37  1  0
 14 15  2  0
 15 16  1  0
 15 45  1  0
 16 17  2  0
 16 46  1  0
 17 18  1  0
 17 36  1  0
 18 19  2  0
 18 20  1  0
 20 35  1  0
 20 21  2  0
 21 22  1  0
 21 47  1  0
 22 23  2  0
 22 48  1  0
 23 24  1  0
 23 34  1  0
 24 25  2  0
 24 26  1  0
 26 33  1  0
 26 27  2  0
 27 28  1  0
 27 49  1  0
 28 29  1  0
 28 50  1  0
 28 51  1  0
 29 30  1  0
 29 52  1  0
 29 53  1  0
 30 31  2  0
 30 54  1  0
 31 32  1  0
 31 55  1  0
 32 33  1  0
 32 56  1  0
 32 57  1  0
 33 58  1  0
 33 59  1  0
 34 35  2  0
 34 60  1  0
 35 61  1  0
 36 37  2  0
 36 62  1  0
 37 63  1  0
M  CHG  1   1   1
M  END
>  <DOCK_score>  (1) 
-43.202805

>  <SMILES>  (1) 
[NH3+][C@H](Cc1ccccc1)c1ccc(C(=O)c2ccc(C(=O)C3=CCCC=CCC3)cc2)cc1

$$$$
