O=C1CC[C@H](NC(NC2CCCCC2)=[NH+][C@H]2COC3(CCC3)C2)CN1
     RDKit          3D

 58 61  0  0  1  0  0  0  0  0999 V2000
  123.7723  134.0751  161.7608 O   0  0  0  0  0  0  0  0  0  0  0  0
  124.9512  134.2924  161.5769 C   0  0  0  0  0  0  0  0  0  0  0  0
  125.8247  133.1512  161.1412 C   0  0  0  0  0  0  0  0  0  0  0  0
  127.2955  133.4988  161.3843 C   0  0  0  0  0  0  0  0  0  0  0  0
  127.5660  134.8931  160.8063 C   0  0  2  0  0  0  0  0  0  0  0  0
  127.2299  134.9308  159.7700 H   0  0  0  0  0  0  0  0  0  0  0  0
  129.0012  135.1810  160.8683 N   0  0  0  0  0  0  0  0  0  0  0  0
  129.8169  134.8399  159.8155 C   0  0  0  0  0  0  0  0  0  0  0  0
  129.2857  134.2287  158.7045 N   0  0  0  0  0  0  0  0  0  0  0  0
  130.1032  133.3023  157.9171 C   0  0  0  0  0  0  0  0  0  0  0  0
  129.2798  132.7659  156.7443 C   0  0  0  0  0  0  0  0  0  0  0  0
  130.1335  131.7985  155.9220 C   0  0  0  0  0  0  0  0  0  0  0  0
  130.5797  130.6332  156.8073 C   0  0  0  0  0  0  0  0  0  0  0  0
  131.4031  131.1696  157.9798 C   0  0  0  0  0  0  0  0  0  0  0  0
  130.5494  132.1370  158.8023 C   0  0  0  0  0  0  0  0  0  0  0  0
  131.0944  135.0914  159.8730 N   0  0  0  0  0  0  0  0  0  0  0  0
  131.6700  134.8508  159.1301 H   0  0  0  0  0  0  0  0  0  0  0  0
  131.6613  135.7372  161.0594 C   0  0  1  0  0  0  0  0  0  0  0  0
  131.4846  135.1279  161.9459 H   0  0  0  0  0  0  0  0  0  0  0  0
  133.1740  135.9889  160.8684 C   0  0  0  0  0  0  0  0  0  0  0  0
  133.2654  137.3526  160.3849 O   0  0  0  0  0  0  0  0  0  0  0  0
  132.2774  138.0819  161.1248 C   0  0  0  0  0  0  0  0  0  0  0  0
  132.7580  138.7081  162.4332 C   0  0  0  0  0  0  0  0  0  0  0  0
  133.0423  139.9828  161.6181 C   0  0  0  0  0  0  0  0  0  0  0  0
  131.9781  139.4925  160.6194 C   0  0  0  0  0  0  0  0  0  0  0  0
  131.0619  137.1515  161.2454 C   0  0  0  0  0  0  0  0  0  0  0  0
  126.7992  135.9266  161.6322 C   0  0  0  0  0  0  0  0  0  0  0  0
  125.4026  135.5319  161.7729 N   0  0  0  0  0  0  0  0  0  0  0  0
  125.6686  132.9606  160.0794 H   0  0  0  0  0  0  0  0  0  0  0  0
  125.5644  132.2594  161.7113 H   0  0  0  0  0  0  0  0  0  0  0  0
  127.9325  132.7662  160.8889 H   0  0  0  0  0  0  0  0  0  0  0  0
  127.5009  133.4993  162.4549 H   0  0  0  0  0  0  0  0  0  0  0  0
  129.3757  135.6122  161.6523 H   0  0  0  0  0  0  0  0  0  0  0  0
  128.3699  134.4107  158.4420 H   0  0  0  0  0  0  0  0  0  0  0  0
  130.9801  133.8256  157.5359 H   0  0  0  0  0  0  0  0  0  0  0  0
  128.4029  132.2427  157.1255 H   0  0  0  0  0  0  0  0  0  0  0  0
  128.9618  133.5961  156.1137 H   0  0  0  0  0  0  0  0  0  0  0  0
  131.0103  132.3218  155.5409 H   0  0  0  0  0  0  0  0  0  0  0  0
  129.5468  131.4163  155.0867 H   0  0  0  0  0  0  0  0  0  0  0  0
  131.1879  129.9440  156.2214 H   0  0  0  0  0  0  0  0  0  0  0  0
  129.7028  130.1098  157.1885 H   0  0  0  0  0  0  0  0  0  0  0  0
  132.2801  131.6929  157.5988 H   0  0  0  0  0  0  0  0  0  0  0  0
  131.7210  130.3394  158.6105 H   0  0  0  0  0  0  0  0  0  0  0  0
  131.1361  132.5191  159.6377 H   0  0  0  0  0  0  0  0  0  0  0  0
  129.6724  131.6137  159.1833 H   0  0  0  0  0  0  0  0  0  0  0  0
  133.6980  135.8871  161.8186 H   0  0  0  0  0  0  0  0  0  0  0  0
  133.5834  135.2962  160.1331 H   0  0  0  0  0  0  0  0  0  0  0  0
  131.9690  138.8305  163.1753 H   0  0  0  0  0  0  0  0  0  0  0  0
  133.6543  138.2396  162.8392 H   0  0  0  0  0  0  0  0  0  0  0  0
  134.0486  140.0182  161.2006 H   0  0  0  0  0  0  0  0  0  0  0  0
  132.7652  140.9018  162.1345 H   0  0  0  0  0  0  0  0  0  0  0  0
  132.2512  139.6506  159.5762 H   0  0  0  0  0  0  0  0  0  0  0  0
  130.9691  139.8348  160.8499 H   0  0  0  0  0  0  0  0  0  0  0  0
  130.3361  137.3658  160.4610 H   0  0  0  0  0  0  0  0  0  0  0  0
  130.6007  137.2457  162.2286 H   0  0  0  0  0  0  0  0  0  0  0  0
  127.2508  136.0043  162.6212 H   0  0  0  0  0  0  0  0  0  0  0  0
  126.8544  136.8962  161.1372 H   0  0  0  0  0  0  0  0  0  0  0  0
  124.7609  136.2151  162.0226 H   0  0  0  0  0  0  0  0  0  0  0  0
  1  2  2  0
  2 28  1  0
  2  3  1  0
  3  4  1  0
  3 29  1  0
  3 30  1  0
  4  5  1  0
  4 31  1  0
  4 32  1  0
  5  6  1  6
  5  7  1  0
  5 27  1  0
  7 33  1  0
  8  7  1  0
  8  9  1  0
  8 16  2  0
  9 10  1  0
  9 34  1  0
 10 15  1  0
 10 11  1  0
 10 35  1  0
 11 12  1  0
 11 36  1  0
 11 37  1  0
 12 13  1  0
 12 38  1  0
 12 39  1  0
 13 14  1  0
 13 40  1  0
 13 41  1  0
 14 15  1  0
 14 42  1  0
 14 43  1  0
 15 44  1  0
 15 45  1  0
 16 17  1  0
 16 18  1  0
 18 19  1  1
 18 26  1  0
 18 20  1  0
 20 21  1  0
 20 46  1  0
 20 47  1  0
 21 22  1  0
 22 25  1  0
 22 23  1  0
 22 26  1  0
 23 24  1  0
 23 48  1  0
 23 49  1  0
 24 25  1  0
 24 50  1  0
 24 51  1  0
 25 52  1  0
 25 53  1  0
 26 54  1  0
 26 55  1  0
 27 28  1  0
 27 56  1  0
 27 57  1  0
 28 58  1  0
M  CHG  1  16   1
M  END
>  <DOCK_score>  (1) 
-44.130619

>  <SMILES>  (1) 
O=C1CC[C@H](NC(NC2CCCCC2)=[NH+][C@H]2COC3(CCC3)C2)CN1

$$$$
