O[C@@H]1C=C[C@@H]([NH+]=C(NC2CC=CC2)N[C@H]2Cc3ccc(Br)cc3C2)[C@@H]1Cl
     RDKit          3D

 50 53  0  0  1  0  0  0  0  0999 V2000
  125.0714  135.4015  161.6379 O   0  0  0  0  0  0  0  0  0  0  0  0
  126.2767  135.4151  160.8704 C   0  0  2  0  0  0  0  0  0  0  0  0
  126.8065  136.3568  161.0135 H   0  0  0  0  0  0  0  0  0  0  0  0
  125.9767  135.2028  159.4047 C   0  0  0  0  0  0  0  0  0  0  0  0
  126.8020  134.3407  158.8761 C   0  0  0  0  0  0  0  0  0  0  0  0
  127.7959  133.8413  159.8988 C   0  0  1  0  0  0  0  0  0  0  0  0
  127.9100  132.7601  159.8210 H   0  0  0  0  0  0  0  0  0  0  0  0
  129.0898  134.5043  159.7191 N   0  0  0  0  0  0  0  0  0  0  0  0
  129.2801  135.3319  160.1880 H   0  0  0  0  0  0  0  0  0  0  0  0
  129.9856  133.9821  158.9293 C   0  0  0  0  0  0  0  0  0  0  0  0
  129.5931  133.2393  157.8410 N   0  0  0  0  0  0  0  0  0  0  0  0
  130.5999  132.6524  156.9532 C   0  0  0  0  0  0  0  0  0  0  0  0
  130.0034  132.3539  155.5581 C   0  0  0  0  0  0  0  0  0  0  0  0
  130.6512  131.0556  155.1339 C   0  0  0  0  0  0  0  0  0  0  0  0
  131.1940  130.4460  156.1524 C   0  0  0  0  0  0  0  0  0  0  0  0
  130.9984  131.2352  157.4261 C   0  0  0  0  0  0  0  0  0  0  0  0
  131.3229  134.1742  159.1845 N   0  0  0  0  0  0  0  0  0  0  0  0
  131.7408  134.9659  160.3441 C   0  0  1  0  0  0  0  0  0  0  0  0
  131.3519  135.9819  160.2781 H   0  0  0  0  0  0  0  0  0  0  0  0
  131.2938  134.2916  161.6586 C   0  0  0  0  0  0  0  0  0  0  0  0
  132.4040  134.5765  162.6474 C   0  0  0  0  0  0  0  0  0  0  0  0
  132.4155  134.4999  164.0303 C   0  0  0  0  0  0  0  0  0  0  0  0
  133.5615  134.8126  164.7345 C   0  0  0  0  0  0  0  0  0  0  0  0
  134.7027  135.2030  164.0571 C   0  0  0  0  0  0  0  0  0  0  0  0
  136.2742  135.6306  165.0179 Br  0  0  0  0  0  0  0  0  0  0  0  0
  134.6929  135.2799  162.6774 C   0  0  0  0  0  0  0  0  0  0  0  0
  133.5441  134.9665  161.9703 C   0  0  0  0  0  0  0  0  0  0  0  0
  133.2782  134.9701  160.4801 C   0  0  0  0  0  0  0  0  0  0  0  0
  127.1799  134.2234  161.2648 C   0  0  2  0  0  0  0  0  0  0  0  0
  127.9518  134.5338  161.9690 H   0  0  0  0  0  0  0  0  0  0  0  0
  126.2037  132.8650  161.9373 Cl  0  0  0  0  0  0  0  0  0  0  0  0
  124.4661  136.1271  161.4324 H   0  0  0  0  0  0  0  0  0  0  0  0
  125.1825  135.6980  158.8658 H   0  0  0  0  0  0  0  0  0  0  0  0
  126.7802  134.0288  157.8424 H   0  0  0  0  0  0  0  0  0  0  0  0
  128.6496  133.1039  157.6609 H   0  0  0  0  0  0  0  0  0  0  0  0
  131.4739  133.2989  156.8748 H   0  0  0  0  0  0  0  0  0  0  0  0
  128.9220  132.2344  155.6250 H   0  0  0  0  0  0  0  0  0  0  0  0
  130.2556  133.1510  154.8588 H   0  0  0  0  0  0  0  0  0  0  0  0
  130.6635  130.6817  154.1207 H   0  0  0  0  0  0  0  0  0  0  0  0
  131.7149  129.5018  156.0927 H   0  0  0  0  0  0  0  0  0  0  0  0
  131.9267  131.2721  157.9963 H   0  0  0  0  0  0  0  0  0  0  0  0
  130.2007  130.7966  158.0258 H   0  0  0  0  0  0  0  0  0  0  0  0
  131.9894  133.7857  158.5966 H   0  0  0  0  0  0  0  0  0  0  0  0
  130.3566  134.7256  162.0067 H   0  0  0  0  0  0  0  0  0  0  0  0
  131.1814  133.2172  161.5133 H   0  0  0  0  0  0  0  0  0  0  0  0
  131.5247  134.1954  164.5598 H   0  0  0  0  0  0  0  0  0  0  0  0
  133.5667  134.7520  165.8127 H   0  0  0  0  0  0  0  0  0  0  0  0
  135.5839  135.5847  162.1488 H   0  0  0  0  0  0  0  0  0  0  0  0
  133.7013  134.0779  160.0182 H   0  0  0  0  0  0  0  0  0  0  0  0
  133.6958  135.8674  160.0236 H   0  0  0  0  0  0  0  0  0  0  0  0
  1  2  1  0
  1 32  1  0
  2  3  1  6
  2 29  1  0
  2  4  1  0
  4  5  2  0
  4 33  1  0
  5  6  1  0
  5 34  1  0
  6  7  1  1
  6  8  1  0
  6 29  1  0
  8  9  1  0
 10  8  2  0
 10 11  1  0
 10 17  1  0
 11 12  1  0
 11 35  1  0
 12 16  1  0
 12 13  1  0
 12 36  1  0
 13 14  1  0
 13 37  1  0
 13 38  1  0
 14 15  2  0
 14 39  1  0
 15 16  1  0
 15 40  1  0
 16 41  1  0
 16 42  1  0
 17 18  1  0
 17 43  1  0
 18 19  1  6
 18 28  1  0
 18 20  1  0
 20 21  1  0
 20 44  1  0
 20 45  1  0
 21 27  2  0
 21 22  1  0
 22 23  2  0
 22 46  1  0
 23 24  1  0
 23 47  1  0
 24 25  1  0
 24 26  2  0
 26 27  1  0
 26 48  1  0
 27 28  1  0
 28 49  1  0
 28 50  1  0
 29 30  1  1
 29 31  1  0
M  CHG  1   8   1
M  END
>  <DOCK_score>  (1) 
-46.498608

>  <SMILES>  (1) 
O[C@@H]1C=C[C@@H]([NH+]=C(NC2CC=CC2)N[C@H]2Cc3ccc(Br)cc3C2)[C@@H]1Cl

$$$$
