C1=CCC(C(c2ccccc2)[C@@H]2CCC[NH+](Cc3cccc4ccccc34)C2)=CC1
     RDKit          3D

 62 66  0  0  1  0  0  0  0  0999 V2000
  130.9049  129.6919  157.5562 C   0  0  0  0  0  0  0  0  0  0  0  0
  131.1300  130.8054  156.9278 C   0  0  0  0  0  0  0  0  0  0  0  0
  130.5140  132.1091  157.3378 C   0  0  0  0  0  0  0  0  0  0  0  0
  130.0346  132.0592  158.7573 C   0  0  0  0  0  0  0  0  0  0  0  0
  129.8043  133.3578  159.4865 C   0  0  2  0  0  0  0  0  0  0  0  0
  128.7610  134.1650  158.7576 C   0  0  0  0  0  0  0  0  0  0  0  0
  129.1414  135.0584  157.7737 C   0  0  0  0  0  0  0  0  0  0  0  0
  128.1841  135.7950  157.1014 C   0  0  0  0  0  0  0  0  0  0  0  0
  126.8474  135.6463  157.4209 C   0  0  0  0  0  0  0  0  0  0  0  0
  126.4675  134.7567  158.4084 C   0  0  0  0  0  0  0  0  0  0  0  0
  127.4243  134.0161  159.0767 C   0  0  0  0  0  0  0  0  0  0  0  0
  131.1124  134.1491  159.5448 C   0  0  2  0  0  0  0  0  0  0  0  0
  131.4577  134.3580  158.5322 H   0  0  0  0  0  0  0  0  0  0  0  0
  132.1724  133.3307  160.2877 C   0  0  0  0  0  0  0  0  0  0  0  0
  133.4527  134.1621  160.4090 C   0  0  0  0  0  0  0  0  0  0  0  0
  133.1323  135.4784  161.1208 C   0  0  0  0  0  0  0  0  0  0  0  0
  132.1344  136.2267  160.3471 N   0  0  2  0  0  0  0  0  0  0  0  0
  132.4798  136.3774  159.4111 H   0  0  0  0  0  0  0  0  0  0  0  0
  131.8890  137.5237  160.9918 C   0  0  0  0  0  0  0  0  0  0  0  0
  133.1930  138.0916  161.4900 C   0  0  0  0  0  0  0  0  0  0  0  0
  133.6273  137.8060  162.7482 C   0  0  0  0  0  0  0  0  0  0  0  0
  134.8300  138.3218  163.2262 C   0  0  0  0  0  0  0  0  0  0  0  0
  135.6064  139.1254  162.4487 C   0  0  0  0  0  0  0  0  0  0  0  0
  135.1910  139.4423  161.1445 C   0  0  0  0  0  0  0  0  0  0  0  0
  135.9647  140.2700  160.3128 C   0  0  0  0  0  0  0  0  0  0  0  0
  135.5299  140.5562  159.0553 C   0  0  0  0  0  0  0  0  0  0  0  0
  134.3268  140.0403  158.5771 C   0  0  0  0  0  0  0  0  0  0  0  0
  133.5488  139.2398  159.3556 C   0  0  0  0  0  0  0  0  0  0  0  0
  133.9671  138.9181  160.6583 C   0  0  0  0  0  0  0  0  0  0  0  0
  130.8801  135.4665  160.2876 C   0  0  0  0  0  0  0  0  0  0  0  0
  129.8145  130.9457  159.3874 C   0  0  0  0  0  0  0  0  0  0  0  0
  130.0064  129.6010  158.7528 C   0  0  0  0  0  0  0  0  0  0  0  0
  131.3854  128.7920  157.2013 H   0  0  0  0  0  0  0  0  0  0  0  0
  131.7895  130.7918  156.0726 H   0  0  0  0  0  0  0  0  0  0  0  0
  129.6700  132.3270  156.6832 H   0  0  0  0  0  0  0  0  0  0  0  0
  131.2563  132.9009  157.2389 H   0  0  0  0  0  0  0  0  0  0  0  0
  129.4600  133.1495  160.4995 H   0  0  0  0  0  0  0  0  0  0  0  0
  130.1861  135.1781  157.5275 H   0  0  0  0  0  0  0  0  0  0  0  0
  128.4809  136.4898  156.3297 H   0  0  0  0  0  0  0  0  0  0  0  0
  126.0998  136.2250  156.8988 H   0  0  0  0  0  0  0  0  0  0  0  0
  125.4231  134.6405  158.6579 H   0  0  0  0  0  0  0  0  0  0  0  0
  127.1276  133.3213  159.8484 H   0  0  0  0  0  0  0  0  0  0  0  0
  131.8064  133.0777  161.2828 H   0  0  0  0  0  0  0  0  0  0  0  0
  132.3826  132.4166  159.7323 H   0  0  0  0  0  0  0  0  0  0  0  0
  134.1935  133.6077  160.9853 H   0  0  0  0  0  0  0  0  0  0  0  0
  133.8465  134.3713  159.4145 H   0  0  0  0  0  0  0  0  0  0  0  0
  134.0420  136.0721  161.2101 H   0  0  0  0  0  0  0  0  0  0  0  0
  132.7377  135.2680  162.1148 H   0  0  0  0  0  0  0  0  0  0  0  0
  131.2071  137.3888  161.8314 H   0  0  0  0  0  0  0  0  0  0  0  0
  131.4458  138.2100  160.2703 H   0  0  0  0  0  0  0  0  0  0  0  0
  133.0303  137.1705  163.3855 H   0  0  0  0  0  0  0  0  0  0  0  0
  135.1517  138.0797  164.2284 H   0  0  0  0  0  0  0  0  0  0  0  0
  136.5368  139.5174  162.8325 H   0  0  0  0  0  0  0  0  0  0  0  0
  136.8996  140.6763  160.6695 H   0  0  0  0  0  0  0  0  0  0  0  0
  136.1266  141.1924  158.4184 H   0  0  0  0  0  0  0  0  0  0  0  0
  134.0048  140.2829  157.5752 H   0  0  0  0  0  0  0  0  0  0  0  0
  132.6168  138.8508  158.9731 H   0  0  0  0  0  0  0  0  0  0  0  0
  130.5347  135.2565  161.2999 H   0  0  0  0  0  0  0  0  0  0  0  0
  130.1260  136.0514  159.7609 H   0  0  0  0  0  0  0  0  0  0  0  0
  129.4742  130.9899  160.4114 H   0  0  0  0  0  0  0  0  0  0  0  0
  129.0387  129.2060  158.4437 H   0  0  0  0  0  0  0  0  0  0  0  0
  130.4513  128.9251  159.4831 H   0  0  0  0  0  0  0  0  0  0  0  0
  1 32  1  0
  1  2  2  0
  1 33  1  0
  2  3  1  0
  2 34  1  0
  3  4  1  0
  3 35  1  0
  3 36  1  0
  4  5  1  0
  4 31  2  0
  5  6  1  0
  5 12  1  0
  5 37  1  1
  6 11  1  0
  6  7  2  0
  7  8  1  0
  7 38  1  0
  8  9  2  0
  8 39  1  0
  9 10  1  0
  9 40  1  0
 10 11  2  0
 10 41  1  0
 11 42  1  0
 12 13  1  6
 12 30  1  0
 12 14  1  0
 14 15  1  0
 14 43  1  0
 14 44  1  0
 15 16  1  0
 15 45  1  0
 15 46  1  0
 16 17  1  0
 16 47  1  0
 16 48  1  0
 17 18  1  6
 17 19  1  0
 17 30  1  0
 19 20  1  0
 19 49  1  0
 19 50  1  0
 20 29  1  0
 20 21  2  0
 21 22  1  0
 21 51  1  0
 22 23  2  0
 22 52  1  0
 23 24  1  0
 23 53  1  0
 24 29  2  0
 24 25  1  0
 25 26  2  0
 25 54  1  0
 26 27  1  0
 26 55  1  0
 27 28  2  0
 27 56  1  0
 28 29  1  0
 28 57  1  0
 30 58  1  0
 30 59  1  0
 31 32  1  0
 31 60  1  0
 32 61  1  0
 32 62  1  0
M  CHG  1  17   1
M  END
>  <DOCK_score>  (1) 
-56.012272

>  <SMILES>  (1) 
C1=CCC(C(c2ccccc2)[C@@H]2CCC[NH+](Cc3cccc4ccccc34)C2)=CC1

$$$$
