Oc1ccc(-c2c[nH]c(NC(c3ccccc3)c3ccccc3)[nH+]2)cc1
     RDKit          3D

 46 49  0  0  1  0  0  0  0  0999 V2000
  131.4513  129.4913  152.1839 O   0  0  0  0  0  0  0  0  0  0  0  0
  131.1411  130.2202  153.2883 C   0  0  0  0  0  0  0  0  0  0  0  0
  130.4649  131.4251  153.1553 C   0  0  0  0  0  0  0  0  0  0  0  0
  130.1432  132.1642  154.2747 C   0  0  0  0  0  0  0  0  0  0  0  0
  130.5031  131.7029  155.5397 C   0  0  0  0  0  0  0  0  0  0  0  0
  130.1591  132.4956  156.7456 C   0  0  0  0  0  0  0  0  0  0  0  0
  129.3792  132.0838  157.7754 C   0  0  0  0  0  0  0  0  0  0  0  0
  129.3261  133.1217  158.6752 N   0  0  0  0  0  0  0  0  0  0  0  0
  128.8450  133.1279  159.5174 H   0  0  0  0  0  0  0  0  0  0  0  0
  130.0684  134.1408  158.1632 C   0  0  0  0  0  0  0  0  0  0  0  0
  130.2670  135.3734  158.7614 N   0  0  0  0  0  0  0  0  0  0  0  0
  129.6510  135.6661  160.0580 C   0  0  0  0  0  0  0  0  0  0  0  0
  130.0200  137.0633  160.4855 C   0  0  0  0  0  0  0  0  0  0  0  0
  130.1167  137.3720  161.8295 C   0  0  0  0  0  0  0  0  0  0  0  0
  130.4599  138.6523  162.2215 C   0  0  0  0  0  0  0  0  0  0  0  0
  130.6963  139.6266  161.2698 C   0  0  0  0  0  0  0  0  0  0  0  0
  130.5946  139.3191  159.9258 C   0  0  0  0  0  0  0  0  0  0  0  0
  130.2564  138.0375  159.5338 C   0  0  0  0  0  0  0  0  0  0  0  0
  128.1528  135.5564  159.9386 C   0  0  0  0  0  0  0  0  0  0  0  0
  127.3990  135.1673  161.0301 C   0  0  0  0  0  0  0  0  0  0  0  0
  126.0242  135.0714  160.9218 C   0  0  0  0  0  0  0  0  0  0  0  0
  125.4043  135.3546  159.7191 C   0  0  0  0  0  0  0  0  0  0  0  0
  126.1584  135.7387  158.6262 C   0  0  0  0  0  0  0  0  0  0  0  0
  127.5327  135.8396  158.7359 C   0  0  0  0  0  0  0  0  0  0  0  0
  130.5645  133.7629  157.0102 N   0  0  0  0  0  0  0  0  0  0  0  0
  131.1308  134.3034  156.4375 H   0  0  0  0  0  0  0  0  0  0  0  0
  131.1871  130.4954  155.6694 C   0  0  0  0  0  0  0  0  0  0  0  0
  131.5058  129.7609  154.5463 C   0  0  0  0  0  0  0  0  0  0  0  0
  131.1572  129.8904  151.3537 H   0  0  0  0  0  0  0  0  0  0  0  0
  130.1862  131.7821  152.1748 H   0  0  0  0  0  0  0  0  0  0  0  0
  129.6129  133.0993  154.1709 H   0  0  0  0  0  0  0  0  0  0  0  0
  128.8946  131.1234  157.8716 H   0  0  0  0  0  0  0  0  0  0  0  0
  130.8139  136.0433  158.3220 H   0  0  0  0  0  0  0  0  0  0  0  0
  130.0095  134.9524  160.7999 H   0  0  0  0  0  0  0  0  0  0  0  0
  129.9276  136.6119  162.5730 H   0  0  0  0  0  0  0  0  0  0  0  0
  130.5391  138.8927  163.2715 H   0  0  0  0  0  0  0  0  0  0  0  0
  130.9602  140.6280  161.5762 H   0  0  0  0  0  0  0  0  0  0  0  0
  130.7790  140.0806  159.1823 H   0  0  0  0  0  0  0  0  0  0  0  0
  130.1765  137.7974  158.4838 H   0  0  0  0  0  0  0  0  0  0  0  0
  127.8839  134.9418  161.9683 H   0  0  0  0  0  0  0  0  0  0  0  0
  125.4349  134.7709  161.7755 H   0  0  0  0  0  0  0  0  0  0  0  0
  124.3305  135.2754  159.6333 H   0  0  0  0  0  0  0  0  0  0  0  0
  125.6740  135.9597  157.6866 H   0  0  0  0  0  0  0  0  0  0  0  0
  128.1219  136.1394  157.8820 H   0  0  0  0  0  0  0  0  0  0  0  0
  131.4676  130.1354  156.6483 H   0  0  0  0  0  0  0  0  0  0  0  0
  132.0356  128.8251  154.6462 H   0  0  0  0  0  0  0  0  0  0  0  0
  1  2  1  0
  1 29  1  0
  2 28  2  0
  2  3  1  0
  3  4  2  0
  3 30  1  0
  4  5  1  0
  4 31  1  0
  5  6  1  0
  5 27  2  0
  6 25  1  0
  6  7  2  0
  7  8  1  0
  7 32  1  0
  8  9  1  0
  8 10  1  0
 10 11  1  0
 10 25  2  0
 11 12  1  0
 11 33  1  0
 12 13  1  0
 12 19  1  0
 12 34  1  0
 13 18  1  0
 13 14  2  0
 14 15  1  0
 14 35  1  0
 15 16  2  0
 15 36  1  0
 16 17  1  0
 16 37  1  0
 17 18  2  0
 17 38  1  0
 18 39  1  0
 19 24  1  0
 19 20  2  0
 20 21  1  0
 20 40  1  0
 21 22  2  0
 21 41  1  0
 22 23  1  0
 22 42  1  0
 23 24  2  0
 23 43  1  0
 24 44  1  0
 25 26  1  0
 27 28  1  0
 27 45  1  0
 28 46  1  0
M  CHG  1  25   1
M  END
>  <DOCK_score>  (1) 
-57.819698

>  <SMILES>  (1) 
Oc1ccc(-c2c[nH]c(NC(c3ccccc3)c3ccccc3)[nH+]2)cc1

$$$$
