CC[C@H](Nc1[nH]cc(-c2ccc(N)cc2)[nH+]1)c1ccc(F)cc1
     RDKit          3D

 43 45  0  0  1  0  0  0  0  0999 V2000
  129.1904  136.7029  160.9688 C   0  0  0  0  0  0  0  0  0  0  0  0
  130.1793  136.2699  159.8845 C   0  0  0  0  0  0  0  0  0  0  0  0
  129.6888  134.9746  159.2345 C   0  0  2  0  0  0  0  0  0  0  0  0
  129.6147  134.1938  159.9915 H   0  0  0  0  0  0  0  0  0  0  0  0
  130.6356  134.5601  158.1963 N   0  0  0  0  0  0  0  0  0  0  0  0
  130.4012  133.4075  157.4661 C   0  0  0  0  0  0  0  0  0  0  0  0
  129.7349  132.3082  157.9124 N   0  0  0  0  0  0  0  0  0  0  0  0
  129.3424  132.1918  158.7918 H   0  0  0  0  0  0  0  0  0  0  0  0
  129.7213  131.3928  156.8867 C   0  0  0  0  0  0  0  0  0  0  0  0
  130.3790  131.9594  155.8452 C   0  0  0  0  0  0  0  0  0  0  0  0
  130.6144  131.3375  154.5190 C   0  0  0  0  0  0  0  0  0  0  0  0
  130.1136  131.9408  153.3664 C   0  0  0  0  0  0  0  0  0  0  0  0
  130.3380  131.3638  152.1344 C   0  0  0  0  0  0  0  0  0  0  0  0
  131.0532  130.1756  152.0422 C   0  0  0  0  0  0  0  0  0  0  0  0
  131.2743  129.5903  150.7931 N   0  0  0  0  0  0  0  0  0  0  0  0
  131.5489  129.5696  153.1906 C   0  0  0  0  0  0  0  0  0  0  0  0
  131.3318  130.1461  154.4241 C   0  0  0  0  0  0  0  0  0  0  0  0
  130.7796  133.1975  156.2287 N   0  0  0  0  0  0  0  0  0  0  0  0
  131.2697  133.8263  155.6762 H   0  0  0  0  0  0  0  0  0  0  0  0
  128.3340  135.2047  158.6159 C   0  0  0  0  0  0  0  0  0  0  0  0
  127.1893  134.9928  159.3615 C   0  0  0  0  0  0  0  0  0  0  0  0
  125.9463  135.2038  158.7954 C   0  0  0  0  0  0  0  0  0  0  0  0
  125.8478  135.6283  157.4813 C   0  0  0  0  0  0  0  0  0  0  0  0
  124.6333  135.8350  156.9268 F   0  0  0  0  0  0  0  0  0  0  0  0
  126.9950  135.8402  156.7354 C   0  0  0  0  0  0  0  0  0  0  0  0
  128.2369  135.6281  157.3036 C   0  0  0  0  0  0  0  0  0  0  0  0
  129.5397  137.6256  161.4317 H   0  0  0  0  0  0  0  0  0  0  0  0
  128.2105  136.8693  160.5212 H   0  0  0  0  0  0  0  0  0  0  0  0
  129.1162  135.9220  161.7255 H   0  0  0  0  0  0  0  0  0  0  0  0
  131.1591  136.1035  160.3320 H   0  0  0  0  0  0  0  0  0  0  0  0
  130.2535  137.0508  159.1275 H   0  0  0  0  0  0  0  0  0  0  0  0
  131.4267  135.0932  158.0206 H   0  0  0  0  0  0  0  0  0  0  0  0
  129.2728  130.4106  156.9069 H   0  0  0  0  0  0  0  0  0  0  0  0
  129.5536  132.8615  153.4380 H   0  0  0  0  0  0  0  0  0  0  0  0
  129.9540  131.8331  151.2406 H   0  0  0  0  0  0  0  0  0  0  0  0
  131.7738  128.7606  150.7283 H   0  0  0  0  0  0  0  0  0  0  0  0
  130.9288  130.0120  149.9916 H   0  0  0  0  0  0  0  0  0  0  0  0
  132.1043  128.6464  153.1167 H   0  0  0  0  0  0  0  0  0  0  0  0
  131.7175  129.6751  155.3162 H   0  0  0  0  0  0  0  0  0  0  0  0
  127.2662  134.6577  160.3853 H   0  0  0  0  0  0  0  0  0  0  0  0
  125.0521  135.0378  159.3781 H   0  0  0  0  0  0  0  0  0  0  0  0
  126.9194  136.1710  155.7101 H   0  0  0  0  0  0  0  0  0  0  0  0
  129.1318  135.7934  156.7220 H   0  0  0  0  0  0  0  0  0  0  0  0
  1  2  1  0
  1 27  1  0
  1 28  1  0
  1 29  1  0
  2  3  1  0
  2 30  1  0
  2 31  1  0
  3  4  1  1
  3  5  1  0
  3 20  1  0
  5 32  1  0
  6  5  1  0
  6 18  2  0
  6  7  1  0
  7  8  1  0
  7  9  1  0
  9 10  2  0
  9 33  1  0
 10 11  1  0
 10 18  1  0
 11 17  1  0
 11 12  2  0
 12 13  1  0
 12 34  1  0
 13 14  2  0
 13 35  1  0
 14 15  1  0
 14 16  1  0
 15 36  1  0
 15 37  1  0
 16 17  2  0
 16 38  1  0
 17 39  1  0
 18 19  1  0
 20 26  1  0
 20 21  2  0
 21 22  1  0
 21 40  1  0
 22 23  2  0
 22 41  1  0
 23 24  1  0
 23 25  1  0
 25 26  2  0
 25 42  1  0
 26 43  1  0
M  CHG  1  18   1
M  END
>  <DOCK_score>  (1) 
-58.320808

>  <SMILES>  (1) 
CC[C@H](Nc1[nH]cc(-c2ccc(N)cc2)[nH+]1)c1ccc(F)cc1

$$$$
