Cc1cc(O)cc(C[NH+]=C(NCc2cccc3ccc(Cl)cc23)NC2CC=CC2)c1
     RDKit          3D

 57 60  0  0  1  0  0  0  0  0999 V2000
  127.6917  135.3262  167.5712 C   0  0  0  0  0  0  0  0  0  0  0  0
  127.5273  135.7245  166.1270 C   0  0  0  0  0  0  0  0  0  0  0  0
  126.2713  135.7303  165.5513 C   0  0  0  0  0  0  0  0  0  0  0  0
  126.1207  136.0971  164.2220 C   0  0  0  0  0  0  0  0  0  0  0  0
  124.8863  136.1039  163.6536 O   0  0  0  0  0  0  0  0  0  0  0  0
  127.2318  136.4620  163.4754 C   0  0  0  0  0  0  0  0  0  0  0  0
  128.4858  136.4492  164.0540 C   0  0  0  0  0  0  0  0  0  0  0  0
  129.6937  136.8399  163.2418 C   0  0  0  0  0  0  0  0  0  0  0  0
  129.6295  136.1929  161.9291 N   0  0  0  0  0  0  0  0  0  0  0  0
  128.8812  135.6165  161.7084 H   0  0  0  0  0  0  0  0  0  0  0  0
  130.5807  136.3876  161.0594 C   0  0  0  0  0  0  0  0  0  0  0  0
  131.6443  137.2000  161.3741 N   0  0  0  0  0  0  0  0  0  0  0  0
  132.7134  137.4188  160.3965 C   0  0  0  0  0  0  0  0  0  0  0  0
  133.7503  138.3408  160.9843 C   0  0  0  0  0  0  0  0  0  0  0  0
  133.6419  139.6875  160.8172 C   0  0  0  0  0  0  0  0  0  0  0  0
  134.5878  140.5558  161.3581 C   0  0  0  0  0  0  0  0  0  0  0  0
  135.6538  140.0822  162.0597 C   0  0  0  0  0  0  0  0  0  0  0  0
  135.8027  138.6979  162.2481 C   0  0  0  0  0  0  0  0  0  0  0  0
  136.8900  138.1720  162.9668 C   0  0  0  0  0  0  0  0  0  0  0  0
  137.0027  136.8257  163.1287 C   0  0  0  0  0  0  0  0  0  0  0  0
  136.0531  135.9561  162.5920 C   0  0  0  0  0  0  0  0  0  0  0  0
  136.2335  134.2450  162.8224 Cl  0  0  0  0  0  0  0  0  0  0  0  0
  134.9862  136.4300  161.8904 C   0  0  0  0  0  0  0  0  0  0  0  0
  134.8373  137.8147  161.7026 C   0  0  0  0  0  0  0  0  0  0  0  0
  130.5205  135.7803  159.8274 N   0  0  0  0  0  0  0  0  0  0  0  0
  129.3872  134.9145  159.4921 C   0  0  0  0  0  0  0  0  0  0  0  0
  129.4055  133.6224  160.3414 C   0  0  0  0  0  0  0  0  0  0  0  0
  128.9315  132.5383  159.4015 C   0  0  0  0  0  0  0  0  0  0  0  0
  128.9991  132.9312  158.1586 C   0  0  0  0  0  0  0  0  0  0  0  0
  129.5294  134.3429  158.0624 C   0  0  0  0  0  0  0  0  0  0  0  0
  128.6333  136.0835  165.3795 C   0  0  0  0  0  0  0  0  0  0  0  0
  127.6058  136.2096  168.2038 H   0  0  0  0  0  0  0  0  0  0  0  0
  126.9162  134.6093  167.8408 H   0  0  0  0  0  0  0  0  0  0  0  0
  128.6720  134.8715  167.7133 H   0  0  0  0  0  0  0  0  0  0  0  0
  125.4076  135.4491  166.1356 H   0  0  0  0  0  0  0  0  0  0  0  0
  124.8824  136.3732  162.7249 H   0  0  0  0  0  0  0  0  0  0  0  0
  127.1166  136.7518  162.4413 H   0  0  0  0  0  0  0  0  0  0  0  0
  130.5984  136.5216  163.7600 H   0  0  0  0  0  0  0  0  0  0  0  0
  129.7105  137.9221  163.1132 H   0  0  0  0  0  0  0  0  0  0  0  0
  131.6868  137.6284  162.2433 H   0  0  0  0  0  0  0  0  0  0  0  0
  133.1763  136.4646  160.1449 H   0  0  0  0  0  0  0  0  0  0  0  0
  132.2957  137.8688  159.4959 H   0  0  0  0  0  0  0  0  0  0  0  0
  132.8079  140.0890  160.2608 H   0  0  0  0  0  0  0  0  0  0  0  0
  134.4759  141.6205  161.2149 H   0  0  0  0  0  0  0  0  0  0  0  0
  136.3814  140.7670  162.4699 H   0  0  0  0  0  0  0  0  0  0  0  0
  137.6325  138.8333  163.3886 H   0  0  0  0  0  0  0  0  0  0  0  0
  137.8394  136.4245  163.6810 H   0  0  0  0  0  0  0  0  0  0  0  0
  134.2585  135.7452  161.4808 H   0  0  0  0  0  0  0  0  0  0  0  0
  131.2284  135.9251  159.1802 H   0  0  0  0  0  0  0  0  0  0  0  0
  128.4432  135.4467  159.6086 H   0  0  0  0  0  0  0  0  0  0  0  0
  130.4170  133.4095  160.6872 H   0  0  0  0  0  0  0  0  0  0  0  0
  128.7254  133.7150  161.1881 H   0  0  0  0  0  0  0  0  0  0  0  0
  128.5823  131.5661  159.7168 H   0  0  0  0  0  0  0  0  0  0  0  0
  128.7133  132.3269  157.3105 H   0  0  0  0  0  0  0  0  0  0  0  0
  128.9336  134.9252  157.3596 H   0  0  0  0  0  0  0  0  0  0  0  0
  130.5761  134.3372  157.7580 H   0  0  0  0  0  0  0  0  0  0  0  0
  129.6143  136.0781  165.8313 H   0  0  0  0  0  0  0  0  0  0  0  0
  1  2  1  0
  1 32  1  0
  1 33  1  0
  1 34  1  0
  2 31  2  0
  2  3  1  0
  3  4  2  0
  3 35  1  0
  4  5  1  0
  4  6  1  0
  5 36  1  0
  6  7  2  0
  6 37  1  0
  7  8  1  0
  7 31  1  0
  8  9  1  0
  8 38  1  0
  8 39  1  0
  9 10  1  0
 11  9  2  0
 11 12  1  0
 11 25  1  0
 12 13  1  0
 12 40  1  0
 13 14  1  0
 13 41  1  0
 13 42  1  0
 14 24  1  0
 14 15  2  0
 15 16  1  0
 15 43  1  0
 16 17  2  0
 16 44  1  0
 17 18  1  0
 17 45  1  0
 18 24  2  0
 18 19  1  0
 19 20  2  0
 19 46  1  0
 20 21  1  0
 20 47  1  0
 21 22  1  0
 21 23  2  0
 23 24  1  0
 23 48  1  0
 25 26  1  0
 25 49  1  0
 26 30  1  0
 26 27  1  0
 26 50  1  0
 27 28  1  0
 27 51  1  0
 27 52  1  0
 28 29  2  0
 28 53  1  0
 29 30  1  0
 29 54  1  0
 30 55  1  0
 30 56  1  0
 31 57  1  0
M  CHG  1   9   1
M  END
>  <DOCK_score>  (1) 
-45.883423

>  <SMILES>  (1) 
Cc1cc(O)cc(C[NH+]=C(NCc2cccc3ccc(Cl)cc23)NC2CC=CC2)c1

$$$$
