Nc1ccc(-c2c[nH]c(N[C@@H](CCc3cccc4ccccc34)Cc3ccccn3)[nH+]2)cc1
     RDKit          3D

 61 65  0  0  1  0  0  0  0  0999 V2000
  130.7387  129.5727  153.3841 N   0  0  0  0  0  0  0  0  0  0  0  0
  130.7083  130.3919  154.5152 C   0  0  0  0  0  0  0  0  0  0  0  0
  130.4307  131.7474  154.3833 C   0  0  0  0  0  0  0  0  0  0  0  0
  130.3998  132.5577  155.4985 C   0  0  0  0  0  0  0  0  0  0  0  0
  130.6471  132.0164  156.7591 C   0  0  0  0  0  0  0  0  0  0  0  0
  130.6147  132.8861  157.9605 C   0  0  0  0  0  0  0  0  0  0  0  0
  130.2693  132.5023  159.2143 C   0  0  0  0  0  0  0  0  0  0  0  0
  130.3766  133.6145  160.0154 N   0  0  0  0  0  0  0  0  0  0  0  0
  130.1948  133.6567  160.9673 H   0  0  0  0  0  0  0  0  0  0  0  0
  130.7847  134.6451  159.2261 C   0  0  0  0  0  0  0  0  0  0  0  0
  131.0138  135.9431  159.6495 N   0  0  0  0  0  0  0  0  0  0  0  0
  130.2549  136.4907  160.7766 C   0  0  1  0  0  0  0  0  0  0  0  0
  130.1439  135.7262  161.5455 H   0  0  0  0  0  0  0  0  0  0  0  0
  131.0011  137.6936  161.3575 C   0  0  0  0  0  0  0  0  0  0  0  0
  132.3839  137.2511  161.8405 C   0  0  0  0  0  0  0  0  0  0  0  0
  133.1189  138.4358  162.4127 C   0  0  0  0  0  0  0  0  0  0  0  0
  133.0103  138.7342  163.7364 C   0  0  0  0  0  0  0  0  0  0  0  0
  133.6830  139.8248  164.2835 C   0  0  0  0  0  0  0  0  0  0  0  0
  134.4682  140.6238  163.5101 C   0  0  0  0  0  0  0  0  0  0  0  0
  134.6044  140.3475  162.1392 C   0  0  0  0  0  0  0  0  0  0  0  0
  135.4056  141.1499  161.3089 C   0  0  0  0  0  0  0  0  0  0  0  0
  135.5135  140.8520  159.9855 C   0  0  0  0  0  0  0  0  0  0  0  0
  134.8402  139.7612  159.4381 C   0  0  0  0  0  0  0  0  0  0  0  0
  134.0552  138.9624  160.2111 C   0  0  0  0  0  0  0  0  0  0  0  0
  133.9245  139.2346  161.5838 C   0  0  0  0  0  0  0  0  0  0  0  0
  128.8722  136.9332  160.2937 C   0  0  0  0  0  0  0  0  0  0  0  0
  127.9697  135.7312  160.1853 C   0  0  0  0  0  0  0  0  0  0  0  0
  127.2089  135.3477  161.2738 C   0  0  0  0  0  0  0  0  0  0  0  0
  126.3816  134.2409  161.1636 C   0  0  0  0  0  0  0  0  0  0  0  0
  126.3502  133.5579  159.9571 C   0  0  0  0  0  0  0  0  0  0  0  0
  127.1391  134.0002  158.9123 C   0  0  0  0  0  0  0  0  0  0  0  0
  127.9107  135.0606  159.0515 N   0  0  0  0  0  0  0  0  0  0  0  0
  130.9258  134.2060  157.9991 N   0  0  0  0  0  0  0  0  0  0  0  0
  131.2075  134.7398  157.2398 H   0  0  0  0  0  0  0  0  0  0  0  0
  130.9305  130.6575  156.8885 C   0  0  0  0  0  0  0  0  0  0  0  0
  130.9552  129.8501  155.7711 C   0  0  0  0  0  0  0  0  0  0  0  0
  130.5662  129.9502  152.5072 H   0  0  0  0  0  0  0  0  0  0  0  0
  130.9324  128.6266  153.4753 H   0  0  0  0  0  0  0  0  0  0  0  0
  130.2395  132.1663  153.4064 H   0  0  0  0  0  0  0  0  0  0  0  0
  130.1836  133.6107  155.3956 H   0  0  0  0  0  0  0  0  0  0  0  0
  129.9716  131.5118  159.5250 H   0  0  0  0  0  0  0  0  0  0  0  0
  131.6767  136.4901  159.1996 H   0  0  0  0  0  0  0  0  0  0  0  0
  131.1124  138.4580  160.5886 H   0  0  0  0  0  0  0  0  0  0  0  0
  130.4366  138.1010  162.1961 H   0  0  0  0  0  0  0  0  0  0  0  0
  132.2727  136.4866  162.6095 H   0  0  0  0  0  0  0  0  0  0  0  0
  132.9485  136.8436  161.0019 H   0  0  0  0  0  0  0  0  0  0  0  0
  132.3935  138.1162  164.3721 H   0  0  0  0  0  0  0  0  0  0  0  0
  133.5798  140.0395  165.3369 H   0  0  0  0  0  0  0  0  0  0  0  0
  134.9834  141.4660  163.9478 H   0  0  0  0  0  0  0  0  0  0  0  0
  135.9326  141.9989  161.7189 H   0  0  0  0  0  0  0  0  0  0  0  0
  136.1299  141.4702  159.3496 H   0  0  0  0  0  0  0  0  0  0  0  0
  134.9427  139.5469  158.3845 H   0  0  0  0  0  0  0  0  0  0  0  0
  133.5395  138.1206  159.7732 H   0  0  0  0  0  0  0  0  0  0  0  0
  128.4488  137.6426  161.0047 H   0  0  0  0  0  0  0  0  0  0  0  0
  128.9633  137.4082  159.3169 H   0  0  0  0  0  0  0  0  0  0  0  0
  127.2586  135.9034  162.1987 H   0  0  0  0  0  0  0  0  0  0  0  0
  125.7756  133.9184  161.9973 H   0  0  0  0  0  0  0  0  0  0  0  0
  125.7170  132.6915  159.8355 H   0  0  0  0  0  0  0  0  0  0  0  0
  127.1204  133.4737  157.9695 H   0  0  0  0  0  0  0  0  0  0  0  0
  131.1268  130.2369  157.8638 H   0  0  0  0  0  0  0  0  0  0  0  0
  131.1711  128.7966  155.8714 H   0  0  0  0  0  0  0  0  0  0  0  0
  1  2  1  0
  1 37  1  0
  1 38  1  0
  2 36  2  0
  2  3  1  0
  3  4  2  0
  3 39  1  0
  4  5  1  0
  4 40  1  0
  5  6  1  0
  5 35  2  0
  6 33  1  0
  6  7  2  0
  7  8  1  0
  7 41  1  0
  8  9  1  0
  8 10  1  0
 10 11  1  0
 10 33  2  0
 11 12  1  0
 11 42  1  0
 12 13  1  1
 12 14  1  0
 12 26  1  0
 14 15  1  0
 14 43  1  0
 14 44  1  0
 15 16  1  0
 15 45  1  0
 15 46  1  0
 16 25  1  0
 16 17  2  0
 17 18  1  0
 17 47  1  0
 18 19  2  0
 18 48  1  0
 19 20  1  0
 19 49  1  0
 20 25  2  0
 20 21  1  0
 21 22  2  0
 21 50  1  0
 22 23  1  0
 22 51  1  0
 23 24  2  0
 23 52  1  0
 24 25  1  0
 24 53  1  0
 26 27  1  0
 26 54  1  0
 26 55  1  0
 27 32  1  0
 27 28  2  0
 28 29  1  0
 28 56  1  0
 29 30  2  0
 29 57  1  0
 30 31  1  0
 30 58  1  0
 31 32  2  0
 31 59  1  0
 33 34  1  0
 35 36  1  0
 35 60  1  0
 36 61  1  0
M  CHG  1  33   1
M  END
>  <DOCK_score>  (1) 
-60.01733

>  <SMILES>  (1) 
Nc1ccc(-c2c[nH]c(N[C@@H](CCc3cccc4ccccc34)Cc3ccccn3)[nH+]2)cc1

$$$$
