Cc1ccc(C(=O)OC2(c3cncnc3)CC[NH+](C3CC=CC3)CC2)[nH]1
     RDKit          3D

 51 54  0  0  1  0  0  0  0  0999 V2000
  134.6736  138.5039  160.1871 C   0  0  0  0  0  0  0  0  0  0  0  0
  133.7543  137.5286  160.8762 C   0  0  0  0  0  0  0  0  0  0  0  0
  133.8868  137.0880  162.1505 C   0  0  0  0  0  0  0  0  0  0  0  0
  132.8420  136.1949  162.4058 C   0  0  0  0  0  0  0  0  0  0  0  0
  132.0878  136.1173  161.2529 C   0  0  0  0  0  0  0  0  0  0  0  0
  130.8885  135.2995  161.0554 C   0  0  0  0  0  0  0  0  0  0  0  0
  130.4720  134.6024  161.9607 O   0  0  0  0  0  0  0  0  0  0  0  0
  130.2461  135.3199  159.8694 O   0  0  0  0  0  0  0  0  0  0  0  0
  129.0649  134.4846  159.7452 C   0  0  2  0  0  0  0  0  0  0  0  0
  128.0418  134.9032  160.7695 C   0  0  0  0  0  0  0  0  0  0  0  0
  127.5287  136.1908  160.7749 C   0  0  0  0  0  0  0  0  0  0  0  0
  126.6276  136.5208  161.6863 N   0  0  0  0  0  0  0  0  0  0  0  0
  126.2264  135.6460  162.5867 C   0  0  0  0  0  0  0  0  0  0  0  0
  126.6963  134.4149  162.6155 N   0  0  0  0  0  0  0  0  0  0  0  0
  127.5954  134.0117  161.7323 C   0  0  0  0  0  0  0  0  0  0  0  0
  129.4479  133.0192  159.9709 C   0  0  0  0  0  0  0  0  0  0  0  0
  130.4268  132.5798  158.8800 C   0  0  0  0  0  0  0  0  0  0  0  0
  129.7950  132.7247  157.5631 N   0  0  2  0  0  0  0  0  0  0  0  0
  128.9409  132.1881  157.5401 H   0  0  0  0  0  0  0  0  0  0  0  0
  130.7108  132.2295  156.5267 C   0  0  0  0  0  0  0  0  0  0  0  0
  130.0128  132.1780  155.1478 C   0  0  0  0  0  0  0  0  0  0  0  0
  130.5541  130.9303  154.4897 C   0  0  0  0  0  0  0  0  0  0  0  0
  131.1202  130.1450  155.3652 C   0  0  0  0  0  0  0  0  0  0  0  0
  131.0510  130.7381  156.7532 C   0  0  0  0  0  0  0  0  0  0  0  0
  129.4902  134.1381  157.3098 C   0  0  0  0  0  0  0  0  0  0  0  0
  128.4751  134.6375  158.3402 C   0  0  0  0  0  0  0  0  0  0  0  0
  132.6692  136.9486  160.3217 N   0  0  0  0  0  0  0  0  0  0  0  0
  132.3513  137.0935  159.4167 H   0  0  0  0  0  0  0  0  0  0  0  0
  134.3116  139.5195  160.3468 H   0  0  0  0  0  0  0  0  0  0  0  0
  135.6789  138.4077  160.5977 H   0  0  0  0  0  0  0  0  0  0  0  0
  134.6955  138.2899  159.1187 H   0  0  0  0  0  0  0  0  0  0  0  0
  134.6620  137.3753  162.8453 H   0  0  0  0  0  0  0  0  0  0  0  0
  132.6600  135.6661  163.3297 H   0  0  0  0  0  0  0  0  0  0  0  0
  127.8566  136.9136  160.0426 H   0  0  0  0  0  0  0  0  0  0  0  0
  125.4934  135.9461  163.3211 H   0  0  0  0  0  0  0  0  0  0  0  0
  127.9761  133.0013  161.7610 H   0  0  0  0  0  0  0  0  0  0  0  0
  129.9195  132.9125  160.9477 H   0  0  0  0  0  0  0  0  0  0  0  0
  128.5529  132.3983  159.9283 H   0  0  0  0  0  0  0  0  0  0  0  0
  130.7018  131.5369  159.0378 H   0  0  0  0  0  0  0  0  0  0  0  0
  131.3212  133.2014  158.9238 H   0  0  0  0  0  0  0  0  0  0  0  0
  131.6159  132.8355  156.4854 H   0  0  0  0  0  0  0  0  0  0  0  0
  128.9324  132.1040  155.2716 H   0  0  0  0  0  0  0  0  0  0  0  0
  130.2689  133.0592  154.5595 H   0  0  0  0  0  0  0  0  0  0  0  0
  130.4822  130.7164  153.4335 H   0  0  0  0  0  0  0  0  0  0  0  0
  131.5783  129.1960  155.1285 H   0  0  0  0  0  0  0  0  0  0  0  0
  132.0129  130.6403  157.2564 H   0  0  0  0  0  0  0  0  0  0  0  0
  130.2674  130.2543  157.3362 H   0  0  0  0  0  0  0  0  0  0  0  0
  129.0734  134.2456  156.3083 H   0  0  0  0  0  0  0  0  0  0  0  0
  130.4048  134.7257  157.3873 H   0  0  0  0  0  0  0  0  0  0  0  0
  127.5600  134.0502  158.2639 H   0  0  0  0  0  0  0  0  0  0  0  0
  128.2506  135.6872  158.1518 H   0  0  0  0  0  0  0  0  0  0  0  0
  1  2  1  0
  1 29  1  0
  1 30  1  0
  1 31  1  0
  2 27  1  0
  2  3  2  0
  3  4  1  0
  3 32  1  0
  4  5  2  0
  4 33  1  0
  5  6  1  0
  5 27  1  0
  6  7  2  0
  6  8  1  0
  9  8  1  6
  9 26  1  0
  9 10  1  0
  9 16  1  0
 10 15  1  0
 10 11  2  0
 11 12  1  0
 11 34  1  0
 12 13  2  0
 13 14  1  0
 13 35  1  0
 14 15  2  0
 15 36  1  0
 16 17  1  0
 16 37  1  0
 16 38  1  0
 17 18  1  0
 17 39  1  0
 17 40  1  0
 18 19  1  1
 18 20  1  0
 18 25  1  0
 20 24  1  0
 20 21  1  0
 20 41  1  0
 21 22  1  0
 21 42  1  0
 21 43  1  0
 22 23  2  0
 22 44  1  0
 23 24  1  0
 23 45  1  0
 24 46  1  0
 24 47  1  0
 25 26  1  0
 25 48  1  0
 25 49  1  0
 26 50  1  0
 26 51  1  0
 27 28  1  0
M  CHG  1  18   1
M  END
>  <DOCK_score>  (1) 
-42.895302

>  <SMILES>  (1) 
Cc1ccc(C(=O)OC2(c3cncnc3)CC[NH+](C3CC=CC3)CC2)[nH]1

$$$$
