O=C1CC[C@H](NC(NC2COc3cc(O)ccc3C2)=[NH+]Cc2ccc(F)cc2F)CN1
     RDKit          3D

 56 59  0  0  1  0  0  0  0  0999 V2000
  123.6429  133.8092  161.4395 O   0  0  0  0  0  0  0  0  0  0  0  0
  124.8277  133.9939  161.2578 C   0  0  0  0  0  0  0  0  0  0  0  0
  125.6594  132.8435  160.7678 C   0  0  0  0  0  0  0  0  0  0  0  0
  127.1425  133.1299  161.0165 C   0  0  0  0  0  0  0  0  0  0  0  0
  127.4576  134.5378  160.4966 C   0  0  2  0  0  0  0  0  0  0  0  0
  127.1174  134.6342  159.4656 H   0  0  0  0  0  0  0  0  0  0  0  0
  128.9021  134.7737  160.5616 N   0  0  0  0  0  0  0  0  0  0  0  0
  129.7002  134.4505  159.4898 C   0  0  0  0  0  0  0  0  0  0  0  0
  131.0558  134.6720  159.5506 N   0  0  0  0  0  0  0  0  0  0  0  0
  131.6498  135.2523  160.7576 C   0  0  1  0  0  0  0  0  0  0  0  0
  133.0963  134.7641  160.9081 C   0  0  0  0  0  0  0  0  0  0  0  0
  133.6129  135.2614  162.1432 O   0  0  0  0  0  0  0  0  0  0  0  0
  133.4537  136.5835  162.4117 C   0  0  0  0  0  0  0  0  0  0  0  0
  134.2426  137.1581  163.4024 C   0  0  0  0  0  0  0  0  0  0  0  0
  134.1068  138.5016  163.7083 C   0  0  0  0  0  0  0  0  0  0  0  0
  134.8784  139.0608  164.6770 O   0  0  0  0  0  0  0  0  0  0  0  0
  133.1803  139.2755  163.0235 C   0  0  0  0  0  0  0  0  0  0  0  0
  132.3994  138.7046  162.0393 C   0  0  0  0  0  0  0  0  0  0  0  0
  132.5335  137.3607  161.7297 C   0  0  0  0  0  0  0  0  0  0  0  0
  131.6674  136.7784  160.6413 C   0  0  0  0  0  0  0  0  0  0  0  0
  129.1718  133.9340  158.4161 N   0  0  0  0  0  0  0  0  0  0  0  0
  128.3731  133.3876  158.4832 H   0  0  0  0  0  0  0  0  0  0  0  0
  129.7841  134.1787  157.1079 C   0  0  0  0  0  0  0  0  0  0  0  0
  130.1883  132.8655  156.4889 C   0  0  0  0  0  0  0  0  0  0  0  0
  129.9135  132.6156  155.1576 C   0  0  0  0  0  0  0  0  0  0  0  0
  130.2844  131.4122  154.5884 C   0  0  0  0  0  0  0  0  0  0  0  0
  130.9316  130.4549  155.3517 C   0  0  0  0  0  0  0  0  0  0  0  0
  131.2937  129.2782  154.7953 F   0  0  0  0  0  0  0  0  0  0  0  0
  131.2069  130.7038  156.6851 C   0  0  0  0  0  0  0  0  0  0  0  0
  130.8399  131.9120  157.2526 C   0  0  0  0  0  0  0  0  0  0  0  0
  131.1129  132.1586  158.5526 F   0  0  0  0  0  0  0  0  0  0  0  0
  126.7312  135.5578  161.3743 C   0  0  0  0  0  0  0  0  0  0  0  0
  125.3223  135.2076  161.5040 N   0  0  0  0  0  0  0  0  0  0  0  0
  125.3717  131.9364  161.2996 H   0  0  0  0  0  0  0  0  0  0  0  0
  125.4928  132.7052  159.6996 H   0  0  0  0  0  0  0  0  0  0  0  0
  127.7515  132.3980  160.4860 H   0  0  0  0  0  0  0  0  0  0  0  0
  127.3526  133.0776  162.0848 H   0  0  0  0  0  0  0  0  0  0  0  0
  129.2953  135.1580  161.3607 H   0  0  0  0  0  0  0  0  0  0  0  0
  131.6182  134.4476  158.7930 H   0  0  0  0  0  0  0  0  0  0  0  0
  131.0693  134.9565  161.6314 H   0  0  0  0  0  0  0  0  0  0  0  0
  133.1172  133.6743  160.9136 H   0  0  0  0  0  0  0  0  0  0  0  0
  133.6982  135.1386  160.0801 H   0  0  0  0  0  0  0  0  0  0  0  0
  134.9628  136.5546  163.9348 H   0  0  0  0  0  0  0  0  0  0  0  0
  134.7112  140.0027  164.8183 H   0  0  0  0  0  0  0  0  0  0  0  0
  133.0707  140.3235  163.2606 H   0  0  0  0  0  0  0  0  0  0  0  0
  131.6792  139.3088  161.5074 H   0  0  0  0  0  0  0  0  0  0  0  0
  132.0669  137.0635  159.6680 H   0  0  0  0  0  0  0  0  0  0  0  0
  130.6519  137.1615  160.7421 H   0  0  0  0  0  0  0  0  0  0  0  0
  129.0664  134.6806  156.4589 H   0  0  0  0  0  0  0  0  0  0  0  0
  130.6650  134.8087  157.2312 H   0  0  0  0  0  0  0  0  0  0  0  0
  129.4088  133.3616  154.5615 H   0  0  0  0  0  0  0  0  0  0  0  0
  130.0691  131.2180  153.5481 H   0  0  0  0  0  0  0  0  0  0  0  0
  131.7115  129.9579  157.2811 H   0  0  0  0  0  0  0  0  0  0  0  0
  127.1907  135.5748  162.3626 H   0  0  0  0  0  0  0  0  0  0  0  0
  126.8135  136.5460  160.9217 H   0  0  0  0  0  0  0  0  0  0  0  0
  124.7057  135.9010  161.7867 H   0  0  0  0  0  0  0  0  0  0  0  0
  1  2  2  0
  2 33  1  0
  2  3  1  0
  3  4  1  0
  3 34  1  0
  3 35  1  0
  4  5  1  0
  4 36  1  0
  4 37  1  0
  5  6  1  6
  5  7  1  0
  5 32  1  0
  7 38  1  0
  8  7  1  0
  8  9  1  0
  8 21  2  0
  9 10  1  0
  9 39  1  0
 10 20  1  0
 10 11  1  0
 10 40  1  1
 11 12  1  0
 11 41  1  0
 11 42  1  0
 12 13  1  0
 13 19  2  0
 13 14  1  0
 14 15  2  0
 14 43  1  0
 15 16  1  0
 15 17  1  0
 16 44  1  0
 17 18  2  0
 17 45  1  0
 18 19  1  0
 18 46  1  0
 19 20  1  0
 20 47  1  0
 20 48  1  0
 21 22  1  0
 21 23  1  0
 23 24  1  0
 23 49  1  0
 23 50  1  0
 24 30  1  0
 24 25  2  0
 25 26  1  0
 25 51  1  0
 26 27  2  0
 26 52  1  0
 27 28  1  0
 27 29  1  0
 29 30  2  0
 29 53  1  0
 30 31  1  0
 32 33  1  0
 32 54  1  0
 32 55  1  0
 33 56  1  0
M  CHG  1  21   1
M  END
>  <DOCK_score>  (1) 
-48.58176

>  <SMILES>  (1) 
O=C1CC[C@H](NC(NC2COc3cc(O)ccc3C2)=[NH+]Cc2ccc(F)cc2F)CN1

$$$$
