COc1cc2c3c([nH]c2cc1Nc1[nH]cc(-c2ccncc2)[nH+]1)CC=C(C)C3
     RDKit          3D

 50 54  0  0  1  0  0  0  0  0999 V2000
  131.9684  133.2037  161.8889 C   0  0  0  0  0  0  0  0  0  0  0  0
  131.3525  133.8685  160.7841 O   0  0  0  0  0  0  0  0  0  0  0  0
  130.3294  134.7195  161.0675 C   0  0  0  0  0  0  0  0  0  0  0  0
  129.9371  134.9102  162.3749 C   0  0  0  0  0  0  0  0  0  0  0  0
  128.8891  135.7893  162.6646 C   0  0  0  0  0  0  0  0  0  0  0  0
  128.2321  136.2177  163.8947 C   0  0  0  0  0  0  0  0  0  0  0  0
  127.2686  137.0957  163.5529 C   0  0  0  0  0  0  0  0  0  0  0  0
  127.2600  137.2614  162.1966 N   0  0  0  0  0  0  0  0  0  0  0  0
  126.6561  137.8439  161.7102 H   0  0  0  0  0  0  0  0  0  0  0  0
  128.2390  136.4762  161.6216 C   0  0  0  0  0  0  0  0  0  0  0  0
  128.6460  136.2735  160.3077 C   0  0  0  0  0  0  0  0  0  0  0  0
  129.6835  135.4018  160.0322 C   0  0  0  0  0  0  0  0  0  0  0  0
  130.0899  135.2010  158.7069 N   0  0  0  0  0  0  0  0  0  0  0  0
  130.0299  133.9353  158.1486 C   0  0  0  0  0  0  0  0  0  0  0  0
  129.5914  132.8105  158.7785 N   0  0  0  0  0  0  0  0  0  0  0  0
  129.2681  132.7524  159.6911 H   0  0  0  0  0  0  0  0  0  0  0  0
  129.6916  131.7747  157.8847 C   0  0  0  0  0  0  0  0  0  0  0  0
  130.1883  132.2939  156.7334 C   0  0  0  0  0  0  0  0  0  0  0  0
  130.4656  131.5430  155.4860 C   0  0  0  0  0  0  0  0  0  0  0  0
  129.8191  131.8725  154.2902 C   0  0  0  0  0  0  0  0  0  0  0  0
  130.1108  131.1515  153.1515 C   0  0  0  0  0  0  0  0  0  0  0  0
  130.9774  130.1566  153.1830 N   0  0  0  0  0  0  0  0  0  0  0  0
  131.6048  129.8100  154.2911 C   0  0  0  0  0  0  0  0  0  0  0  0
  131.3765  130.4817  155.4736 C   0  0  0  0  0  0  0  0  0  0  0  0
  130.3804  133.6234  156.9247 N   0  0  0  0  0  0  0  0  0  0  0  0
  130.7246  134.2432  156.2627 H   0  0  0  0  0  0  0  0  0  0  0  0
  126.3673  137.7611  164.5629 C   0  0  0  0  0  0  0  0  0  0  0  0
  126.4615  137.0447  165.8777 C   0  0  0  0  0  0  0  0  0  0  0  0
  127.3866  136.2018  166.2006 C   0  0  0  0  0  0  0  0  0  0  0  0
  127.3182  135.5801  167.5717 C   0  0  0  0  0  0  0  0  0  0  0  0
  128.5250  135.7977  165.3084 C   0  0  0  0  0  0  0  0  0  0  0  0
  132.3842  133.9440  162.5724 H   0  0  0  0  0  0  0  0  0  0  0  0
  131.2244  132.6032  162.4122 H   0  0  0  0  0  0  0  0  0  0  0  0
  132.7666  132.5569  161.5247 H   0  0  0  0  0  0  0  0  0  0  0  0
  130.4378  134.3827  163.1733 H   0  0  0  0  0  0  0  0  0  0  0  0
  128.1523  136.7970  159.5025 H   0  0  0  0  0  0  0  0  0  0  0  0
  130.4134  135.9486  158.1803 H   0  0  0  0  0  0  0  0  0  0  0  0
  129.4260  130.7432  158.0631 H   0  0  0  0  0  0  0  0  0  0  0  0
  129.1053  132.6824  154.2584 H   0  0  0  0  0  0  0  0  0  0  0  0
  129.6200  131.4013  152.2225 H   0  0  0  0  0  0  0  0  0  0  0  0
  132.3067  128.9894  154.2715 H   0  0  0  0  0  0  0  0  0  0  0  0
  131.8936  130.1928  156.3767 H   0  0  0  0  0  0  0  0  0  0  0  0
  126.6732  138.7992  164.6930 H   0  0  0  0  0  0  0  0  0  0  0  0
  125.3377  137.7287  164.2066 H   0  0  0  0  0  0  0  0  0  0  0  0
  125.6963  137.2491  166.6118 H   0  0  0  0  0  0  0  0  0  0  0  0
  126.4471  135.9647  168.1019 H   0  0  0  0  0  0  0  0  0  0  0  0
  127.2365  134.4974  167.4760 H   0  0  0  0  0  0  0  0  0  0  0  0
  128.2216  135.8285  168.1287 H   0  0  0  0  0  0  0  0  0  0  0  0
  129.4413  136.2804  165.6481 H   0  0  0  0  0  0  0  0  0  0  0  0
  128.6497  134.7154  165.3470 H   0  0  0  0  0  0  0  0  0  0  0  0
  1  2  1  0
  1 32  1  0
  1 33  1  0
  1 34  1  0
  2  3  1  0
  3 12  2  0
  3  4  1  0
  4  5  2  0
  4 35  1  0
  5 10  1  0
  5  6  1  0
  6 31  1  0
  6  7  2  0
  7  8  1  0
  7 27  1  0
  8  9  1  0
  8 10  1  0
 10 11  2  0
 11 12  1  0
 11 36  1  0
 12 13  1  0
 13 37  1  0
 14 13  1  0
 14 25  2  0
 14 15  1  0
 15 16  1  0
 15 17  1  0
 17 18  2  0
 17 38  1  0
 18 19  1  0
 18 25  1  0
 19 24  1  0
 19 20  2  0
 20 21  1  0
 20 39  1  0
 21 22  2  0
 21 40  1  0
 22 23  1  0
 23 24  2  0
 23 41  1  0
 24 42  1  0
 25 26  1  0
 27 28  1  0
 27 43  1  0
 27 44  1  0
 28 29  2  0
 28 45  1  0
 29 30  1  0
 29 31  1  0
 30 46  1  0
 30 47  1  0
 30 48  1  0
 31 49  1  0
 31 50  1  0
M  CHG  1  25   1
M  END
>  <DOCK_score>  (1) 
-41.844757

>  <SMILES>  (1) 
COc1cc2c3c([nH]c2cc1Nc1[nH]cc(-c2ccncc2)[nH+]1)CC=C(C)C3

$$$$
