Cc1ccc2c(c1)CC(Nc1ccc(-c3n[nH]cc3C[NH2+][C@H]3CCC4CC4C3)o1)CO2
     RDKit          3D

 62 67  0  0  1  0  0  0  0  0999 V2000
  126.8796  138.1065  169.1237 C   0  0  0  0  0  0  0  0  0  0  0  0
  127.2979  138.1306  167.6762 C   0  0  0  0  0  0  0  0  0  0  0  0
  128.4380  138.8154  167.2971 C   0  0  0  0  0  0  0  0  0  0  0  0
  128.8216  138.8348  165.9719 C   0  0  0  0  0  0  0  0  0  0  0  0
  128.0644  138.1674  165.0140 C   0  0  0  0  0  0  0  0  0  0  0  0
  126.9224  137.4860  165.3957 C   0  0  0  0  0  0  0  0  0  0  0  0
  126.5431  137.4688  166.7279 C   0  0  0  0  0  0  0  0  0  0  0  0
  126.0698  136.7554  164.3894 C   0  0  0  0  0  0  0  0  0  0  0  0
  126.8706  136.5271  163.1051 C   0  0  1  0  0  0  0  0  0  0  0  0
  125.9728  136.0834  162.0358 N   0  0  0  0  0  0  0  0  0  0  0  0
  126.4478  135.2478  161.0315 C   0  0  0  0  0  0  0  0  0  0  0  0
  125.7160  134.3291  160.3531 C   0  0  0  0  0  0  0  0  0  0  0  0
  126.5848  133.7096  159.4331 C   0  0  0  0  0  0  0  0  0  0  0  0
  127.8060  134.2831  159.5972 C   0  0  0  0  0  0  0  0  0  0  0  0
  129.0296  133.9450  158.8413 C   0  0  0  0  0  0  0  0  0  0  0  0
  129.1283  133.0386  157.8888 N   0  0  0  0  0  0  0  0  0  0  0  0
  130.4539  133.0257  157.4366 N   0  0  0  0  0  0  0  0  0  0  0  0
  130.8121  132.4524  156.7410 H   0  0  0  0  0  0  0  0  0  0  0  0
  131.1470  133.9501  158.1363 C   0  0  0  0  0  0  0  0  0  0  0  0
  130.2992  134.5371  159.0078 C   0  0  0  0  0  0  0  0  0  0  0  0
  130.6486  135.6267  159.9885 C   0  0  0  0  0  0  0  0  0  0  0  0
  132.0703  135.9704  159.8527 N   0  0  0  0  0  0  0  0  0  0  0  0
  132.2502  136.2929  158.9137 H   0  0  0  0  0  0  0  0  0  0  0  0
  132.6330  135.1545  160.0418 H   0  0  0  0  0  0  0  0  0  0  0  0
  132.4109  137.0325  160.8088 C   0  0  1  0  0  0  0  0  0  0  0  0
  131.9073  136.8493  161.7579 H   0  0  0  0  0  0  0  0  0  0  0  0
  133.9280  137.0607  161.0280 C   0  0  0  0  0  0  0  0  0  0  0  0
  134.2260  137.9086  162.2646 C   0  0  0  0  0  0  0  0  0  0  0  0
  133.6076  139.2908  162.1246 C   0  0  1  0  0  0  0  0  0  0  0  0
  133.8347  140.0973  160.8526 C   0  0  0  0  0  0  0  0  0  0  0  0
  132.4488  139.5122  161.1652 C   0  0  1  0  0  0  0  0  0  0  0  0
  131.9745  138.3864  160.2489 C   0  0  0  0  0  0  0  0  0  0  0  0
  127.7105  135.2105  160.5731 O   0  0  0  0  0  0  0  0  0  0  0  0
  127.5322  137.8529  162.7081 C   0  0  0  0  0  0  0  0  0  0  0  0
  128.4761  138.2062  163.7200 O   0  0  0  0  0  0  0  0  0  0  0  0
  127.3382  137.2513  169.6203 H   0  0  0  0  0  0  0  0  0  0  0  0
  127.2034  139.0262  169.6110 H   0  0  0  0  0  0  0  0  0  0  0  0
  125.7945  138.0244  169.1870 H   0  0  0  0  0  0  0  0  0  0  0  0
  129.0283  139.3342  168.0380 H   0  0  0  0  0  0  0  0  0  0  0  0
  129.7123  139.3696  165.6771 H   0  0  0  0  0  0  0  0  0  0  0  0
  125.6531  136.9347  167.0264 H   0  0  0  0  0  0  0  0  0  0  0  0
  125.1846  137.3503  164.1641 H   0  0  0  0  0  0  0  0  0  0  0  0
  125.7645  135.7941  164.8025 H   0  0  0  0  0  0  0  0  0  0  0  0
  127.6368  135.7715  163.2786 H   0  0  0  0  0  0  0  0  0  0  0  0
  125.0470  136.3727  162.0285 H   0  0  0  0  0  0  0  0  0  0  0  0
  124.6669  134.1135  160.4917 H   0  0  0  0  0  0  0  0  0  0  0  0
  126.3296  132.9284  158.7324 H   0  0  0  0  0  0  0  0  0  0  0  0
  132.1960  134.1793  158.0191 H   0  0  0  0  0  0  0  0  0  0  0  0
  130.4542  135.2786  161.0030 H   0  0  0  0  0  0  0  0  0  0  0  0
  130.0407  136.5081  159.7841 H   0  0  0  0  0  0  0  0  0  0  0  0
  134.4155  137.4992  160.1572 H   0  0  0  0  0  0  0  0  0  0  0  0
  134.2941  136.0458  161.1831 H   0  0  0  0  0  0  0  0  0  0  0  0
  135.3052  138.0075  162.3812 H   0  0  0  0  0  0  0  0  0  0  0  0
  133.8130  137.4173  163.1455 H   0  0  0  0  0  0  0  0  0  0  0  0
  133.5748  139.8628  163.0517 H   0  0  0  0  0  0  0  0  0  0  0  0
  134.4113  139.6288  160.0552 H   0  0  0  0  0  0  0  0  0  0  0  0
  133.9613  141.1752  160.9541 H   0  0  0  0  0  0  0  0  0  0  0  0
  131.6753  140.2091  161.4882 H   0  0  0  0  0  0  0  0  0  0  0  0
  130.8872  138.4138  160.1761 H   0  0  0  0  0  0  0  0  0  0  0  0
  132.4046  138.5227  159.2566 H   0  0  0  0  0  0  0  0  0  0  0  0
  128.0442  137.7363  161.7530 H   0  0  0  0  0  0  0  0  0  0  0  0
  126.7735  138.6314  162.6251 H   0  0  0  0  0  0  0  0  0  0  0  0
  1  2  1  0
  1 36  1  0
  1 37  1  0
  1 38  1  0
  2  7  2  0
  2  3  1  0
  3  4  2  0
  3 39  1  0
  4  5  1  0
  4 40  1  0
  5 35  1  0
  5  6  2  0
  6  7  1  0
  6  8  1  0
  7 41  1  0
  8  9  1  0
  8 42  1  0
  8 43  1  0
  9 10  1  0
  9 34  1  0
  9 44  1  1
 10 11  1  0
 10 45  1  0
 11 33  1  0
 11 12  2  0
 12 13  1  0
 12 46  1  0
 13 14  2  0
 13 47  1  0
 14 15  1  0
 14 33  1  0
 15 20  1  0
 15 16  2  0
 16 17  1  0
 17 18  1  0
 17 19  1  0
 19 20  2  0
 19 48  1  0
 20 21  1  0
 21 22  1  0
 21 49  1  0
 21 50  1  0
 22 23  1  0
 22 24  1  0
 22 25  1  0
 25 26  1  1
 25 32  1  0
 25 27  1  0
 27 28  1  0
 27 51  1  0
 27 52  1  0
 28 29  1  0
 28 53  1  0
 28 54  1  0
 29 31  1  0
 29 30  1  0
 29 55  1  1
 30 31  1  0
 30 56  1  0
 30 57  1  0
 31 32  1  0
 31 58  1  1
 32 59  1  0
 32 60  1  0
 34 35  1  0
 34 61  1  0
 34 62  1  0
M  CHG  1  22   1
M  END
>  <DOCK_score>  (1) 
-45.520241

>  <SMILES>  (1) 
Cc1ccc2c(c1)CC(Nc1ccc(-c3n[nH]cc3C[NH2+][C@H]3CCC4CC4C3)o1)CO2

$$$$
