Cc1cccc(-c2ccc(-c3n[nH]cc3C[N@H+]3CCCN(c4ccccc4)CC3)cc2)c1
     RDKit          3D

 63 67  0  0  1  0  0  0  0  0999 V2000
  130.9265  132.4962  152.4300 C   0  0  0  0  0  0  0  0  0  0  0  0
  130.8040  131.9224  153.8181 C   0  0  0  0  0  0  0  0  0  0  0  0
  131.3367  130.6769  154.0997 C   0  0  0  0  0  0  0  0  0  0  0  0
  131.2276  130.1438  155.3713 C   0  0  0  0  0  0  0  0  0  0  0  0
  130.5914  130.8553  156.3685 C   0  0  0  0  0  0  0  0  0  0  0  0
  130.0480  132.1078  156.0891 C   0  0  0  0  0  0  0  0  0  0  0  0
  129.3579  132.8744  157.1547 C   0  0  0  0  0  0  0  0  0  0  0  0
  129.3678  134.2686  157.1287 C   0  0  0  0  0  0  0  0  0  0  0  0
  128.7272  134.9806  158.1187 C   0  0  0  0  0  0  0  0  0  0  0  0
  128.0686  134.3080  159.1464 C   0  0  0  0  0  0  0  0  0  0  0  0
  127.3791  135.0740  160.2132 C   0  0  0  0  0  0  0  0  0  0  0  0
  126.1236  135.4697  160.1941 N   0  0  0  0  0  0  0  0  0  0  0  0
  125.8665  136.1601  161.3855 N   0  0  0  0  0  0  0  0  0  0  0  0
  125.0213  136.5625  161.6393 H   0  0  0  0  0  0  0  0  0  0  0  0
  127.0016  136.1729  162.1173 C   0  0  0  0  0  0  0  0  0  0  0  0
  127.9516  135.5072  161.4253 C   0  0  0  0  0  0  0  0  0  0  0  0
  129.3730  135.2743  161.8686 C   0  0  0  0  0  0  0  0  0  0  0  0
  130.2177  136.3845  161.4081 N   0  0  1  0  0  0  0  0  0  0  0  0
  130.1867  136.4411  160.4012 H   0  0  0  0  0  0  0  0  0  0  0  0
  129.7494  137.6236  161.9816 C   0  0  0  0  0  0  0  0  0  0  0  0
  129.9245  138.8083  161.0117 C   0  0  0  0  0  0  0  0  0  0  0  0
  131.2717  138.7514  160.2639 C   0  0  0  0  0  0  0  0  0  0  0  0
  132.3717  138.3632  161.1133 N   0  0  0  0  0  0  0  0  0  0  0  0
  133.5360  139.0555  160.7725 C   0  0  0  0  0  0  0  0  0  0  0  0
  133.8250  140.2719  161.3780 C   0  0  0  0  0  0  0  0  0  0  0  0
  134.9794  140.9516  161.0421 C   0  0  0  0  0  0  0  0  0  0  0  0
  135.8417  140.4276  160.0966 C   0  0  0  0  0  0  0  0  0  0  0  0
  135.5544  139.2196  159.4881 C   0  0  0  0  0  0  0  0  0  0  0  0
  134.4044  138.5321  159.8230 C   0  0  0  0  0  0  0  0  0  0  0  0
  132.5859  136.8961  161.0444 C   0  0  0  0  0  0  0  0  0  0  0  0
  131.6085  136.1701  161.8527 C   0  0  0  0  0  0  0  0  0  0  0  0
  128.0637  132.9132  159.1763 C   0  0  0  0  0  0  0  0  0  0  0  0
  128.6994  132.2011  158.1831 C   0  0  0  0  0  0  0  0  0  0  0  0
  130.1605  132.6399  154.8055 C   0  0  0  0  0  0  0  0  0  0  0  0
  131.8472  133.0750  152.3560 H   0  0  0  0  0  0  0  0  0  0  0  0
  130.9478  131.6852  151.7020 H   0  0  0  0  0  0  0  0  0  0  0  0
  130.0732  133.1435  152.2278 H   0  0  0  0  0  0  0  0  0  0  0  0
  131.8391  130.1187  153.3237 H   0  0  0  0  0  0  0  0  0  0  0  0
  131.6448  129.1710  155.5855 H   0  0  0  0  0  0  0  0  0  0  0  0
  130.5111  130.4402  157.3623 H   0  0  0  0  0  0  0  0  0  0  0  0
  129.8775  134.7901  156.3319 H   0  0  0  0  0  0  0  0  0  0  0  0
  128.7353  136.0605  158.0986 H   0  0  0  0  0  0  0  0  0  0  0  0
  127.1269  136.6325  163.0866 H   0  0  0  0  0  0  0  0  0  0  0  0
  129.4095  135.2170  162.9565 H   0  0  0  0  0  0  0  0  0  0  0  0
  129.7379  134.3394  161.4431 H   0  0  0  0  0  0  0  0  0  0  0  0
  128.6931  137.5222  162.2307 H   0  0  0  0  0  0  0  0  0  0  0  0
  130.3098  137.8263  162.8941 H   0  0  0  0  0  0  0  0  0  0  0  0
  129.8721  139.7390  161.5766 H   0  0  0  0  0  0  0  0  0  0  0  0
  129.1140  138.7906  160.2830 H   0  0  0  0  0  0  0  0  0  0  0  0
  131.4822  139.7354  159.8448 H   0  0  0  0  0  0  0  0  0  0  0  0
  131.1881  138.0337  159.4479 H   0  0  0  0  0  0  0  0  0  0  0  0
  133.1497  140.6837  162.1133 H   0  0  0  0  0  0  0  0  0  0  0  0
  135.2068  141.8951  161.5156 H   0  0  0  0  0  0  0  0  0  0  0  0
  136.7416  140.9633  159.8325 H   0  0  0  0  0  0  0  0  0  0  0  0
  136.2302  138.8131  158.7502 H   0  0  0  0  0  0  0  0  0  0  0  0
  134.1807  137.5886  159.3476 H   0  0  0  0  0  0  0  0  0  0  0  0
  133.5880  136.6655  161.4058 H   0  0  0  0  0  0  0  0  0  0  0  0
  132.5002  136.5725  160.0071 H   0  0  0  0  0  0  0  0  0  0  0  0
  131.6996  136.4955  162.8890 H   0  0  0  0  0  0  0  0  0  0  0  0
  131.8336  135.1050  161.7991 H   0  0  0  0  0  0  0  0  0  0  0  0
  127.5575  132.3918  159.9751 H   0  0  0  0  0  0  0  0  0  0  0  0
  128.6914  131.1213  158.2031 H   0  0  0  0  0  0  0  0  0  0  0  0
  129.7445  133.6116  154.5843 H   0  0  0  0  0  0  0  0  0  0  0  0
  1  2  1  0
  1 35  1  0
  1 36  1  0
  1 37  1  0
  2 34  2  0
  2  3  1  0
  3  4  2  0
  3 38  1  0
  4  5  1  0
  4 39  1  0
  5  6  2  0
  5 40  1  0
  6  7  1  0
  6 34  1  0
  7 33  1  0
  7  8  2  0
  8  9  1  0
  8 41  1  0
  9 10  2  0
  9 42  1  0
 10 11  1  0
 10 32  1  0
 11 16  1  0
 11 12  2  0
 12 13  1  0
 13 14  1  0
 13 15  1  0
 15 16  2  0
 15 43  1  0
 16 17  1  0
 17 18  1  0
 17 44  1  0
 17 45  1  0
 18 19  1  6
 18 31  1  0
 18 20  1  0
 20 21  1  0
 20 46  1  0
 20 47  1  0
 21 22  1  0
 21 48  1  0
 21 49  1  0
 22 23  1  0
 22 50  1  0
 22 51  1  0
 23 24  1  0
 23 30  1  0
 24 29  1  0
 24 25  2  0
 25 26  1  0
 25 52  1  0
 26 27  2  0
 26 53  1  0
 27 28  1  0
 27 54  1  0
 28 29  2  0
 28 55  1  0
 29 56  1  0
 30 31  1  0
 30 57  1  0
 30 58  1  0
 31 59  1  0
 31 60  1  0
 32 33  2  0
 32 61  1  0
 33 62  1  0
 34 63  1  0
M  CHG  1  18   1
M  END
>  <DOCK_score>  (1) 
-51.984394

>  <SMILES>  (1) 
Cc1cccc(-c2ccc(-c3n[nH]cc3C[N@H+]3CCCN(c4ccccc4)CC3)cc2)c1

$$$$
