CC[C@@H](C=C1C=C[C@@H](O)C1)[NH2+]Cc1ccccc1
     RDKit          3D

 40 41  0  0  1  0  0  0  0  0999 V2000
  132.4671  133.8818  160.2948 C   0  0  0  0  0  0  0  0  0  0  0  0
  131.2422  134.7634  160.0431 C   0  0  0  0  0  0  0  0  0  0  0  0
  130.1791  133.9574  159.2939 C   0  0  1  0  0  0  0  0  0  0  0  0
  129.8885  133.0943  159.8928 H   0  0  0  0  0  0  0  0  0  0  0  0
  128.9727  134.8258  159.0458 C   0  0  0  0  0  0  0  0  0  0  0  0
  127.7898  134.4766  159.5401 C   0  0  0  0  0  0  0  0  0  0  0  0
  127.5011  133.2820  160.3423 C   0  0  0  0  0  0  0  0  0  0  0  0
  126.2301  133.2087  160.6879 C   0  0  0  0  0  0  0  0  0  0  0  0
  125.4618  134.3873  160.1456 C   0  0  1  0  0  0  0  0  0  0  0  0
  124.6765  134.0478  159.4701 H   0  0  0  0  0  0  0  0  0  0  0  0
  124.8966  135.1438  161.2180 O   0  0  0  0  0  0  0  0  0  0  0  0
  126.4908  135.2376  159.3798 C   0  0  0  0  0  0  0  0  0  0  0  0
  130.7260  133.5004  158.0094 N   0  0  0  0  0  0  0  0  0  0  0  0
  130.9949  134.2994  157.4550 H   0  0  0  0  0  0  0  0  0  0  0  0
  131.5336  132.9190  158.1756 H   0  0  0  0  0  0  0  0  0  0  0  0
  129.7052  132.7266  157.2901 C   0  0  0  0  0  0  0  0  0  0  0  0
  130.2663  132.2578  155.9725 C   0  0  0  0  0  0  0  0  0  0  0  0
  130.1272  133.0431  154.8433 C   0  0  0  0  0  0  0  0  0  0  0  0
  130.6455  132.6149  153.6355 C   0  0  0  0  0  0  0  0  0  0  0  0
  131.2952  131.3975  153.5548 C   0  0  0  0  0  0  0  0  0  0  0  0
  131.4298  130.6098  154.6828 C   0  0  0  0  0  0  0  0  0  0  0  0
  130.9151  131.0398  155.8916 C   0  0  0  0  0  0  0  0  0  0  0  0
  132.1582  132.9664  160.7998 H   0  0  0  0  0  0  0  0  0  0  0  0
  132.9362  133.6313  159.3435 H   0  0  0  0  0  0  0  0  0  0  0  0
  133.1791  134.4195  160.9209 H   0  0  0  0  0  0  0  0  0  0  0  0
  131.5328  135.6266  159.4442 H   0  0  0  0  0  0  0  0  0  0  0  0
  130.8364  135.1026  160.9961 H   0  0  0  0  0  0  0  0  0  0  0  0
  129.0695  135.7319  158.4662 H   0  0  0  0  0  0  0  0  0  0  0  0
  128.2435  132.5475  160.6179 H   0  0  0  0  0  0  0  0  0  0  0  0
  125.7991  132.4137  161.2782 H   0  0  0  0  0  0  0  0  0  0  0  0
  124.4385  135.9469  160.9342 H   0  0  0  0  0  0  0  0  0  0  0  0
  126.2182  135.3103  158.3269 H   0  0  0  0  0  0  0  0  0  0  0  0
  126.5721  136.2298  159.8236 H   0  0  0  0  0  0  0  0  0  0  0  0
  129.4147  131.8634  157.8891 H   0  0  0  0  0  0  0  0  0  0  0  0
  128.8326  133.3547  157.1107 H   0  0  0  0  0  0  0  0  0  0  0  0
  129.6163  133.9926  154.9055 H   0  0  0  0  0  0  0  0  0  0  0  0
  130.5407  133.2304  152.7543 H   0  0  0  0  0  0  0  0  0  0  0  0
  131.6980  131.0617  152.6107 H   0  0  0  0  0  0  0  0  0  0  0  0
  131.9373  129.6585  154.6198 H   0  0  0  0  0  0  0  0  0  0  0  0
  131.0203  130.4244  156.7728 H   0  0  0  0  0  0  0  0  0  0  0  0
  1  2  1  0
  1 23  1  0
  1 24  1  0
  1 25  1  0
  2  3  1  0
  2 26  1  0
  2 27  1  0
  3  4  1  1
  3  5  1  0
  3 13  1  0
  5  6  2  0
  5 28  1  0
  6 12  1  0
  6  7  1  0
  7  8  2  0
  7 29  1  0
  8  9  1  0
  8 30  1  0
  9 10  1  6
  9 11  1  0
  9 12  1  0
 11 31  1  0
 12 32  1  0
 12 33  1  0
 13 14  1  0
 13 15  1  0
 13 16  1  0
 16 17  1  0
 16 34  1  0
 16 35  1  0
 17 22  1  0
 17 18  2  0
 18 19  1  0
 18 36  1  0
 19 20  2  0
 19 37  1  0
 20 21  1  0
 20 38  1  0
 21 22  2  0
 21 39  1  0
 22 40  1  0
M  CHG  1  13   1
M  END
>  <DOCK_score>  (1) 
-41.472725

>  <SMILES>  (1) 
CC[C@@H](C=C1C=C[C@@H](O)C1)[NH2+]Cc1ccccc1

$$$$
