CC[C@H](C#N)[NH+]=C(NC1CC=CC1)N[C@H]1CCC(=O)NC1
     RDKit          3D

 45 46  0  0  1  0  0  0  0  0999 V2000
  133.9511  135.8923  161.9350 C   0  0  0  0  0  0  0  0  0  0  0  0
  133.2127  135.8132  160.5974 C   0  0  0  0  0  0  0  0  0  0  0  0
  131.7708  135.3610  160.8367 C   0  0  2  0  0  0  0  0  0  0  0  0
  131.2687  136.0771  161.4872 H   0  0  0  0  0  0  0  0  0  0  0  0
  131.7720  134.0349  161.4756 C   0  0  0  0  0  0  0  0  0  0  0  0
  131.7731  133.0114  161.9687 N   0  0  0  0  0  0  0  0  0  0  0  0
  131.0637  135.2853  159.5559 N   0  0  0  0  0  0  0  0  0  0  0  0
  131.5260  135.5082  158.7328 H   0  0  0  0  0  0  0  0  0  0  0  0
  129.8134  134.9184  159.5224 C   0  0  0  0  0  0  0  0  0  0  0  0
  129.3186  134.2630  158.4198 N   0  0  0  0  0  0  0  0  0  0  0  0
  130.2001  133.4117  157.6170 C   0  0  0  0  0  0  0  0  0  0  0  0
  129.6415  133.2263  156.1871 C   0  0  0  0  0  0  0  0  0  0  0  0
  129.9655  131.7941  155.8309 C   0  0  0  0  0  0  0  0  0  0  0  0
  130.2661  131.1015  156.8956 C   0  0  0  0  0  0  0  0  0  0  0  0
  130.1929  131.9563  158.1394 C   0  0  0  0  0  0  0  0  0  0  0  0
  128.9894  135.1869  160.5897 N   0  0  0  0  0  0  0  0  0  0  0  0
  127.5842  134.7745  160.5521 C   0  0  1  0  0  0  0  0  0  0  0  0
  127.2298  134.7771  159.5213 H   0  0  0  0  0  0  0  0  0  0  0  0
  127.4456  133.3651  161.1401 C   0  0  0  0  0  0  0  0  0  0  0  0
  126.0072  132.8892  160.9221 C   0  0  0  0  0  0  0  0  0  0  0  0
  125.0443  133.9521  161.3675 C   0  0  0  0  0  0  0  0  0  0  0  0
  123.8917  133.6339  161.5705 O   0  0  0  0  0  0  0  0  0  0  0  0
  125.3887  135.2273  161.5512 N   0  0  0  0  0  0  0  0  0  0  0  0
  126.7426  135.7404  161.3839 C   0  0  0  0  0  0  0  0  0  0  0  0
  133.4489  136.6084  162.5855 H   0  0  0  0  0  0  0  0  0  0  0  0
  133.9520  134.9102  162.4081 H   0  0  0  0  0  0  0  0  0  0  0  0
  134.9783  136.2145  161.7646 H   0  0  0  0  0  0  0  0  0  0  0  0
  133.7149  135.0971  159.9469 H   0  0  0  0  0  0  0  0  0  0  0  0
  133.2118  136.7951  160.1243 H   0  0  0  0  0  0  0  0  0  0  0  0
  128.3860  134.3643  158.1733 H   0  0  0  0  0  0  0  0  0  0  0  0
  131.2130  133.8138  157.5928 H   0  0  0  0  0  0  0  0  0  0  0  0
  128.5632  133.3855  156.1772 H   0  0  0  0  0  0  0  0  0  0  0  0
  130.1335  133.9102  155.4955 H   0  0  0  0  0  0  0  0  0  0  0  0
  129.9499  131.3957  154.8271 H   0  0  0  0  0  0  0  0  0  0  0  0
  130.5327  130.0549  156.8883 H   0  0  0  0  0  0  0  0  0  0  0  0
  131.0597  131.7767  158.7752 H   0  0  0  0  0  0  0  0  0  0  0  0
  129.2717  131.7535  158.6857 H   0  0  0  0  0  0  0  0  0  0  0  0
  129.3384  135.6493  161.3676 H   0  0  0  0  0  0  0  0  0  0  0  0
  127.6663  133.3893  162.2072 H   0  0  0  0  0  0  0  0  0  0  0  0
  128.1362  132.6878  160.6378 H   0  0  0  0  0  0  0  0  0  0  0  0
  125.8352  131.9803  161.4988 H   0  0  0  0  0  0  0  0  0  0  0  0
  125.8514  132.6799  159.8638 H   0  0  0  0  0  0  0  0  0  0  0  0
  124.6938  135.8533  161.8085 H   0  0  0  0  0  0  0  0  0  0  0  0
  126.7020  136.7081  160.8839 H   0  0  0  0  0  0  0  0  0  0  0  0
  127.2048  135.8636  162.3633 H   0  0  0  0  0  0  0  0  0  0  0  0
  1  2  1  0
  1 25  1  0
  1 26  1  0
  1 27  1  0
  2  3  1  0
  2 28  1  0
  2 29  1  0
  3  4  1  1
  3  5  1  0
  3  7  1  0
  5  6  3  0
  7  8  1  0
  9  7  2  0
  9 10  1  0
  9 16  1  0
 10 11  1  0
 10 30  1  0
 11 15  1  0
 11 12  1  0
 11 31  1  0
 12 13  1  0
 12 32  1  0
 12 33  1  0
 13 14  2  0
 13 34  1  0
 14 15  1  0
 14 35  1  0
 15 36  1  0
 15 37  1  0
 16 17  1  0
 16 38  1  0
 17 18  1  6
 17 24  1  0
 17 19  1  0
 19 20  1  0
 19 39  1  0
 19 40  1  0
 20 21  1  0
 20 41  1  0
 20 42  1  0
 21 22  2  0
 21 23  1  0
 23 24  1  0
 23 43  1  0
 24 44  1  0
 24 45  1  0
M  CHG  1   7   1
M  END
>  <DOCK_score>  (1) 
-44.768551

>  <SMILES>  (1) 
CC[C@H](C#N)[NH+]=C(NC1CC=CC1)N[C@H]1CCC(=O)NC1

$$$$
