Nc1ccc(-c2c[nH]c(Nc3ccc(Oc4ccccc4)cc3)[nH+]2)cc1
     RDKit          3D

 45 48  0  0  1  0  0  0  0  0999 V2000
  131.2458  129.5418  151.8422 N   0  0  0  0  0  0  0  0  0  0  0  0
  131.0032  130.2247  153.0365 C   0  0  0  0  0  0  0  0  0  0  0  0
  130.1194  131.2973  153.0553 C   0  0  0  0  0  0  0  0  0  0  0  0
  129.8781  131.9726  154.2331 C   0  0  0  0  0  0  0  0  0  0  0  0
  130.5214  131.5787  155.4055 C   0  0  0  0  0  0  0  0  0  0  0  0
  130.2638  132.3040  156.6738 C   0  0  0  0  0  0  0  0  0  0  0  0
  129.7558  131.7673  157.8109 C   0  0  0  0  0  0  0  0  0  0  0  0
  129.6864  132.7826  158.7346 N   0  0  0  0  0  0  0  0  0  0  0  0
  129.3663  132.7085  159.6472 H   0  0  0  0  0  0  0  0  0  0  0  0
  130.1471  133.9122  158.1311 C   0  0  0  0  0  0  0  0  0  0  0  0
  130.2399  135.1618  158.7212 N   0  0  0  0  0  0  0  0  0  0  0  0
  129.3379  135.5299  159.7265 C   0  0  0  0  0  0  0  0  0  0  0  0
  129.8045  135.8553  160.9934 C   0  0  0  0  0  0  0  0  0  0  0  0
  128.9146  136.2238  161.9829 C   0  0  0  0  0  0  0  0  0  0  0  0
  127.5542  136.2641  161.7132 C   0  0  0  0  0  0  0  0  0  0  0  0
  126.6787  136.6272  162.6880 O   0  0  0  0  0  0  0  0  0  0  0  0
  127.1804  136.9422  163.9110 C   0  0  0  0  0  0  0  0  0  0  0  0
  127.3309  135.9559  164.8755 C   0  0  0  0  0  0  0  0  0  0  0  0
  127.8461  136.2779  166.1160 C   0  0  0  0  0  0  0  0  0  0  0  0
  128.2015  137.5834  166.4008 C   0  0  0  0  0  0  0  0  0  0  0  0
  128.0477  138.5690  165.4433 C   0  0  0  0  0  0  0  0  0  0  0  0
  127.5379  138.2515  164.1994 C   0  0  0  0  0  0  0  0  0  0  0  0
  127.0869  135.9339  160.4492 C   0  0  0  0  0  0  0  0  0  0  0  0
  127.9755  135.5654  159.4587 C   0  0  0  0  0  0  0  0  0  0  0  0
  130.4939  133.6210  156.9007 N   0  0  0  0  0  0  0  0  0  0  0  0
  130.8573  134.2478  156.2557 H   0  0  0  0  0  0  0  0  0  0  0  0
  131.4115  130.5061  155.3831 C   0  0  0  0  0  0  0  0  0  0  0  0
  131.6456  129.8304  154.2042 C   0  0  0  0  0  0  0  0  0  0  0  0
  130.7976  129.8162  151.0270 H   0  0  0  0  0  0  0  0  0  0  0  0
  131.8625  128.7932  151.8283 H   0  0  0  0  0  0  0  0  0  0  0  0
  129.6216  131.6022  152.1467 H   0  0  0  0  0  0  0  0  0  0  0  0
  129.1910  132.8057  154.2474 H   0  0  0  0  0  0  0  0  0  0  0  0
  129.4656  130.7382  157.9629 H   0  0  0  0  0  0  0  0  0  0  0  0
  130.9299  135.7819  158.4379 H   0  0  0  0  0  0  0  0  0  0  0  0
  130.8634  135.8243  161.2035 H   0  0  0  0  0  0  0  0  0  0  0  0
  129.2777  136.4811  162.9671 H   0  0  0  0  0  0  0  0  0  0  0  0
  127.0491  134.9369  164.6549 H   0  0  0  0  0  0  0  0  0  0  0  0
  127.9670  135.5099  166.8658 H   0  0  0  0  0  0  0  0  0  0  0  0
  128.5997  137.8338  167.3730 H   0  0  0  0  0  0  0  0  0  0  0  0
  128.3261  139.5880  165.6683 H   0  0  0  0  0  0  0  0  0  0  0  0
  127.4172  139.0218  163.4520 H   0  0  0  0  0  0  0  0  0  0  0  0
  126.0278  135.9651  160.2401 H   0  0  0  0  0  0  0  0  0  0  0  0
  127.6117  135.3090  158.4747 H   0  0  0  0  0  0  0  0  0  0  0  0
  131.9143  130.2021  156.2893 H   0  0  0  0  0  0  0  0  0  0  0  0
  132.3317  128.9965  154.1874 H   0  0  0  0  0  0  0  0  0  0  0  0
  1  2  1  0
  1 29  1  0
  1 30  1  0
  2 28  2  0
  2  3  1  0
  3  4  2  0
  3 31  1  0
  4  5  1  0
  4 32  1  0
  5  6  1  0
  5 27  2  0
  6 25  1  0
  6  7  2  0
  7  8  1  0
  7 33  1  0
  8  9  1  0
  8 10  1  0
 10 11  1  0
 10 25  2  0
 11 12  1  0
 11 34  1  0
 12 24  1  0
 12 13  2  0
 13 14  1  0
 13 35  1  0
 14 15  2  0
 14 36  1  0
 15 16  1  0
 15 23  1  0
 16 17  1  0
 17 22  1  0
 17 18  2  0
 18 19  1  0
 18 37  1  0
 19 20  2  0
 19 38  1  0
 20 21  1  0
 20 39  1  0
 21 22  2  0
 21 40  1  0
 22 41  1  0
 23 24  2  0
 23 42  1  0
 24 43  1  0
 25 26  1  0
 27 28  1  0
 27 44  1  0
 28 45  1  0
M  CHG  1  25   1
M  END
>  <DOCK_score>  (1) 
-50.583961

>  <SMILES>  (1) 
Nc1ccc(-c2c[nH]c(Nc3ccc(Oc4ccccc4)cc3)[nH+]2)cc1

$$$$
