Oc1ccc(NCC2CC[N@H+]2C2=CCCCC2)cc1Nc1ccccc1-n1cccn1
     RDKit          3D

 61 65  0  0  1  0  0  0  0  0999 V2000
  125.1042  134.5637  161.1940 O   0  0  0  0  0  0  0  0  0  0  0  0
  126.1468  135.1814  160.5745 C   0  0  0  0  0  0  0  0  0  0  0  0
  126.5171  134.8002  159.2957 C   0  0  0  0  0  0  0  0  0  0  0  0
  127.5788  135.4233  158.6667 C   0  0  0  0  0  0  0  0  0  0  0  0
  128.2707  136.4406  159.3111 C   0  0  0  0  0  0  0  0  0  0  0  0
  129.3416  137.0732  158.6702 N   0  0  0  0  0  0  0  0  0  0  0  0
  130.3346  137.8092  159.4568 C   0  0  0  0  0  0  0  0  0  0  0  0
  131.0071  136.8575  160.4482 C   0  0  2  0  0  0  0  0  0  0  0  0
  132.3764  137.3507  160.9365 C   0  0  0  0  0  0  0  0  0  0  0  0
  132.7587  135.8683  160.8219 C   0  0  0  0  0  0  0  0  0  0  0  0
  131.7037  135.7304  159.8006 N   0  0  1  0  0  0  0  0  0  0  0  0
  132.0208  135.9387  158.8656 H   0  0  0  0  0  0  0  0  0  0  0  0
  131.0040  134.5229  159.8836 C   0  0  0  0  0  0  0  0  0  0  0  0
  130.6603  133.9435  158.7784 C   0  0  0  0  0  0  0  0  0  0  0  0
  129.8995  132.6518  158.7075 C   0  0  0  0  0  0  0  0  0  0  0  0
  129.9664  131.9263  160.0531 C   0  0  0  0  0  0  0  0  0  0  0  0
  129.5962  132.9216  161.1601 C   0  0  0  0  0  0  0  0  0  0  0  0
  130.7036  133.9762  161.2485 C   0  0  0  0  0  0  0  0  0  0  0  0
  127.9004  136.8295  160.5910 C   0  0  0  0  0  0  0  0  0  0  0  0
  126.8386  136.2012  161.2247 C   0  0  0  0  0  0  0  0  0  0  0  0
  126.4630  136.5906  162.5154 N   0  0  0  0  0  0  0  0  0  0  0  0
  127.3768  136.4931  163.5686 C   0  0  0  0  0  0  0  0  0  0  0  0
  128.3603  135.5139  163.5483 C   0  0  0  0  0  0  0  0  0  0  0  0
  129.2627  135.4200  164.5904 C   0  0  0  0  0  0  0  0  0  0  0  0
  129.1895  136.2995  165.6556 C   0  0  0  0  0  0  0  0  0  0  0  0
  128.2135  137.2776  165.6840 C   0  0  0  0  0  0  0  0  0  0  0  0
  127.3066  137.3830  164.6401 C   0  0  0  0  0  0  0  0  0  0  0  0
  126.3185  138.3783  164.6645 N   0  0  0  0  0  0  0  0  0  0  0  0
  126.1372  139.2958  165.6408 C   0  0  0  0  0  0  0  0  0  0  0  0
  125.0867  140.0723  165.2865 C   0  0  0  0  0  0  0  0  0  0  0  0
  124.6037  139.6090  164.0580 C   0  0  0  0  0  0  0  0  0  0  0  0
  125.3411  138.5940  163.6844 N   0  0  0  0  0  0  0  0  0  0  0  0
  124.6873  133.8701  160.6646 H   0  0  0  0  0  0  0  0  0  0  0  0
  125.9781  134.0123  158.7906 H   0  0  0  0  0  0  0  0  0  0  0  0
  127.8678  135.1216  157.6709 H   0  0  0  0  0  0  0  0  0  0  0  0
  129.4265  137.0244  157.7052 H   0  0  0  0  0  0  0  0  0  0  0  0
  131.0869  138.2301  158.7898 H   0  0  0  0  0  0  0  0  0  0  0  0
  129.8419  138.6138  160.0025 H   0  0  0  0  0  0  0  0  0  0  0  0
  130.3419  136.5508  161.2554 H   0  0  0  0  0  0  0  0  0  0  0  0
  132.8941  138.0009  160.2313 H   0  0  0  0  0  0  0  0  0  0  0  0
  132.3749  137.7338  161.9570 H   0  0  0  0  0  0  0  0  0  0  0  0
  132.5616  135.2978  161.7294 H   0  0  0  0  0  0  0  0  0  0  0  0
  133.7638  135.7070  160.4325 H   0  0  0  0  0  0  0  0  0  0  0  0
  130.9385  134.4189  157.8493 H   0  0  0  0  0  0  0  0  0  0  0  0
  128.8583  132.8589  158.4600 H   0  0  0  0  0  0  0  0  0  0  0  0
  130.3337  132.0187  157.9336 H   0  0  0  0  0  0  0  0  0  0  0  0
  129.2611  131.0952  160.0567 H   0  0  0  0  0  0  0  0  0  0  0  0
  130.9763  131.5503  160.2169 H   0  0  0  0  0  0  0  0  0  0  0  0
  128.6472  133.4008  160.9194 H   0  0  0  0  0  0  0  0  0  0  0  0
  129.5106  132.3963  162.1113 H   0  0  0  0  0  0  0  0  0  0  0  0
  131.6048  133.5247  161.6632 H   0  0  0  0  0  0  0  0  0  0  0  0
  130.3762  134.7875  161.8986 H   0  0  0  0  0  0  0  0  0  0  0  0
  128.4382  137.6205  161.0926 H   0  0  0  0  0  0  0  0  0  0  0  0
  125.5684  136.9281  162.6790 H   0  0  0  0  0  0  0  0  0  0  0  0
  128.4201  134.8253  162.7185 H   0  0  0  0  0  0  0  0  0  0  0  0
  130.0276  134.6579  164.5731 H   0  0  0  0  0  0  0  0  0  0  0  0
  129.8972  136.2215  166.4677 H   0  0  0  0  0  0  0  0  0  0  0  0
  128.1593  137.9622  166.5174 H   0  0  0  0  0  0  0  0  0  0  0  0
  126.7265  139.3934  166.5405 H   0  0  0  0  0  0  0  0  0  0  0  0
  124.6887  140.9005  165.8541 H   0  0  0  0  0  0  0  0  0  0  0  0
  123.7666  140.0183  163.5120 H   0  0  0  0  0  0  0  0  0  0  0  0
  1  2  1  0
  1 33  1  0
  2 20  2  0
  2  3  1  0
  3  4  2  0
  3 34  1  0
  4  5  1  0
  4 35  1  0
  5  6  1  0
  5 19  2  0
  6  7  1  0
  6 36  1  0
  7  8  1  0
  7 37  1  0
  7 38  1  0
  8 11  1  0
  8  9  1  0
  8 39  1  1
  9 10  1  0
  9 40  1  0
  9 41  1  0
 10 11  1  0
 10 42  1  0
 10 43  1  0
 11 12  1  6
 11 13  1  0
 13 18  1  0
 13 14  2  0
 14 15  1  0
 14 44  1  0
 15 16  1  0
 15 45  1  0
 15 46  1  0
 16 17  1  0
 16 47  1  0
 16 48  1  0
 17 18  1  0
 17 49  1  0
 17 50  1  0
 18 51  1  0
 18 52  1  0
 19 20  1  0
 19 53  1  0
 20 21  1  0
 21 22  1  0
 21 54  1  0
 22 27  1  0
 22 23  2  0
 23 24  1  0
 23 55  1  0
 24 25  2  0
 24 56  1  0
 25 26  1  0
 25 57  1  0
 26 27  2  0
 26 58  1  0
 27 28  1  0
 28 32  1  0
 28 29  1  0
 29 30  2  0
 29 59  1  0
 30 31  1  0
 30 60  1  0
 31 32  2  0
 31 61  1  0
M  CHG  1  11   1
M  END
>  <DOCK_score>  (1) 
-45.218628

>  <SMILES>  (1) 
Oc1ccc(NCC2CC[N@H+]2C2=CCCCC2)cc1Nc1ccccc1-n1cccn1

$$$$
