Nc1ccc(-c2c[nH]c(N[C@@H](CCC3CC=CCC3)C3=CCCCC3)[nH+]2)cc1
     RDKit          3D

 61 64  0  0  1  0  0  0  0  0999 V2000
  131.0698  129.1302  151.1810 N   0  0  0  0  0  0  0  0  0  0  0  0
  130.9559  129.7592  152.4232 C   0  0  0  0  0  0  0  0  0  0  0  0
  130.1670  130.8957  152.5558 C   0  0  0  0  0  0  0  0  0  0  0  0
  130.0533  131.5182  153.7810 C   0  0  0  0  0  0  0  0  0  0  0  0
  130.7301  131.0067  154.8870 C   0  0  0  0  0  0  0  0  0  0  0  0
  130.6093  131.6746  156.2061 C   0  0  0  0  0  0  0  0  0  0  0  0
  130.1233  131.1159  157.3419 C   0  0  0  0  0  0  0  0  0  0  0  0
  130.1918  132.0787  158.3209 N   0  0  0  0  0  0  0  0  0  0  0  0
  129.9162  131.9786  159.2454 H   0  0  0  0  0  0  0  0  0  0  0  0
  130.7180  133.1977  157.7530 C   0  0  0  0  0  0  0  0  0  0  0  0
  130.9528  134.3975  158.4027 N   0  0  0  0  0  0  0  0  0  0  0  0
  130.6275  134.5365  159.8243 C   0  0  1  0  0  0  0  0  0  0  0  0
  130.8993  133.6213  160.3504 H   0  0  0  0  0  0  0  0  0  0  0  0
  131.4071  135.7140  160.4132 C   0  0  0  0  0  0  0  0  0  0  0  0
  132.9079  135.4616  160.2557 C   0  0  0  0  0  0  0  0  0  0  0  0
  133.6875  136.6391  160.8446 C   0  0  1  0  0  0  0  0  0  0  0  0
  133.6884  137.8035  159.8517 C   0  0  0  0  0  0  0  0  0  0  0  0
  134.2133  139.0450  160.5116 C   0  0  0  0  0  0  0  0  0  0  0  0
  134.3047  139.2019  161.7932 C   0  0  0  0  0  0  0  0  0  0  0  0
  133.9075  138.1606  162.7982 C   0  0  0  0  0  0  0  0  0  0  0  0
  133.0136  137.1071  162.1407 C   0  0  0  0  0  0  0  0  0  0  0  0
  129.1493  134.7850  159.9795 C   0  0  0  0  0  0  0  0  0  0  0  0
  128.5347  135.4065  159.0247 C   0  0  0  0  0  0  0  0  0  0  0  0
  127.0704  135.7347  159.0409 C   0  0  0  0  0  0  0  0  0  0  0  0
  126.3519  134.8871  160.0930 C   0  0  0  0  0  0  0  0  0  0  0  0
  127.1287  134.9895  161.4118 C   0  0  0  0  0  0  0  0  0  0  0  0
  128.4814  134.2971  161.2318 C   0  0  0  0  0  0  0  0  0  0  0  0
  130.9609  132.9541  156.4881 N   0  0  0  0  0  0  0  0  0  0  0  0
  131.3346  133.5872  155.8553 H   0  0  0  0  0  0  0  0  0  0  0  0
  131.5254  129.8699  154.7504 C   0  0  0  0  0  0  0  0  0  0  0  0
  131.6313  129.2470  153.5246 C   0  0  0  0  0  0  0  0  0  0  0  0
  130.5982  129.4867  150.4119 H   0  0  0  0  0  0  0  0  0  0  0  0
  131.6198  128.3368  151.0877 H   0  0  0  0  0  0  0  0  0  0  0  0
  129.6430  131.2919  151.6986 H   0  0  0  0  0  0  0  0  0  0  0  0
  129.4399  132.4012  153.8836 H   0  0  0  0  0  0  0  0  0  0  0  0
  129.7531  130.1077  157.4556 H   0  0  0  0  0  0  0  0  0  0  0  0
  131.3326  135.1460  157.9167 H   0  0  0  0  0  0  0  0  0  0  0  0
  131.1355  136.6292  159.8869 H   0  0  0  0  0  0  0  0  0  0  0  0
  131.1651  135.8176  161.4709 H   0  0  0  0  0  0  0  0  0  0  0  0
  133.1796  134.5465  160.7819 H   0  0  0  0  0  0  0  0  0  0  0  0
  133.1500  135.3582  159.1980 H   0  0  0  0  0  0  0  0  0  0  0  0
  134.7130  136.3329  161.0511 H   0  0  0  0  0  0  0  0  0  0  0  0
  134.3208  137.5519  159.0004 H   0  0  0  0  0  0  0  0  0  0  0  0
  132.6707  137.9836  159.5053 H   0  0  0  0  0  0  0  0  0  0  0  0
  134.5344  139.8583  159.8776 H   0  0  0  0  0  0  0  0  0  0  0  0
  134.6905  140.1407  162.1622 H   0  0  0  0  0  0  0  0  0  0  0  0
  134.8024  137.6794  163.1927 H   0  0  0  0  0  0  0  0  0  0  0  0
  133.3651  138.6358  163.6156 H   0  0  0  0  0  0  0  0  0  0  0  0
  132.0415  137.5435  161.9112 H   0  0  0  0  0  0  0  0  0  0  0  0
  132.8884  136.2601  162.8151 H   0  0  0  0  0  0  0  0  0  0  0  0
  129.1116  135.7069  158.1625 H   0  0  0  0  0  0  0  0  0  0  0  0
  126.6434  135.5302  158.0590 H   0  0  0  0  0  0  0  0  0  0  0  0
  126.9395  136.7908  159.2768 H   0  0  0  0  0  0  0  0  0  0  0  0
  126.3198  133.8476  159.7667 H   0  0  0  0  0  0  0  0  0  0  0  0
  125.3381  135.2614  160.2350 H   0  0  0  0  0  0  0  0  0  0  0  0
  127.2847  136.0384  161.6644 H   0  0  0  0  0  0  0  0  0  0  0  0
  126.5680  134.4975  162.2065 H   0  0  0  0  0  0  0  0  0  0  0  0
  129.1169  134.5173  162.0894 H   0  0  0  0  0  0  0  0  0  0  0  0
  128.3297  133.2199  161.1640 H   0  0  0  0  0  0  0  0  0  0  0  0
  132.0541  129.4743  155.6051 H   0  0  0  0  0  0  0  0  0  0  0  0
  132.2431  128.3633  153.4196 H   0  0  0  0  0  0  0  0  0  0  0  0
  1  2  1  0
  1 32  1  0
  1 33  1  0
  2 31  2  0
  2  3  1  0
  3  4  2  0
  3 34  1  0
  4  5  1  0
  4 35  1  0
  5  6  1  0
  5 30  2  0
  6 28  1  0
  6  7  2  0
  7  8  1  0
  7 36  1  0
  8  9  1  0
  8 10  1  0
 10 11  1  0
 10 28  2  0
 11 12  1  0
 11 37  1  0
 12 13  1  1
 12 14  1  0
 12 22  1  0
 14 15  1  0
 14 38  1  0
 14 39  1  0
 15 16  1  0
 15 40  1  0
 15 41  1  0
 16 21  1  0
 16 17  1  0
 16 42  1  1
 17 18  1  0
 17 43  1  0
 17 44  1  0
 18 19  2  0
 18 45  1  0
 19 20  1  0
 19 46  1  0
 20 21  1  0
 20 47  1  0
 20 48  1  0
 21 49  1  0
 21 50  1  0
 22 27  1  0
 22 23  2  0
 23 24  1  0
 23 51  1  0
 24 25  1  0
 24 52  1  0
 24 53  1  0
 25 26  1  0
 25 54  1  0
 25 55  1  0
 26 27  1  0
 26 56  1  0
 26 57  1  0
 27 58  1  0
 27 59  1  0
 28 29  1  0
 30 31  1  0
 30 60  1  0
 31 61  1  0
M  CHG  1  28   1
M  END
>  <DOCK_score>  (1) 
-59.870094

>  <SMILES>  (1) 
Nc1ccc(-c2c[nH]c(N[C@@H](CCC3CC=CCC3)C3=CCCCC3)[nH+]2)cc1

$$$$
