Cn1nccc1[C@H](CSCCc1ccc(F)cc1)Nc1[nH]cc(-c2ccc(N)cc2)[nH+]1
     RDKit          3D

 57 60  0  0  1  0  0  0  0  0999 V2000
  127.6035  134.1862  162.4692 C   0  0  0  0  0  0  0  0  0  0  0  0
  127.2969  134.9404  161.2512 N   0  0  0  0  0  0  0  0  0  0  0  0
  126.0390  135.4350  160.8831 N   0  0  0  0  0  0  0  0  0  0  0  0
  126.1623  136.0519  159.7357 C   0  0  0  0  0  0  0  0  0  0  0  0
  127.5015  135.9742  159.3396 C   0  0  0  0  0  0  0  0  0  0  0  0
  128.1762  135.2818  160.2864 C   0  0  0  0  0  0  0  0  0  0  0  0
  129.6474  134.9557  160.2691 C   0  0  2  0  0  0  0  0  0  0  0  0
  129.8180  134.0185  160.7988 H   0  0  0  0  0  0  0  0  0  0  0  0
  130.4267  136.0789  160.9563 C   0  0  0  0  0  0  0  0  0  0  0  0
  132.1976  135.6866  160.9357 S   0  0  0  0  0  0  0  0  0  0  0  0
  132.9770  137.3034  161.1988 C   0  0  0  0  0  0  0  0  0  0  0  0
  134.4304  137.2523  160.7239 C   0  0  0  0  0  0  0  0  0  0  0  0
  135.0779  138.5956  160.9424 C   0  0  0  0  0  0  0  0  0  0  0  0
  135.0341  139.5535  159.9467 C   0  0  0  0  0  0  0  0  0  0  0  0
  135.6225  140.7877  160.1483 C   0  0  0  0  0  0  0  0  0  0  0  0
  136.2661  141.0603  161.3434 C   0  0  0  0  0  0  0  0  0  0  0  0
  136.8473  142.2641  161.5391 F   0  0  0  0  0  0  0  0  0  0  0  0
  136.3142  140.0979  162.3378 C   0  0  0  0  0  0  0  0  0  0  0  0
  135.7198  138.8667  162.1364 C   0  0  0  0  0  0  0  0  0  0  0  0
  130.1022  134.8232  158.8828 N   0  0  0  0  0  0  0  0  0  0  0  0
  130.0580  133.5901  158.2548 C   0  0  0  0  0  0  0  0  0  0  0  0
  129.6104  132.4324  158.8122 N   0  0  0  0  0  0  0  0  0  0  0  0
  129.2684  132.3231  159.7133 H   0  0  0  0  0  0  0  0  0  0  0  0
  129.7329  131.4461  157.8623 C   0  0  0  0  0  0  0  0  0  0  0  0
  130.2513  132.0299  156.7538 C   0  0  0  0  0  0  0  0  0  0  0  0
  130.5570  131.3503  155.4710 C   0  0  0  0  0  0  0  0  0  0  0  0
  129.9261  131.7589  154.2969 C   0  0  0  0  0  0  0  0  0  0  0  0
  130.2163  131.1296  153.1048 C   0  0  0  0  0  0  0  0  0  0  0  0
  131.1282  130.0809  153.0753 C   0  0  0  0  0  0  0  0  0  0  0  0
  131.4165  129.4417  151.8671 N   0  0  0  0  0  0  0  0  0  0  0  0
  131.7541  129.6685  154.2453 C   0  0  0  0  0  0  0  0  0  0  0  0
  131.4714  130.2985  155.4388 C   0  0  0  0  0  0  0  0  0  0  0  0
  130.4352  133.3467  157.0232 N   0  0  0  0  0  0  0  0  0  0  0  0
  130.7910  134.0031  156.4039 H   0  0  0  0  0  0  0  0  0  0  0  0
  127.8802  134.8778  163.2648 H   0  0  0  0  0  0  0  0  0  0  0  0
  126.7265  133.6147  162.7732 H   0  0  0  0  0  0  0  0  0  0  0  0
  128.4320  133.5047  162.2757 H   0  0  0  0  0  0  0  0  0  0  0  0
  125.3679  136.5399  159.1907 H   0  0  0  0  0  0  0  0  0  0  0  0
  127.9221  136.3912  158.4365 H   0  0  0  0  0  0  0  0  0  0  0  0
  130.0884  136.1776  161.9877 H   0  0  0  0  0  0  0  0  0  0  0  0
  130.2561  137.0162  160.4268 H   0  0  0  0  0  0  0  0  0  0  0  0
  132.9498  137.5514  162.2598 H   0  0  0  0  0  0  0  0  0  0  0  0
  132.4366  138.0634  160.6341 H   0  0  0  0  0  0  0  0  0  0  0  0
  134.4574  137.0044  159.6627 H   0  0  0  0  0  0  0  0  0  0  0  0
  134.9706  136.4924  161.2885 H   0  0  0  0  0  0  0  0  0  0  0  0
  134.5365  139.3389  159.0125 H   0  0  0  0  0  0  0  0  0  0  0  0
  135.5847  141.5375  159.3719 H   0  0  0  0  0  0  0  0  0  0  0  0
  136.8163  140.3093  163.2704 H   0  0  0  0  0  0  0  0  0  0  0  0
  135.7571  138.1158  162.9118 H   0  0  0  0  0  0  0  0  0  0  0  0
  130.4342  135.5992  158.4050 H   0  0  0  0  0  0  0  0  0  0  0  0
  129.4672  130.4055  157.9771 H   0  0  0  0  0  0  0  0  0  0  0  0
  129.2138  132.5703  154.3204 H   0  0  0  0  0  0  0  0  0  0  0  0
  129.7307  131.4484  152.1943 H   0  0  0  0  0  0  0  0  0  0  0  0
  132.0530  128.7101  151.8455 H   0  0  0  0  0  0  0  0  0  0  0  0
  130.9801  129.7291  151.0499 H   0  0  0  0  0  0  0  0  0  0  0  0
  132.4621  128.8533  154.2201 H   0  0  0  0  0  0  0  0  0  0  0  0
  131.9581  129.9777  156.3479 H   0  0  0  0  0  0  0  0  0  0  0  0
  1  2  1  0
  1 35  1  0
  1 36  1  0
  1 37  1  0
  2  6  1  0
  2  3  1  0
  3  4  2  0
  4  5  1  0
  4 38  1  0
  5  6  2  0
  5 39  1  0
  6  7  1  0
  7  8  1  1
  7  9  1  0
  7 20  1  0
  9 10  1  0
  9 40  1  0
  9 41  1  0
 10 11  1  0
 11 12  1  0
 11 42  1  0
 11 43  1  0
 12 13  1  0
 12 44  1  0
 12 45  1  0
 13 19  1  0
 13 14  2  0
 14 15  1  0
 14 46  1  0
 15 16  2  0
 15 47  1  0
 16 17  1  0
 16 18  1  0
 18 19  2  0
 18 48  1  0
 19 49  1  0
 20 50  1  0
 21 20  1  0
 21 33  2  0
 21 22  1  0
 22 23  1  0
 22 24  1  0
 24 25  2  0
 24 51  1  0
 25 26  1  0
 25 33  1  0
 26 32  1  0
 26 27  2  0
 27 28  1  0
 27 52  1  0
 28 29  2  0
 28 53  1  0
 29 30  1  0
 29 31  1  0
 30 54  1  0
 30 55  1  0
 31 32  2  0
 31 56  1  0
 32 57  1  0
 33 34  1  0
M  CHG  1  33   1
M  END
>  <DOCK_score>  (1) 
-61.899864

>  <SMILES>  (1) 
Cn1nccc1[C@H](CSCCc1ccc(F)cc1)Nc1[nH]cc(-c2ccc(N)cc2)[nH+]1

$$$$
