N#CNC(=N)N[C@@H]1C[C@@H]([NH3+])C[C@@H]1N[C@@H]1C(=O)C=Cc2cc(O)ccc21
     RDKit          3D

 46 48  0  0  1  0  0  0  0  0999 V2000
  134.9954  140.0351  159.1301 N   0  0  0  0  0  0  0  0  0  0  0  0
  134.1343  139.2962  159.0748 C   0  0  0  0  0  0  0  0  0  0  0  0
  133.1071  138.4149  159.0089 N   0  0  0  0  0  0  0  0  0  0  0  0
  131.9525  138.6462  159.7277 C   0  0  0  0  0  0  0  0  0  0  0  0
  131.8499  139.7117  160.4698 N   0  0  0  0  0  0  0  0  0  0  0  0
  130.9106  137.7521  159.6608 N   0  0  0  0  0  0  0  0  0  0  0  0
  129.6844  137.9977  160.4242 C   0  0  2  0  0  0  0  0  0  0  0  0
  129.2343  138.9406  160.1137 H   0  0  0  0  0  0  0  0  0  0  0  0
  130.0000  138.0333  161.9337 C   0  0  0  0  0  0  0  0  0  0  0  0
  129.6925  136.5952  162.4201 C   0  0  1  0  0  0  0  0  0  0  0  0
  130.5219  135.9253  162.1936 H   0  0  0  0  0  0  0  0  0  0  0  0
  129.3952  136.5846  163.8586 N   0  0  0  0  0  0  0  0  0  0  0  0
  128.6073  137.1872  164.0436 H   0  0  0  0  0  0  0  0  0  0  0  0
  129.1748  135.6440  164.1495 H   0  0  0  0  0  0  0  0  0  0  0  0
  130.1992  136.9154  164.3707 H   0  0  0  0  0  0  0  0  0  0  0  0
  128.4349  136.2171  161.5966 C   0  0  0  0  0  0  0  0  0  0  0  0
  128.6901  136.8431  160.2100 C   0  0  2  0  0  0  0  0  0  0  0  0
  127.7572  137.2258  159.7957 H   0  0  0  0  0  0  0  0  0  0  0  0
  129.2690  135.8417  159.3046 N   0  0  0  0  0  0  0  0  0  0  0  0
  128.2214  135.0002  158.7112 C   0  0  2  0  0  0  0  0  0  0  0  0
  127.7750  135.5591  157.8887 H   0  0  0  0  0  0  0  0  0  0  0  0
  127.1507  134.7848  159.7593 C   0  0  0  0  0  0  0  0  0  0  0  0
  126.5809  135.7321  160.2617 O   0  0  0  0  0  0  0  0  0  0  0  0
  126.8246  133.4685  160.1431 C   0  0  0  0  0  0  0  0  0  0  0  0
  127.4354  132.3954  159.6061 C   0  0  0  0  0  0  0  0  0  0  0  0
  128.4826  132.5130  158.5864 C   0  0  0  0  0  0  0  0  0  0  0  0
  129.0883  131.3674  158.0589 C   0  0  0  0  0  0  0  0  0  0  0  0
  130.0746  131.4945  157.0969 C   0  0  0  0  0  0  0  0  0  0  0  0
  130.6651  130.3838  156.5822 O   0  0  0  0  0  0  0  0  0  0  0  0
  130.4680  132.7529  156.6590 C   0  0  0  0  0  0  0  0  0  0  0  0
  129.8670  133.8890  157.1739 C   0  0  0  0  0  0  0  0  0  0  0  0
  128.8860  133.7741  158.1307 C   0  0  0  0  0  0  0  0  0  0  0  0
  133.1836  137.6214  158.4562 H   0  0  0  0  0  0  0  0  0  0  0  0
  132.5853  140.3426  160.5169 H   0  0  0  0  0  0  0  0  0  0  0  0
  130.9870  136.9586  159.1082 H   0  0  0  0  0  0  0  0  0  0  0  0
  131.0501  138.2754  162.0984 H   0  0  0  0  0  0  0  0  0  0  0  0
  129.3575  138.7531  162.4409 H   0  0  0  0  0  0  0  0  0  0  0  0
  127.5398  136.6439  162.0491 H   0  0  0  0  0  0  0  0  0  0  0  0
  128.3429  135.1340  161.5151 H   0  0  0  0  0  0  0  0  0  0  0  0
  129.9582  135.2791  159.7808 H   0  0  0  0  0  0  0  0  0  0  0  0
  126.0603  133.3158  160.8907 H   0  0  0  0  0  0  0  0  0  0  0  0
  127.1432  131.4106  159.9395 H   0  0  0  0  0  0  0  0  0  0  0  0
  128.7869  130.3883  158.4007 H   0  0  0  0  0  0  0  0  0  0  0  0
  131.3418  130.5704  155.9172 H   0  0  0  0  0  0  0  0  0  0  0  0
  131.2416  132.8451  155.9111 H   0  0  0  0  0  0  0  0  0  0  0  0
  130.1723  134.8655  156.8278 H   0  0  0  0  0  0  0  0  0  0  0  0
  1  2  3  0
  2  3  1  0
  3  4  1  0
  3 33  1  0
  4  5  2  0
  4  6  1  0
  5 34  1  0
  6  7  1  0
  6 35  1  0
  7  8  1  6
  7 17  1  0
  7  9  1  0
  9 10  1  0
  9 36  1  0
  9 37  1  0
 10 11  1  1
 10 12  1  0
 10 16  1  0
 12 13  1  0
 12 14  1  0
 12 15  1  0
 16 17  1  0
 16 38  1  0
 16 39  1  0
 17 18  1  6
 17 19  1  0
 19 20  1  0
 19 40  1  0
 20 21  1  6
 20 32  1  0
 20 22  1  0
 22 23  2  0
 22 24  1  0
 24 25  2  0
 24 41  1  0
 25 26  1  0
 25 42  1  0
 26 32  2  0
 26 27  1  0
 27 28  2  0
 27 43  1  0
 28 29  1  0
 28 30  1  0
 29 44  1  0
 30 31  2  0
 30 45  1  0
 31 32  1  0
 31 46  1  0
M  CHG  1  12   1
M  END
>  <DOCK_score>  (1) 
-43.224808

>  <SMILES>  (1) 
N#CNC(=N)N[C@@H]1C[C@@H]([NH3+])C[C@@H]1N[C@@H]1C(=O)C=Cc2cc(O)ccc21

$$$$
