Nc1ccc(C2CC2)c(Nc2[nH]cc(-c3ccc(C4=CCC=CC4)cc3)[nH+]2)c1
     RDKit          3D

 53 57  0  0  1  0  0  0  0  0999 V2000
  128.5726  135.9121  163.7737 N   0  0  0  0  0  0  0  0  0  0  0  0
  129.8323  136.0016  163.1769 C   0  0  0  0  0  0  0  0  0  0  0  0
  130.9492  136.2956  163.9502 C   0  0  0  0  0  0  0  0  0  0  0  0
  132.1955  136.3839  163.3608 C   0  0  0  0  0  0  0  0  0  0  0  0
  132.3371  136.1747  162.0025 C   0  0  0  0  0  0  0  0  0  0  0  0
  133.6996  136.2653  161.3649 C   0  0  0  0  0  0  0  0  0  0  0  0
  134.5288  137.5201  161.6456 C   0  0  0  0  0  0  0  0  0  0  0  0
  133.8977  137.3128  160.2673 C   0  0  0  0  0  0  0  0  0  0  0  0
  131.2239  135.8860  161.2225 C   0  0  0  0  0  0  0  0  0  0  0  0
  131.3671  135.6804  159.8475 N   0  0  0  0  0  0  0  0  0  0  0  0
  130.9936  134.4707  159.2855 C   0  0  0  0  0  0  0  0  0  0  0  0
  130.4760  133.4084  159.9617 N   0  0  0  0  0  0  0  0  0  0  0  0
  130.3011  133.3641  160.9147 H   0  0  0  0  0  0  0  0  0  0  0  0
  130.2420  132.4136  159.0450 C   0  0  0  0  0  0  0  0  0  0  0  0
  130.6229  132.8956  157.8348 C   0  0  0  0  0  0  0  0  0  0  0  0
  130.5529  132.1687  156.5449 C   0  0  0  0  0  0  0  0  0  0  0  0
  129.7797  132.6758  155.4999 C   0  0  0  0  0  0  0  0  0  0  0  0
  129.7181  132.0039  154.2999 C   0  0  0  0  0  0  0  0  0  0  0  0
  130.4213  130.8088  154.1322 C   0  0  0  0  0  0  0  0  0  0  0  0
  130.3518  130.0854  152.8463 C   0  0  0  0  0  0  0  0  0  0  0  0
  130.4788  128.7759  152.8516 C   0  0  0  0  0  0  0  0  0  0  0  0
  130.4174  127.9529  151.5999 C   0  0  0  0  0  0  0  0  0  0  0  0
  130.6817  128.7930  150.3871 C   0  0  0  0  0  0  0  0  0  0  0  0
  130.5613  130.0849  150.3813 C   0  0  0  0  0  0  0  0  0  0  0  0
  130.1451  130.8716  151.5875 C   0  0  0  0  0  0  0  0  0  0  0  0
  131.1908  130.2991  155.1805 C   0  0  0  0  0  0  0  0  0  0  0  0
  131.2557  130.9750  156.3781 C   0  0  0  0  0  0  0  0  0  0  0  0
  131.0797  134.1602  158.0150 N   0  0  0  0  0  0  0  0  0  0  0  0
  131.4165  134.7416  157.3155 H   0  0  0  0  0  0  0  0  0  0  0  0
  129.9701  135.7966  161.8116 C   0  0  0  0  0  0  0  0  0  0  0  0
  127.7937  135.7066  163.2335 H   0  0  0  0  0  0  0  0  0  0  0  0
  128.4769  136.0554  164.7282 H   0  0  0  0  0  0  0  0  0  0  0  0
  130.8426  136.4555  165.0129 H   0  0  0  0  0  0  0  0  0  0  0  0
  133.0618  136.6124  163.9640 H   0  0  0  0  0  0  0  0  0  0  0  0
  134.2341  135.3210  161.2617 H   0  0  0  0  0  0  0  0  0  0  0  0
  134.0889  138.2800  162.2914 H   0  0  0  0  0  0  0  0  0  0  0  0
  135.6092  137.4015  161.7274 H   0  0  0  0  0  0  0  0  0  0  0  0
  134.5629  137.0578  159.4424 H   0  0  0  0  0  0  0  0  0  0  0  0
  133.0425  137.9363  160.0065 H   0  0  0  0  0  0  0  0  0  0  0  0
  131.7281  136.3848  159.2869 H   0  0  0  0  0  0  0  0  0  0  0  0
  129.8328  131.4349  159.2480 H   0  0  0  0  0  0  0  0  0  0  0  0
  129.2325  133.5976  155.6312 H   0  0  0  0  0  0  0  0  0  0  0  0
  129.1231  132.3987  153.4896 H   0  0  0  0  0  0  0  0  0  0  0  0
  130.6292  128.2724  153.7959 H   0  0  0  0  0  0  0  0  0  0  0  0
  129.4291  127.5013  151.5133 H   0  0  0  0  0  0  0  0  0  0  0  0
  131.1667  127.1635  151.6578 H   0  0  0  0  0  0  0  0  0  0  0  0
  130.9866  128.3001  149.4757 H   0  0  0  0  0  0  0  0  0  0  0  0
  130.7701  130.6174  149.4652 H   0  0  0  0  0  0  0  0  0  0  0  0
  129.0905  131.1320  151.4978 H   0  0  0  0  0  0  0  0  0  0  0  0
  130.7360  131.7862  151.6369 H   0  0  0  0  0  0  0  0  0  0  0  0
  131.7346  129.3749  155.0517 H   0  0  0  0  0  0  0  0  0  0  0  0
  131.8509  130.5812  157.1888 H   0  0  0  0  0  0  0  0  0  0  0  0
  129.1039  135.5684  161.2083 H   0  0  0  0  0  0  0  0  0  0  0  0
  1  2  1  0
  1 31  1  0
  1 32  1  0
  2 30  2  0
  2  3  1  0
  3  4  2  0
  3 33  1  0
  4  5  1  0
  4 34  1  0
  5  6  1  0
  5  9  2  0
  6  8  1  0
  6  7  1  0
  6 35  1  0
  7  8  1  0
  7 36  1  0
  7 37  1  0
  8 38  1  0
  8 39  1  0
  9 10  1  0
  9 30  1  0
 10 40  1  0
 11 10  1  0
 11 28  2  0
 11 12  1  0
 12 13  1  0
 12 14  1  0
 14 15  2  0
 14 41  1  0
 15 16  1  0
 15 28  1  0
 16 27  1  0
 16 17  2  0
 17 18  1  0
 17 42  1  0
 18 19  2  0
 18 43  1  0
 19 20  1  0
 19 26  1  0
 20 25  1  0
 20 21  2  0
 21 22  1  0
 21 44  1  0
 22 23  1  0
 22 45  1  0
 22 46  1  0
 23 24  2  0
 23 47  1  0
 24 25  1  0
 24 48  1  0
 25 49  1  0
 25 50  1  0
 26 27  2  0
 26 51  1  0
 27 52  1  0
 28 29  1  0
 30 53  1  0
M  CHG  1  28   1
M  END
>  <DOCK_score>  (1) 
-56.310879

>  <SMILES>  (1) 
Nc1ccc(C2CC2)c(Nc2[nH]cc(-c3ccc(C4=CCC=CC4)cc3)[nH+]2)c1

$$$$
