O=c1cc(C[NH2+]C2CCC=CCC2)nc(NC2CCC3(CCS3)CC2)[nH]1
     RDKit          3D

 57 60  0  0  1  0  0  0  0  0999 V2000
  126.1929  136.0710  161.5503 O   0  0  0  0  0  0  0  0  0  0  0  0
  127.2665  136.2047  160.9863 C   0  0  0  0  0  0  0  0  0  0  0  0
  127.4494  135.7361  159.6732 C   0  0  0  0  0  0  0  0  0  0  0  0
  128.6648  135.9048  159.0761 C   0  0  0  0  0  0  0  0  0  0  0  0
  128.8869  135.4116  157.6695 C   0  0  0  0  0  0  0  0  0  0  0  0
  130.1749  134.7091  157.5947 N   0  0  0  0  0  0  0  0  0  0  0  0
  130.3237  134.3789  156.6530 H   0  0  0  0  0  0  0  0  0  0  0  0
  130.9184  135.3415  157.8507 H   0  0  0  0  0  0  0  0  0  0  0  0
  130.1641  133.5668  158.5182 C   0  0  0  0  0  0  0  0  0  0  0  0
  131.5972  133.2272  158.8875 C   0  0  0  0  0  0  0  0  0  0  0  0
  131.6363  132.1675  159.9915 C   0  0  0  0  0  0  0  0  0  0  0  0
  131.5530  130.7990  159.3501 C   0  0  0  0  0  0  0  0  0  0  0  0
  130.4414  130.3873  158.8278 C   0  0  0  0  0  0  0  0  0  0  0  0
  129.2118  131.2698  158.8517 C   0  0  0  0  0  0  0  0  0  0  0  0
  129.4161  132.4194  157.8625 C   0  0  0  0  0  0  0  0  0  0  0  0
  129.6530  136.5088  159.7323 N   0  0  0  0  0  0  0  0  0  0  0  0
  129.4907  136.9464  160.9653 C   0  0  0  0  0  0  0  0  0  0  0  0
  130.5355  137.5575  161.6049 N   0  0  0  0  0  0  0  0  0  0  0  0
  131.8198  137.7205  160.9192 C   0  0  2  0  0  0  0  0  0  0  0  0
  132.9523  137.6937  161.9474 C   0  0  0  0  0  0  0  0  0  0  0  0
  134.2984  137.8082  161.2233 C   0  0  0  0  0  0  0  0  0  0  0  0
  134.3112  139.0766  160.3857 C   0  0  1  0  0  0  0  0  0  0  0  0
  134.5741  140.3650  161.2065 C   0  0  0  0  0  0  0  0  0  0  0  0
  136.1303  140.4780  161.1804 C   0  0  0  0  0  0  0  0  0  0  0  0
  135.9380  139.4716  159.6618 S   0  0  0  0  0  0  0  0  0  0  0  0
  133.1531  139.1982  159.4087 C   0  0  0  0  0  0  0  0  0  0  0  0
  131.8309  139.0546  160.1706 C   0  0  0  0  0  0  0  0  0  0  0  0
  128.3016  136.8061  161.6108 N   0  0  0  0  0  0  0  0  0  0  0  0
  128.1975  137.1372  162.5165 H   0  0  0  0  0  0  0  0  0  0  0  0
  126.6415  135.2504  159.1461 H   0  0  0  0  0  0  0  0  0  0  0  0
  128.0839  134.7284  157.3930 H   0  0  0  0  0  0  0  0  0  0  0  0
  128.8950  136.2592  156.9843 H   0  0  0  0  0  0  0  0  0  0  0  0
  129.6321  133.8571  159.4242 H   0  0  0  0  0  0  0  0  0  0  0  0
  132.1143  132.8470  158.0065 H   0  0  0  0  0  0  0  0  0  0  0  0
  132.1009  134.1284  159.2372 H   0  0  0  0  0  0  0  0  0  0  0  0
  130.7902  132.3084  160.6641 H   0  0  0  0  0  0  0  0  0  0  0  0
  132.5687  132.2540  160.5493 H   0  0  0  0  0  0  0  0  0  0  0  0
  132.4250  130.1622  159.3281 H   0  0  0  0  0  0  0  0  0  0  0  0
  130.3917  129.4090  158.3730 H   0  0  0  0  0  0  0  0  0  0  0  0
  129.0692  131.6713  159.8549 H   0  0  0  0  0  0  0  0  0  0  0  0
  128.3378  130.6873  158.5602 H   0  0  0  0  0  0  0  0  0  0  0  0
  128.4444  132.7742  157.5191 H   0  0  0  0  0  0  0  0  0  0  0  0
  129.9892  132.0592  157.0081 H   0  0  0  0  0  0  0  0  0  0  0  0
  130.4253  137.8827  162.5121 H   0  0  0  0  0  0  0  0  0  0  0  0
  131.9561  136.9052  160.2088 H   0  0  0  0  0  0  0  0  0  0  0  0
  132.8376  138.5301  162.6368 H   0  0  0  0  0  0  0  0  0  0  0  0
  132.9169  136.7565  162.5032 H   0  0  0  0  0  0  0  0  0  0  0  0
  134.4380  136.9427  160.5756 H   0  0  0  0  0  0  0  0  0  0  0  0
  135.1042  137.8481  161.9562 H   0  0  0  0  0  0  0  0  0  0  0  0
  134.1139  141.2300  160.7289 H   0  0  0  0  0  0  0  0  0  0  0  0
  134.2098  140.2556  162.2279 H   0  0  0  0  0  0  0  0  0  0  0  0
  136.6322  139.9641  162.0001 H   0  0  0  0  0  0  0  0  0  0  0  0
  136.5051  141.4868  161.0071 H   0  0  0  0  0  0  0  0  0  0  0  0
  133.2271  138.4124  158.6569 H   0  0  0  0  0  0  0  0  0  0  0  0
  133.1884  140.1724  158.9212 H   0  0  0  0  0  0  0  0  0  0  0  0
  131.0000  139.0830  159.4658 H   0  0  0  0  0  0  0  0  0  0  0  0
  131.7315  139.8728  160.8839 H   0  0  0  0  0  0  0  0  0  0  0  0
  1  2  2  0
  2 28  1  0
  2  3  1  0
  3  4  2  0
  3 30  1  0
  4  5  1  0
  4 16  1  0
  5  6  1  0
  5 31  1  0
  5 32  1  0
  6  7  1  0
  6  8  1  0
  6  9  1  0
  9 15  1  0
  9 10  1  0
  9 33  1  0
 10 11  1  0
 10 34  1  0
 10 35  1  0
 11 12  1  0
 11 36  1  0
 11 37  1  0
 12 13  2  0
 12 38  1  0
 13 14  1  0
 13 39  1  0
 14 15  1  0
 14 40  1  0
 14 41  1  0
 15 42  1  0
 15 43  1  0
 16 17  2  0
 17 18  1  0
 17 28  1  0
 18 19  1  0
 18 44  1  0
 19 27  1  0
 19 20  1  0
 19 45  1  6
 20 21  1  0
 20 46  1  0
 20 47  1  0
 21 22  1  0
 21 48  1  0
 21 49  1  0
 22 25  1  6
 22 23  1  0
 22 26  1  0
 23 24  1  0
 23 50  1  0
 23 51  1  0
 24 25  1  0
 24 52  1  0
 24 53  1  0
 26 27  1  0
 26 54  1  0
 26 55  1  0
 27 56  1  0
 27 57  1  0
 28 29  1  0
M  CHG  1   6   1
M  END
>  <DOCK_score>  (1) 
-46.702915

>  <SMILES>  (1) 
O=c1cc(C[NH2+]C2CCC=CCC2)nc(NC2CCC3(CCS3)CC2)[nH]1

$$$$
