Fc1ccc(C[C@@H](Nc2[nH]cc(-c3ccc(C=CBr)cc3)[nH+]2)C(F)F)cc1
     RDKit          3D

 45 47  0  0  1  0  0  0  0  0999 V2000
  136.2169  137.3674  161.6650 F   0  0  0  0  0  0  0  0  0  0  0  0
  134.8670  137.3175  161.6623 C   0  0  0  0  0  0  0  0  0  0  0  0
  134.1873  136.8877  162.7896 C   0  0  0  0  0  0  0  0  0  0  0  0
  132.8064  136.8365  162.7855 C   0  0  0  0  0  0  0  0  0  0  0  0
  132.1034  137.2137  161.6563 C   0  0  0  0  0  0  0  0  0  0  0  0
  130.5975  137.1569  161.6531 C   0  0  0  0  0  0  0  0  0  0  0  0
  130.1402  135.7782  161.1727 C   0  0  1  0  0  0  0  0  0  0  0  0
  129.0509  135.7372  161.1703 H   0  0  0  0  0  0  0  0  0  0  0  0
  130.6406  135.5431  159.8160 N   0  0  0  0  0  0  0  0  0  0  0  0
  130.3521  134.3542  159.1681 C   0  0  0  0  0  0  0  0  0  0  0  0
  129.6183  133.3296  159.6818 N   0  0  0  0  0  0  0  0  0  0  0  0
  129.2068  133.3013  160.5598 H   0  0  0  0  0  0  0  0  0  0  0  0
  129.5681  132.3426  158.7279 C   0  0  0  0  0  0  0  0  0  0  0  0
  130.2685  132.7943  157.6570 C   0  0  0  0  0  0  0  0  0  0  0  0
  130.4819  132.0659  156.3839 C   0  0  0  0  0  0  0  0  0  0  0  0
  130.0274  132.6125  155.1833 C   0  0  0  0  0  0  0  0  0  0  0  0
  130.2295  131.9389  153.9996 C   0  0  0  0  0  0  0  0  0  0  0  0
  130.8803  130.7034  154.0020 C   0  0  0  0  0  0  0  0  0  0  0  0
  131.0929  129.9777  152.7336 C   0  0  0  0  0  0  0  0  0  0  0  0
  130.0519  129.6148  151.9938 C   0  0  0  0  0  0  0  0  0  0  0  0
  130.3241  128.6855  150.3695 Br  0  0  0  0  0  0  0  0  0  0  0  0
  131.3303  130.1541  155.2052 C   0  0  0  0  0  0  0  0  0  0  0  0
  131.1321  130.8314  156.3873 C   0  0  0  0  0  0  0  0  0  0  0  0
  130.7416  134.0296  157.9595 N   0  0  0  0  0  0  0  0  0  0  0  0
  131.2785  134.5854  157.3733 H   0  0  0  0  0  0  0  0  0  0  0  0
  130.6889  134.7027  162.1121 C   0  0  0  0  0  0  0  0  0  0  0  0
  130.6087  135.1532  163.4343 F   0  0  0  0  0  0  0  0  0  0  0  0
  129.9356  133.5323  161.9717 F   0  0  0  0  0  0  0  0  0  0  0  0
  132.7811  137.6375  160.5285 C   0  0  0  0  0  0  0  0  0  0  0  0
  134.1619  137.6953  160.5322 C   0  0  0  0  0  0  0  0  0  0  0  0
  134.7364  136.5923  163.6716 H   0  0  0  0  0  0  0  0  0  0  0  0
  132.2760  136.5014  163.6647 H   0  0  0  0  0  0  0  0  0  0  0  0
  130.2065  137.9231  160.9836 H   0  0  0  0  0  0  0  0  0  0  0  0
  130.2251  137.3320  162.6624 H   0  0  0  0  0  0  0  0  0  0  0  0
  131.1740  136.2206  159.3715 H   0  0  0  0  0  0  0  0  0  0  0  0
  129.0643  131.3910  158.8123 H   0  0  0  0  0  0  0  0  0  0  0  0
  129.5202  133.5660  155.1820 H   0  0  0  0  0  0  0  0  0  0  0  0
  129.8813  132.3640  153.0700 H   0  0  0  0  0  0  0  0  0  0  0  0
  132.0953  129.7416  152.4081 H   0  0  0  0  0  0  0  0  0  0  0  0
  129.0494  129.8505  152.3196 H   0  0  0  0  0  0  0  0  0  0  0  0
  131.8333  129.1983  155.2082 H   0  0  0  0  0  0  0  0  0  0  0  0
  131.4803  130.4073  157.3175 H   0  0  0  0  0  0  0  0  0  0  0  0
  131.7295  134.4972  161.8609 H   0  0  0  0  0  0  0  0  0  0  0  0
  132.2310  137.9274  159.6454 H   0  0  0  0  0  0  0  0  0  0  0  0
  134.6909  138.0303  159.6522 H   0  0  0  0  0  0  0  0  0  0  0  0
  1  2  1  0
  2 30  2  0
  2  3  1  0
  3  4  2  0
  3 31  1  0
  4  5  1  0
  4 32  1  0
  5  6  1  0
  5 29  2  0
  6  7  1  0
  6 33  1  0
  6 34  1  0
  7  8  1  6
  7  9  1  0
  7 26  1  0
  9 35  1  0
 10  9  1  0
 10 24  2  0
 10 11  1  0
 11 12  1  0
 11 13  1  0
 13 14  2  0
 13 36  1  0
 14 15  1  0
 14 24  1  0
 15 23  1  0
 15 16  2  0
 16 17  1  0
 16 37  1  0
 17 18  2  0
 17 38  1  0
 18 19  1  0
 18 22  1  0
 19 20  2  0
 19 39  1  0
 20 21  1  0
 20 40  1  0
 22 23  2  0
 22 41  1  0
 23 42  1  0
 24 25  1  0
 26 27  1  0
 26 28  1  0
 26 43  1  0
 29 30  1  0
 29 44  1  0
 30 45  1  0
M  CHG  1  24   1
M  END
>  <DOCK_score>  (1) 
-55.997761

>  <SMILES>  (1) 
Fc1ccc(C[C@@H](Nc2[nH]cc(-c3ccc(C=CBr)cc3)[nH+]2)C(F)F)cc1

$$$$
