Cc1ccc(N2CC=C(c3ccccc3)CC2)cc1NC(=O)[C@@H](CCl)Nc1[nH]c2ccccc2[nH+]1
     RDKit          3D

 64 68  0  0  1  0  0  0  0  0999 V2000
  135.1188  138.6340  158.4520 C   0  0  0  0  0  0  0  0  0  0  0  0
  135.3068  138.9323  159.9172 C   0  0  0  0  0  0  0  0  0  0  0  0
  136.4278  139.6187  160.3434 C   0  0  0  0  0  0  0  0  0  0  0  0
  136.6040  139.8940  161.6855 C   0  0  0  0  0  0  0  0  0  0  0  0
  135.6532  139.4815  162.6116 C   0  0  0  0  0  0  0  0  0  0  0  0
  135.8321  139.7599  163.9685 N   0  0  0  0  0  0  0  0  0  0  0  0
  134.7676  140.6379  164.4705 C   0  0  0  0  0  0  0  0  0  0  0  0
  134.9008  140.8199  165.9550 C   0  0  0  0  0  0  0  0  0  0  0  0
  135.6229  140.0247  166.7133 C   0  0  0  0  0  0  0  0  0  0  0  0
  135.6795  140.2894  168.1665 C   0  0  0  0  0  0  0  0  0  0  0  0
  136.9030  140.5510  168.7839 C   0  0  0  0  0  0  0  0  0  0  0  0
  136.9483  140.8022  170.1399 C   0  0  0  0  0  0  0  0  0  0  0  0
  135.7852  140.7849  170.8887 C   0  0  0  0  0  0  0  0  0  0  0  0
  134.5695  140.5209  170.2835 C   0  0  0  0  0  0  0  0  0  0  0  0
  134.5100  140.2730  168.9275 C   0  0  0  0  0  0  0  0  0  0  0  0
  136.3932  138.8571  166.1626 C   0  0  0  0  0  0  0  0  0  0  0  0
  135.8847  138.5191  164.7590 C   0  0  0  0  0  0  0  0  0  0  0  0
  134.5235  138.7975  162.1858 C   0  0  0  0  0  0  0  0  0  0  0  0
  134.3528  138.5172  160.8376 C   0  0  0  0  0  0  0  0  0  0  0  0
  133.2181  137.8221  160.4049 N   0  0  0  0  0  0  0  0  0  0  0  0
  132.6279  136.9235  161.2176 C   0  0  0  0  0  0  0  0  0  0  0  0
  133.0831  136.7134  162.3219 O   0  0  0  0  0  0  0  0  0  0  0  0
  131.4020  136.1796  160.7540 C   0  0  1  0  0  0  0  0  0  0  0  0
  131.0693  135.5018  161.5401 H   0  0  0  0  0  0  0  0  0  0  0  0
  130.2880  137.1794  160.4374 C   0  0  0  0  0  0  0  0  0  0  0  0
  128.8212  136.2894  159.8829 Cl  0  0  0  0  0  0  0  0  0  0  0  0
  131.7240  135.4099  159.5497 N   0  0  0  0  0  0  0  0  0  0  0  0
  131.5823  134.0424  159.5495 C   0  0  0  0  0  0  0  0  0  0  0  0
  131.8401  133.2494  158.5120 N   0  0  0  0  0  0  0  0  0  0  0  0
  132.1550  133.5387  157.6414 H   0  0  0  0  0  0  0  0  0  0  0  0
  131.5882  131.9545  158.8828 C   0  0  0  0  0  0  0  0  0  0  0  0
  131.6792  130.7301  158.2274 C   0  0  0  0  0  0  0  0  0  0  0  0
  131.3371  129.5714  158.8902 C   0  0  0  0  0  0  0  0  0  0  0  0
  130.9024  129.6162  160.2068 C   0  0  0  0  0  0  0  0  0  0  0  0
  130.8066  130.8202  160.8704 C   0  0  0  0  0  0  0  0  0  0  0  0
  131.1481  132.0000  160.2157 C   0  0  0  0  0  0  0  0  0  0  0  0
  131.1618  133.3193  160.5851 N   0  0  0  0  0  0  0  0  0  0  0  0
  130.9074  133.6676  161.4539 H   0  0  0  0  0  0  0  0  0  0  0  0
  134.5733  139.4523  157.9818 H   0  0  0  0  0  0  0  0  0  0  0  0
  136.0930  138.5255  157.9753 H   0  0  0  0  0  0  0  0  0  0  0  0
  134.5540  137.7086  158.3391 H   0  0  0  0  0  0  0  0  0  0  0  0
  137.1680  139.9402  159.6257 H   0  0  0  0  0  0  0  0  0  0  0  0
  137.4815  140.4301  162.0155 H   0  0  0  0  0  0  0  0  0  0  0  0
  134.8391  141.6086  163.9799 H   0  0  0  0  0  0  0  0  0  0  0  0
  133.7978  140.1921  164.2493 H   0  0  0  0  0  0  0  0  0  0  0  0
  134.3789  141.6422  166.4218 H   0  0  0  0  0  0  0  0  0  0  0  0
  137.8122  140.5605  168.2012 H   0  0  0  0  0  0  0  0  0  0  0  0
  137.8943  141.0084  170.6183 H   0  0  0  0  0  0  0  0  0  0  0  0
  135.8265  140.9780  171.9505 H   0  0  0  0  0  0  0  0  0  0  0  0
  133.6651  140.5086  170.8738 H   0  0  0  0  0  0  0  0  0  0  0  0
  133.5604  140.0664  168.4563 H   0  0  0  0  0  0  0  0  0  0  0  0
  137.4518  139.1120  166.1130 H   0  0  0  0  0  0  0  0  0  0  0  0
  136.2581  137.9938  166.8142 H   0  0  0  0  0  0  0  0  0  0  0  0
  134.8872  138.0852  164.8264 H   0  0  0  0  0  0  0  0  0  0  0  0
  136.5639  137.8109  164.2842 H   0  0  0  0  0  0  0  0  0  0  0  0
  133.7809  138.4798  162.9029 H   0  0  0  0  0  0  0  0  0  0  0  0
  132.8539  137.9901  159.5218 H   0  0  0  0  0  0  0  0  0  0  0  0
  130.0483  137.7521  161.3334 H   0  0  0  0  0  0  0  0  0  0  0  0
  130.6205  137.8571  159.6512 H   0  0  0  0  0  0  0  0  0  0  0  0
  132.0372  135.8652  158.7526 H   0  0  0  0  0  0  0  0  0  0  0  0
  132.0172  130.6881  157.2024 H   0  0  0  0  0  0  0  0  0  0  0  0
  131.4083  128.6215  158.3812 H   0  0  0  0  0  0  0  0  0  0  0  0
  130.6376  128.7010  160.7155 H   0  0  0  0  0  0  0  0  0  0  0  0
  130.4678  130.8481  161.8954 H   0  0  0  0  0  0  0  0  0  0  0  0
  1  2  1  0
  1 39  1  0
  1 40  1  0
  1 41  1  0
  2 19  2  0
  2  3  1  0
  3  4  2  0
  3 42  1  0
  4  5  1  0
  4 43  1  0
  5  6  1  0
  5 18  2  0
  6 17  1  0
  6  7  1  0
  7  8  1  0
  7 44  1  0
  7 45  1  0
  8  9  2  0
  8 46  1  0
  9 10  1  0
  9 16  1  0
 10 15  1  0
 10 11  2  0
 11 12  1  0
 11 47  1  0
 12 13  2  0
 12 48  1  0
 13 14  1  0
 13 49  1  0
 14 15  2  0
 14 50  1  0
 15 51  1  0
 16 17  1  0
 16 52  1  0
 16 53  1  0
 17 54  1  0
 17 55  1  0
 18 19  1  0
 18 56  1  0
 19 20  1  0
 20 21  1  0
 20 57  1  0
 21 22  2  0
 21 23  1  0
 23 24  1  1
 23 25  1  0
 23 27  1  0
 25 26  1  0
 25 58  1  0
 25 59  1  0
 27 28  1  0
 27 60  1  0
 28 37  1  0
 28 29  2  0
 29 30  1  0
 29 31  1  0
 31 36  2  0
 31 32  1  0
 32 33  2  0
 32 61  1  0
 33 34  1  0
 33 62  1  0
 34 35  2  0
 34 63  1  0
 35 36  1  0
 35 64  1  0
 36 37  1  0
 37 38  1  0
M  CHG  1  29   1
M  END
>  <DOCK_score>  (1) 
-57.23592

>  <SMILES>  (1) 
Cc1ccc(N2CC=C(c3ccccc3)CC2)cc1NC(=O)[C@@H](CCl)Nc1[nH]c2ccccc2[nH+]1

$$$$
