Fc1c(F)c(F)c(Nc2ccc(-c3n[nH]cc3C[NH2+]C[C@H]3CC=CCC3)o2)c(F)c1F
     RDKit          3D

 51 54  0  0  1  0  0  0  0  0999 V2000
  129.6683  140.6795  164.0998 F   0  0  0  0  0  0  0  0  0  0  0  0
  128.8627  139.7051  163.6234 C   0  0  0  0  0  0  0  0  0  0  0  0
  129.3901  138.4635  163.3068 C   0  0  0  0  0  0  0  0  0  0  0  0
  130.7098  138.2279  163.4756 F   0  0  0  0  0  0  0  0  0  0  0  0
  128.5667  137.4656  162.8130 C   0  0  0  0  0  0  0  0  0  0  0  0
  129.0825  136.2567  162.5002 F   0  0  0  0  0  0  0  0  0  0  0  0
  127.2082  137.7067  162.6450 C   0  0  0  0  0  0  0  0  0  0  0  0
  126.3725  136.6968  162.1501 N   0  0  0  0  0  0  0  0  0  0  0  0
  126.8785  135.7424  161.2757 C   0  0  0  0  0  0  0  0  0  0  0  0
  126.1786  134.7148  160.7324 C   0  0  0  0  0  0  0  0  0  0  0  0
  127.0707  133.9993  159.9102 C   0  0  0  0  0  0  0  0  0  0  0  0
  128.2751  134.6231  159.9992 C   0  0  0  0  0  0  0  0  0  0  0  0
  129.5143  134.2152  159.3057 C   0  0  0  0  0  0  0  0  0  0  0  0
  129.6450  133.1880  158.4892 N   0  0  0  0  0  0  0  0  0  0  0  0
  130.9737  133.1503  158.0475 N   0  0  0  0  0  0  0  0  0  0  0  0
  131.3518  132.4983  157.4370 H   0  0  0  0  0  0  0  0  0  0  0  0
  131.6372  134.1790  158.6184 C   0  0  0  0  0  0  0  0  0  0  0  0
  130.7666  134.8590  159.3947 C   0  0  0  0  0  0  0  0  0  0  0  0
  131.0778  136.0853  160.2134 C   0  0  0  0  0  0  0  0  0  0  0  0
  132.4916  136.4445  160.0392 N   0  0  0  0  0  0  0  0  0  0  0  0
  133.0732  135.6790  160.3456 H   0  0  0  0  0  0  0  0  0  0  0  0
  132.6726  136.6355  159.0652 H   0  0  0  0  0  0  0  0  0  0  0  0
  132.7950  137.6398  160.8374 C   0  0  0  0  0  0  0  0  0  0  0  0
  134.2674  138.0140  160.6561 C   0  0  1  0  0  0  0  0  0  0  0  0
  134.8758  137.1097  160.6392 H   0  0  0  0  0  0  0  0  0  0  0  0
  134.4450  138.7832  159.3452 C   0  0  0  0  0  0  0  0  0  0  0  0
  135.8191  139.3829  159.2798 C   0  0  0  0  0  0  0  0  0  0  0  0
  136.5930  139.5364  160.3060 C   0  0  0  0  0  0  0  0  0  0  0  0
  136.2281  139.1271  161.7030 C   0  0  0  0  0  0  0  0  0  0  0  0
  134.7164  138.9160  161.8126 C   0  0  0  0  0  0  0  0  0  0  0  0
  128.1451  135.6785  160.8302 O   0  0  0  0  0  0  0  0  0  0  0  0
  126.6801  138.9509  162.9680 C   0  0  0  0  0  0  0  0  0  0  0  0
  125.3598  139.1876  162.8059 F   0  0  0  0  0  0  0  0  0  0  0  0
  127.5078  139.9479  163.4564 C   0  0  0  0  0  0  0  0  0  0  0  0
  126.9948  141.1574  163.7710 F   0  0  0  0  0  0  0  0  0  0  0  0
  125.4407  136.6638  162.4178 H   0  0  0  0  0  0  0  0  0  0  0  0
  125.1355  134.4893  160.8979 H   0  0  0  0  0  0  0  0  0  0  0  0
  126.8424  133.1213  159.3242 H   0  0  0  0  0  0  0  0  0  0  0  0
  132.6806  134.4182  158.4754 H   0  0  0  0  0  0  0  0  0  0  0  0
  130.4494  136.9121  159.8825 H   0  0  0  0  0  0  0  0  0  0  0  0
  130.8823  135.8788  161.2656 H   0  0  0  0  0  0  0  0  0  0  0  0
  132.1665  138.4668  160.5066 H   0  0  0  0  0  0  0  0  0  0  0  0
  132.5995  137.4333  161.8897 H   0  0  0  0  0  0  0  0  0  0  0  0
  134.3076  138.1022  158.5052 H   0  0  0  0  0  0  0  0  0  0  0  0
  133.7009  139.5778  159.2888 H   0  0  0  0  0  0  0  0  0  0  0  0
  136.1849  139.7068  158.3167 H   0  0  0  0  0  0  0  0  0  0  0  0
  137.5612  139.9876  160.1472 H   0  0  0  0  0  0  0  0  0  0  0  0
  136.5356  139.9067  162.3999 H   0  0  0  0  0  0  0  0  0  0  0  0
  136.7416  138.1987  161.9532 H   0  0  0  0  0  0  0  0  0  0  0  0
  134.2066  139.8772  161.7468 H   0  0  0  0  0  0  0  0  0  0  0  0
  134.4813  138.4373  162.7633 H   0  0  0  0  0  0  0  0  0  0  0  0
  1  2  1  0
  2 34  2  0
  2  3  1  0
  3  4  1  0
  3  5  2  0
  5  6  1  0
  5  7  1  0
  7  8  1  0
  7 32  2  0
  8  9  1  0
  8 36  1  0
  9 31  1  0
  9 10  2  0
 10 11  1  0
 10 37  1  0
 11 12  2  0
 11 38  1  0
 12 13  1  0
 12 31  1  0
 13 18  1  0
 13 14  2  0
 14 15  1  0
 15 16  1  0
 15 17  1  0
 17 18  2  0
 17 39  1  0
 18 19  1  0
 19 20  1  0
 19 40  1  0
 19 41  1  0
 20 21  1  0
 20 22  1  0
 20 23  1  0
 23 24  1  0
 23 42  1  0
 23 43  1  0
 24 25  1  6
 24 30  1  0
 24 26  1  0
 26 27  1  0
 26 44  1  0
 26 45  1  0
 27 28  2  0
 27 46  1  0
 28 29  1  0
 28 47  1  0
 29 30  1  0
 29 48  1  0
 29 49  1  0
 30 50  1  0
 30 51  1  0
 32 33  1  0
 32 34  1  0
 34 35  1  0
M  CHG  1  20   1
M  END
>  <DOCK_score>  (1) 
-43.820213

>  <SMILES>  (1) 
Fc1c(F)c(F)c(Nc2ccc(-c3n[nH]cc3C[NH2+]C[C@H]3CC=CCC3)o2)c(F)c1F

$$$$
