C/C=C(\Cl)C=C1Cc2ccc(O)cc2[C@H]1N[C@H]1C[C@H]1[NH3+]
     RDKit          3D

 40 42  0  0  1  0  0  0  0  0999 V2000
  131.6891  129.7621  155.8624 C   0  0  0  0  0  0  0  0  0  0  0  0
  131.1289  131.1452  156.0734 C   0  0  0  0  0  0  0  0  0  0  0  0
  130.2421  131.3632  157.0402 C   0  0  0  0  0  0  0  0  0  0  0  0
  129.7299  130.0545  158.0593 Cl  0  0  0  0  0  0  0  0  0  0  0  0
  129.6950  132.7139  157.2461 C   0  0  0  0  0  0  0  0  0  0  0  0
  128.8092  132.9316  158.2119 C   0  0  0  0  0  0  0  0  0  0  0  0
  128.2542  131.9204  159.1864 C   0  0  0  0  0  0  0  0  0  0  0  0
  127.2857  132.6485  160.0860 C   0  0  0  0  0  0  0  0  0  0  0  0
  126.5152  132.1776  161.1391 C   0  0  0  0  0  0  0  0  0  0  0  0
  125.6868  133.0348  161.8334 C   0  0  0  0  0  0  0  0  0  0  0  0
  125.6237  134.3742  161.4769 C   0  0  0  0  0  0  0  0  0  0  0  0
  124.8090  135.2230  162.1572 O   0  0  0  0  0  0  0  0  0  0  0  0
  126.3936  134.8438  160.4250 C   0  0  0  0  0  0  0  0  0  0  0  0
  127.2247  133.9797  159.7298 C   0  0  0  0  0  0  0  0  0  0  0  0
  128.1520  134.2435  158.5689 C   0  0  1  0  0  0  0  0  0  0  0  0
  127.5809  134.6155  157.7182 H   0  0  0  0  0  0  0  0  0  0  0  0
  129.1740  135.2253  158.9556 N   0  0  0  0  0  0  0  0  0  0  0  0
  129.9407  134.7570  160.1178 C   0  0  1  0  0  0  0  0  0  0  0  0
  129.3609  134.2553  160.8925 H   0  0  0  0  0  0  0  0  0  0  0  0
  131.3669  134.2611  159.8701 C   0  0  0  0  0  0  0  0  0  0  0  0
  131.1338  135.6042  160.5649 C   0  0  1  0  0  0  0  0  0  0  0  0
  131.3389  135.6600  161.6340 H   0  0  0  0  0  0  0  0  0  0  0  0
  131.4249  136.8235  159.7992 N   0  0  0  0  0  0  0  0  0  0  0  0
  130.6289  137.4426  159.8374 H   0  0  0  0  0  0  0  0  0  0  0  0
  132.2296  137.2855  160.1954 H   0  0  0  0  0  0  0  0  0  0  0  0
  131.6158  136.5801  158.8388 H   0  0  0  0  0  0  0  0  0  0  0  0
  132.2009  129.4355  156.7677 H   0  0  0  0  0  0  0  0  0  0  0  0
  130.8767  129.0718  155.6352 H   0  0  0  0  0  0  0  0  0  0  0  0
  132.3949  129.7787  155.0319 H   0  0  0  0  0  0  0  0  0  0  0  0
  131.4476  131.9593  155.4393 H   0  0  0  0  0  0  0  0  0  0  0  0
  130.0138  133.5281  156.6121 H   0  0  0  0  0  0  0  0  0  0  0  0
  127.7344  131.1303  158.6446 H   0  0  0  0  0  0  0  0  0  0  0  0
  129.0633  131.4950  159.7800 H   0  0  0  0  0  0  0  0  0  0  0  0
  126.5644  131.1351  161.4170 H   0  0  0  0  0  0  0  0  0  0  0  0
  125.0888  132.6641  162.6528 H   0  0  0  0  0  0  0  0  0  0  0  0
  124.8338  136.1345  161.8354 H   0  0  0  0  0  0  0  0  0  0  0  0
  126.3459  135.8860  160.1460 H   0  0  0  0  0  0  0  0  0  0  0  0
  129.7846  135.4359  158.1805 H   0  0  0  0  0  0  0  0  0  0  0  0
  131.7252  133.4333  160.4820 H   0  0  0  0  0  0  0  0  0  0  0  0
  131.7358  134.2820  158.8447 H   0  0  0  0  0  0  0  0  0  0  0  0
  1  2  1  0
  1 27  1  0
  1 28  1  0
  1 29  1  0
  2  3  2  0
  2 30  1  0
  3  4  1  0
  3  5  1  0
  5  6  2  0
  5 31  1  0
  6 15  1  0
  6  7  1  0
  7  8  1  0
  7 32  1  0
  7 33  1  0
  8 14  2  0
  8  9  1  0
  9 10  2  0
  9 34  1  0
 10 11  1  0
 10 35  1  0
 11 12  1  0
 11 13  2  0
 12 36  1  0
 13 14  1  0
 13 37  1  0
 14 15  1  0
 15 16  1  6
 15 17  1  0
 17 18  1  0
 17 38  1  0
 18 19  1  1
 18 21  1  0
 18 20  1  0
 20 21  1  0
 20 39  1  0
 20 40  1  0
 21 22  1  1
 21 23  1  0
 23 24  1  0
 23 25  1  0
 23 26  1  0
M  CHG  1  23   1
M  END
>  <DOCK_score>  (1) 
-43.780041

>  <SMILES>  (1) 
C/C=C(\Cl)C=C1Cc2ccc(O)cc2[C@H]1N[C@H]1C[C@H]1[NH3+]

$$$$
