Cc1c(Br)cccc1C(=O)Nc1cccnc1C[NH+]=C(NCc1cccs1)NC1CC1
     RDKit          3D

 56 59  0  0  1  0  0  0  0  0999 V2000
  125.7365  141.1482  164.5523 C   0  0  0  0  0  0  0  0  0  0  0  0
  126.6743  140.7404  165.6591 C   0  0  0  0  0  0  0  0  0  0  0  0
  127.2839  141.7026  166.4394 C   0  0  0  0  0  0  0  0  0  0  0  0
  126.9407  143.5343  166.1187 Br  0  0  0  0  0  0  0  0  0  0  0  0
  128.1503  141.3292  167.4524 C   0  0  0  0  0  0  0  0  0  0  0  0
  128.4068  139.9910  167.6933 C   0  0  0  0  0  0  0  0  0  0  0  0
  127.7997  139.0197  166.9247 C   0  0  0  0  0  0  0  0  0  0  0  0
  126.9246  139.3889  165.9013 C   0  0  0  0  0  0  0  0  0  0  0  0
  126.2708  138.3531  165.0741 C   0  0  0  0  0  0  0  0  0  0  0  0
  125.0580  138.2775  165.0413 O   0  0  0  0  0  0  0  0  0  0  0  0
  127.0192  137.4924  164.3560 N   0  0  0  0  0  0  0  0  0  0  0  0
  126.4006  136.5123  163.5732 C   0  0  0  0  0  0  0  0  0  0  0  0
  125.1670  135.9837  163.9469 C   0  0  0  0  0  0  0  0  0  0  0  0
  124.5970  135.0111  163.1424 C   0  0  0  0  0  0  0  0  0  0  0  0
  125.2602  134.6071  161.9983 C   0  0  0  0  0  0  0  0  0  0  0  0
  126.4272  135.1274  161.6721 N   0  0  0  0  0  0  0  0  0  0  0  0
  127.0070  136.0514  162.4122 C   0  0  0  0  0  0  0  0  0  0  0  0
  128.3417  136.6126  161.9943 C   0  0  0  0  0  0  0  0  0  0  0  0
  128.7715  135.9736  160.7479 N   0  0  0  0  0  0  0  0  0  0  0  0
  128.2118  135.3007  160.3298 H   0  0  0  0  0  0  0  0  0  0  0  0
  129.9059  136.3094  160.2009 C   0  0  0  0  0  0  0  0  0  0  0  0
  130.6990  137.2632  160.7935 N   0  0  0  0  0  0  0  0  0  0  0  0
  131.9741  137.6407  160.1787 C   0  0  0  0  0  0  0  0  0  0  0  0
  132.6440  138.6970  161.0193 C   0  0  0  0  0  0  0  0  0  0  0  0
  132.4752  140.0128  160.8788 C   0  0  0  0  0  0  0  0  0  0  0  0
  133.1960  140.7914  161.7678 C   0  0  0  0  0  0  0  0  0  0  0  0
  133.9502  140.1081  162.6301 C   0  0  0  0  0  0  0  0  0  0  0  0
  133.7622  138.3835  162.3402 S   0  0  0  0  0  0  0  0  0  0  0  0
  130.3093  135.7097  159.0314 N   0  0  0  0  0  0  0  0  0  0  0  0
  129.4640  134.6932  158.4001 C   0  0  0  0  0  0  0  0  0  0  0  0
  129.5429  133.2677  158.9502 C   0  0  0  0  0  0  0  0  0  0  0  0
  130.1613  133.5982  157.5903 C   0  0  0  0  0  0  0  0  0  0  0  0
  124.7072  141.0821  164.9052 H   0  0  0  0  0  0  0  0  0  0  0  0
  125.9524  142.1737  164.2524 H   0  0  0  0  0  0  0  0  0  0  0  0
  125.8712  140.4841  163.6987 H   0  0  0  0  0  0  0  0  0  0  0  0
  128.6281  142.0856  168.0573 H   0  0  0  0  0  0  0  0  0  0  0  0
  129.0840  139.7063  168.4849 H   0  0  0  0  0  0  0  0  0  0  0  0
  128.0006  137.9757  167.1144 H   0  0  0  0  0  0  0  0  0  0  0  0
  127.9871  137.5528  164.3822 H   0  0  0  0  0  0  0  0  0  0  0  0
  124.6697  136.3208  164.8443 H   0  0  0  0  0  0  0  0  0  0  0  0
  123.6437  134.5760  163.4035 H   0  0  0  0  0  0  0  0  0  0  0  0
  124.8183  133.8520  161.3652 H   0  0  0  0  0  0  0  0  0  0  0  0
  128.2512  137.6877  161.8389 H   0  0  0  0  0  0  0  0  0  0  0  0
  129.0778  136.4189  162.7745 H   0  0  0  0  0  0  0  0  0  0  0  0
  130.4146  137.6864  161.6186 H   0  0  0  0  0  0  0  0  0  0  0  0
  132.6196  136.7647  160.1137 H   0  0  0  0  0  0  0  0  0  0  0  0
  131.7929  138.0334  159.1781 H   0  0  0  0  0  0  0  0  0  0  0  0
  131.8256  140.4383  160.1283 H   0  0  0  0  0  0  0  0  0  0  0  0
  133.1510  141.8705  161.7638 H   0  0  0  0  0  0  0  0  0  0  0  0
  134.5767  140.5464  163.3927 H   0  0  0  0  0  0  0  0  0  0  0  0
  131.1535  135.9595  158.6244 H   0  0  0  0  0  0  0  0  0  0  0  0
  128.4949  135.0427  158.0440 H   0  0  0  0  0  0  0  0  0  0  0  0
  130.2237  133.0861  159.7818 H   0  0  0  0  0  0  0  0  0  0  0  0
  128.6256  132.6791  158.9561 H   0  0  0  0  0  0  0  0  0  0  0  0
  129.6508  133.2270  156.7017 H   0  0  0  0  0  0  0  0  0  0  0  0
  131.2489  133.6343  157.5270 H   0  0  0  0  0  0  0  0  0  0  0  0
  1  2  1  0
  1 33  1  0
  1 34  1  0
  1 35  1  0
  2  8  2  0
  2  3  1  0
  3  4  1  0
  3  5  2  0
  5  6  1  0
  5 36  1  0
  6  7  2  0
  6 37  1  0
  7  8  1  0
  7 38  1  0
  8  9  1  0
  9 10  2  0
  9 11  1  0
 11 12  1  0
 11 39  1  0
 12 17  1  0
 12 13  2  0
 13 14  1  0
 13 40  1  0
 14 15  2  0
 14 41  1  0
 15 16  1  0
 15 42  1  0
 16 17  2  0
 17 18  1  0
 18 19  1  0
 18 43  1  0
 18 44  1  0
 19 20  1  0
 21 19  2  0
 21 22  1  0
 21 29  1  0
 22 23  1  0
 22 45  1  0
 23 24  1  0
 23 46  1  0
 23 47  1  0
 24 28  1  0
 24 25  2  0
 25 26  1  0
 25 48  1  0
 26 27  2  0
 26 49  1  0
 27 28  1  0
 27 50  1  0
 29 30  1  0
 29 51  1  0
 30 32  1  0
 30 31  1  0
 30 52  1  0
 31 32  1  0
 31 53  1  0
 31 54  1  0
 32 55  1  0
 32 56  1  0
M  CHG  1  19   1
M  END
>  <DOCK_score>  (1) 
-43.137875

>  <SMILES>  (1) 
Cc1c(Br)cccc1C(=O)Nc1cccnc1C[NH+]=C(NCc1cccs1)NC1CC1

$$$$
