O=C1CC[C@H](NC(N[C@H]2CCc3ccccc3C2)=[NH+]CCO)CN1
     RDKit          3D

 51 53  0  0  1  0  0  0  0  0999 V2000
  123.4592  133.6738  161.4523 O   0  0  0  0  0  0  0  0  0  0  0  0
  124.6257  133.9369  161.2498 C   0  0  0  0  0  0  0  0  0  0  0  0
  125.4328  132.9881  160.4109 C   0  0  0  0  0  0  0  0  0  0  0  0
  126.9265  133.2412  160.6294 C   0  0  0  0  0  0  0  0  0  0  0  0
  127.1882  134.7462  160.4942 C   0  0  2  0  0  0  0  0  0  0  0  0
  126.7741  135.1087  159.5534 H   0  0  0  0  0  0  0  0  0  0  0  0
  128.6309  134.9989  160.5259 N   0  0  0  0  0  0  0  0  0  0  0  0
  129.3539  135.0030  159.3565 C   0  0  0  0  0  0  0  0  0  0  0  0
  130.4740  135.7924  159.2436 N   0  0  0  0  0  0  0  0  0  0  0  0
  130.8969  136.6288  160.3695 C   0  0  1  0  0  0  0  0  0  0  0  0
  130.6041  136.1573  161.3075 H   0  0  0  0  0  0  0  0  0  0  0  0
  132.4191  136.8096  160.3353 C   0  0  0  0  0  0  0  0  0  0  0  0
  132.8549  137.4756  161.6389 C   0  0  0  0  0  0  0  0  0  0  0  0
  132.0352  138.7117  161.9023 C   0  0  0  0  0  0  0  0  0  0  0  0
  132.5287  139.6319  162.8185 C   0  0  0  0  0  0  0  0  0  0  0  0
  131.8227  140.7812  163.1071 C   0  0  0  0  0  0  0  0  0  0  0  0
  130.6136  141.0200  162.4802 C   0  0  0  0  0  0  0  0  0  0  0  0
  130.1230  140.1085  161.5687 C   0  0  0  0  0  0  0  0  0  0  0  0
  130.8338  138.9518  161.2746 C   0  0  0  0  0  0  0  0  0  0  0  0
  130.2460  138.0062  160.2601 C   0  0  0  0  0  0  0  0  0  0  0  0
  128.9775  134.2589  158.3549 N   0  0  0  0  0  0  0  0  0  0  0  0
  128.0376  134.0547  158.2287 H   0  0  0  0  0  0  0  0  0  0  0  0
  129.9736  133.7308  157.4194 C   0  0  0  0  0  0  0  0  0  0  0  0
  130.9705  132.8525  158.1782 C   0  0  0  0  0  0  0  0  0  0  0  0
  131.6250  133.6322  159.1811 O   0  0  0  0  0  0  0  0  0  0  0  0
  126.5152  135.4672  161.6628 C   0  0  0  0  0  0  0  0  0  0  0  0
  125.1231  135.0527  161.7842 N   0  0  0  0  0  0  0  0  0  0  0  0
  125.1943  131.9627  160.6930 H   0  0  0  0  0  0  0  0  0  0  0  0
  125.1902  133.1387  159.3589 H   0  0  0  0  0  0  0  0  0  0  0  0
  127.5040  132.6996  159.8803 H   0  0  0  0  0  0  0  0  0  0  0  0
  127.2130  132.9071  161.6266 H   0  0  0  0  0  0  0  0  0  0  0  0
  129.0760  135.1634  161.3719 H   0  0  0  0  0  0  0  0  0  0  0  0
  130.9864  135.7924  158.4200 H   0  0  0  0  0  0  0  0  0  0  0  0
  132.9022  135.8370  160.2406 H   0  0  0  0  0  0  0  0  0  0  0  0
  132.6950  137.4408  159.4907 H   0  0  0  0  0  0  0  0  0  0  0  0
  132.7222  136.7741  162.4626 H   0  0  0  0  0  0  0  0  0  0  0  0
  133.9072  137.7504  161.5678 H   0  0  0  0  0  0  0  0  0  0  0  0
  133.4727  139.4457  163.3091 H   0  0  0  0  0  0  0  0  0  0  0  0
  132.2129  141.4920  163.8206 H   0  0  0  0  0  0  0  0  0  0  0  0
  130.0555  141.9172  162.7035 H   0  0  0  0  0  0  0  0  0  0  0  0
  129.1784  140.2955  161.0798 H   0  0  0  0  0  0  0  0  0  0  0  0
  130.4125  138.4041  159.2591 H   0  0  0  0  0  0  0  0  0  0  0  0
  129.1741  137.9122  160.4350 H   0  0  0  0  0  0  0  0  0  0  0  0
  129.4745  133.1363  156.6543 H   0  0  0  0  0  0  0  0  0  0  0  0
  130.5039  134.5583  156.9480 H   0  0  0  0  0  0  0  0  0  0  0  0
  130.4403  132.0251  158.6497 H   0  0  0  0  0  0  0  0  0  0  0  0
  131.7118  132.4597  157.4823 H   0  0  0  0  0  0  0  0  0  0  0  0
  132.1179  134.3877  158.8326 H   0  0  0  0  0  0  0  0  0  0  0  0
  127.0439  135.2288  162.5857 H   0  0  0  0  0  0  0  0  0  0  0  0
  126.5574  136.5432  161.4946 H   0  0  0  0  0  0  0  0  0  0  0  0
  124.5207  135.6245  162.2855 H   0  0  0  0  0  0  0  0  0  0  0  0
  1  2  2  0
  2 27  1  0
  2  3  1  0
  3  4  1  0
  3 28  1  0
  3 29  1  0
  4  5  1  0
  4 30  1  0
  4 31  1  0
  5  6  1  6
  5  7  1  0
  5 26  1  0
  7 32  1  0
  8  7  1  0
  8  9  1  0
  8 21  2  0
  9 10  1  0
  9 33  1  0
 10 11  1  1
 10 20  1  0
 10 12  1  0
 12 13  1  0
 12 34  1  0
 12 35  1  0
 13 14  1  0
 13 36  1  0
 13 37  1  0
 14 19  2  0
 14 15  1  0
 15 16  2  0
 15 38  1  0
 16 17  1  0
 16 39  1  0
 17 18  2  0
 17 40  1  0
 18 19  1  0
 18 41  1  0
 19 20  1  0
 20 42  1  0
 20 43  1  0
 21 22  1  0
 21 23  1  0
 23 24  1  0
 23 44  1  0
 23 45  1  0
 24 25  1  0
 24 46  1  0
 24 47  1  0
 25 48  1  0
 26 27  1  0
 26 49  1  0
 26 50  1  0
 27 51  1  0
M  CHG  1  21   1
M  END
>  <DOCK_score>  (1) 
-45.349579

>  <SMILES>  (1) 
O=C1CC[C@H](NC(N[C@H]2CCc3ccccc3C2)=[NH+]CCO)CN1

$$$$
