
     RDKit          2D

 35 40  0  0  0  0  0  0  0  0999 V2000
   -9.4533  -10.7524    0.0000 C   0  0  0  0  0  0  0  0  0  0  0  0
   -7.9615  -10.5956    0.0000 C   0  0  0  0  0  0  0  0  0  0  0  0
   -7.3514   -9.2253    0.0000 C   0  0  0  0  0  0  0  0  0  0  0  0
   -8.2331   -8.0117    0.0000 C   0  0  0  0  0  0  0  0  0  0  0  0
   -7.6230   -6.6414    0.0000 C   0  0  0  0  0  0  0  0  0  0  0  0
   -6.1312   -6.4846    0.0000 C   0  0  0  0  0  0  0  0  0  0  0  0
   -5.5211   -5.1143    0.0000 C   0  0  0  0  0  0  0  0  0  0  0  0
   -6.2711   -3.8153    0.0000 C   0  0  0  0  0  0  0  0  0  0  0  0
   -5.2674   -2.7006    0.0000 N   0  0  0  0  0  0  0  0  0  0  0  0
   -3.8971   -3.3107    0.0000 C   0  0  0  0  0  0  0  0  0  0  0  0
   -2.5981   -2.5607    0.0000 N   0  0  0  0  0  0  0  0  0  0  0  0
   -1.2990   -3.3107    0.0000 C   0  0  0  0  0  0  0  0  0  0  0  0
   -0.0000   -2.5607    0.0000 O   0  0  0  0  0  0  0  0  0  0  0  0
   -0.0000   -1.0607    0.0000 C   0  0  0  0  0  0  0  0  0  0  0  0
    1.0607    0.0000    0.0000 C   0  0  0  0  0  0  0  0  0  0  0  0
    0.0000    1.0607    0.0000 C   0  0  0  0  0  0  0  0  0  0  0  0
   -1.0607    0.0000    0.0000 C   0  0  0  0  0  0  0  0  0  0  0  0
    0.0181   -0.1126    0.0000 N   0  0  0  0  0  0  0  0  0  0  0  0
    2.6401    1.4788    0.0000 C   0  0  0  0  0  0  0  0  0  0  0  0
    2.4833    2.9706    0.0000 C   0  0  0  0  0  0  0  0  0  0  0  0
    1.1843    3.7206    0.0000 N   0  0  0  0  0  0  0  0  0  0  0  0
    1.4961    5.1878    0.0000 C   0  0  0  0  0  0  0  0  0  0  0  0
    0.4925    6.3025    0.0000 C   0  0  0  0  0  0  0  0  0  0  0  0
    2.9879    5.3446    0.0000 N   0  0  0  0  0  0  0  0  0  0  0  0
    3.5980    3.9743    0.0000 N   0  0  0  0  0  0  0  0  0  0  0  0
   -0.0159    0.0570    0.0000 C   0  0  0  0  0  0  0  0  0  0  0  0
   -1.2990   -4.8107    0.0000 C   0  0  0  0  0  0  0  0  0  0  0  0
   -2.5981   -5.5607    0.0000 C   0  0  0  0  0  0  0  0  0  0  0  0
   -2.5981   -7.0607    0.0000 C   0  0  0  0  0  0  0  0  0  0  0  0
   -1.2990   -7.8107    0.0000 C   0  0  0  0  0  0  0  0  0  0  0  0
    0.0000   -7.0607    0.0000 C   0  0  0  0  0  0  0  0  0  0  0  0
    0.0000   -5.5607    0.0000 C   0  0  0  0  0  0  0  0  0  0  0  0
   -4.0539   -4.8024    0.0000 N   0  0  0  0  0  0  0  0  0  0  0  0
   -5.2496   -7.6982    0.0000 C   0  0  0  0  0  0  0  0  0  0  0  0
   -5.8597   -9.0685    0.0000 C   0  0  0  0  0  0  0  0  0  0  0  0
  1  2  1  0
  2  3  1  0
  3  4  2  0
  4  5  1  0
  5  6  2  0
  6  7  1  0
  7  8  2  0
  8  9  1  0
  9 10  1  0
 10 11  1  0
 11 12  1  0
 12 13  1  0
 13 14  1  0
 14 15  1  0
 15 16  1  0
 16 17  1  0
 16 18  1  0
 18 19  1  0
 19 20  1  0
 20 21  2  0
 21 22  1  0
 22 23  1  0
 22 24  2  0
 24 25  1  0
 18 26  1  0
 12 27  1  0
 27 28  2  0
 28 29  1  0
 29 30  2  0
 30 31  1  0
 31 32  2  0
 10 33  2  0
  6 34  1  0
 34 35  2  0
 35  3  1  0
 33  7  1  0
 17 14  1  0
 25 20  1  0
 32 27  1  0
 26 14  1  0
M  END
$$$$
