Cc1cccnc1C[NH2+]Cc1c[nH]nc1-c1ccc(SC=CI)cc1
     RDKit          3D

 45 47  0  0  0  0  0  0  0  0999 V2000
  130.3091  131.6705  156.2525 C   0  0  0  0  0  0  0  0  0  0  0  0
  130.7439  131.2576  157.6351 C   0  0  0  0  0  0  0  0  0  0  0  0
  130.6663  129.9301  158.0284 C   0  0  0  0  0  0  0  0  0  0  0  0
  131.0726  129.5973  159.3114 C   0  0  0  0  0  0  0  0  0  0  0  0
  131.5430  130.5918  160.1481 C   0  0  0  0  0  0  0  0  0  0  0  0
  131.6076  131.8434  159.7386 N   0  0  0  0  0  0  0  0  0  0  0  0
  131.2297  132.1964  158.5252 C   0  0  0  0  0  0  0  0  0  0  0  0
  131.3233  133.6411  158.1067 C   0  0  0  0  0  0  0  0  0  0  0  0
  130.0694  134.3298  158.4405 N   0  0  0  0  0  0  0  0  0  0  0  0
  129.3033  133.8878  157.9548 H   0  0  0  0  0  0  0  0  0  0  0  0
  130.1320  135.2971  158.1603 H   0  0  0  0  0  0  0  0  0  0  0  0
  129.8396  134.2535  159.8894 C   0  0  0  0  0  0  0  0  0  0  0  0
  128.5533  134.9600  160.2318 C   0  0  0  0  0  0  0  0  0  0  0  0
  127.3260  134.3979  160.2825 C   0  0  0  0  0  0  0  0  0  0  0  0
  126.4406  135.3596  160.6211 N   0  0  0  0  0  0  0  0  0  0  0  0
  125.4840  135.2402  160.7287 H   0  0  0  0  0  0  0  0  0  0  0  0
  127.1440  136.5582  160.7959 N   0  0  0  0  0  0  0  0  0  0  0  0
  128.4180  136.3227  160.5624 C   0  0  0  0  0  0  0  0  0  0  0  0
  129.5171  137.3168  160.6350 C   0  0  0  0  0  0  0  0  0  0  0  0
  130.1944  137.5219  161.8360 C   0  0  0  0  0  0  0  0  0  0  0  0
  131.2187  138.4419  161.9002 C   0  0  0  0  0  0  0  0  0  0  0  0
  131.5691  139.1738  160.7707 C   0  0  0  0  0  0  0  0  0  0  0  0
  132.8740  140.3545  160.8570 S   0  0  0  0  0  0  0  0  0  0  0  0
  134.2628  139.3770  161.3264 C   0  0  0  0  0  0  0  0  0  0  0  0
  135.4453  139.9442  161.4886 C   0  0  0  0  0  0  0  0  0  0  0  0
  137.0965  138.7820  162.0467 I   0  0  0  0  0  0  0  0  0  0  0  0
  130.8911  138.9742  159.5729 C   0  0  0  0  0  0  0  0  0  0  0  0
  129.8700  138.0508  159.5036 C   0  0  0  0  0  0  0  0  0  0  0  0
  131.1573  131.6071  155.5708 H   0  0  0  0  0  0  0  0  0  0  0  0
  129.5157  131.0073  155.9080 H   0  0  0  0  0  0  0  0  0  0  0  0
  129.9399  132.6958  156.2787 H   0  0  0  0  0  0  0  0  0  0  0  0
  130.2941  129.1743  157.3528 H   0  0  0  0  0  0  0  0  0  0  0  0
  131.0218  128.5740  159.6528 H   0  0  0  0  0  0  0  0  0  0  0  0
  131.8618  130.3406  161.1490 H   0  0  0  0  0  0  0  0  0  0  0  0
  131.4937  133.6974  157.0315 H   0  0  0  0  0  0  0  0  0  0  0  0
  132.1509  134.1184  158.6313 H   0  0  0  0  0  0  0  0  0  0  0  0
  130.6671  134.7309  160.4142 H   0  0  0  0  0  0  0  0  0  0  0  0
  129.7718  133.2085  160.1921 H   0  0  0  0  0  0  0  0  0  0  0  0
  127.0935  133.3620  160.0844 H   0  0  0  0  0  0  0  0  0  0  0  0
  129.9196  136.9570  162.7146 H   0  0  0  0  0  0  0  0  0  0  0  0
  131.7464  138.5982  162.8295 H   0  0  0  0  0  0  0  0  0  0  0  0
  134.1477  138.3143  161.4802 H   0  0  0  0  0  0  0  0  0  0  0  0
  135.5602  141.0068  161.3352 H   0  0  0  0  0  0  0  0  0  0  0  0
  131.1645  139.5432  158.6967 H   0  0  0  0  0  0  0  0  0  0  0  0
  129.3440  137.8959  158.5732 H   0  0  0  0  0  0  0  0  0  0  0  0
  1  2  1  0
  1 29  1  0
  1 30  1  0
  1 31  1  0
  2  7  2  0
  2  3  1  0
  3  4  2  0
  3 32  1  0
  4  5  1  0
  4 33  1  0
  5  6  2  0
  5 34  1  0
  6  7  1  0
  7  8  1  0
  8  9  1  0
  8 35  1  0
  8 36  1  0
  9 10  1  0
  9 11  1  0
  9 12  1  0
 12 13  1  0
 12 37  1  0
 12 38  1  0
 13 18  1  0
 13 14  2  0
 14 15  1  0
 14 39  1  0
 15 16  1  0
 15 17  1  0
 17 18  2  0
 18 19  1  0
 19 28  1  0
 19 20  2  0
 20 21  1  0
 20 40  1  0
 21 22  2  0
 21 41  1  0
 22 23  1  0
 22 27  1  0
 23 24  1  0
 24 25  2  0
 24 42  1  0
 25 26  1  0
 25 43  1  0
 27 28  2  0
 27 44  1  0
 28 45  1  0
M  CHG  1   9   1
M  END
>  <DOCK_score>  (1) 
-43.307526

>  <SMILES>  (1) 
Cc1cccnc1C[NH2+]Cc1c[nH]nc1-c1ccc(SC=CI)cc1

$$$$
