
     RDKit          2D

 26 30  0  0  0  0  0  0  0  0999 V2000
  -16.7728   -3.2702    0.0000 O   0  0  0  0  0  0  0  0  0  0  0  0
  -15.5593   -4.1519    0.0000 C   0  0  0  0  0  0  0  0  0  0  0  0
  -14.1890   -3.5418    0.0000 C   0  0  0  0  0  0  0  0  0  0  0  0
  -13.6514   -2.1414    0.0000 C   0  0  0  0  0  0  0  0  0  0  0  0
  -12.2510   -2.6790    0.0000 C   0  0  0  0  0  0  0  0  0  0  0  0
  -10.8807   -2.0689    0.0000 N   0  0  0  0  0  0  0  0  0  0  0  0
  -10.7239   -0.5771    0.0000 C   0  0  0  0  0  0  0  0  0  0  0  0
  -11.8386    0.4266    0.0000 C   0  0  0  0  0  0  0  0  0  0  0  0
  -11.2285    1.7969    0.0000 C   0  0  0  0  0  0  0  0  0  0  0  0
   -9.7368    1.6402    0.0000 C   0  0  0  0  0  0  0  0  0  0  0  0
   -8.7331    2.7549    0.0000 C   0  0  0  0  0  0  0  0  0  0  0  0
   -9.0449    4.2221    0.0000 N   0  0  0  0  0  0  0  0  0  0  0  0
   -7.7459    4.9721    0.0000 N   0  0  0  0  0  0  0  0  0  0  0  0
   -6.6312    3.9684    0.0000 C   0  0  0  0  0  0  0  0  0  0  0  0
   -7.2413    2.5981    0.0000 C   0  0  0  0  0  0  0  0  0  0  0  0
   -6.4913    1.2990    0.0000 C   0  0  0  0  0  0  0  0  0  0  0  0
   -4.9913    1.2990    0.0000 N   0  0  0  0  0  0  0  0  0  0  0  0
   -4.2413    0.0000    0.0000 C   0  0  0  0  0  0  0  0  0  0  0  0
   -2.7413    0.0000    0.0000 C   0  0  0  0  0  0  0  0  0  0  0  0
   -1.8596    1.2135    0.0000 C   0  0  0  0  0  0  0  0  0  0  0  0
   -0.4330    0.7500    0.0000 C   0  0  0  0  0  0  0  0  0  0  0  0
    0.8660    0.0000    0.0000 C   0  0  0  0  0  0  0  0  0  0  0  0
   -0.4330   -0.7500    0.0000 C   0  0  0  0  0  0  0  0  0  0  0  0
   -1.8596   -1.2135    0.0000 C   0  0  0  0  0  0  0  0  0  0  0  0
   -9.4249    0.1729    0.0000 O   0  0  0  0  0  0  0  0  0  0  0  0
  -12.7886   -4.0793    0.0000 C   0  0  0  0  0  0  0  0  0  0  0  0
  1  2  1  0
  3  2  1  1
  3  4  1  0
  4  5  1  0
  5  6  1  1
  6  7  1  0
  7  8  2  0
  8  9  1  0
  9 10  2  0
 10 11  1  0
 11 12  2  0
 12 13  1  0
 13 14  1  0
 14 15  2  0
 15 16  1  0
 16 17  1  0
 17 18  1  0
 18 19  1  0
 19 20  1  0
 20 21  1  0
 21 22  1  0
 22 23  1  0
 23 24  1  0
 10 25  1  0
  5 26  1  0
 26  3  1  0
 25  7  1  0
 15 11  1  0
 24 19  1  0
 23 21  1  0
M  END
$$$$
