CCc1ccc(-c2c[nH]c(N[C@H](C)c3c(O)cc(Sc4ccccc4)cc3O)[nH+]2)cc1
     RDKit          3D

 57 60  0  0  1  0  0  0  0  0999 V2000
  130.4935  128.5210  152.0299 C   0  0  0  0  0  0  0  0  0  0  0  0
  131.5278  129.6222  152.2708 C   0  0  0  0  0  0  0  0  0  0  0  0
  131.1438  130.4132  153.4946 C   0  0  0  0  0  0  0  0  0  0  0  0
  131.6073  130.0260  154.7385 C   0  0  0  0  0  0  0  0  0  0  0  0
  131.2636  130.7498  155.8621 C   0  0  0  0  0  0  0  0  0  0  0  0
  130.4383  131.8666  155.7428 C   0  0  0  0  0  0  0  0  0  0  0  0
  130.0609  132.6454  156.9475 C   0  0  0  0  0  0  0  0  0  0  0  0
  129.3937  132.1703  158.0283 C   0  0  0  0  0  0  0  0  0  0  0  0
  129.2546  133.2195  158.9039 N   0  0  0  0  0  0  0  0  0  0  0  0
  128.8184  133.1912  159.7699 H   0  0  0  0  0  0  0  0  0  0  0  0
  129.8415  134.3062  158.3322 C   0  0  0  0  0  0  0  0  0  0  0  0
  129.9181  135.5697  158.8927 N   0  0  0  0  0  0  0  0  0  0  0  0
  129.3358  135.8217  160.2132 C   0  0  2  0  0  0  0  0  0  0  0  0
  129.5348  134.9720  160.8662 H   0  0  0  0  0  0  0  0  0  0  0  0
  127.8245  136.0162  160.0755 C   0  0  0  0  0  0  0  0  0  0  0  0
  129.9504  137.0642  160.8044 C   0  0  0  0  0  0  0  0  0  0  0  0
  130.0748  137.1886  162.1803 C   0  0  0  0  0  0  0  0  0  0  0  0
  129.6425  136.1900  162.9944 O   0  0  0  0  0  0  0  0  0  0  0  0
  130.6443  138.3291  162.7249 C   0  0  0  0  0  0  0  0  0  0  0  0
  131.0809  139.3520  161.8927 C   0  0  0  0  0  0  0  0  0  0  0  0
  131.7985  140.8052  162.5840 S   0  0  0  0  0  0  0  0  0  0  0  0
  133.5124  140.4039  162.6589 C   0  0  0  0  0  0  0  0  0  0  0  0
  133.9408  139.3153  163.4089 C   0  0  0  0  0  0  0  0  0  0  0  0
  135.2844  139.0006  163.4610 C   0  0  0  0  0  0  0  0  0  0  0  0
  136.2044  139.7738  162.7767 C   0  0  0  0  0  0  0  0  0  0  0  0
  135.7822  140.8613  162.0333 C   0  0  0  0  0  0  0  0  0  0  0  0
  134.4398  141.1787  161.9725 C   0  0  0  0  0  0  0  0  0  0  0  0
  130.9510  139.2288  160.5152 C   0  0  0  0  0  0  0  0  0  0  0  0
  130.3859  138.0852  159.9724 C   0  0  0  0  0  0  0  0  0  0  0  0
  130.2582  137.9645  158.6249 O   0  0  0  0  0  0  0  0  0  0  0  0
  130.3273  133.9578  157.1657 N   0  0  0  0  0  0  0  0  0  0  0  0
  130.7996  134.5450  156.5550 H   0  0  0  0  0  0  0  0  0  0  0  0
  129.9694  132.2493  154.4872 C   0  0  0  0  0  0  0  0  0  0  0  0
  130.3243  131.5213  153.3699 C   0  0  0  0  0  0  0  0  0  0  0  0
  130.7712  127.9489  151.1446 H   0  0  0  0  0  0  0  0  0  0  0  0
  130.4606  127.8586  152.8949 H   0  0  0  0  0  0  0  0  0  0  0  0
  129.5120  128.9705  151.8789 H   0  0  0  0  0  0  0  0  0  0  0  0
  132.5090  129.1732  152.4213 H   0  0  0  0  0  0  0  0  0  0  0  0
  131.5605  130.2851  151.4052 H   0  0  0  0  0  0  0  0  0  0  0  0
  132.2429  129.1576  154.8303 H   0  0  0  0  0  0  0  0  0  0  0  0
  131.6300  130.4491  156.8325 H   0  0  0  0  0  0  0  0  0  0  0  0
  129.0392  131.1604  158.1727 H   0  0  0  0  0  0  0  0  0  0  0  0
  130.3574  136.2881  158.4113 H   0  0  0  0  0  0  0  0  0  0  0  0
  127.3912  136.2038  161.0580 H   0  0  0  0  0  0  0  0  0  0  0  0
  127.6256  136.8659  159.4225 H   0  0  0  0  0  0  0  0  0  0  0  0
  127.3800  135.1176  159.6478 H   0  0  0  0  0  0  0  0  0  0  0  0
  129.7711  136.3671  163.9362 H   0  0  0  0  0  0  0  0  0  0  0  0
  130.7448  138.4239  163.7959 H   0  0  0  0  0  0  0  0  0  0  0  0
  133.2236  138.7140  163.9474 H   0  0  0  0  0  0  0  0  0  0  0  0
  135.6176  138.1524  164.0403 H   0  0  0  0  0  0  0  0  0  0  0  0
  137.2551  139.5279  162.8225 H   0  0  0  0  0  0  0  0  0  0  0  0
  136.5034  141.4627  161.4998 H   0  0  0  0  0  0  0  0  0  0  0  0
  134.1109  142.0283  161.3925 H   0  0  0  0  0  0  0  0  0  0  0  0
  131.2897  140.0237  159.8673 H   0  0  0  0  0  0  0  0  0  0  0  0
  130.5895  138.7255  158.1286 H   0  0  0  0  0  0  0  0  0  0  0  0
  129.3294  133.1135  154.3892 H   0  0  0  0  0  0  0  0  0  0  0  0
  129.9618  131.8170  152.3965 H   0  0  0  0  0  0  0  0  0  0  0  0
  1  2  1  0
  1 35  1  0
  1 36  1  0
  1 37  1  0
  2  3  1  0
  2 38  1  0
  2 39  1  0
  3 34  2  0
  3  4  1  0
  4  5  2  0
  4 40  1  0
  5  6  1  0
  5 41  1  0
  6  7  1  0
  6 33  2  0
  7 31  1  0
  7  8  2  0
  8  9  1  0
  8 42  1  0
  9 10  1  0
  9 11  1  0
 11 12  1  0
 11 31  2  0
 12 13  1  0
 12 43  1  0
 13 14  1  1
 13 15  1  0
 13 16  1  0
 15 44  1  0
 15 45  1  0
 15 46  1  0
 16 29  1  0
 16 17  2  0
 17 18  1  0
 17 19  1  0
 18 47  1  0
 19 20  2  0
 19 48  1  0
 20 21  1  0
 20 28  1  0
 21 22  1  0
 22 27  1  0
 22 23  2  0
 23 24  1  0
 23 49  1  0
 24 25  2  0
 24 50  1  0
 25 26  1  0
 25 51  1  0
 26 27  2  0
 26 52  1  0
 27 53  1  0
 28 29  2  0
 28 54  1  0
 29 30  1  0
 30 55  1  0
 31 32  1  0
 33 34  1  0
 33 56  1  0
 34 57  1  0
M  CHG  1  31   1
M  END
>  <DOCK_score>  (1) 
-55.918179

>  <SMILES>  (1) 
CCc1ccc(-c2c[nH]c(N[C@H](C)c3c(O)cc(Sc4ccccc4)cc3O)[nH+]2)cc1

$$$$
