Nc1ccc(CC[C@@H](Nc2[nH]cc(-c3ccc(N)cc3)[nH+]2)c2ccccc2)cc1
     RDKit          3D

 55 58  0  0  1  0  0  0  0  0999 V2000
  125.3129  131.6218  161.1750 N   0  0  0  0  0  0  0  0  0  0  0  0
  126.0407  132.7560  160.8083 C   0  0  0  0  0  0  0  0  0  0  0  0
  126.0520  133.1782  159.4849 C   0  0  0  0  0  0  0  0  0  0  0  0
  126.7688  134.3030  159.1268 C   0  0  0  0  0  0  0  0  0  0  0  0
  127.4836  135.0026  160.0817 C   0  0  0  0  0  0  0  0  0  0  0  0
  128.2691  136.2264  159.6862 C   0  0  0  0  0  0  0  0  0  0  0  0
  129.4819  136.3736  160.6070 C   0  0  0  0  0  0  0  0  0  0  0  0
  130.3708  135.1347  160.4818 C   0  0  1  0  0  0  0  0  0  0  0  0
  129.8028  134.2495  160.7679 H   0  0  0  0  0  0  0  0  0  0  0  0
  130.8241  134.9970  159.0955 N   0  0  0  0  0  0  0  0  0  0  0  0
  130.5066  133.8593  158.3731 C   0  0  0  0  0  0  0  0  0  0  0  0
  129.7784  132.8060  158.8332 N   0  0  0  0  0  0  0  0  0  0  0  0
  129.3919  132.7175  159.7185 H   0  0  0  0  0  0  0  0  0  0  0  0
  129.6922  131.8901  157.8115 C   0  0  0  0  0  0  0  0  0  0  0  0
  130.3697  132.4106  156.7587 C   0  0  0  0  0  0  0  0  0  0  0  0
  130.5463  131.7708  155.4318 C   0  0  0  0  0  0  0  0  0  0  0  0
  130.0683  132.4009  154.2840 C   0  0  0  0  0  0  0  0  0  0  0  0
  130.2383  131.8069  153.0512 C   0  0  0  0  0  0  0  0  0  0  0  0
  130.8752  130.5759  152.9536 C   0  0  0  0  0  0  0  0  0  0  0  0
  131.0410  129.9735  151.7042 N   0  0  0  0  0  0  0  0  0  0  0  0
  131.3479  129.9429  154.0975 C   0  0  0  0  0  0  0  0  0  0  0  0
  131.1853  130.5359  155.3318 C   0  0  0  0  0  0  0  0  0  0  0  0
  130.8533  133.6219  157.1315 N   0  0  0  0  0  0  0  0  0  0  0  0
  131.3745  134.2166  156.5697 H   0  0  0  0  0  0  0  0  0  0  0  0
  131.5655  135.2798  161.3888 C   0  0  0  0  0  0  0  0  0  0  0  0
  132.7243  135.8677  160.9169 C   0  0  0  0  0  0  0  0  0  0  0  0
  133.8188  136.0044  161.7500 C   0  0  0  0  0  0  0  0  0  0  0  0
  133.7572  135.5460  163.0529 C   0  0  0  0  0  0  0  0  0  0  0  0
  132.6005  134.9531  163.5229 C   0  0  0  0  0  0  0  0  0  0  0  0
  131.5047  134.8199  162.6910 C   0  0  0  0  0  0  0  0  0  0  0  0
  127.4788  134.5819  161.3991 C   0  0  0  0  0  0  0  0  0  0  0  0
  126.7597  133.4611  161.7651 C   0  0  0  0  0  0  0  0  0  0  0  0
  125.3089  131.3255  162.0986 H   0  0  0  0  0  0  0  0  0  0  0  0
  124.8079  131.1324  160.5066 H   0  0  0  0  0  0  0  0  0  0  0  0
  125.4976  132.6297  158.7378 H   0  0  0  0  0  0  0  0  0  0  0  0
  126.7747  134.6342  158.0988 H   0  0  0  0  0  0  0  0  0  0  0  0
  128.6063  136.1239  158.6547 H   0  0  0  0  0  0  0  0  0  0  0  0
  127.6358  137.1091  159.7753 H   0  0  0  0  0  0  0  0  0  0  0  0
  130.0499  137.2589  160.3209 H   0  0  0  0  0  0  0  0  0  0  0  0
  129.1447  136.4761  161.6385 H   0  0  0  0  0  0  0  0  0  0  0  0
  131.3466  135.7030  158.6836 H   0  0  0  0  0  0  0  0  0  0  0  0
  129.1825  130.9384  157.8419 H   0  0  0  0  0  0  0  0  0  0  0  0
  129.5689  133.3555  154.3596 H   0  0  0  0  0  0  0  0  0  0  0  0
  129.8721  132.2968  152.1611 H   0  0  0  0  0  0  0  0  0  0  0  0
  131.4859  129.1137  151.6357 H   0  0  0  0  0  0  0  0  0  0  0  0
  130.7116  130.4137  150.9058 H   0  0  0  0  0  0  0  0  0  0  0  0
  131.8426  128.9861  154.0197 H   0  0  0  0  0  0  0  0  0  0  0  0
  131.5530  130.0442  156.2202 H   0  0  0  0  0  0  0  0  0  0  0  0
  132.7733  136.2229  159.8982 H   0  0  0  0  0  0  0  0  0  0  0  0
  134.7228  136.4670  161.3825 H   0  0  0  0  0  0  0  0  0  0  0  0
  134.6136  135.6500  163.7026 H   0  0  0  0  0  0  0  0  0  0  0  0
  132.5527  134.5945  164.5406 H   0  0  0  0  0  0  0  0  0  0  0  0
  130.6008  134.3569  163.0584 H   0  0  0  0  0  0  0  0  0  0  0  0
  128.0383  135.1303  162.1424 H   0  0  0  0  0  0  0  0  0  0  0  0
  126.7567  133.1330  162.7941 H   0  0  0  0  0  0  0  0  0  0  0  0
  1  2  1  0
  1 33  1  0
  1 34  1  0
  2 32  2  0
  2  3  1  0
  3  4  2  0
  3 35  1  0
  4  5  1  0
  4 36  1  0
  5  6  1  0
  5 31  2  0
  6  7  1  0
  6 37  1  0
  6 38  1  0
  7  8  1  0
  7 39  1  0
  7 40  1  0
  8  9  1  1
  8 10  1  0
  8 25  1  0
 10 41  1  0
 11 10  1  0
 11 23  2  0
 11 12  1  0
 12 13  1  0
 12 14  1  0
 14 15  2  0
 14 42  1  0
 15 16  1  0
 15 23  1  0
 16 22  1  0
 16 17  2  0
 17 18  1  0
 17 43  1  0
 18 19  2  0
 18 44  1  0
 19 20  1  0
 19 21  1  0
 20 45  1  0
 20 46  1  0
 21 22  2  0
 21 47  1  0
 22 48  1  0
 23 24  1  0
 25 30  1  0
 25 26  2  0
 26 27  1  0
 26 49  1  0
 27 28  2  0
 27 50  1  0
 28 29  1  0
 28 51  1  0
 29 30  2  0
 29 52  1  0
 30 53  1  0
 31 32  1  0
 31 54  1  0
 32 55  1  0
M  CHG  1  23   1
M  END
>  <DOCK_score>  (1) 
-60.070988

>  <SMILES>  (1) 
Nc1ccc(CC[C@@H](Nc2[nH]cc(-c3ccc(N)cc3)[nH+]2)c2ccccc2)cc1

$$$$
