O=C(NCC1(c2cccc3ccccc23)CC1)c1c[nH]nc1[C@H]1CCC[NH2+]C1
     RDKit          3D

 55 59  0  0  1  0  0  0  0  0999 V2000
  130.6626  138.3022  160.4132 O   0  0  0  0  0  0  0  0  0  0  0  0
  129.9186  138.1466  161.3624 C   0  0  0  0  0  0  0  0  0  0  0  0
  130.1513  138.8037  162.5159 N   0  0  0  0  0  0  0  0  0  0  0  0
  131.3004  139.7056  162.6261 C   0  0  0  0  0  0  0  0  0  0  0  0
  132.5170  138.9230  163.1246 C   0  0  0  0  0  0  0  0  0  0  0  0
  133.7451  139.7467  163.4154 C   0  0  0  0  0  0  0  0  0  0  0  0
  133.9417  140.2668  164.6579 C   0  0  0  0  0  0  0  0  0  0  0  0
  135.0702  141.0318  164.9451 C   0  0  0  0  0  0  0  0  0  0  0  0
  136.0097  141.2803  163.9918 C   0  0  0  0  0  0  0  0  0  0  0  0
  135.8415  140.7597  162.6977 C   0  0  0  0  0  0  0  0  0  0  0  0
  136.7892  140.9955  161.6870 C   0  0  0  0  0  0  0  0  0  0  0  0
  136.5925  140.4755  160.4448 C   0  0  0  0  0  0  0  0  0  0  0  0
  135.4627  139.7114  160.1572 C   0  0  0  0  0  0  0  0  0  0  0  0
  134.5240  139.4624  161.1105 C   0  0  0  0  0  0  0  0  0  0  0  0
  134.6929  139.9823  162.4053 C   0  0  0  0  0  0  0  0  0  0  0  0
  132.2581  137.7033  164.0112 C   0  0  0  0  0  0  0  0  0  0  0  0
  132.7273  137.5137  162.5673 C   0  0  0  0  0  0  0  0  0  0  0  0
  128.7619  137.2392  161.2513 C   0  0  0  0  0  0  0  0  0  0  0  0
  127.5586  137.3601  161.9169 C   0  0  0  0  0  0  0  0  0  0  0  0
  126.7828  136.3333  161.5346 N   0  0  0  0  0  0  0  0  0  0  0  0
  125.8790  136.1609  161.8415 H   0  0  0  0  0  0  0  0  0  0  0  0
  127.4982  135.5535  160.6190 N   0  0  0  0  0  0  0  0  0  0  0  0
  128.6752  136.0863  160.4390 C   0  0  0  0  0  0  0  0  0  0  0  0
  129.7545  135.5624  159.5272 C   0  0  1  0  0  0  0  0  0  0  0  0
  130.3588  136.3934  159.1635 H   0  0  0  0  0  0  0  0  0  0  0  0
  130.6438  134.5822  160.2978 C   0  0  0  0  0  0  0  0  0  0  0  0
  131.6880  133.9966  159.3428 C   0  0  0  0  0  0  0  0  0  0  0  0
  130.9760  133.3300  158.1638 C   0  0  0  0  0  0  0  0  0  0  0  0
  130.1634  134.3241  157.4526 N   0  0  0  0  0  0  0  0  0  0  0  0
  130.7524  135.0867  157.1535 H   0  0  0  0  0  0  0  0  0  0  0  0
  129.7370  133.8935  156.6459 H   0  0  0  0  0  0  0  0  0  0  0  0
  129.1142  134.8376  158.3413 C   0  0  0  0  0  0  0  0  0  0  0  0
  129.5578  138.6797  163.2730 H   0  0  0  0  0  0  0  0  0  0  0  0
  131.0689  140.5047  163.3304 H   0  0  0  0  0  0  0  0  0  0  0  0
  131.5202  140.1352  161.6488 H   0  0  0  0  0  0  0  0  0  0  0  0
  133.2117  140.0840  165.4327 H   0  0  0  0  0  0  0  0  0  0  0  0
  135.2019  141.4332  165.9390 H   0  0  0  0  0  0  0  0  0  0  0  0
  136.8820  141.8706  164.2303 H   0  0  0  0  0  0  0  0  0  0  0  0
  137.6691  141.5863  161.8950 H   0  0  0  0  0  0  0  0  0  0  0  0
  137.3225  140.6580  159.6701 H   0  0  0  0  0  0  0  0  0  0  0  0
  135.3306  139.3108  159.1630 H   0  0  0  0  0  0  0  0  0  0  0  0
  133.6540  138.8679  160.8734 H   0  0  0  0  0  0  0  0  0  0  0  0
  132.9761  137.4966  164.8049 H   0  0  0  0  0  0  0  0  0  0  0  0
  131.2209  137.4583  164.2397 H   0  0  0  0  0  0  0  0  0  0  0  0
  131.9986  137.1440  161.8459 H   0  0  0  0  0  0  0  0  0  0  0  0
  133.7537  137.1825  162.4107 H   0  0  0  0  0  0  0  0  0  0  0  0
  127.2904  138.1382  162.6163 H   0  0  0  0  0  0  0  0  0  0  0  0
  131.1464  135.1072  161.1100 H   0  0  0  0  0  0  0  0  0  0  0  0
  130.0312  133.7788  160.7070 H   0  0  0  0  0  0  0  0  0  0  0  0
  132.3327  134.7948  158.9745 H   0  0  0  0  0  0  0  0  0  0  0  0
  132.2899  133.2570  159.8708 H   0  0  0  0  0  0  0  0  0  0  0  0
  131.7166  132.9119  157.4820 H   0  0  0  0  0  0  0  0  0  0  0  0
  130.3315  132.5323  158.5331 H   0  0  0  0  0  0  0  0  0  0  0  0
  128.5097  134.0074  158.7069 H   0  0  0  0  0  0  0  0  0  0  0  0
  128.4802  135.5326  157.7907 H   0  0  0  0  0  0  0  0  0  0  0  0
  1  2  2  0
  2  3  1  0
  2 18  1  0
  3  4  1  0
  3 33  1  0
  4  5  1  0
  4 34  1  0
  4 35  1  0
  5 17  1  0
  5  6  1  0
  5 16  1  0
  6 15  1  0
  6  7  2  0
  7  8  1  0
  7 36  1  0
  8  9  2  0
  8 37  1  0
  9 10  1  0
  9 38  1  0
 10 15  2  0
 10 11  1  0
 11 12  2  0
 11 39  1  0
 12 13  1  0
 12 40  1  0
 13 14  2  0
 13 41  1  0
 14 15  1  0
 14 42  1  0
 16 17  1  0
 16 43  1  0
 16 44  1  0
 17 45  1  0
 17 46  1  0
 18 23  1  0
 18 19  2  0
 19 20  1  0
 19 47  1  0
 20 21  1  0
 20 22  1  0
 22 23  2  0
 23 24  1  0
 24 25  1  6
 24 32  1  0
 24 26  1  0
 26 27  1  0
 26 48  1  0
 26 49  1  0
 27 28  1  0
 27 50  1  0
 27 51  1  0
 28 29  1  0
 28 52  1  0
 28 53  1  0
 29 30  1  0
 29 31  1  0
 29 32  1  0
 32 54  1  0
 32 55  1  0
M  CHG  1  29   1
M  END
>  <DOCK_score>  (1) 
-41.572872

>  <SMILES>  (1) 
O=C(NCC1(c2cccc3ccccc23)CC1)c1c[nH]nc1[C@H]1CCC[NH2+]C1

$$$$
