O[C@H]1C[C@@H]([NH+]=C(NC2CC=C(C(c3ccccc3)c3ccccc3)C2)N[C@H]2CC=CCC2)C1
     RDKit          3D

 69 73  0  0  1  0  0  0  0  0999 V2000
  123.8722  134.9775  161.4230 O   0  0  0  0  0  0  0  0  0  0  0  0
  125.2165  134.8104  161.8776 C   0  0  1  0  0  0  0  0  0  0  0  0
  125.3194  134.9475  162.9540 H   0  0  0  0  0  0  0  0  0  0  0  0
  125.8924  133.5330  161.3519 C   0  0  0  0  0  0  0  0  0  0  0  0
  127.1678  134.3742  161.1767 C   0  0  1  0  0  0  0  0  0  0  0  0
  127.8051  134.3926  162.0607 H   0  0  0  0  0  0  0  0  0  0  0  0
  127.9069  134.0705  159.9487 N   0  0  0  0  0  0  0  0  0  0  0  0
  127.5765  133.3925  159.3389 H   0  0  0  0  0  0  0  0  0  0  0  0
  129.0085  134.7117  159.6757 C   0  0  0  0  0  0  0  0  0  0  0  0
  129.4766  135.6729  160.5401 N   0  0  0  0  0  0  0  0  0  0  0  0
  130.7146  136.3936  160.2334 C   0  0  2  0  0  0  0  0  0  0  0  0
  131.9388  135.4521  160.3116 C   0  0  0  0  0  0  0  0  0  0  0  0
  133.0383  136.3017  160.9071 C   0  0  0  0  0  0  0  0  0  0  0  0
  132.5520  137.3756  161.4671 C   0  0  0  0  0  0  0  0  0  0  0  0
  133.3822  138.4314  162.1505 C   0  0  0  0  0  0  0  0  0  0  0  0
  134.3569  139.0208  161.1639 C   0  0  0  0  0  0  0  0  0  0  0  0
  135.5744  139.5079  161.6017 C   0  0  0  0  0  0  0  0  0  0  0  0
  136.4702  140.0445  160.6959 C   0  0  0  0  0  0  0  0  0  0  0  0
  136.1450  140.1023  159.3537 C   0  0  0  0  0  0  0  0  0  0  0  0
  134.9255  139.6200  158.9165 C   0  0  0  0  0  0  0  0  0  0  0  0
  134.0314  139.0794  159.8217 C   0  0  0  0  0  0  0  0  0  0  0  0
  132.4799  139.5181  162.6756 C   0  0  0  0  0  0  0  0  0  0  0  0
  132.1761  140.6080  161.8814 C   0  0  0  0  0  0  0  0  0  0  0  0
  131.3447  141.6027  162.3616 C   0  0  0  0  0  0  0  0  0  0  0  0
  130.8247  141.5121  163.6390 C   0  0  0  0  0  0  0  0  0  0  0  0
  131.1329  140.4249  164.4352 C   0  0  0  0  0  0  0  0  0  0  0  0
  131.9607  139.4280  163.9535 C   0  0  0  0  0  0  0  0  0  0  0  0
  131.0470  137.4218  161.3394 C   0  0  0  0  0  0  0  0  0  0  0  0
  129.7022  134.4269  158.5234 N   0  0  0  0  0  0  0  0  0  0  0  0
  129.6533  133.0782  157.9535 C   0  0  1  0  0  0  0  0  0  0  0  0
  128.6229  132.8209  157.7086 H   0  0  0  0  0  0  0  0  0  0  0  0
  130.5132  133.0178  156.6892 C   0  0  0  0  0  0  0  0  0  0  0  0
  130.6833  131.5938  156.2473 C   0  0  0  0  0  0  0  0  0  0  0  0
  130.4546  130.5677  157.0025 C   0  0  0  0  0  0  0  0  0  0  0  0
  129.9779  130.6586  158.4226 C   0  0  0  0  0  0  0  0  0  0  0  0
  130.2094  132.0698  158.9671 C   0  0  0  0  0  0  0  0  0  0  0  0
  126.2479  135.6005  161.0547 C   0  0  0  0  0  0  0  0  0  0  0  0
  123.5595  135.8922  161.4476 H   0  0  0  0  0  0  0  0  0  0  0  0
  125.4742  133.1730  160.4118 H   0  0  0  0  0  0  0  0  0  0  0  0
  125.9866  132.7483  162.1025 H   0  0  0  0  0  0  0  0  0  0  0  0
  128.9871  135.8739  161.3532 H   0  0  0  0  0  0  0  0  0  0  0  0
  130.6529  136.8749  159.2574 H   0  0  0  0  0  0  0  0  0  0  0  0
  131.7233  134.6020  160.9590 H   0  0  0  0  0  0  0  0  0  0  0  0
  132.2194  135.1104  159.3154 H   0  0  0  0  0  0  0  0  0  0  0  0
  134.0886  136.0526  160.8732 H   0  0  0  0  0  0  0  0  0  0  0  0
  133.9305  137.9825  162.9789 H   0  0  0  0  0  0  0  0  0  0  0  0
  135.8268  139.4662  162.6509 H   0  0  0  0  0  0  0  0  0  0  0  0
  137.4231  140.4210  161.0375 H   0  0  0  0  0  0  0  0  0  0  0  0
  136.8439  140.5240  158.6464 H   0  0  0  0  0  0  0  0  0  0  0  0
  134.6714  139.6651  157.8678 H   0  0  0  0  0  0  0  0  0  0  0  0
  133.0786  138.7026  159.4801 H   0  0  0  0  0  0  0  0  0  0  0  0
  132.5853  140.6807  160.8846 H   0  0  0  0  0  0  0  0  0  0  0  0
  131.1039  142.4520  161.7393 H   0  0  0  0  0  0  0  0  0  0  0  0
  130.1775  142.2906  164.0152 H   0  0  0  0  0  0  0  0  0  0  0  0
  130.7266  140.3540  165.4334 H   0  0  0  0  0  0  0  0  0  0  0  0
  132.2013  138.5786  164.5756 H   0  0  0  0  0  0  0  0  0  0  0  0
  130.7215  138.4185  161.0416 H   0  0  0  0  0  0  0  0  0  0  0  0
  130.5755  137.1343  162.2792 H   0  0  0  0  0  0  0  0  0  0  0  0
  130.2238  135.1190  158.0877 H   0  0  0  0  0  0  0  0  0  0  0  0
  130.0292  133.5870  155.8955 H   0  0  0  0  0  0  0  0  0  0  0  0
  131.4917  133.4509  156.8966 H   0  0  0  0  0  0  0  0  0  0  0  0
  131.0168  131.4137  155.2359 H   0  0  0  0  0  0  0  0  0  0  0  0
  130.6173  129.5851  156.5851 H   0  0  0  0  0  0  0  0  0  0  0  0
  130.5252  129.9412  159.0341 H   0  0  0  0  0  0  0  0  0  0  0  0
  128.9136  130.4264  158.4621 H   0  0  0  0  0  0  0  0  0  0  0  0
  131.2775  132.2391  159.1039 H   0  0  0  0  0  0  0  0  0  0  0  0
  129.6947  132.1872  159.9207 H   0  0  0  0  0  0  0  0  0  0  0  0
  126.6290  136.4847  161.5654 H   0  0  0  0  0  0  0  0  0  0  0  0
  125.9268  135.8056  160.0335 H   0  0  0  0  0  0  0  0  0  0  0  0
  1  2  1  0
  1 38  1  0
  2  3  1  1
  2 37  1  0
  2  4  1  0
  4  5  1  0
  4 39  1  0
  4 40  1  0
  5  6  1  1
  5  7  1  0
  5 37  1  0
  7  8  1  0
  9  7  2  0
  9 10  1  0
  9 29  1  0
 10 11  1  0
 10 41  1  0
 11 28  1  0
 11 12  1  0
 11 42  1  6
 12 13  1  0
 12 43  1  0
 12 44  1  0
 13 14  2  0
 13 45  1  0
 14 15  1  0
 14 28  1  0
 15 16  1  0
 15 22  1  0
 15 46  1  0
 16 21  1  0
 16 17  2  0
 17 18  1  0
 17 47  1  0
 18 19  2  0
 18 48  1  0
 19 20  1  0
 19 49  1  0
 20 21  2  0
 20 50  1  0
 21 51  1  0
 22 27  1  0
 22 23  2  0
 23 24  1  0
 23 52  1  0
 24 25  2  0
 24 53  1  0
 25 26  1  0
 25 54  1  0
 26 27  2  0
 26 55  1  0
 27 56  1  0
 28 57  1  0
 28 58  1  0
 29 30  1  0
 29 59  1  0
 30 31  1  6
 30 36  1  0
 30 32  1  0
 32 33  1  0
 32 60  1  0
 32 61  1  0
 33 34  2  0
 33 62  1  0
 34 35  1  0
 34 63  1  0
 35 36  1  0
 35 64  1  0
 35 65  1  0
 36 66  1  0
 36 67  1  0
 37 68  1  0
 37 69  1  0
M  CHG  1   7   1
M  END
>  <DOCK_score>  (1) 
-57.700619

>  <SMILES>  (1) 
O[C@H]1C[C@@H]([NH+]=C(NC2CC=C(C(c3ccccc3)c3ccccc3)C2)N[C@H]2CC=CCC2)C1

$$$$
