Oc1ccc2c(c1)C(N[C@H]1CNCC[NH2+]C1)c1cc(O)ccc1-2
     RDKit          3D

 45 48  0  0  1  0  0  0  0  0999 V2000
  123.4986  134.9554  161.1985 O   0  0  0  0  0  0  0  0  0  0  0  0
  124.5509  134.2968  160.6459 C   0  0  0  0  0  0  0  0  0  0  0  0
  124.4794  132.9264  160.4354 C   0  0  0  0  0  0  0  0  0  0  0  0
  125.5443  132.2545  159.8748 C   0  0  0  0  0  0  0  0  0  0  0  0
  126.7002  132.9517  159.5163 C   0  0  0  0  0  0  0  0  0  0  0  0
  126.7648  134.3263  159.7305 C   0  0  0  0  0  0  0  0  0  0  0  0
  125.6982  134.9943  160.2911 C   0  0  0  0  0  0  0  0  0  0  0  0
  128.1159  134.7981  159.2514 C   0  0  0  0  0  0  0  0  0  0  0  0
  128.8679  135.3927  160.3645 N   0  0  0  0  0  0  0  0  0  0  0  0
  129.9417  136.2637  159.8685 C   0  0  1  0  0  0  0  0  0  0  0  0
  130.4041  135.7940  159.0003 H   0  0  0  0  0  0  0  0  0  0  0  0
  129.3649  137.5418  159.4635 C   0  0  0  0  0  0  0  0  0  0  0  0
  130.3975  138.4594  158.9182 N   0  0  0  0  0  0  0  0  0  0  0  0
  131.1422  139.0600  159.9974 C   0  0  0  0  0  0  0  0  0  0  0  0
  132.4299  138.2917  160.3459 C   0  0  0  0  0  0  0  0  0  0  0  0
  132.2435  136.8222  160.3523 N   0  0  0  0  0  0  0  0  0  0  0  0
  132.2545  136.4881  159.4004 H   0  0  0  0  0  0  0  0  0  0  0  0
  133.0099  136.3986  160.8535 H   0  0  0  0  0  0  0  0  0  0  0  0
  131.0033  136.4252  160.9727 C   0  0  0  0  0  0  0  0  0  0  0  0
  128.8289  133.5705  158.7396 C   0  0  0  0  0  0  0  0  0  0  0  0
  130.0786  133.3902  158.1883 C   0  0  0  0  0  0  0  0  0  0  0  0
  130.4877  132.1229  157.7947 C   0  0  0  0  0  0  0  0  0  0  0  0
  131.7199  131.9450  157.2502 O   0  0  0  0  0  0  0  0  0  0  0  0
  129.6376  131.0376  157.9583 C   0  0  0  0  0  0  0  0  0  0  0  0
  128.3867  131.2137  158.5098 C   0  0  0  0  0  0  0  0  0  0  0  0
  127.9705  132.4865  158.9065 C   0  0  0  0  0  0  0  0  0  0  0  0
  123.6416  135.9057  161.3054 H   0  0  0  0  0  0  0  0  0  0  0  0
  123.5866  132.3852  160.7117 H   0  0  0  0  0  0  0  0  0  0  0  0
  125.4830  131.1891  159.7085 H   0  0  0  0  0  0  0  0  0  0  0  0
  125.7541  136.0605  160.4545 H   0  0  0  0  0  0  0  0  0  0  0  0
  127.9963  135.5250  158.4480 H   0  0  0  0  0  0  0  0  0  0  0  0
  128.2540  135.8949  160.9883 H   0  0  0  0  0  0  0  0  0  0  0  0
  128.6074  137.3643  158.6999 H   0  0  0  0  0  0  0  0  0  0  0  0
  128.8950  138.0101  160.3283 H   0  0  0  0  0  0  0  0  0  0  0  0
  131.0115  137.9749  158.2809 H   0  0  0  0  0  0  0  0  0  0  0  0
  131.4077  140.0789  159.7152 H   0  0  0  0  0  0  0  0  0  0  0  0
  130.5070  139.0985  160.8823 H   0  0  0  0  0  0  0  0  0  0  0  0
  133.1981  138.5448  159.6151 H   0  0  0  0  0  0  0  0  0  0  0  0
  132.7702  138.6065  161.3323 H   0  0  0  0  0  0  0  0  0  0  0  0
  130.6834  137.1896  161.6809 H   0  0  0  0  0  0  0  0  0  0  0  0
  131.1404  135.4766  161.4920 H   0  0  0  0  0  0  0  0  0  0  0  0
  130.7397  134.2348  158.0610 H   0  0  0  0  0  0  0  0  0  0  0  0
  132.2387  132.7577  157.1773 H   0  0  0  0  0  0  0  0  0  0  0  0
  129.9572  130.0526  157.6523 H   0  0  0  0  0  0  0  0  0  0  0  0
  127.7280  130.3671  158.6349 H   0  0  0  0  0  0  0  0  0  0  0  0
  1  2  1  0
  1 27  1  0
  2  7  2  0
  2  3  1  0
  3  4  2  0
  3 28  1  0
  4  5  1  0
  4 29  1  0
  5 26  1  0
  5  6  2  0
  6  7  1  0
  6  8  1  0
  7 30  1  0
  8  9  1  0
  8 20  1  0
  8 31  1  0
  9 10  1  0
  9 32  1  0
 10 11  1  6
 10 19  1  0
 10 12  1  0
 12 13  1  0
 12 33  1  0
 12 34  1  0
 13 14  1  0
 13 35  1  0
 14 15  1  0
 14 36  1  0
 14 37  1  0
 15 16  1  0
 15 38  1  0
 15 39  1  0
 16 17  1  0
 16 18  1  0
 16 19  1  0
 19 40  1  0
 19 41  1  0
 20 26  2  0
 20 21  1  0
 21 22  2  0
 21 42  1  0
 22 23  1  0
 22 24  1  0
 23 43  1  0
 24 25  2  0
 24 44  1  0
 25 26  1  0
 25 45  1  0
M  CHG  1  16   1
M  END
>  <DOCK_score>  (1) 
-44.94471

>  <SMILES>  (1) 
Oc1ccc2c(c1)C(N[C@H]1CNCC[NH2+]C1)c1cc(O)ccc1-2

$$$$
