O=C1CC[C@H](NC(NC2CC=CC2)=[NH+]Cc2cccc(Br)c2)CN1
     RDKit          3D

 48 50  0  0  1  0  0  0  0  0999 V2000
  123.6869  132.8269  160.8681 O   0  0  0  0  0  0  0  0  0  0  0  0
  124.8605  133.0770  160.6922 C   0  0  0  0  0  0  0  0  0  0  0  0
  125.7585  131.9726  160.2136 C   0  0  0  0  0  0  0  0  0  0  0  0
  127.2215  132.3432  160.4692 C   0  0  0  0  0  0  0  0  0  0  0  0
  127.4605  133.7639  159.9438 C   0  0  2  0  0  0  0  0  0  0  0  0
  127.1225  133.8332  158.9099 H   0  0  0  0  0  0  0  0  0  0  0  0
  128.8890  134.0809  160.0162 N   0  0  0  0  0  0  0  0  0  0  0  0
  129.7108  133.7978  158.9511 C   0  0  0  0  0  0  0  0  0  0  0  0
  131.0513  134.0953  159.0191 N   0  0  0  0  0  0  0  0  0  0  0  0
  131.6040  134.7140  160.2264 C   0  0  0  0  0  0  0  0  0  0  0  0
  131.0779  136.1575  160.4011 C   0  0  0  0  0  0  0  0  0  0  0  0
  132.2554  136.9312  160.9488 C   0  0  0  0  0  0  0  0  0  0  0  0
  133.3709  136.2763  160.7736 C   0  0  0  0  0  0  0  0  0  0  0  0
  133.1241  134.9571  160.0795 C   0  0  0  0  0  0  0  0  0  0  0  0
  129.2190  133.2472  157.8768 N   0  0  0  0  0  0  0  0  0  0  0  0
  128.4518  132.6574  157.9419 H   0  0  0  0  0  0  0  0  0  0  0  0
  129.8250  133.5195  156.5712 C   0  0  0  0  0  0  0  0  0  0  0  0
  130.3060  132.2280  155.9616 C   0  0  0  0  0  0  0  0  0  0  0  0
  130.9991  131.3147  156.7345 C   0  0  0  0  0  0  0  0  0  0  0  0
  131.4405  130.1299  156.1762 C   0  0  0  0  0  0  0  0  0  0  0  0
  131.1888  129.8573  154.8445 C   0  0  0  0  0  0  0  0  0  0  0  0
  130.4955  130.7704  154.0710 C   0  0  0  0  0  0  0  0  0  0  0  0
  130.1513  130.3983  152.2491 Br  0  0  0  0  0  0  0  0  0  0  0  0
  130.0494  131.9539  154.6316 C   0  0  0  0  0  0  0  0  0  0  0  0
  126.6715  134.7473  160.8060 C   0  0  0  0  0  0  0  0  0  0  0  0
  125.2846  134.3178  160.9345 N   0  0  0  0  0  0  0  0  0  0  0  0
  125.5190  131.0537  160.7486 H   0  0  0  0  0  0  0  0  0  0  0  0
  125.6064  131.8197  159.1451 H   0  0  0  0  0  0  0  0  0  0  0  0
  127.4274  132.3081  161.5390 H   0  0  0  0  0  0  0  0  0  0  0  0
  127.8740  131.6440  159.9463 H   0  0  0  0  0  0  0  0  0  0  0  0
  129.2549  134.4906  160.8157 H   0  0  0  0  0  0  0  0  0  0  0  0
  131.6312  133.8953  158.2676 H   0  0  0  0  0  0  0  0  0  0  0  0
  131.3879  134.1095  161.1074 H   0  0  0  0  0  0  0  0  0  0  0  0
  130.7682  136.5677  159.4398 H   0  0  0  0  0  0  0  0  0  0  0  0
  130.2484  136.1764  161.1080 H   0  0  0  0  0  0  0  0  0  0  0  0
  132.1831  137.8987  161.4233 H   0  0  0  0  0  0  0  0  0  0  0  0
  134.3427  136.6310  161.0839 H   0  0  0  0  0  0  0  0  0  0  0  0
  133.6850  134.1603  160.5679 H   0  0  0  0  0  0  0  0  0  0  0  0
  133.3980  135.0229  159.0266 H   0  0  0  0  0  0  0  0  0  0  0  0
  129.0847  133.9773  155.9152 H   0  0  0  0  0  0  0  0  0  0  0  0
  130.6686  134.1984  156.6967 H   0  0  0  0  0  0  0  0  0  0  0  0
  131.1953  131.5272  157.7751 H   0  0  0  0  0  0  0  0  0  0  0  0
  131.9818  129.4169  156.7803 H   0  0  0  0  0  0  0  0  0  0  0  0
  131.5330  128.9311  154.4084 H   0  0  0  0  0  0  0  0  0  0  0  0
  129.5043  132.6653  154.0291 H   0  0  0  0  0  0  0  0  0  0  0  0
  126.7015  135.7357  160.3474 H   0  0  0  0  0  0  0  0  0  0  0  0
  127.1260  134.7986  161.7953 H   0  0  0  0  0  0  0  0  0  0  0  0
  124.6283  134.9769  161.2101 H   0  0  0  0  0  0  0  0  0  0  0  0
  1  2  2  0
  2 26  1  0
  2  3  1  0
  3  4  1  0
  3 27  1  0
  3 28  1  0
  4  5  1  0
  4 29  1  0
  4 30  1  0
  5  6  1  6
  5  7  1  0
  5 25  1  0
  7 31  1  0
  8  7  1  0
  8  9  1  0
  8 15  2  0
  9 10  1  0
  9 32  1  0
 10 14  1  0
 10 11  1  0
 10 33  1  0
 11 12  1  0
 11 34  1  0
 11 35  1  0
 12 13  2  0
 12 36  1  0
 13 14  1  0
 13 37  1  0
 14 38  1  0
 14 39  1  0
 15 16  1  0
 15 17  1  0
 17 18  1  0
 17 40  1  0
 17 41  1  0
 18 24  1  0
 18 19  2  0
 19 20  1  0
 19 42  1  0
 20 21  2  0
 20 43  1  0
 21 22  1  0
 21 44  1  0
 22 23  1  0
 22 24  2  0
 24 45  1  0
 25 26  1  0
 25 46  1  0
 25 47  1  0
 26 48  1  0
M  CHG  1  15   1
M  END
>  <DOCK_score>  (1) 
-47.815739

>  <SMILES>  (1) 
O=C1CC[C@H](NC(NC2CC=CC2)=[NH+]Cc2cccc(Br)c2)CN1

$$$$
