C[NH2+]Cc1ccc([C@H](O)c2ccc(NC3C=C(c4ccccc4)C3)o2)o1
     RDKit          3D

 49 52  0  0  1  0  0  0  0  0999 V2000
  133.1738  134.7929  159.6443 C   0  0  0  0  0  0  0  0  0  0  0  0
  131.7779  135.1306  159.9534 N   0  0  0  0  0  0  0  0  0  0  0  0
  131.3086  135.4259  159.1104 H   0  0  0  0  0  0  0  0  0  0  0  0
  131.3116  134.3196  160.3315 H   0  0  0  0  0  0  0  0  0  0  0  0
  131.7443  136.2189  160.9396 C   0  0  0  0  0  0  0  0  0  0  0  0
  130.3123  136.5654  161.2567 C   0  0  0  0  0  0  0  0  0  0  0  0
  129.9050  137.5110  162.1222 C   0  0  0  0  0  0  0  0  0  0  0  0
  128.4912  137.4982  162.1072 C   0  0  0  0  0  0  0  0  0  0  0  0
  128.1193  136.5401  161.2395 C   0  0  0  0  0  0  0  0  0  0  0  0
  126.7009  136.1614  160.8993 C   0  0  2  0  0  0  0  0  0  0  0  0
  126.3573  136.7603  160.0558 H   0  0  0  0  0  0  0  0  0  0  0  0
  125.8595  136.4026  162.0289 O   0  0  0  0  0  0  0  0  0  0  0  0
  126.6448  134.7004  160.5341 C   0  0  0  0  0  0  0  0  0  0  0  0
  125.5930  133.8844  160.7213 C   0  0  0  0  0  0  0  0  0  0  0  0
  125.9698  132.6095  160.2387 C   0  0  0  0  0  0  0  0  0  0  0  0
  127.2389  132.7242  159.7822 C   0  0  0  0  0  0  0  0  0  0  0  0
  127.9988  131.7020  159.2196 N   0  0  0  0  0  0  0  0  0  0  0  0
  129.3659  131.9700  158.7661 C   0  0  2  0  0  0  0  0  0  0  0  0
  129.4419  132.5652  157.3736 C   0  0  0  0  0  0  0  0  0  0  0  0
  130.0567  131.4964  156.8542 C   0  0  0  0  0  0  0  0  0  0  0  0
  130.5424  131.1710  155.4966 C   0  0  0  0  0  0  0  0  0  0  0  0
  131.1662  129.9474  155.2502 C   0  0  0  0  0  0  0  0  0  0  0  0
  131.6124  129.6476  153.9795 C   0  0  0  0  0  0  0  0  0  0  0  0
  131.4520  130.5614  152.9532 C   0  0  0  0  0  0  0  0  0  0  0  0
  130.8394  131.7787  153.1923 C   0  0  0  0  0  0  0  0  0  0  0  0
  130.3839  132.0885  154.4573 C   0  0  0  0  0  0  0  0  0  0  0  0
  130.0727  130.7413  158.1692 C   0  0  0  0  0  0  0  0  0  0  0  0
  127.6376  133.9950  159.9601 O   0  0  0  0  0  0  0  0  0  0  0  0
  129.2265  135.9783  160.7273 O   0  0  0  0  0  0  0  0  0  0  0  0
  133.6776  135.6689  159.2358 H   0  0  0  0  0  0  0  0  0  0  0  0
  133.6806  134.4739  160.5550 H   0  0  0  0  0  0  0  0  0  0  0  0
  133.1986  133.9854  158.9126 H   0  0  0  0  0  0  0  0  0  0  0  0
  132.2512  135.8999  161.8503 H   0  0  0  0  0  0  0  0  0  0  0  0
  132.2482  137.0949  160.5311 H   0  0  0  0  0  0  0  0  0  0  0  0
  130.5365  138.1574  162.7135 H   0  0  0  0  0  0  0  0  0  0  0  0
  127.8357  138.1331  162.6848 H   0  0  0  0  0  0  0  0  0  0  0  0
  124.9300  136.1808  161.8813 H   0  0  0  0  0  0  0  0  0  0  0  0
  124.6416  134.1513  161.1575 H   0  0  0  0  0  0  0  0  0  0  0  0
  125.3623  131.7166  160.2357 H   0  0  0  0  0  0  0  0  0  0  0  0
  127.6230  130.8125  159.1278 H   0  0  0  0  0  0  0  0  0  0  0  0
  129.9624  132.5030  159.5065 H   0  0  0  0  0  0  0  0  0  0  0  0
  129.1184  133.5065  156.9547 H   0  0  0  0  0  0  0  0  0  0  0  0
  131.2957  129.2349  156.0514 H   0  0  0  0  0  0  0  0  0  0  0  0
  132.0918  128.6992  153.7866 H   0  0  0  0  0  0  0  0  0  0  0  0
  131.8067  130.3236  151.9613 H   0  0  0  0  0  0  0  0  0  0  0  0
  130.7179  132.4880  152.3870 H   0  0  0  0  0  0  0  0  0  0  0  0
  129.9063  133.0391  154.6427 H   0  0  0  0  0  0  0  0  0  0  0  0
  131.0734  130.5740  158.5672 H   0  0  0  0  0  0  0  0  0  0  0  0
  129.4596  129.8401  158.1673 H   0  0  0  0  0  0  0  0  0  0  0  0
  1  2  1  0
  1 30  1  0
  1 31  1  0
  1 32  1  0
  2  3  1  0
  2  4  1  0
  2  5  1  0
  5  6  1  0
  5 33  1  0
  5 34  1  0
  6 29  1  0
  6  7  2  0
  7  8  1  0
  7 35  1  0
  8  9  2  0
  8 36  1  0
  9 10  1  0
  9 29  1  0
 10 11  1  6
 10 12  1  0
 10 13  1  0
 12 37  1  0
 13 28  1  0
 13 14  2  0
 14 15  1  0
 14 38  1  0
 15 16  2  0
 15 39  1  0
 16 17  1  0
 16 28  1  0
 17 18  1  0
 17 40  1  0
 18 27  1  0
 18 19  1  0
 18 41  1  1
 19 20  2  0
 19 42  1  0
 20 21  1  0
 20 27  1  0
 21 26  1  0
 21 22  2  0
 22 23  1  0
 22 43  1  0
 23 24  2  0
 23 44  1  0
 24 25  1  0
 24 45  1  0
 25 26  2  0
 25 46  1  0
 26 47  1  0
 27 48  1  0
 27 49  1  0
M  CHG  1   2   1
M  END
>  <DOCK_score>  (1) 
-41.827446

>  <SMILES>  (1) 
C[NH2+]Cc1ccc([C@H](O)c2ccc(NC3C=C(c4ccccc4)C3)o2)o1

$$$$
