Cc1cccc(C(Nc2[nH]cc(Nc3nc(-c4ccc(N)cc4)c[nH]3)[nH+]2)c2cccc(C)c2)c1
     RDKit          3D

 62 66  0  0  1  0  0  0  0  0999 V2000
  130.3573  131.7074  154.5498 C   0  0  0  0  0  0  0  0  0  0  0  0
  130.5558  131.5094  156.0305 C   0  0  0  0  0  0  0  0  0  0  0  0
  131.4569  130.5656  156.4868 C   0  0  0  0  0  0  0  0  0  0  0  0
  131.6390  130.3839  157.8449 C   0  0  0  0  0  0  0  0  0  0  0  0
  130.9191  131.1451  158.7469 C   0  0  0  0  0  0  0  0  0  0  0  0
  130.0187  132.0894  158.2904 C   0  0  0  0  0  0  0  0  0  0  0  0
  129.2397  132.9248  159.2735 C   0  0  0  0  0  0  0  0  0  0  0  0
  130.0313  133.1097  160.4923 N   0  0  0  0  0  0  0  0  0  0  0  0
  131.2660  133.7334  160.4280 C   0  0  0  0  0  0  0  0  0  0  0  0
  131.8556  134.2115  159.3001 N   0  0  0  0  0  0  0  0  0  0  0  0
  131.4923  134.1795  158.4013 H   0  0  0  0  0  0  0  0  0  0  0  0
  133.0693  134.7546  159.6775 C   0  0  0  0  0  0  0  0  0  0  0  0
  133.1763  134.5809  161.0116 C   0  0  0  0  0  0  0  0  0  0  0  0
  134.2599  134.9817  161.8098 N   0  0  0  0  0  0  0  0  0  0  0  0
  134.0528  135.3309  163.1337 C   0  0  0  0  0  0  0  0  0  0  0  0
  132.8968  135.3273  163.7527 N   0  0  0  0  0  0  0  0  0  0  0  0
  133.0788  135.7254  165.0363 C   0  0  0  0  0  0  0  0  0  0  0  0
  132.0206  135.8555  166.0681 C   0  0  0  0  0  0  0  0  0  0  0  0
  132.3276  135.6504  167.4123 C   0  0  0  0  0  0  0  0  0  0  0  0
  131.3433  135.7761  168.3700 C   0  0  0  0  0  0  0  0  0  0  0  0
  130.0441  136.0971  167.9948 C   0  0  0  0  0  0  0  0  0  0  0  0
  129.0477  136.2191  168.9663 N   0  0  0  0  0  0  0  0  0  0  0  0
  129.7350  136.2973  166.6547 C   0  0  0  0  0  0  0  0  0  0  0  0
  130.7168  136.1774  165.6941 C   0  0  0  0  0  0  0  0  0  0  0  0
  134.3986  135.9830  165.2103 C   0  0  0  0  0  0  0  0  0  0  0  0
  135.0163  135.7290  164.0087 N   0  0  0  0  0  0  0  0  0  0  0  0
  135.9634  135.8188  163.8191 H   0  0  0  0  0  0  0  0  0  0  0  0
  132.0652  133.9566  161.4448 N   0  0  0  0  0  0  0  0  0  0  0  0
  131.8837  133.7096  162.3651 H   0  0  0  0  0  0  0  0  0  0  0  0
  127.9487  132.2259  159.6143 C   0  0  0  0  0  0  0  0  0  0  0  0
  127.6504  131.0053  159.0380 C   0  0  0  0  0  0  0  0  0  0  0  0
  126.4683  130.3622  159.3540 C   0  0  0  0  0  0  0  0  0  0  0  0
  125.5801  130.9441  160.2389 C   0  0  0  0  0  0  0  0  0  0  0  0
  125.8762  132.1670  160.8116 C   0  0  0  0  0  0  0  0  0  0  0  0
  124.9077  132.8015  161.7763 C   0  0  0  0  0  0  0  0  0  0  0  0
  127.0603  132.8081  160.4990 C   0  0  0  0  0  0  0  0  0  0  0  0
  129.8370  132.2715  156.9323 C   0  0  0  0  0  0  0  0  0  0  0  0
  131.0541  132.4634  154.1877 H   0  0  0  0  0  0  0  0  0  0  0  0
  130.5392  130.7669  154.0298 H   0  0  0  0  0  0  0  0  0  0  0  0
  129.3351  132.0353  154.3609 H   0  0  0  0  0  0  0  0  0  0  0  0
  132.0185  129.9701  155.7824 H   0  0  0  0  0  0  0  0  0  0  0  0
  132.3427  129.6464  158.2017 H   0  0  0  0  0  0  0  0  0  0  0  0
  131.0613  131.0031  159.8080 H   0  0  0  0  0  0  0  0  0  0  0  0
  129.0209  133.8967  158.8313 H   0  0  0  0  0  0  0  0  0  0  0  0
  129.6906  132.7951  161.3443 H   0  0  0  0  0  0  0  0  0  0  0  0
  133.7944  135.2238  159.0290 H   0  0  0  0  0  0  0  0  0  0  0  0
  135.1534  135.0141  161.4338 H   0  0  0  0  0  0  0  0  0  0  0  0
  133.3360  135.3969  167.7038 H   0  0  0  0  0  0  0  0  0  0  0  0
  131.5814  135.6210  169.4120 H   0  0  0  0  0  0  0  0  0  0  0  0
  128.1409  136.4434  168.7053 H   0  0  0  0  0  0  0  0  0  0  0  0
  129.2627  136.0795  169.9019 H   0  0  0  0  0  0  0  0  0  0  0  0
  128.7247  136.5466  166.3654 H   0  0  0  0  0  0  0  0  0  0  0  0
  130.4761  136.3330  164.6529 H   0  0  0  0  0  0  0  0  0  0  0  0
  134.8742  136.3195  166.1197 H   0  0  0  0  0  0  0  0  0  0  0  0
  128.3426  130.5525  158.3436 H   0  0  0  0  0  0  0  0  0  0  0  0
  126.2372  129.4066  158.9068 H   0  0  0  0  0  0  0  0  0  0  0  0
  124.6549  130.4433  160.4832 H   0  0  0  0  0  0  0  0  0  0  0  0
  124.2090  133.4328  161.2274 H   0  0  0  0  0  0  0  0  0  0  0  0
  124.3568  132.0224  162.3033 H   0  0  0  0  0  0  0  0  0  0  0  0
  125.4570  133.4083  162.4962 H   0  0  0  0  0  0  0  0  0  0  0  0
  127.2914  133.7636  160.9461 H   0  0  0  0  0  0  0  0  0  0  0  0
  129.1331  133.0090  156.5756 H   0  0  0  0  0  0  0  0  0  0  0  0
  1  2  1  0
  1 38  1  0
  1 39  1  0
  1 40  1  0
  2 37  2  0
  2  3  1  0
  3  4  2  0
  3 41  1  0
  4  5  1  0
  4 42  1  0
  5  6  2  0
  5 43  1  0
  6  7  1  0
  6 37  1  0
  7  8  1  0
  7 30  1  0
  7 44  1  0
  8 45  1  0
  9  8  1  0
  9 28  2  0
  9 10  1  0
 10 11  1  0
 10 12  1  0
 12 13  2  0
 12 46  1  0
 13 14  1  0
 13 28  1  0
 14 15  1  0
 14 47  1  0
 15 26  1  0
 15 16  2  0
 16 17  1  0
 17 18  1  0
 17 25  2  0
 18 24  1  0
 18 19  2  0
 19 20  1  0
 19 48  1  0
 20 21  2  0
 20 49  1  0
 21 22  1  0
 21 23  1  0
 22 50  1  0
 22 51  1  0
 23 24  2  0
 23 52  1  0
 24 53  1  0
 25 26  1  0
 25 54  1  0
 26 27  1  0
 28 29  1  0
 30 36  1  0
 30 31  2  0
 31 32  1  0
 31 55  1  0
 32 33  2  0
 32 56  1  0
 33 34  1  0
 33 57  1  0
 34 35  1  0
 34 36  2  0
 35 58  1  0
 35 59  1  0
 35 60  1  0
 36 61  1  0
 37 62  1  0
M  CHG  1  28   1
M  END
>  <DOCK_score>  (1) 
-56.234333

>  <SMILES>  (1) 
Cc1cccc(C(Nc2[nH]cc(Nc3nc(-c4ccc(N)cc4)c[nH]3)[nH+]2)c2cccc(C)c2)c1

$$$$
