Cc1ccc(NC2CC3(CCC3)C2)nc1C[NH+]=C(NCCN1CCNC1=O)NC1CCCCCC1
     RDKit          3D

 79 83  0  0  1  0  0  0  0  0999 V2000
  135.0149  138.5874  157.7928 C   0  0  0  0  0  0  0  0  0  0  0  0
  135.1719  139.0493  159.2186 C   0  0  0  0  0  0  0  0  0  0  0  0
  136.2466  139.8503  159.5822 C   0  0  0  0  0  0  0  0  0  0  0  0
  136.3539  140.2520  160.9012 C   0  0  0  0  0  0  0  0  0  0  0  0
  135.3871  139.8422  161.8141 C   0  0  0  0  0  0  0  0  0  0  0  0
  135.4824  140.2389  163.1429 N   0  0  0  0  0  0  0  0  0  0  0  0
  134.4649  139.8164  164.1084 C   0  0  0  0  0  0  0  0  0  0  0  0
  133.1972  140.6897  164.0890 C   0  0  0  0  0  0  0  0  0  0  0  0
  133.2082  140.5883  165.6147 C   0  0  0  0  0  0  0  0  0  0  0  0
  132.6374  141.7078  166.4856 C   0  0  0  0  0  0  0  0  0  0  0  0
  131.3819  140.8304  166.6393 C   0  0  0  0  0  0  0  0  0  0  0  0
  132.2838  139.6168  166.3493 C   0  0  0  0  0  0  0  0  0  0  0  0
  134.7148  140.3387  165.5348 C   0  0  0  0  0  0  0  0  0  0  0  0
  134.3743  139.0823  161.4272 N   0  0  0  0  0  0  0  0  0  0  0  0
  134.2493  138.6800  160.1765 C   0  0  0  0  0  0  0  0  0  0  0  0
  133.0807  137.8113  159.7879 C   0  0  0  0  0  0  0  0  0  0  0  0
  132.2484  137.5568  160.9663 N   0  0  0  0  0  0  0  0  0  0  0  0
  132.4949  137.9345  161.8250 H   0  0  0  0  0  0  0  0  0  0  0  0
  131.1765  136.8228  160.8608 C   0  0  0  0  0  0  0  0  0  0  0  0
  130.3953  136.5840  161.9666 N   0  0  0  0  0  0  0  0  0  0  0  0
  130.7677  137.1543  163.2637 C   0  0  0  0  0  0  0  0  0  0  0  0
  129.7391  136.7392  164.3176 C   0  0  0  0  0  0  0  0  0  0  0  0
  128.4155  137.2325  163.9290 N   0  0  0  0  0  0  0  0  0  0  0  0
  127.8489  138.5370  164.3022 C   0  0  0  0  0  0  0  0  0  0  0  0
  126.4593  138.5403  163.6361 C   0  0  0  0  0  0  0  0  0  0  0  0
  126.3867  137.2334  162.9660 N   0  0  0  0  0  0  0  0  0  0  0  0
  127.5269  136.5642  163.1819 C   0  0  0  0  0  0  0  0  0  0  0  0
  127.7363  135.4513  162.7395 O   0  0  0  0  0  0  0  0  0  0  0  0
  130.8270  136.2875  159.6437 N   0  0  0  0  0  0  0  0  0  0  0  0
  129.6222  135.4625  159.5250 C   0  0  0  0  0  0  0  0  0  0  0  0
  129.0601  135.5857  158.1347 C   0  0  0  0  0  0  0  0  0  0  0  0
  127.5215  135.5070  158.1115 C   0  0  0  0  0  0  0  0  0  0  0  0
  126.9647  134.4221  159.0531 C   0  0  0  0  0  0  0  0  0  0  0  0
  127.7647  133.1489  159.0014 C   0  0  0  0  0  0  0  0  0  0  0  0
  128.8150  133.1842  160.1304 C   0  0  0  0  0  0  0  0  0  0  0  0
  129.9795  133.9839  159.7801 C   0  0  0  0  0  0  0  0  0  0  0  0
  134.4224  139.3151  157.2383 H   0  0  0  0  0  0  0  0  0  0  0  0
  135.9978  138.4919  157.3314 H   0  0  0  0  0  0  0  0  0  0  0  0
  134.5108  137.6210  157.7772 H   0  0  0  0  0  0  0  0  0  0  0  0
  136.9820  140.1525  158.8514 H   0  0  0  0  0  0  0  0  0  0  0  0
  137.1768  140.8755  161.2182 H   0  0  0  0  0  0  0  0  0  0  0  0
  136.2228  140.7956  163.4308 H   0  0  0  0  0  0  0  0  0  0  0  0
  134.2596  138.7468  164.0654 H   0  0  0  0  0  0  0  0  0  0  0  0
  133.3674  141.6998  163.7165 H   0  0  0  0  0  0  0  0  0  0  0  0
  132.3388  140.2045  163.6245 H   0  0  0  0  0  0  0  0  0  0  0  0
  133.1827  141.8585  167.4174 H   0  0  0  0  0  0  0  0  0  0  0  0
  132.4586  142.6363  165.9431 H   0  0  0  0  0  0  0  0  0  0  0  0
  130.6292  141.0078  165.8710 H   0  0  0  0  0  0  0  0  0  0  0  0
  130.9676  140.8348  167.6474 H   0  0  0  0  0  0  0  0  0  0  0  0
  131.8224  138.8747  165.6977 H   0  0  0  0  0  0  0  0  0  0  0  0
  132.7301  139.1784  167.2419 H   0  0  0  0  0  0  0  0  0  0  0  0
  135.0686  139.5731  166.2254 H   0  0  0  0  0  0  0  0  0  0  0  0
  135.3116  141.2502  165.5686 H   0  0  0  0  0  0  0  0  0  0  0  0
  133.4478  136.8649  159.3911 H   0  0  0  0  0  0  0  0  0  0  0  0
  132.4878  138.3189  159.0270 H   0  0  0  0  0  0  0  0  0  0  0  0
  129.5976  136.0376  161.8880 H   0  0  0  0  0  0  0  0  0  0  0  0
  131.7525  136.7874  163.5526 H   0  0  0  0  0  0  0  0  0  0  0  0
  130.7925  138.2414  163.1888 H   0  0  0  0  0  0  0  0  0  0  0  0
  129.7142  135.6521  164.3926 H   0  0  0  0  0  0  0  0  0  0  0  0
  130.0161  137.1636  165.2826 H   0  0  0  0  0  0  0  0  0  0  0  0
  127.7566  138.6183  165.3853 H   0  0  0  0  0  0  0  0  0  0  0  0
  128.4620  139.3474  163.9078 H   0  0  0  0  0  0  0  0  0  0  0  0
  126.3814  139.3482  162.9086 H   0  0  0  0  0  0  0  0  0  0  0  0
  125.6760  138.6282  164.3891 H   0  0  0  0  0  0  0  0  0  0  0  0
  125.6330  136.9076  162.4496 H   0  0  0  0  0  0  0  0  0  0  0  0
  131.3781  136.4561  158.8633 H   0  0  0  0  0  0  0  0  0  0  0  0
  128.8780  135.7898  160.2511 H   0  0  0  0  0  0  0  0  0  0  0  0
  129.3708  136.5412  157.7120 H   0  0  0  0  0  0  0  0  0  0  0  0
  129.4623  134.7809  157.5192 H   0  0  0  0  0  0  0  0  0  0  0  0
  127.1959  135.2905  157.0942 H   0  0  0  0  0  0  0  0  0  0  0  0
  127.1157  136.4737  158.4100 H   0  0  0  0  0  0  0  0  0  0  0  0
  125.9351  134.2035  158.7691 H   0  0  0  0  0  0  0  0  0  0  0  0
  126.9734  134.8030  160.0743 H   0  0  0  0  0  0  0  0  0  0  0  0
  127.1030  132.2946  159.1436 H   0  0  0  0  0  0  0  0  0  0  0  0
  128.2636  133.0688  158.0356 H   0  0  0  0  0  0  0  0  0  0  0  0
  128.3563  133.6025  161.0263 H   0  0  0  0  0  0  0  0  0  0  0  0
  129.1379  132.1653  160.3442 H   0  0  0  0  0  0  0  0  0  0  0  0
  130.7022  133.9308  160.5943 H   0  0  0  0  0  0  0  0  0  0  0  0
  130.4329  133.5712  158.8788 H   0  0  0  0  0  0  0  0  0  0  0  0
  1  2  1  0
  1 37  1  0
  1 38  1  0
  1 39  1  0
  2 15  2  0
  2  3  1  0
  3  4  2  0
  3 40  1  0
  4  5  1  0
  4 41  1  0
  5  6  1  0
  5 14  2  0
  6  7  1  0
  6 42  1  0
  7 13  1  0
  7  8  1  0
  7 43  1  0
  8  9  1  0
  8 44  1  0
  8 45  1  0
  9 12  1  0
  9 10  1  0
  9 13  1  0
 10 11  1  0
 10 46  1  0
 10 47  1  0
 11 12  1  0
 11 48  1  0
 11 49  1  0
 12 50  1  0
 12 51  1  0
 13 52  1  0
 13 53  1  0
 14 15  1  0
 15 16  1  0
 16 17  1  0
 16 54  1  0
 16 55  1  0
 17 18  1  0
 19 17  2  0
 19 20  1  0
 19 29  1  0
 20 21  1  0
 20 56  1  0
 21 22  1  0
 21 57  1  0
 21 58  1  0
 22 23  1  0
 22 59  1  0
 22 60  1  0
 23 27  1  0
 23 24  1  0
 24 25  1  0
 24 61  1  0
 24 62  1  0
 25 26  1  0
 25 63  1  0
 25 64  1  0
 26 27  1  0
 26 65  1  0
 27 28  2  0
 29 30  1  0
 29 66  1  0
 30 36  1  0
 30 31  1  0
 30 67  1  0
 31 32  1  0
 31 68  1  0
 31 69  1  0
 32 33  1  0
 32 70  1  0
 32 71  1  0
 33 34  1  0
 33 72  1  0
 33 73  1  0
 34 35  1  0
 34 74  1  0
 34 75  1  0
 35 36  1  0
 35 76  1  0
 35 77  1  0
 36 78  1  0
 36 79  1  0
M  CHG  1  17   1
M  END
>  <DOCK_score>  (1) 
-47.541153

>  <SMILES>  (1) 
Cc1ccc(NC2CC3(CCC3)C2)nc1C[NH+]=C(NCCN1CCNC1=O)NC1CCCCCC1

$$$$
