CCc1ccc([C@@H](O)c2cccc(N3CC[NH+](C(c4ccccc4)c4ccccc4)CC3)c2C)cc1
     RDKit          3D

 73 77  0  0  1  0  0  0  0  0999 V2000
  137.0765  135.6902  166.7757 C   0  0  0  0  0  0  0  0  0  0  0  0
  138.1074  136.7438  166.3656 C   0  0  0  0  0  0  0  0  0  0  0  0
  137.4441  137.7868  165.5036 C   0  0  0  0  0  0  0  0  0  0  0  0
  136.8753  138.9043  166.0853 C   0  0  0  0  0  0  0  0  0  0  0  0
  136.2717  139.8638  165.2941 C   0  0  0  0  0  0  0  0  0  0  0  0
  136.2270  139.7003  163.9222 C   0  0  0  0  0  0  0  0  0  0  0  0
  135.5641  140.7436  163.0602 C   0  0  1  0  0  0  0  0  0  0  0  0
  134.7637  141.2245  163.6226 H   0  0  0  0  0  0  0  0  0  0  0  0
  136.5287  141.7238  162.6721 O   0  0  0  0  0  0  0  0  0  0  0  0
  134.9906  140.0886  161.8302 C   0  0  0  0  0  0  0  0  0  0  0  0
  135.4245  140.4759  160.5753 C   0  0  0  0  0  0  0  0  0  0  0  0
  134.9049  139.8736  159.4444 C   0  0  0  0  0  0  0  0  0  0  0  0
  133.9421  138.8904  159.5641 C   0  0  0  0  0  0  0  0  0  0  0  0
  133.5002  138.5031  160.8225 C   0  0  0  0  0  0  0  0  0  0  0  0
  132.5270  137.5089  160.9471 N   0  0  0  0  0  0  0  0  0  0  0  0
  133.0197  136.2224  160.4348 C   0  0  0  0  0  0  0  0  0  0  0  0
  131.9487  135.1497  160.6438 C   0  0  0  0  0  0  0  0  0  0  0  0
  130.7209  135.5394  159.9380 N   0  0  0  0  0  0  0  0  0  0  0  0
  130.9177  135.6448  158.9539 H   0  0  0  0  0  0  0  0  0  0  0  0
  129.6988  134.5007  160.1238 C   0  0  0  0  0  0  0  0  0  0  0  0
  128.4389  134.9004  159.3998 C   0  0  0  0  0  0  0  0  0  0  0  0
  127.2085  134.4835  159.8722 C   0  0  0  0  0  0  0  0  0  0  0  0
  126.0526  134.8541  159.2109 C   0  0  0  0  0  0  0  0  0  0  0  0
  126.1273  135.6328  158.0720 C   0  0  0  0  0  0  0  0  0  0  0  0
  127.3585  136.0453  157.5959 C   0  0  0  0  0  0  0  0  0  0  0  0
  128.5141  135.6791  158.2602 C   0  0  0  0  0  0  0  0  0  0  0  0
  130.2040  133.1939  159.5688 C   0  0  0  0  0  0  0  0  0  0  0  0
  129.7870  131.9993  160.1256 C   0  0  0  0  0  0  0  0  0  0  0  0
  130.2466  130.8004  159.6133 C   0  0  0  0  0  0  0  0  0  0  0  0
  131.1313  130.7964  158.5511 C   0  0  0  0  0  0  0  0  0  0  0  0
  131.5523  131.9912  157.9978 C   0  0  0  0  0  0  0  0  0  0  0  0
  131.0887  133.1899  158.5068 C   0  0  0  0  0  0  0  0  0  0  0  0
  130.2275  136.8135  160.4774 C   0  0  0  0  0  0  0  0  0  0  0  0
  131.2842  137.9001  160.2670 C   0  0  0  0  0  0  0  0  0  0  0  0
  134.0284  139.1064  161.9570 C   0  0  0  0  0  0  0  0  0  0  0  0
  133.5513  138.6897  163.3244 C   0  0  0  0  0  0  0  0  0  0  0  0
  136.7907  138.5798  163.3410 C   0  0  0  0  0  0  0  0  0  0  0  0
  137.3995  137.6232  164.1317 C   0  0  0  0  0  0  0  0  0  0  0  0
  137.5562  134.9358  167.3993 H   0  0  0  0  0  0  0  0  0  0  0  0
  136.6660  135.2170  165.8838 H   0  0  0  0  0  0  0  0  0  0  0  0
  136.2726  136.1674  167.3363 H   0  0  0  0  0  0  0  0  0  0  0  0
  138.5178  137.2170  167.2576 H   0  0  0  0  0  0  0  0  0  0  0  0
  138.9112  136.2666  165.8050 H   0  0  0  0  0  0  0  0  0  0  0  0
  136.9063  139.0300  167.1575 H   0  0  0  0  0  0  0  0  0  0  0  0
  135.8314  140.7393  165.7482 H   0  0  0  0  0  0  0  0  0  0  0  0
  136.1712  142.4281  162.1142 H   0  0  0  0  0  0  0  0  0  0  0  0
  136.1736  141.2478  160.4788 H   0  0  0  0  0  0  0  0  0  0  0  0
  135.2490  140.1753  158.4662 H   0  0  0  0  0  0  0  0  0  0  0  0
  133.5333  138.4237  158.6802 H   0  0  0  0  0  0  0  0  0  0  0  0
  133.2395  136.3147  159.3712 H   0  0  0  0  0  0  0  0  0  0  0  0
  133.9261  135.9406  160.9708 H   0  0  0  0  0  0  0  0  0  0  0  0
  131.7390  135.0481  161.7085 H   0  0  0  0  0  0  0  0  0  0  0  0
  132.3065  134.1977  160.2515 H   0  0  0  0  0  0  0  0  0  0  0  0
  129.4862  134.3862  161.1868 H   0  0  0  0  0  0  0  0  0  0  0  0
  127.1502  133.8713  160.7601 H   0  0  0  0  0  0  0  0  0  0  0  0
  125.0910  134.5316  159.5822 H   0  0  0  0  0  0  0  0  0  0  0  0
  125.2249  135.9187  157.5522 H   0  0  0  0  0  0  0  0  0  0  0  0
  127.4171  136.6535  156.7054 H   0  0  0  0  0  0  0  0  0  0  0  0
  129.4756  136.0011  157.8887 H   0  0  0  0  0  0  0  0  0  0  0  0
  129.0993  132.0024  160.9582 H   0  0  0  0  0  0  0  0  0  0  0  0
  129.9179  129.8669  160.0458 H   0  0  0  0  0  0  0  0  0  0  0  0
  131.4939  129.8598  158.1538 H   0  0  0  0  0  0  0  0  0  0  0  0
  132.2439  131.9881  157.1683 H   0  0  0  0  0  0  0  0  0  0  0  0
  131.4180  134.1234  158.0748 H   0  0  0  0  0  0  0  0  0  0  0  0
  130.0266  136.7034  161.5431 H   0  0  0  0  0  0  0  0  0  0  0  0
  129.3092  137.0950  159.9618 H   0  0  0  0  0  0  0  0  0  0  0  0
  130.9244  138.8422  160.6805 H   0  0  0  0  0  0  0  0  0  0  0  0
  131.4753  138.0199  159.2007 H   0  0  0  0  0  0  0  0  0  0  0  0
  132.6638  139.2639  163.5902 H   0  0  0  0  0  0  0  0  0  0  0  0
  133.3078  137.6273  163.3161 H   0  0  0  0  0  0  0  0  0  0  0  0
  134.3375  138.8765  164.0560 H   0  0  0  0  0  0  0  0  0  0  0  0
  136.7558  138.4521  162.2691 H   0  0  0  0  0  0  0  0  0  0  0  0
  137.8399  136.7479  163.6776 H   0  0  0  0  0  0  0  0  0  0  0  0
  1  2  1  0
  1 39  1  0
  1 40  1  0
  1 41  1  0
  2  3  1  0
  2 42  1  0
  2 43  1  0
  3 38  2  0
  3  4  1  0
  4  5  2  0
  4 44  1  0
  5  6  1  0
  5 45  1  0
  6  7  1  0
  6 37  2  0
  7  8  1  1
  7  9  1  0
  7 10  1  0
  9 46  1  0
 10 35  1  0
 10 11  2  0
 11 12  1  0
 11 47  1  0
 12 13  2  0
 12 48  1  0
 13 14  1  0
 13 49  1  0
 14 15  1  0
 14 35  2  0
 15 34  1  0
 15 16  1  0
 16 17  1  0
 16 50  1  0
 16 51  1  0
 17 18  1  0
 17 52  1  0
 17 53  1  0
 18 19  1  0
 18 20  1  0
 18 33  1  0
 20 21  1  0
 20 27  1  0
 20 54  1  0
 21 26  1  0
 21 22  2  0
 22 23  1  0
 22 55  1  0
 23 24  2  0
 23 56  1  0
 24 25  1  0
 24 57  1  0
 25 26  2  0
 25 58  1  0
 26 59  1  0
 27 32  1  0
 27 28  2  0
 28 29  1  0
 28 60  1  0
 29 30  2  0
 29 61  1  0
 30 31  1  0
 30 62  1  0
 31 32  2  0
 31 63  1  0
 32 64  1  0
 33 34  1  0
 33 65  1  0
 33 66  1  0
 34 67  1  0
 34 68  1  0
 35 36  1  0
 36 69  1  0
 36 70  1  0
 36 71  1  0
 37 38  1  0
 37 72  1  0
 38 73  1  0
M  CHG  1  18   1
M  END
>  <DOCK_score>  (1) 
-57.342903

>  <SMILES>  (1) 
CCc1ccc([C@@H](O)c2cccc(N3CC[NH+](C(c4ccccc4)c4ccccc4)CC3)c2C)cc1

$$$$
