Cc1[nH]c(N[C@@H](C)c2ccccc2[C@](C)(O)c2ccccc2)[nH+]c1-c1ccccc1
     RDKit          3D

 58 61  0  0  1  0  0  0  0  0999 V2000
  129.4796  137.1329  162.9895 C   0  0  0  0  0  0  0  0  0  0  0  0
  129.9539  136.8212  161.5934 C   0  0  0  0  0  0  0  0  0  0  0  0
  129.5893  135.7410  160.8273 N   0  0  0  0  0  0  0  0  0  0  0  0
  128.9767  135.0344  161.0849 H   0  0  0  0  0  0  0  0  0  0  0  0
  130.2490  135.8430  159.6413 C   0  0  0  0  0  0  0  0  0  0  0  0
  130.1588  134.9482  158.5888 N   0  0  0  0  0  0  0  0  0  0  0  0
  129.2953  133.7700  158.7010 C   0  0  1  0  0  0  0  0  0  0  0  0
  129.3766  133.3543  159.7052 H   0  0  0  0  0  0  0  0  0  0  0  0
  127.8442  134.1738  158.4320 C   0  0  0  0  0  0  0  0  0  0  0  0
  129.7240  132.7353  157.6927 C   0  0  0  0  0  0  0  0  0  0  0  0
  129.7056  133.0356  156.3433 C   0  0  0  0  0  0  0  0  0  0  0  0
  130.1024  132.0879  155.4189 C   0  0  0  0  0  0  0  0  0  0  0  0
  130.5097  130.8366  155.8430 C   0  0  0  0  0  0  0  0  0  0  0  0
  130.5236  130.5348  157.1918 C   0  0  0  0  0  0  0  0  0  0  0  0
  130.1303  131.4841  158.1168 C   0  0  0  0  0  0  0  0  0  0  0  0
  130.1449  131.1548  159.5873 C   0  0  2  0  0  0  0  0  0  0  0  0
  130.6314  129.7175  159.7832 C   0  0  0  0  0  0  0  0  0  0  0  0
  128.8249  131.2874  160.1183 O   0  0  0  0  0  0  0  0  0  0  0  0
  131.0725  132.1013  160.3047 C   0  0  0  0  0  0  0  0  0  0  0  0
  132.1680  132.6273  159.6461 C   0  0  0  0  0  0  0  0  0  0  0  0
  133.0162  133.4994  160.3026 C   0  0  0  0  0  0  0  0  0  0  0  0
  132.7745  133.8373  161.6212 C   0  0  0  0  0  0  0  0  0  0  0  0
  131.6821  133.3067  162.2816 C   0  0  0  0  0  0  0  0  0  0  0  0
  130.8310  132.4389  161.6232 C   0  0  0  0  0  0  0  0  0  0  0  0
  130.9792  136.9312  159.6577 N   0  0  0  0  0  0  0  0  0  0  0  0
  131.5453  137.2397  158.9328 H   0  0  0  0  0  0  0  0  0  0  0  0
  130.8177  137.5568  160.8506 C   0  0  0  0  0  0  0  0  0  0  0  0
  131.4703  138.8217  161.2685 C   0  0  0  0  0  0  0  0  0  0  0  0
  132.8600  138.9040  161.3326 C   0  0  0  0  0  0  0  0  0  0  0  0
  133.4619  140.0853  161.7155 C   0  0  0  0  0  0  0  0  0  0  0  0
  132.6881  141.1828  162.0478 C   0  0  0  0  0  0  0  0  0  0  0  0
  131.3081  141.1051  161.9920 C   0  0  0  0  0  0  0  0  0  0  0  0
  130.6955  139.9308  161.6040 C   0  0  0  0  0  0  0  0  0  0  0  0
  128.5775  137.7425  162.9392 H   0  0  0  0  0  0  0  0  0  0  0  0
  129.2610  136.2032  163.5150 H   0  0  0  0  0  0  0  0  0  0  0  0
  130.2573  137.6782  163.5242 H   0  0  0  0  0  0  0  0  0  0  0  0
  130.6642  135.1034  157.7755 H   0  0  0  0  0  0  0  0  0  0  0  0
  127.7827  134.6915  157.4748 H   0  0  0  0  0  0  0  0  0  0  0  0
  127.2182  133.2818  158.4036 H   0  0  0  0  0  0  0  0  0  0  0  0
  127.4981  134.8355  159.2259 H   0  0  0  0  0  0  0  0  0  0  0  0
  129.3839  134.0119  156.0117 H   0  0  0  0  0  0  0  0  0  0  0  0
  130.0913  132.3237  154.3650 H   0  0  0  0  0  0  0  0  0  0  0  0
  130.8166  130.0949  155.1205 H   0  0  0  0  0  0  0  0  0  0  0  0
  130.8414  129.5572  157.5231 H   0  0  0  0  0  0  0  0  0  0  0  0
  131.6189  129.6039  159.3359 H   0  0  0  0  0  0  0  0  0  0  0  0
  130.6874  129.4949  160.8487 H   0  0  0  0  0  0  0  0  0  0  0  0
  129.9344  129.0295  159.3045 H   0  0  0  0  0  0  0  0  0  0  0  0
  128.7592  131.0901  161.0627 H   0  0  0  0  0  0  0  0  0  0  0  0
  132.3592  132.3602  158.6172 H   0  0  0  0  0  0  0  0  0  0  0  0
  133.8697  133.9137  159.7868 H   0  0  0  0  0  0  0  0  0  0  0  0
  133.4392  134.5156  162.1354 H   0  0  0  0  0  0  0  0  0  0  0  0
  131.4935  133.5704  163.3117 H   0  0  0  0  0  0  0  0  0  0  0  0
  129.9777  132.0242  162.1393 H   0  0  0  0  0  0  0  0  0  0  0  0
  133.4651  138.0461  161.0782 H   0  0  0  0  0  0  0  0  0  0  0  0
  134.5389  140.1517  161.7606 H   0  0  0  0  0  0  0  0  0  0  0  0
  133.1632  142.1038  162.3516 H   0  0  0  0  0  0  0  0  0  0  0  0
  130.7089  141.9650  162.2522 H   0  0  0  0  0  0  0  0  0  0  0  0
  129.6182  139.8714  161.5602 H   0  0  0  0  0  0  0  0  0  0  0  0
  1  2  1  0
  1 34  1  0
  1 35  1  0
  1 36  1  0
  2 27  2  0
  2  3  1  0
  3  4  1  0
  3  5  1  0
  5  6  1  0
  5 25  2  0
  6  7  1  0
  6 37  1  0
  7  8  1  1
  7  9  1  0
  7 10  1  0
  9 38  1  0
  9 39  1  0
  9 40  1  0
 10 15  1  0
 10 11  2  0
 11 12  1  0
 11 41  1  0
 12 13  2  0
 12 42  1  0
 13 14  1  0
 13 43  1  0
 14 15  2  0
 14 44  1  0
 15 16  1  0
 16 17  1  0
 16 18  1  1
 16 19  1  0
 17 45  1  0
 17 46  1  0
 17 47  1  0
 18 48  1  0
 19 24  1  0
 19 20  2  0
 20 21  1  0
 20 49  1  0
 21 22  2  0
 21 50  1  0
 22 23  1  0
 22 51  1  0
 23 24  2  0
 23 52  1  0
 24 53  1  0
 25 26  1  0
 25 27  1  0
 27 28  1  0
 28 33  1  0
 28 29  2  0
 29 30  1  0
 29 54  1  0
 30 31  2  0
 30 55  1  0
 31 32  1  0
 31 56  1  0
 32 33  2  0
 32 57  1  0
 33 58  1  0
M  CHG  1  25   1
M  END
>  <DOCK_score>  (1) 
-58.08432

>  <SMILES>  (1) 
Cc1[nH]c(N[C@@H](C)c2ccccc2[C@](C)(O)c2ccccc2)[nH+]c1-c1ccccc1

$$$$
