Nc1ccc(-c2ccc(NCc3cc(Nc4[nH]cc(-c5ccc(N)cc5)[nH+]4)ccc3O)cc2)cc1
     RDKit          3D

 62 66  0  0  1  0  0  0  0  0999 V2000
  134.4080  143.3850  169.0526 N   0  0  0  0  0  0  0  0  0  0  0  0
  133.8246  142.5618  168.0874 C   0  0  0  0  0  0  0  0  0  0  0  0
  134.5550  142.1780  166.9691 C   0  0  0  0  0  0  0  0  0  0  0  0
  133.9789  141.3696  166.0123 C   0  0  0  0  0  0  0  0  0  0  0  0
  132.6662  140.9281  166.1726 C   0  0  0  0  0  0  0  0  0  0  0  0
  132.0465  140.0536  165.1473 C   0  0  0  0  0  0  0  0  0  0  0  0
  130.6700  140.0990  164.9310 C   0  0  0  0  0  0  0  0  0  0  0  0
  130.0964  139.2885  163.9744 C   0  0  0  0  0  0  0  0  0  0  0  0
  130.8882  138.4195  163.2326 C   0  0  0  0  0  0  0  0  0  0  0  0
  130.3046  137.5960  162.2679 N   0  0  0  0  0  0  0  0  0  0  0  0
  128.9862  137.9279  161.7222 C   0  0  0  0  0  0  0  0  0  0  0  0
  128.5867  136.8883  160.7071 C   0  0  0  0  0  0  0  0  0  0  0  0
  129.4977  136.4618  159.7604 C   0  0  0  0  0  0  0  0  0  0  0  0
  129.1311  135.4998  158.8287 C   0  0  0  0  0  0  0  0  0  0  0  0
  130.0556  135.0625  157.8727 N   0  0  0  0  0  0  0  0  0  0  0  0
  129.9825  133.7704  157.3787 C   0  0  0  0  0  0  0  0  0  0  0  0
  129.5110  132.6882  158.0562 N   0  0  0  0  0  0  0  0  0  0  0  0
  129.1691  132.6826  158.9638 H   0  0  0  0  0  0  0  0  0  0  0  0
  129.6095  131.6046  157.2164 C   0  0  0  0  0  0  0  0  0  0  0  0
  130.1377  132.0562  156.0518 C   0  0  0  0  0  0  0  0  0  0  0  0
  130.4259  131.2374  154.8485 C   0  0  0  0  0  0  0  0  0  0  0  0
  129.8010  131.5321  153.6379 C   0  0  0  0  0  0  0  0  0  0  0  0
  130.0742  130.7729  152.5196 C   0  0  0  0  0  0  0  0  0  0  0  0
  130.9632  129.7079  152.6016 C   0  0  0  0  0  0  0  0  0  0  0  0
  131.2341  128.9367  151.4688 N   0  0  0  0  0  0  0  0  0  0  0  0
  131.5834  129.4091  153.8091 C   0  0  0  0  0  0  0  0  0  0  0  0
  131.3175  130.1688  154.9285 C   0  0  0  0  0  0  0  0  0  0  0  0
  130.3506  133.3894  156.1796 N   0  0  0  0  0  0  0  0  0  0  0  0
  130.7185  133.9683  155.4937 H   0  0  0  0  0  0  0  0  0  0  0  0
  127.8449  134.9756  158.8422 C   0  0  0  0  0  0  0  0  0  0  0  0
  126.9338  135.4071  159.7856 C   0  0  0  0  0  0  0  0  0  0  0  0
  127.3028  136.3641  160.7200 C   0  0  0  0  0  0  0  0  0  0  0  0
  126.4049  136.7884  161.6490 O   0  0  0  0  0  0  0  0  0  0  0  0
  132.2603  138.3688  163.4505 C   0  0  0  0  0  0  0  0  0  0  0  0
  132.8386  139.1810  164.4026 C   0  0  0  0  0  0  0  0  0  0  0  0
  131.9354  141.3143  167.2950 C   0  0  0  0  0  0  0  0  0  0  0  0
  132.5134  142.1275  168.2465 C   0  0  0  0  0  0  0  0  0  0  0  0
  135.3224  143.6884  168.9424 H   0  0  0  0  0  0  0  0  0  0  0  0
  133.8985  143.6536  169.8333 H   0  0  0  0  0  0  0  0  0  0  0  0
  135.5731  142.5168  166.8475 H   0  0  0  0  0  0  0  0  0  0  0  0
  134.5457  141.0752  165.1413 H   0  0  0  0  0  0  0  0  0  0  0  0
  130.0539  140.7713  165.5097 H   0  0  0  0  0  0  0  0  0  0  0  0
  129.0306  139.3257  163.8040 H   0  0  0  0  0  0  0  0  0  0  0  0
  130.7722  136.8044  161.9590 H   0  0  0  0  0  0  0  0  0  0  0  0
  128.2537  137.9483  162.5291 H   0  0  0  0  0  0  0  0  0  0  0  0
  129.0269  138.9063  161.2435 H   0  0  0  0  0  0  0  0  0  0  0  0
  130.4960  136.8734  159.7477 H   0  0  0  0  0  0  0  0  0  0  0  0
  130.7476  135.6642  157.5562 H   0  0  0  0  0  0  0  0  0  0  0  0
  129.3212  130.5883  157.4409 H   0  0  0  0  0  0  0  0  0  0  0  0
  129.1064  132.3568  153.5748 H   0  0  0  0  0  0  0  0  0  0  0  0
  129.5940  131.0039  151.5801 H   0  0  0  0  0  0  0  0  0  0  0  0
  131.8547  128.1932  151.5251 H   0  0  0  0  0  0  0  0  0  0  0  0
  130.8017  129.1446  150.6257 H   0  0  0  0  0  0  0  0  0  0  0  0
  132.2739  128.5808  153.8705 H   0  0  0  0  0  0  0  0  0  0  0  0
  131.7999  129.9366  155.8665 H   0  0  0  0  0  0  0  0  0  0  0  0
  127.5576  134.2305  158.1151 H   0  0  0  0  0  0  0  0  0  0  0  0
  125.9337  134.9999  159.7961 H   0  0  0  0  0  0  0  0  0  0  0  0
  125.5376  136.3666  161.5790 H   0  0  0  0  0  0  0  0  0  0  0  0
  132.8736  137.6925  162.8736 H   0  0  0  0  0  0  0  0  0  0  0  0
  133.9046  139.1411  164.5717 H   0  0  0  0  0  0  0  0  0  0  0  0
  130.9171  140.9767  167.4191 H   0  0  0  0  0  0  0  0  0  0  0  0
  131.9472  142.4274  169.1160 H   0  0  0  0  0  0  0  0  0  0  0  0
  1  2  1  0
  1 38  1  0
  1 39  1  0
  2 37  2  0
  2  3  1  0
  3  4  2  0
  3 40  1  0
  4  5  1  0
  4 41  1  0
  5  6  1  0
  5 36  2  0
  6 35  1  0
  6  7  2  0
  7  8  1  0
  7 42  1  0
  8  9  2  0
  8 43  1  0
  9 10  1  0
  9 34  1  0
 10 11  1  0
 10 44  1  0
 11 12  1  0
 11 45  1  0
 11 46  1  0
 12 32  1  0
 12 13  2  0
 13 14  1  0
 13 47  1  0
 14 15  1  0
 14 30  2  0
 15 48  1  0
 16 15  1  0
 16 28  2  0
 16 17  1  0
 17 18  1  0
 17 19  1  0
 19 20  2  0
 19 49  1  0
 20 21  1  0
 20 28  1  0
 21 27  1  0
 21 22  2  0
 22 23  1  0
 22 50  1  0
 23 24  2  0
 23 51  1  0
 24 25  1  0
 24 26  1  0
 25 52  1  0
 25 53  1  0
 26 27  2  0
 26 54  1  0
 27 55  1  0
 28 29  1  0
 30 31  1  0
 30 56  1  0
 31 32  2  0
 31 57  1  0
 32 33  1  0
 33 58  1  0
 34 35  2  0
 34 59  1  0
 35 60  1  0
 36 37  1  0
 36 61  1  0
 37 62  1  0
M  CHG  1  28   1
M  END
>  <DOCK_score>  (1) 
-57.444916

>  <SMILES>  (1) 
Nc1ccc(-c2ccc(NCc3cc(Nc4[nH]cc(-c5ccc(N)cc5)[nH+]4)ccc3O)cc2)cc1

$$$$
