Cc1cccc(-c2ccc(-c3n[nH]cc3C[NH2+]CCc3ccccc3C)cc2)c1
     RDKit          3D

 57 60  0  0  0  0  0  0  0  0999 V2000
  130.0338  131.3300  151.8333 C   0  0  0  0  0  0  0  0  0  0  0  0
  130.3622  131.0988  153.2858 C   0  0  0  0  0  0  0  0  0  0  0  0
  131.1518  130.0236  153.6526 C   0  0  0  0  0  0  0  0  0  0  0  0
  131.4575  129.8056  154.9837 C   0  0  0  0  0  0  0  0  0  0  0  0
  130.9750  130.6603  155.9543 C   0  0  0  0  0  0  0  0  0  0  0  0
  130.1788  131.7447  155.5907 C   0  0  0  0  0  0  0  0  0  0  0  0
  129.6575  132.6665  156.6290 C   0  0  0  0  0  0  0  0  0  0  0  0
  129.4279  134.0068  156.3200 C   0  0  0  0  0  0  0  0  0  0  0  0
  128.9433  134.8628  157.2844 C   0  0  0  0  0  0  0  0  0  0  0  0
  128.6820  134.3890  158.5695 C   0  0  0  0  0  0  0  0  0  0  0  0
  128.1598  135.3108  159.6078 C   0  0  0  0  0  0  0  0  0  0  0  0
  127.0151  135.1893  160.2467 N   0  0  0  0  0  0  0  0  0  0  0  0
  126.8993  136.2617  161.1402 N   0  0  0  0  0  0  0  0  0  0  0  0
  126.1550  136.4246  161.7405 H   0  0  0  0  0  0  0  0  0  0  0  0
  128.0039  137.0296  161.0210 C   0  0  0  0  0  0  0  0  0  0  0  0
  128.7988  136.4739  160.0809 C   0  0  0  0  0  0  0  0  0  0  0  0
  130.1334  137.0021  159.6221 C   0  0  0  0  0  0  0  0  0  0  0  0
  130.9321  137.3962  160.7904 N   0  0  0  0  0  0  0  0  0  0  0  0
  130.4444  138.1149  161.3041 H   0  0  0  0  0  0  0  0  0  0  0  0
  131.0744  136.5946  161.3864 H   0  0  0  0  0  0  0  0  0  0  0  0
  132.2331  137.9111  160.3432 C   0  0  0  0  0  0  0  0  0  0  0  0
  133.0647  138.3215  161.5600 C   0  0  0  0  0  0  0  0  0  0  0  0
  134.3995  138.8498  161.1011 C   0  0  0  0  0  0  0  0  0  0  0  0
  134.6941  138.9050  159.7514 C   0  0  0  0  0  0  0  0  0  0  0  0
  135.9181  139.3898  159.3306 C   0  0  0  0  0  0  0  0  0  0  0  0
  136.8481  139.8188  160.2591 C   0  0  0  0  0  0  0  0  0  0  0  0
  136.5534  139.7639  161.6086 C   0  0  0  0  0  0  0  0  0  0  0  0
  135.3268  139.2843  162.0292 C   0  0  0  0  0  0  0  0  0  0  0  0
  135.0033  139.2299  163.5000 C   0  0  0  0  0  0  0  0  0  0  0  0
  128.9170  133.0501  158.8801 C   0  0  0  0  0  0  0  0  0  0  0  0
  129.3966  132.1928  157.9144 C   0  0  0  0  0  0  0  0  0  0  0  0
  129.8696  131.9565  154.2480 C   0  0  0  0  0  0  0  0  0  0  0  0
  129.1145  130.8019  151.5801 H   0  0  0  0  0  0  0  0  0  0  0  0
  129.9003  132.3971  151.6563 H   0  0  0  0  0  0  0  0  0  0  0  0
  130.8492  130.9581  151.2128 H   0  0  0  0  0  0  0  0  0  0  0  0
  131.5311  129.3521  152.8966 H   0  0  0  0  0  0  0  0  0  0  0  0
  132.0746  128.9649  155.2642 H   0  0  0  0  0  0  0  0  0  0  0  0
  131.2138  130.4887  156.9935 H   0  0  0  0  0  0  0  0  0  0  0  0
  129.6297  134.3735  155.3244 H   0  0  0  0  0  0  0  0  0  0  0  0
  128.7655  135.9007  157.0450 H   0  0  0  0  0  0  0  0  0  0  0  0
  128.2128  137.9319  161.5764 H   0  0  0  0  0  0  0  0  0  0  0  0
  130.6601  136.2257  159.0672 H   0  0  0  0  0  0  0  0  0  0  0  0
  129.9797  137.8680  158.9782 H   0  0  0  0  0  0  0  0  0  0  0  0
  132.7598  137.1348  159.7882 H   0  0  0  0  0  0  0  0  0  0  0  0
  132.0793  138.7771  159.6994 H   0  0  0  0  0  0  0  0  0  0  0  0
  132.5381  139.0979  162.1149 H   0  0  0  0  0  0  0  0  0  0  0  0
  133.2186  137.4556  162.2039 H   0  0  0  0  0  0  0  0  0  0  0  0
  133.9678  138.5695  159.0260 H   0  0  0  0  0  0  0  0  0  0  0  0
  136.1483  139.4329  158.2762 H   0  0  0  0  0  0  0  0  0  0  0  0
  137.8047  140.1975  159.9306 H   0  0  0  0  0  0  0  0  0  0  0  0
  137.2800  140.0990  162.3339 H   0  0  0  0  0  0  0  0  0  0  0  0
  135.3182  138.2687  163.9061 H   0  0  0  0  0  0  0  0  0  0  0  0
  135.5287  140.0325  164.0176 H   0  0  0  0  0  0  0  0  0  0  0  0
  133.9290  139.3493  163.6404 H   0  0  0  0  0  0  0  0  0  0  0  0
  128.7191  132.6844  159.8769 H   0  0  0  0  0  0  0  0  0  0  0  0
  129.5744  131.1548  158.1539 H   0  0  0  0  0  0  0  0  0  0  0  0
  129.2490  132.7925  153.9611 H   0  0  0  0  0  0  0  0  0  0  0  0
  1  2  1  0
  1 33  1  0
  1 34  1  0
  1 35  1  0
  2 32  2  0
  2  3  1  0
  3  4  2  0
  3 36  1  0
  4  5  1  0
  4 37  1  0
  5  6  2  0
  5 38  1  0
  6  7  1  0
  6 32  1  0
  7 31  1  0
  7  8  2  0
  8  9  1  0
  8 39  1  0
  9 10  2  0
  9 40  1  0
 10 11  1  0
 10 30  1  0
 11 16  1  0
 11 12  2  0
 12 13  1  0
 13 14  1  0
 13 15  1  0
 15 16  2  0
 15 41  1  0
 16 17  1  0
 17 18  1  0
 17 42  1  0
 17 43  1  0
 18 19  1  0
 18 20  1  0
 18 21  1  0
 21 22  1  0
 21 44  1  0
 21 45  1  0
 22 23  1  0
 22 46  1  0
 22 47  1  0
 23 28  1  0
 23 24  2  0
 24 25  1  0
 24 48  1  0
 25 26  2  0
 25 49  1  0
 26 27  1  0
 26 50  1  0
 27 28  2  0
 27 51  1  0
 28 29  1  0
 29 52  1  0
 29 53  1  0
 29 54  1  0
 30 31  2  0
 30 55  1  0
 31 56  1  0
 32 57  1  0
M  CHG  1  18   1
M  END
>  <DOCK_score>  (1) 
-48.526669

>  <SMILES>  (1) 
Cc1cccc(-c2ccc(-c3n[nH]cc3C[NH2+]CCc3ccccc3C)cc2)c1

$$$$
