CC(C)c1c[nH]c(Nc2cc(O)ccc2N[C@@H]2C=C(N)CC2)[nH+]1
     RDKit          3D

 47 49  0  0  1  0  0  0  0  0999 V2000
  131.0673  131.9177  155.8616 C   0  0  0  0  0  0  0  0  0  0  0  0
  130.0193  131.4896  156.8908 C   0  0  0  0  0  0  0  0  0  0  0  0
  130.3146  130.0623  157.3557 C   0  0  0  0  0  0  0  0  0  0  0  0
  130.0659  132.4229  158.0730 C   0  0  0  0  0  0  0  0  0  0  0  0
  129.7619  132.1011  159.3420 C   0  0  0  0  0  0  0  0  0  0  0  0
  129.9359  133.2384  160.0972 N   0  0  0  0  0  0  0  0  0  0  0  0
  129.7948  133.3235  161.0531 H   0  0  0  0  0  0  0  0  0  0  0  0
  130.3441  134.2208  159.2488 C   0  0  0  0  0  0  0  0  0  0  0  0
  130.6322  135.5289  159.6026 N   0  0  0  0  0  0  0  0  0  0  0  0
  129.9689  136.1246  160.6826 C   0  0  0  0  0  0  0  0  0  0  0  0
  128.6787  135.7330  161.0071 C   0  0  0  0  0  0  0  0  0  0  0  0
  128.0221  136.3284  162.0733 C   0  0  0  0  0  0  0  0  0  0  0  0
  126.7549  135.9484  162.3883 O   0  0  0  0  0  0  0  0  0  0  0  0
  128.6563  137.3107  162.8195 C   0  0  0  0  0  0  0  0  0  0  0  0
  129.9445  137.7002  162.5023 C   0  0  0  0  0  0  0  0  0  0  0  0
  130.6063  137.1087  161.4375 C   0  0  0  0  0  0  0  0  0  0  0  0
  131.9130  137.5033  161.1163 N   0  0  0  0  0  0  0  0  0  0  0  0
  132.1352  138.6024  160.1733 C   0  0  2  0  0  0  0  0  0  0  0  0
  131.4259  138.5425  159.3479 H   0  0  0  0  0  0  0  0  0  0  0  0
  133.5532  138.5699  159.6521 C   0  0  0  0  0  0  0  0  0  0  0  0
  134.2931  139.4809  160.2524 C   0  0  0  0  0  0  0  0  0  0  0  0
  135.6402  139.6975  159.9908 N   0  0  0  0  0  0  0  0  0  0  0  0
  133.4809  140.2579  161.2623 C   0  0  0  0  0  0  0  0  0  0  0  0
  132.0083  139.9642  160.8943 C   0  0  0  0  0  0  0  0  0  0  0  0
  130.4131  133.7203  158.0377 N   0  0  0  0  0  0  0  0  0  0  0  0
  130.6754  134.2096  157.2424 H   0  0  0  0  0  0  0  0  0  0  0  0
  132.0580  131.8808  156.3147 H   0  0  0  0  0  0  0  0  0  0  0  0
  131.0337  131.2427  155.0063 H   0  0  0  0  0  0  0  0  0  0  0  0
  130.8569  132.9346  155.5301 H   0  0  0  0  0  0  0  0  0  0  0  0
  129.0287  131.5265  156.4375 H   0  0  0  0  0  0  0  0  0  0  0  0
  129.5679  129.7572  158.0889 H   0  0  0  0  0  0  0  0  0  0  0  0
  130.2809  129.3872  156.5006 H   0  0  0  0  0  0  0  0  0  0  0  0
  131.3052  130.0253  157.8090 H   0  0  0  0  0  0  0  0  0  0  0  0
  129.4415  131.1341  159.7008 H   0  0  0  0  0  0  0  0  0  0  0  0
  131.2935  136.0322  159.1023 H   0  0  0  0  0  0  0  0  0  0  0  0
  128.1841  134.9677  160.4273 H   0  0  0  0  0  0  0  0  0  0  0  0
  126.3968  135.2583  161.8132 H   0  0  0  0  0  0  0  0  0  0  0  0
  128.1426  137.7727  163.6496 H   0  0  0  0  0  0  0  0  0  0  0  0
  130.4357  138.4656  163.0847 H   0  0  0  0  0  0  0  0  0  0  0  0
  132.6696  137.0515  161.5215 H   0  0  0  0  0  0  0  0  0  0  0  0
  133.9103  137.8921  158.8910 H   0  0  0  0  0  0  0  0  0  0  0  0
  136.1227  140.3876  160.4721 H   0  0  0  0  0  0  0  0  0  0  0  0
  136.0979  139.1587  159.3269 H   0  0  0  0  0  0  0  0  0  0  0  0
  133.6881  141.3245  161.1763 H   0  0  0  0  0  0  0  0  0  0  0  0
  133.6960  139.9106  162.2729 H   0  0  0  0  0  0  0  0  0  0  0  0
  131.6138  140.7267  160.2227 H   0  0  0  0  0  0  0  0  0  0  0  0
  131.3912  139.8770  161.7886 H   0  0  0  0  0  0  0  0  0  0  0  0
  1  2  1  0
  1 27  1  0
  1 28  1  0
  1 29  1  0
  2  3  1  0
  2  4  1  0
  2 30  1  0
  3 31  1  0
  3 32  1  0
  3 33  1  0
  4 25  1  0
  4  5  2  0
  5  6  1  0
  5 34  1  0
  6  7  1  0
  6  8  1  0
  8  9  1  0
  8 25  2  0
  9 10  1  0
  9 35  1  0
 10 16  1  0
 10 11  2  0
 11 12  1  0
 11 36  1  0
 12 13  1  0
 12 14  2  0
 13 37  1  0
 14 15  1  0
 14 38  1  0
 15 16  2  0
 15 39  1  0
 16 17  1  0
 17 18  1  0
 17 40  1  0
 18 19  1  6
 18 24  1  0
 18 20  1  0
 20 21  2  0
 20 41  1  0
 21 22  1  0
 21 23  1  0
 22 42  1  0
 22 43  1  0
 23 24  1  0
 23 44  1  0
 23 45  1  0
 24 46  1  0
 24 47  1  0
 25 26  1  0
M  CHG  1  25   1
M  END
>  <DOCK_score>  (1) 
-45.020988

>  <SMILES>  (1) 
CC(C)c1c[nH]c(Nc2cc(O)ccc2N[C@@H]2C=C(N)CC2)[nH+]1

$$$$
