NCC[NH2+][C@H]1CC=C(c2[nH]ncc2C(=O)c2cnn(-c3ccccc3)c2)C1
     RDKit          3D

 50 53  0  0  1  0  0  0  0  0999 V2000
  134.7348  140.1426  160.4206 N   0  0  0  0  0  0  0  0  0  0  0  0
  134.9522  139.0738  159.4366 C   0  0  0  0  0  0  0  0  0  0  0  0
  134.1946  137.8178  159.8719 C   0  0  0  0  0  0  0  0  0  0  0  0
  132.7592  138.1177  159.9600 N   0  0  0  0  0  0  0  0  0  0  0  0
  132.4224  138.4179  159.0574 H   0  0  0  0  0  0  0  0  0  0  0  0
  132.6097  138.8518  160.6358 H   0  0  0  0  0  0  0  0  0  0  0  0
  132.0317  136.9117  160.3776 C   0  0  1  0  0  0  0  0  0  0  0  0
  132.4369  136.0254  159.8897 H   0  0  0  0  0  0  0  0  0  0  0  0
  132.0537  136.7570  161.9155 C   0  0  0  0  0  0  0  0  0  0  0  0
  130.6920  136.2065  162.2702 C   0  0  0  0  0  0  0  0  0  0  0  0
  129.8434  136.3660  161.2626 C   0  0  0  0  0  0  0  0  0  0  0  0
  128.4377  135.9379  161.2790 C   0  0  0  0  0  0  0  0  0  0  0  0
  127.6268  135.8628  162.3671 N   0  0  0  0  0  0  0  0  0  0  0  0
  127.8762  136.0845  163.2779 H   0  0  0  0  0  0  0  0  0  0  0  0
  126.3723  135.4059  161.9489 N   0  0  0  0  0  0  0  0  0  0  0  0
  126.3922  135.2084  160.6599 C   0  0  0  0  0  0  0  0  0  0  0  0
  127.6778  135.5328  160.1777 C   0  0  0  0  0  0  0  0  0  0  0  0
  128.1341  135.4536  158.7816 C   0  0  0  0  0  0  0  0  0  0  0  0
  128.0178  136.4175  158.0479 O   0  0  0  0  0  0  0  0  0  0  0  0
  128.7326  134.2063  158.2712 C   0  0  0  0  0  0  0  0  0  0  0  0
  128.9322  133.0118  159.0002 C   0  0  0  0  0  0  0  0  0  0  0  0
  129.4802  132.1373  158.2019 N   0  0  0  0  0  0  0  0  0  0  0  0
  129.6650  132.7234  156.9447 N   0  0  0  0  0  0  0  0  0  0  0  0
  130.2299  132.0986  155.8247 C   0  0  0  0  0  0  0  0  0  0  0  0
  130.3516  132.7929  154.6283 C   0  0  0  0  0  0  0  0  0  0  0  0
  130.9142  132.1762  153.5279 C   0  0  0  0  0  0  0  0  0  0  0  0
  131.3454  130.8652  153.6134 C   0  0  0  0  0  0  0  0  0  0  0  0
  131.2204  130.1693  154.8018 C   0  0  0  0  0  0  0  0  0  0  0  0
  130.6639  130.7822  155.9073 C   0  0  0  0  0  0  0  0  0  0  0  0
  129.2032  133.9865  156.9914 C   0  0  0  0  0  0  0  0  0  0  0  0
  130.5180  137.0541  160.0984 C   0  0  0  0  0  0  0  0  0  0  0  0
  135.0045  139.8428  161.3456 H   0  0  0  0  0  0  0  0  0  0  0  0
  135.2252  140.9835  160.1555 H   0  0  0  0  0  0  0  0  0  0  0  0
  136.0173  138.8513  159.3714 H   0  0  0  0  0  0  0  0  0  0  0  0
  134.5883  139.3980  158.4617 H   0  0  0  0  0  0  0  0  0  0  0  0
  134.5585  137.4936  160.8470 H   0  0  0  0  0  0  0  0  0  0  0  0
  134.3560  137.0247  159.1419 H   0  0  0  0  0  0  0  0  0  0  0  0
  132.8371  136.0609  162.2154 H   0  0  0  0  0  0  0  0  0  0  0  0
  132.2052  137.7256  162.3920 H   0  0  0  0  0  0  0  0  0  0  0  0
  130.4437  135.7441  163.2142 H   0  0  0  0  0  0  0  0  0  0  0  0
  125.5644  134.8559  160.0623 H   0  0  0  0  0  0  0  0  0  0  0  0
  128.6720  132.8496  160.0357 H   0  0  0  0  0  0  0  0  0  0  0  0
  130.0106  133.8153  154.5596 H   0  0  0  0  0  0  0  0  0  0  0  0
  131.0129  132.7171  152.5983 H   0  0  0  0  0  0  0  0  0  0  0  0
  131.7805  130.3836  152.7502 H   0  0  0  0  0  0  0  0  0  0  0  0
  131.5583  129.1455  154.8657 H   0  0  0  0  0  0  0  0  0  0  0  0
  130.5668  130.2384  156.8354 H   0  0  0  0  0  0  0  0  0  0  0  0
  129.2008  134.6971  156.1781 H   0  0  0  0  0  0  0  0  0  0  0  0
  130.2568  136.5600  159.1627 H   0  0  0  0  0  0  0  0  0  0  0  0
  130.2343  138.1059  160.0633 H   0  0  0  0  0  0  0  0  0  0  0  0
  1  2  1  0
  1 32  1  0
  1 33  1  0
  2  3  1  0
  2 34  1  0
  2 35  1  0
  3  4  1  0
  3 36  1  0
  3 37  1  0
  4  5  1  0
  4  6  1  0
  4  7  1  0
  7  8  1  6
  7 31  1  0
  7  9  1  0
  9 10  1  0
  9 38  1  0
  9 39  1  0
 10 11  2  0
 10 40  1  0
 11 12  1  0
 11 31  1  0
 12 17  2  0
 12 13  1  0
 13 14  1  0
 13 15  1  0
 15 16  2  0
 16 17  1  0
 16 41  1  0
 17 18  1  0
 18 19  2  0
 18 20  1  0
 20 30  2  0
 20 21  1  0
 21 22  2  0
 21 42  1  0
 22 23  1  0
 23 24  1  0
 23 30  1  0
 24 29  1  0
 24 25  2  0
 25 26  1  0
 25 43  1  0
 26 27  2  0
 26 44  1  0
 27 28  1  0
 27 45  1  0
 28 29  2  0
 28 46  1  0
 29 47  1  0
 30 48  1  0
 31 49  1  0
 31 50  1  0
M  CHG  1   4   1
M  END
>  <DOCK_score>  (1) 
-43.34861

>  <SMILES>  (1) 
NCC[NH2+][C@H]1CC=C(c2[nH]ncc2C(=O)c2cnn(-c3ccccc3)c2)C1

$$$$
