C[C@@H](Cc1ccc(-c2n[nH]cc2C[NH2+]Cc2cc3ccccc3[nH]2)cc1)c1ccccc1
     RDKit          3D

 61 65  0  0  1  0  0  0  0  0999 V2000
  133.8395  137.7252  161.3644 C   0  0  0  0  0  0  0  0  0  0  0  0
  133.6315  138.9882  160.5263 C   0  0  1  0  0  0  0  0  0  0  0  0
  133.6995  138.7371  159.4677 H   0  0  0  0  0  0  0  0  0  0  0  0
  132.2503  139.5757  160.8244 C   0  0  0  0  0  0  0  0  0  0  0  0
  131.1889  138.5632  160.4787 C   0  0  0  0  0  0  0  0  0  0  0  0
  130.7578  137.6632  161.4361 C   0  0  0  0  0  0  0  0  0  0  0  0
  129.7824  136.7370  161.1266 C   0  0  0  0  0  0  0  0  0  0  0  0
  129.2397  136.7027  159.8438 C   0  0  0  0  0  0  0  0  0  0  0  0
  128.1950  135.7049  159.5036 C   0  0  0  0  0  0  0  0  0  0  0  0
  126.8950  135.8739  159.6214 N   0  0  0  0  0  0  0  0  0  0  0  0
  126.2628  134.6987  159.1958 N   0  0  0  0  0  0  0  0  0  0  0  0
  125.3056  134.5429  159.1749 H   0  0  0  0  0  0  0  0  0  0  0  0
  127.2171  133.8205  158.8194 C   0  0  0  0  0  0  0  0  0  0  0  0
  128.4193  134.4120  158.9917 C   0  0  0  0  0  0  0  0  0  0  0  0
  129.7621  133.7965  158.6929 C   0  0  0  0  0  0  0  0  0  0  0  0
  129.7149  133.1299  157.3847 N   0  0  0  0  0  0  0  0  0  0  0  0
  129.0100  132.4081  157.4001 H   0  0  0  0  0  0  0  0  0  0  0  0
  129.4885  133.8058  156.6707 H   0  0  0  0  0  0  0  0  0  0  0  0
  131.0238  132.5299  157.0935 C   0  0  0  0  0  0  0  0  0  0  0  0
  130.9755  131.8460  155.7515 C   0  0  0  0  0  0  0  0  0  0  0  0
  131.4632  130.6226  155.4919 C   0  0  0  0  0  0  0  0  0  0  0  0
  131.2070  130.3510  154.0754 C   0  0  0  0  0  0  0  0  0  0  0  0
  131.4719  129.2712  153.2308 C   0  0  0  0  0  0  0  0  0  0  0  0
  131.0937  129.3272  151.9192 C   0  0  0  0  0  0  0  0  0  0  0  0
  130.4482  130.4498  151.4187 C   0  0  0  0  0  0  0  0  0  0  0  0
  130.1771  131.5263  152.2343 C   0  0  0  0  0  0  0  0  0  0  0  0
  130.5531  131.4908  153.5733 C   0  0  0  0  0  0  0  0  0  0  0  0
  130.4227  132.3777  154.6184 N   0  0  0  0  0  0  0  0  0  0  0  0
  130.0037  133.2506  154.5594 H   0  0  0  0  0  0  0  0  0  0  0  0
  129.6815  137.6081  158.8815 C   0  0  0  0  0  0  0  0  0  0  0  0
  130.6537  138.5336  159.2032 C   0  0  0  0  0  0  0  0  0  0  0  0
  134.6930  140.0006  160.8715 C   0  0  0  0  0  0  0  0  0  0  0  0
  135.1299  140.8978  159.9148 C   0  0  0  0  0  0  0  0  0  0  0  0
  136.1008  141.8290  160.2328 C   0  0  0  0  0  0  0  0  0  0  0  0
  136.6406  141.8579  161.5051 C   0  0  0  0  0  0  0  0  0  0  0  0
  136.2074  140.9575  162.4604 C   0  0  0  0  0  0  0  0  0  0  0  0
  135.2336  140.0287  162.1435 C   0  0  0  0  0  0  0  0  0  0  0  0
  134.8234  137.3067  161.1528 H   0  0  0  0  0  0  0  0  0  0  0  0
  133.7715  137.9763  162.4229 H   0  0  0  0  0  0  0  0  0  0  0  0
  133.0717  136.9930  161.1147 H   0  0  0  0  0  0  0  0  0  0  0  0
  132.1825  139.8269  161.8819 H   0  0  0  0  0  0  0  0  0  0  0  0
  132.1024  140.4756  160.2263 H   0  0  0  0  0  0  0  0  0  0  0  0
  131.1819  137.6881  162.4289 H   0  0  0  0  0  0  0  0  0  0  0  0
  129.4431  136.0377  161.8764 H   0  0  0  0  0  0  0  0  0  0  0  0
  127.0486  132.8226  158.4424 H   0  0  0  0  0  0  0  0  0  0  0  0
  130.5236  134.5762  158.6761 H   0  0  0  0  0  0  0  0  0  0  0  0
  130.0067  133.0662  159.4642 H   0  0  0  0  0  0  0  0  0  0  0  0
  131.7853  133.3095  157.0766 H   0  0  0  0  0  0  0  0  0  0  0  0
  131.2685  131.7996  157.8648 H   0  0  0  0  0  0  0  0  0  0  0  0
  131.9519  129.9635  156.1942 H   0  0  0  0  0  0  0  0  0  0  0  0
  131.9734  128.3945  153.6132 H   0  0  0  0  0  0  0  0  0  0  0  0
  131.2987  128.4916  151.2664 H   0  0  0  0  0  0  0  0  0  0  0  0
  130.1552  130.4793  150.3796 H   0  0  0  0  0  0  0  0  0  0  0  0
  129.6749  132.3953  151.8355 H   0  0  0  0  0  0  0  0  0  0  0  0
  129.2645  137.5855  157.8855 H   0  0  0  0  0  0  0  0  0  0  0  0
  130.9971  139.2358  158.4580 H   0  0  0  0  0  0  0  0  0  0  0  0
  134.7108  140.8729  158.9199 H   0  0  0  0  0  0  0  0  0  0  0  0
  136.4395  142.5322  159.4865 H   0  0  0  0  0  0  0  0  0  0  0  0
  137.4011  142.5837  161.7527 H   0  0  0  0  0  0  0  0  0  0  0  0
  136.6293  140.9798  163.4542 H   0  0  0  0  0  0  0  0  0  0  0  0
  134.8953  139.3252  162.8898 H   0  0  0  0  0  0  0  0  0  0  0  0
  1  2  1  0
  1 38  1  0
  1 39  1  0
  1 40  1  0
  2  3  1  6
  2  4  1  0
  2 32  1  0
  4  5  1  0
  4 41  1  0
  4 42  1  0
  5 31  1  0
  5  6  2  0
  6  7  1  0
  6 43  1  0
  7  8  2  0
  7 44  1  0
  8  9  1  0
  8 30  1  0
  9 14  1  0
  9 10  2  0
 10 11  1  0
 11 12  1  0
 11 13  1  0
 13 14  2  0
 13 45  1  0
 14 15  1  0
 15 16  1  0
 15 46  1  0
 15 47  1  0
 16 17  1  0
 16 18  1  0
 16 19  1  0
 19 20  1  0
 19 48  1  0
 19 49  1  0
 20 28  1  0
 20 21  2  0
 21 22  1  0
 21 50  1  0
 22 27  2  0
 22 23  1  0
 23 24  2  0
 23 51  1  0
 24 25  1  0
 24 52  1  0
 25 26  2  0
 25 53  1  0
 26 27  1  0
 26 54  1  0
 27 28  1  0
 28 29  1  0
 30 31  2  0
 30 55  1  0
 31 56  1  0
 32 37  1  0
 32 33  2  0
 33 34  1  0
 33 57  1  0
 34 35  2  0
 34 58  1  0
 35 36  1  0
 35 59  1  0
 36 37  2  0
 36 60  1  0
 37 61  1  0
M  CHG  1  16   1
M  END
>  <DOCK_score>  (1) 
-56.137623

>  <SMILES>  (1) 
C[C@@H](Cc1ccc(-c2n[nH]cc2C[NH2+]Cc2cc3ccccc3[nH]2)cc1)c1ccccc1

$$$$
