O=C1CC[C@H](NC(N[C@@H]2COC3(CCC3)C2)=[NH+]C2CC2)CN1
     RDKit          3D

 49 52  0  0  1  0  0  0  0  0999 V2000
  123.7967  133.7114  161.6133 O   0  0  0  0  0  0  0  0  0  0  0  0
  124.9574  134.0311  161.4659 C   0  0  0  0  0  0  0  0  0  0  0  0
  125.9267  132.9879  160.9891 C   0  0  0  0  0  0  0  0  0  0  0  0
  127.3614  133.4359  161.2773 C   0  0  0  0  0  0  0  0  0  0  0  0
  127.5279  134.8777  160.7826 C   0  0  2  0  0  0  0  0  0  0  0  0
  127.2062  134.9473  159.7435 H   0  0  0  0  0  0  0  0  0  0  0  0
  128.9340  135.2748  160.8895 N   0  0  0  0  0  0  0  0  0  0  0  0
  129.7910  135.0598  159.8362 C   0  0  0  0  0  0  0  0  0  0  0  0
  130.8562  135.9048  159.6331 N   0  0  0  0  0  0  0  0  0  0  0  0
  131.0784  137.0344  160.5391 C   0  0  2  0  0  0  0  0  0  0  0  0
  130.7158  136.8060  161.5413 H   0  0  0  0  0  0  0  0  0  0  0  0
  130.4115  138.3159  159.9926 C   0  0  0  0  0  0  0  0  0  0  0  0
  131.3093  139.4095  160.2312 O   0  0  0  0  0  0  0  0  0  0  0  0
  132.4780  138.9348  160.8973 C   0  0  0  0  0  0  0  0  0  0  0  0
  132.5934  139.2851  162.3809 C   0  0  0  0  0  0  0  0  0  0  0  0
  134.1038  139.4532  162.1354 C   0  0  0  0  0  0  0  0  0  0  0  0
  133.7572  139.7380  160.6628 C   0  0  0  0  0  0  0  0  0  0  0  0
  132.5824  137.4321  160.5725 C   0  0  0  0  0  0  0  0  0  0  0  0
  129.5936  134.0546  159.0300 N   0  0  0  0  0  0  0  0  0  0  0  0
  128.6933  133.7313  158.8694 H   0  0  0  0  0  0  0  0  0  0  0  0
  130.7315  133.4132  158.3669 C   0  0  0  0  0  0  0  0  0  0  0  0
  130.5430  132.9655  156.9161 C   0  0  0  0  0  0  0  0  0  0  0  0
  130.6090  131.9244  158.0363 C   0  0  0  0  0  0  0  0  0  0  0  0
  126.6675  135.7987  161.6488 C   0  0  0  0  0  0  0  0  0  0  0  0
  125.3045  135.2899  161.7364 N   0  0  0  0  0  0  0  0  0  0  0  0
  125.7297  132.0479  161.5046 H   0  0  0  0  0  0  0  0  0  0  0  0
  125.8052  132.8444  159.9155 H   0  0  0  0  0  0  0  0  0  0  0  0
  128.0630  132.7854  160.7551 H   0  0  0  0  0  0  0  0  0  0  0  0
  127.5485  133.3920  162.3501 H   0  0  0  0  0  0  0  0  0  0  0  0
  129.2604  135.6894  161.7035 H   0  0  0  0  0  0  0  0  0  0  0  0
  131.4610  135.7529  158.8900 H   0  0  0  0  0  0  0  0  0  0  0  0
  129.4687  138.4917  160.5105 H   0  0  0  0  0  0  0  0  0  0  0  0
  130.2317  138.2117  158.9226 H   0  0  0  0  0  0  0  0  0  0  0  0
  132.0884  140.2124  162.6519 H   0  0  0  0  0  0  0  0  0  0  0  0
  132.3478  138.4574  163.0462 H   0  0  0  0  0  0  0  0  0  0  0  0
  134.6739  138.5354  162.2798 H   0  0  0  0  0  0  0  0  0  0  0  0
  134.5377  140.3077  162.6546 H   0  0  0  0  0  0  0  0  0  0  0  0
  134.4424  139.2723  159.9543 H   0  0  0  0  0  0  0  0  0  0  0  0
  133.5792  140.7920  160.4498 H   0  0  0  0  0  0  0  0  0  0  0  0
  133.0523  137.2713  159.6021 H   0  0  0  0  0  0  0  0  0  0  0  0
  133.1147  136.8959  161.3581 H   0  0  0  0  0  0  0  0  0  0  0  0
  131.7146  133.7855  158.6551 H   0  0  0  0  0  0  0  0  0  0  0  0
  129.5725  133.1482  156.4550 H   0  0  0  0  0  0  0  0  0  0  0  0
  131.4023  133.0429  156.2498 H   0  0  0  0  0  0  0  0  0  0  0  0
  131.5116  131.3173  158.1064 H   0  0  0  0  0  0  0  0  0  0  0  0
  129.6820  131.4221  158.3125 H   0  0  0  0  0  0  0  0  0  0  0  0
  127.0957  135.8557  162.6495 H   0  0  0  0  0  0  0  0  0  0  0  0
  126.6493  136.7950  161.2074 H   0  0  0  0  0  0  0  0  0  0  0  0
  124.6060  135.9057  162.0081 H   0  0  0  0  0  0  0  0  0  0  0  0
  1  2  2  0
  2 25  1  0
  2  3  1  0
  3  4  1  0
  3 26  1  0
  3 27  1  0
  4  5  1  0
  4 28  1  0
  4 29  1  0
  5  6  1  6
  5  7  1  0
  5 24  1  0
  7 30  1  0
  8  7  1  0
  8  9  1  0
  8 19  2  0
  9 10  1  0
  9 31  1  0
 10 11  1  1
 10 18  1  0
 10 12  1  0
 12 13  1  0
 12 32  1  0
 12 33  1  0
 13 14  1  0
 14 17  1  0
 14 15  1  0
 14 18  1  0
 15 16  1  0
 15 34  1  0
 15 35  1  0
 16 17  1  0
 16 36  1  0
 16 37  1  0
 17 38  1  0
 17 39  1  0
 18 40  1  0
 18 41  1  0
 19 20  1  0
 19 21  1  0
 21 23  1  0
 21 22  1  0
 21 42  1  0
 22 23  1  0
 22 43  1  0
 22 44  1  0
 23 45  1  0
 23 46  1  0
 24 25  1  0
 24 47  1  0
 24 48  1  0
 25 49  1  0
M  CHG  1  19   1
M  END
>  <DOCK_score>  (1) 
-41.230297

>  <SMILES>  (1) 
O=C1CC[C@H](NC(N[C@@H]2COC3(CCC3)C2)=[NH+]C2CC2)CN1

$$$$
