Oc1cc(C[NH+]=C(NCc2cccc3[nH]ncc23)NC2CC=CC2)cc(Sc2ccccc2)c1
     RDKit          3D

 62 66  0  0  1  0  0  0  0  0999 V2000
  124.7177  135.8251  163.3900 O   0  0  0  0  0  0  0  0  0  0  0  0
  125.9441  135.8505  163.9752 C   0  0  0  0  0  0  0  0  0  0  0  0
  127.0508  136.2719  163.2504 C   0  0  0  0  0  0  0  0  0  0  0  0
  128.2987  136.2979  163.8433 C   0  0  0  0  0  0  0  0  0  0  0  0
  129.4973  136.7561  163.0532 C   0  0  0  0  0  0  0  0  0  0  0  0
  129.4733  136.1361  161.7260 N   0  0  0  0  0  0  0  0  0  0  0  0
  128.7519  135.5343  161.4848 H   0  0  0  0  0  0  0  0  0  0  0  0
  130.4214  136.3935  160.8694 C   0  0  0  0  0  0  0  0  0  0  0  0
  131.4439  137.2467  161.2113 N   0  0  0  0  0  0  0  0  0  0  0  0
  132.5095  137.5359  160.2486 C   0  0  0  0  0  0  0  0  0  0  0  0
  133.4982  138.4911  160.8657 C   0  0  0  0  0  0  0  0  0  0  0  0
  133.3260  139.8386  160.7313 C   0  0  0  0  0  0  0  0  0  0  0  0
  134.2318  140.7277  161.2962 C   0  0  0  0  0  0  0  0  0  0  0  0
  135.3133  140.2741  161.9972 C   0  0  0  0  0  0  0  0  0  0  0  0
  135.5152  138.9050  162.1507 C   0  0  0  0  0  0  0  0  0  0  0  0
  136.4722  138.1509  162.7780 N   0  0  0  0  0  0  0  0  0  0  0  0
  137.2366  138.5009  163.2618 H   0  0  0  0  0  0  0  0  0  0  0  0
  136.1699  136.7958  162.6090 N   0  0  0  0  0  0  0  0  0  0  0  0
  135.0780  136.6646  161.9113 C   0  0  0  0  0  0  0  0  0  0  0  0
  134.5978  138.0021  161.5790 C   0  0  0  0  0  0  0  0  0  0  0  0
  130.3991  135.8117  159.6239 N   0  0  0  0  0  0  0  0  0  0  0  0
  129.3097  134.9024  159.2595 C   0  0  0  0  0  0  0  0  0  0  0  0
  129.3809  133.5939  160.0806 C   0  0  0  0  0  0  0  0  0  0  0  0
  128.9650  132.5103  159.1130 C   0  0  0  0  0  0  0  0  0  0  0  0
  129.0243  132.9335  157.8796 C   0  0  0  0  0  0  0  0  0  0  0  0
  129.4896  134.3698  157.8190 C   0  0  0  0  0  0  0  0  0  0  0  0
  128.4506  135.8993  165.1571 C   0  0  0  0  0  0  0  0  0  0  0  0
  127.3456  135.4816  165.8895 C   0  0  0  0  0  0  0  0  0  0  0  0
  127.5377  134.9800  167.5677 S   0  0  0  0  0  0  0  0  0  0  0  0
  128.1895  136.4229  168.3406 C   0  0  0  0  0  0  0  0  0  0  0  0
  127.4642  137.6082  168.3274 C   0  0  0  0  0  0  0  0  0  0  0  0
  127.9756  138.7355  168.9391 C   0  0  0  0  0  0  0  0  0  0  0  0
  129.2130  138.6889  169.5551 C   0  0  0  0  0  0  0  0  0  0  0  0
  129.9405  137.5127  169.5650 C   0  0  0  0  0  0  0  0  0  0  0  0
  129.4328  136.3800  168.9601 C   0  0  0  0  0  0  0  0  0  0  0  0
  126.0907  135.4551  165.2948 C   0  0  0  0  0  0  0  0  0  0  0  0
  124.7153  136.1185  162.4688 H   0  0  0  0  0  0  0  0  0  0  0  0
  126.9360  136.5804  162.2217 H   0  0  0  0  0  0  0  0  0  0  0  0
  130.4091  136.4642  163.5740 H   0  0  0  0  0  0  0  0  0  0  0  0
  129.4701  137.8407  162.9480 H   0  0  0  0  0  0  0  0  0  0  0  0
  131.4595  137.6571  162.0899 H   0  0  0  0  0  0  0  0  0  0  0  0
  132.0789  137.9861  159.3542 H   0  0  0  0  0  0  0  0  0  0  0  0
  133.0180  136.6097  159.9804 H   0  0  0  0  0  0  0  0  0  0  0  0
  132.4776  140.2171  160.1805 H   0  0  0  0  0  0  0  0  0  0  0  0
  134.0793  141.7906  161.1797 H   0  0  0  0  0  0  0  0  0  0  0  0
  136.0099  140.9760  162.4313 H   0  0  0  0  0  0  0  0  0  0  0  0
  134.6113  135.7324  161.6288 H   0  0  0  0  0  0  0  0  0  0  0  0
  131.1047  136.0033  158.9864 H   0  0  0  0  0  0  0  0  0  0  0  0
  128.3412  135.3880  159.3791 H   0  0  0  0  0  0  0  0  0  0  0  0
  130.3983  133.4202  160.4307 H   0  0  0  0  0  0  0  0  0  0  0  0
  128.6904  133.6362  160.9229 H   0  0  0  0  0  0  0  0  0  0  0  0
  128.6585  131.5165  159.4038 H   0  0  0  0  0  0  0  0  0  0  0  0
  128.7733  132.3356  157.0159 H   0  0  0  0  0  0  0  0  0  0  0  0
  128.8732  134.9397  157.1238 H   0  0  0  0  0  0  0  0  0  0  0  0
  130.5378  134.4191  157.5241 H   0  0  0  0  0  0  0  0  0  0  0  0
  129.4277  135.9164  165.6169 H   0  0  0  0  0  0  0  0  0  0  0  0
  126.4998  137.6466  167.8427 H   0  0  0  0  0  0  0  0  0  0  0  0
  127.4105  139.6559  168.9331 H   0  0  0  0  0  0  0  0  0  0  0  0
  129.6125  139.5733  170.0293 H   0  0  0  0  0  0  0  0  0  0  0  0
  130.9065  137.4800  170.0466 H   0  0  0  0  0  0  0  0  0  0  0  0
  130.0013  135.4617  168.9683 H   0  0  0  0  0  0  0  0  0  0  0  0
  125.2309  135.1274  165.8603 H   0  0  0  0  0  0  0  0  0  0  0  0
  1  2  1  0
  1 37  1  0
  2 36  2  0
  2  3  1  0
  3  4  2  0
  3 38  1  0
  4  5  1  0
  4 27  1  0
  5  6  1  0
  5 39  1  0
  5 40  1  0
  6  7  1  0
  8  6  2  0
  8  9  1  0
  8 21  1  0
  9 10  1  0
  9 41  1  0
 10 11  1  0
 10 42  1  0
 10 43  1  0
 11 20  1  0
 11 12  2  0
 12 13  1  0
 12 44  1  0
 13 14  2  0
 13 45  1  0
 14 15  1  0
 14 46  1  0
 15 20  2  0
 15 16  1  0
 16 17  1  0
 16 18  1  0
 18 19  2  0
 19 20  1  0
 19 47  1  0
 21 22  1  0
 21 48  1  0
 22 26  1  0
 22 23  1  0
 22 49  1  0
 23 24  1  0
 23 50  1  0
 23 51  1  0
 24 25  2  0
 24 52  1  0
 25 26  1  0
 25 53  1  0
 26 54  1  0
 26 55  1  0
 27 28  2  0
 27 56  1  0
 28 29  1  0
 28 36  1  0
 29 30  1  0
 30 35  1  0
 30 31  2  0
 31 32  1  0
 31 57  1  0
 32 33  2  0
 32 58  1  0
 33 34  1  0
 33 59  1  0
 34 35  2  0
 34 60  1  0
 35 61  1  0
 36 62  1  0
M  CHG  1   6   1
M  END
>  <DOCK_score>  (1) 
-46.8102

>  <SMILES>  (1) 
Oc1cc(C[NH+]=C(NCc2cccc3[nH]ncc23)NC2CC=CC2)cc(Sc2ccccc2)c1

$$$$
