Clc1ccc(Nc2[nH]cc(-c3ccccc3)[nH+]2)c(SC2CCCCC2)c1
     RDKit          3D

 49 52  0  0  1  0  0  0  0  0999 V2000
  127.9240  136.0914  163.9325 Cl  0  0  0  0  0  0  0  0  0  0  0  0
  128.6412  135.8264  162.3741 C   0  0  0  0  0  0  0  0  0  0  0  0
  127.8355  135.5774  161.2768 C   0  0  0  0  0  0  0  0  0  0  0  0
  128.4004  135.3654  160.0329 C   0  0  0  0  0  0  0  0  0  0  0  0
  129.7783  135.4025  159.8814 C   0  0  0  0  0  0  0  0  0  0  0  0
  130.3527  135.1823  158.6225 N   0  0  0  0  0  0  0  0  0  0  0  0
  130.1398  133.9825  157.9647 C   0  0  0  0  0  0  0  0  0  0  0  0
  129.3910  132.9451  158.4296 N   0  0  0  0  0  0  0  0  0  0  0  0
  128.9153  132.9130  159.2744 H   0  0  0  0  0  0  0  0  0  0  0  0
  129.4341  131.9517  157.4822 C   0  0  0  0  0  0  0  0  0  0  0  0
  130.2071  132.4098  156.4662 C   0  0  0  0  0  0  0  0  0  0  0  0
  130.5364  131.6752  155.2204 C   0  0  0  0  0  0  0  0  0  0  0  0
  130.1688  132.1984  153.9819 C   0  0  0  0  0  0  0  0  0  0  0  0
  130.4825  131.5132  152.8257 C   0  0  0  0  0  0  0  0  0  0  0  0
  131.1503  130.3038  152.8951 C   0  0  0  0  0  0  0  0  0  0  0  0
  131.5128  129.7771  154.1218 C   0  0  0  0  0  0  0  0  0  0  0  0
  131.2095  130.4565  155.2842 C   0  0  0  0  0  0  0  0  0  0  0  0
  130.6214  133.6605  156.7887 N   0  0  0  0  0  0  0  0  0  0  0  0
  131.1859  134.2254  156.2381 H   0  0  0  0  0  0  0  0  0  0  0  0
  130.5914  135.6540  160.9870 C   0  0  0  0  0  0  0  0  0  0  0  0
  132.3430  135.7032  160.8027 S   0  0  0  0  0  0  0  0  0  0  0  0
  132.6651  137.4483  160.4272 C   0  0  0  0  0  0  0  0  0  0  0  0
  134.0350  137.5819  159.7590 C   0  0  0  0  0  0  0  0  0  0  0  0
  134.3066  139.0539  159.4422 C   0  0  0  0  0  0  0  0  0  0  0  0
  134.2901  139.8661  160.7388 C   0  0  0  0  0  0  0  0  0  0  0  0
  132.9201  139.7325  161.4069 C   0  0  0  0  0  0  0  0  0  0  0  0
  132.6486  138.2605  161.7237 C   0  0  0  0  0  0  0  0  0  0  0  0
  130.0167  135.8652  162.2321 C   0  0  0  0  0  0  0  0  0  0  0  0
  126.7620  135.5481  161.3926 H   0  0  0  0  0  0  0  0  0  0  0  0
  127.7686  135.1707  159.1790 H   0  0  0  0  0  0  0  0  0  0  0  0
  130.8995  135.8702  158.2119 H   0  0  0  0  0  0  0  0  0  0  0  0
  128.9456  130.9901  157.5357 H   0  0  0  0  0  0  0  0  0  0  0  0
  129.6434  133.1405  153.9269 H   0  0  0  0  0  0  0  0  0  0  0  0
  130.2024  131.9199  151.8654 H   0  0  0  0  0  0  0  0  0  0  0  0
  131.3897  129.7692  151.9877 H   0  0  0  0  0  0  0  0  0  0  0  0
  132.0347  128.8328  154.1699 H   0  0  0  0  0  0  0  0  0  0  0  0
  131.4934  130.0446  156.2413 H   0  0  0  0  0  0  0  0  0  0  0  0
  131.8943  137.8233  159.7538 H   0  0  0  0  0  0  0  0  0  0  0  0
  134.8058  137.2070  160.4323 H   0  0  0  0  0  0  0  0  0  0  0  0
  134.0467  137.0034  158.8353 H   0  0  0  0  0  0  0  0  0  0  0  0
  133.5358  139.4289  158.7689 H   0  0  0  0  0  0  0  0  0  0  0  0
  135.2825  139.1491  158.9662 H   0  0  0  0  0  0  0  0  0  0  0  0
  134.4836  140.9148  160.5132 H   0  0  0  0  0  0  0  0  0  0  0  0
  135.0609  139.4911  161.4120 H   0  0  0  0  0  0  0  0  0  0  0  0
  132.1494  140.1075  160.7335 H   0  0  0  0  0  0  0  0  0  0  0  0
  132.9086  140.3111  162.3306 H   0  0  0  0  0  0  0  0  0  0  0  0
  131.6727  138.1654  162.1997 H   0  0  0  0  0  0  0  0  0  0  0  0
  133.4194  137.8856  162.3970 H   0  0  0  0  0  0  0  0  0  0  0  0
  130.6431  136.0601  163.0900 H   0  0  0  0  0  0  0  0  0  0  0  0
  1  2  1  0
  2 28  2  0
  2  3  1  0
  3  4  2  0
  3 29  1  0
  4  5  1  0
  4 30  1  0
  5  6  1  0
  5 20  2  0
  6 31  1  0
  7  6  1  0
  7 18  2  0
  7  8  1  0
  8  9  1  0
  8 10  1  0
 10 11  2  0
 10 32  1  0
 11 12  1  0
 11 18  1  0
 12 17  1  0
 12 13  2  0
 13 14  1  0
 13 33  1  0
 14 15  2  0
 14 34  1  0
 15 16  1  0
 15 35  1  0
 16 17  2  0
 16 36  1  0
 17 37  1  0
 18 19  1  0
 20 21  1  0
 20 28  1  0
 21 22  1  0
 22 27  1  0
 22 23  1  0
 22 38  1  0
 23 24  1  0
 23 39  1  0
 23 40  1  0
 24 25  1  0
 24 41  1  0
 24 42  1  0
 25 26  1  0
 25 43  1  0
 25 44  1  0
 26 27  1  0
 26 45  1  0
 26 46  1  0
 27 47  1  0
 27 48  1  0
 28 49  1  0
M  CHG  1  18   1
M  END
>  <DOCK_score>  (1) 
-57.480186

>  <SMILES>  (1) 
Clc1ccc(Nc2[nH]cc(-c3ccccc3)[nH+]2)c(SC2CCCCC2)c1

$$$$
