CCc1ccc(-c2c[nH]c(N[C@@H](Cc3ncccc3C)c3ccnn3C)[nH+]2)cc1
     RDKit          3D

 56 59  0  0  1  0  0  0  0  0999 V2000
  129.9891  128.5826  150.7066 C   0  0  0  0  0  0  0  0  0  0  0  0
  131.1068  129.5958  150.9608 C   0  0  0  0  0  0  0  0  0  0  0  0
  130.8903  130.2579  152.2971 C   0  0  0  0  0  0  0  0  0  0  0  0
  131.4458  129.7067  153.4372 C   0  0  0  0  0  0  0  0  0  0  0  0
  131.2549  130.3114  154.6629 C   0  0  0  0  0  0  0  0  0  0  0  0
  130.4916  131.4742  154.7521 C   0  0  0  0  0  0  0  0  0  0  0  0
  130.2785  132.1259  156.0674 C   0  0  0  0  0  0  0  0  0  0  0  0
  129.6893  131.5624  157.1511 C   0  0  0  0  0  0  0  0  0  0  0  0
  129.6991  132.5085  158.1471 N   0  0  0  0  0  0  0  0  0  0  0  0
  129.3465  132.4016  159.0444 H   0  0  0  0  0  0  0  0  0  0  0  0
  130.2946  133.6234  157.6425 C   0  0  0  0  0  0  0  0  0  0  0  0
  130.5013  134.8078  158.3286 N   0  0  0  0  0  0  0  0  0  0  0  0
  129.5724  135.2132  159.3864 C   0  0  1  0  0  0  0  0  0  0  0  0
  129.5591  134.4546  160.1689 H   0  0  0  0  0  0  0  0  0  0  0  0
  130.0258  136.5491  159.9790 C   0  0  0  0  0  0  0  0  0  0  0  0
  131.4097  136.3985  160.5563 C   0  0  0  0  0  0  0  0  0  0  0  0
  132.0222  135.2328  160.4854 N   0  0  0  0  0  0  0  0  0  0  0  0
  133.2330  135.0546  160.9762 C   0  0  0  0  0  0  0  0  0  0  0  0
  133.9080  136.0944  161.5878 C   0  0  0  0  0  0  0  0  0  0  0  0
  133.2961  137.3348  161.6809 C   0  0  0  0  0  0  0  0  0  0  0  0
  132.0245  137.4851  161.1487 C   0  0  0  0  0  0  0  0  0  0  0  0
  131.3196  138.8152  161.2203 C   0  0  0  0  0  0  0  0  0  0  0  0
  128.1885  135.3637  158.8091 C   0  0  0  0  0  0  0  0  0  0  0  0
  127.8885  135.7240  157.5397 C   0  0  0  0  0  0  0  0  0  0  0  0
  126.4955  135.7425  157.4155 C   0  0  0  0  0  0  0  0  0  0  0  0
  125.9776  135.4128  158.5710 N   0  0  0  0  0  0  0  0  0  0  0  0
  127.0265  135.1690  159.4671 N   0  0  0  0  0  0  0  0  0  0  0  0
  126.8866  134.7731  160.8705 C   0  0  0  0  0  0  0  0  0  0  0  0
  130.6440  133.3891  156.4011 N   0  0  0  0  0  0  0  0  0  0  0  0
  131.0908  134.0191  155.8142 H   0  0  0  0  0  0  0  0  0  0  0  0
  129.9297  132.0226  153.6005 C   0  0  0  0  0  0  0  0  0  0  0  0
  130.1317  131.4123  152.3793 C   0  0  0  0  0  0  0  0  0  0  0  0
  129.0271  129.0948  150.7066 H   0  0  0  0  0  0  0  0  0  0  0  0
  130.1458  128.1037  149.7400 H   0  0  0  0  0  0  0  0  0  0  0  0
  129.9985  127.8270  151.4921 H   0  0  0  0  0  0  0  0  0  0  0  0
  132.0688  129.0840  150.9605 H   0  0  0  0  0  0  0  0  0  0  0  0
  131.0973  130.3519  150.1749 H   0  0  0  0  0  0  0  0  0  0  0  0
  132.0335  128.8032  153.3676 H   0  0  0  0  0  0  0  0  0  0  0  0
  131.6930  129.8824  155.5521 H   0  0  0  0  0  0  0  0  0  0  0  0
  129.2887  130.5617  157.2181 H   0  0  0  0  0  0  0  0  0  0  0  0
  131.2612  135.3692  158.1091 H   0  0  0  0  0  0  0  0  0  0  0  0
  130.0392  137.3078  159.1965 H   0  0  0  0  0  0  0  0  0  0  0  0
  129.3346  136.8507  160.7658 H   0  0  0  0  0  0  0  0  0  0  0  0
  133.7025  134.0851  160.8999 H   0  0  0  0  0  0  0  0  0  0  0  0
  134.8994  135.9421  161.9882 H   0  0  0  0  0  0  0  0  0  0  0  0
  133.7995  138.1655  162.1530 H   0  0  0  0  0  0  0  0  0  0  0  0
  130.7433  138.8717  162.1438 H   0  0  0  0  0  0  0  0  0  0  0  0
  132.0563  139.6183  161.2021 H   0  0  0  0  0  0  0  0  0  0  0  0
  130.6494  138.9175  160.3668 H   0  0  0  0  0  0  0  0  0  0  0  0
  128.5991  135.9545  156.7598 H   0  0  0  0  0  0  0  0  0  0  0  0
  125.9425  135.9897  156.5213 H   0  0  0  0  0  0  0  0  0  0  0  0
  126.8436  135.6642  161.4969 H   0  0  0  0  0  0  0  0  0  0  0  0
  125.9701  134.1964  160.9958 H   0  0  0  0  0  0  0  0  0  0  0  0
  127.7419  134.1641  161.1632 H   0  0  0  0  0  0  0  0  0  0  0  0
  129.3371  132.9233  153.6637 H   0  0  0  0  0  0  0  0  0  0  0  0
  129.6964  131.8361  151.4864 H   0  0  0  0  0  0  0  0  0  0  0  0
  1  2  1  0
  1 33  1  0
  1 34  1  0
  1 35  1  0
  2  3  1  0
  2 36  1  0
  2 37  1  0
  3 32  2  0
  3  4  1  0
  4  5  2  0
  4 38  1  0
  5  6  1  0
  5 39  1  0
  6  7  1  0
  6 31  2  0
  7 29  1  0
  7  8  2  0
  8  9  1  0
  8 40  1  0
  9 10  1  0
  9 11  1  0
 11 12  1  0
 11 29  2  0
 12 13  1  0
 12 41  1  0
 13 14  1  1
 13 15  1  0
 13 23  1  0
 15 16  1  0
 15 42  1  0
 15 43  1  0
 16 21  1  0
 16 17  2  0
 17 18  1  0
 18 19  2  0
 18 44  1  0
 19 20  1  0
 19 45  1  0
 20 21  2  0
 20 46  1  0
 21 22  1  0
 22 47  1  0
 22 48  1  0
 22 49  1  0
 23 27  1  0
 23 24  2  0
 24 25  1  0
 24 50  1  0
 25 26  2  0
 25 51  1  0
 26 27  1  0
 27 28  1  0
 28 52  1  0
 28 53  1  0
 28 54  1  0
 29 30  1  0
 31 32  1  0
 31 55  1  0
 32 56  1  0
M  CHG  1  29   1
M  END
>  <DOCK_score>  (1) 
-64.29335

>  <SMILES>  (1) 
CCc1ccc(-c2c[nH]c(N[C@@H](Cc3ncccc3C)c3ccnn3C)[nH+]2)cc1

$$$$
