CCc1ccc(-c2c[nH]c(N[C@H](c3cccc(C)c3)C(C)C)[nH+]2)cc1
     RDKit          3D

 53 55  0  0  1  0  0  0  0  0999 V2000
  129.8380  128.8644  151.3058 C   0  0  0  0  0  0  0  0  0  0  0  0
  131.0603  129.7088  151.6714 C   0  0  0  0  0  0  0  0  0  0  0  0
  130.8050  130.4254  152.9723 C   0  0  0  0  0  0  0  0  0  0  0  0
  131.1505  129.8246  154.1689 C   0  0  0  0  0  0  0  0  0  0  0  0
  130.9243  130.4783  155.3632 C   0  0  0  0  0  0  0  0  0  0  0  0
  130.3361  131.7418  155.3622 C   0  0  0  0  0  0  0  0  0  0  0  0
  130.0853  132.4472  156.6428 C   0  0  0  0  0  0  0  0  0  0  0  0
  129.3095  132.0005  157.6614 C   0  0  0  0  0  0  0  0  0  0  0  0
  129.3541  132.9576  158.6458 N   0  0  0  0  0  0  0  0  0  0  0  0
  128.8976  132.9239  159.5010 H   0  0  0  0  0  0  0  0  0  0  0  0
  130.1568  133.9620  158.1996 C   0  0  0  0  0  0  0  0  0  0  0  0
  130.4630  135.1189  158.8955 N   0  0  0  0  0  0  0  0  0  0  0  0
  129.9057  135.3389  160.2324 C   0  0  2  0  0  0  0  0  0  0  0  0
  130.2296  134.5381  160.8972 H   0  0  0  0  0  0  0  0  0  0  0  0
  128.4008  135.3488  160.1538 C   0  0  0  0  0  0  0  0  0  0  0  0
  127.7715  135.7818  159.0014 C   0  0  0  0  0  0  0  0  0  0  0  0
  126.3914  135.7906  158.9292 C   0  0  0  0  0  0  0  0  0  0  0  0
  125.6399  135.3664  160.0093 C   0  0  0  0  0  0  0  0  0  0  0  0
  126.2690  134.9334  161.1614 C   0  0  0  0  0  0  0  0  0  0  0  0
  125.4499  134.4705  162.3386 C   0  0  0  0  0  0  0  0  0  0  0  0
  127.6497  134.9197  161.2317 C   0  0  0  0  0  0  0  0  0  0  0  0
  130.3970  136.6824  160.7750 C   0  0  0  0  0  0  0  0  0  0  0  0
  129.9424  137.8064  159.8416 C   0  0  0  0  0  0  0  0  0  0  0  0
  129.8147  136.9122  162.1711 C   0  0  0  0  0  0  0  0  0  0  0  0
  130.5965  133.6507  157.0048 N   0  0  0  0  0  0  0  0  0  0  0  0
  131.1905  134.1950  156.4646 H   0  0  0  0  0  0  0  0  0  0  0  0
  129.9847  132.3404  154.1536 C   0  0  0  0  0  0  0  0  0  0  0  0
  130.2208  131.6797  152.9651 C   0  0  0  0  0  0  0  0  0  0  0  0
  130.0226  128.3462  150.3648 H   0  0  0  0  0  0  0  0  0  0  0  0
  129.6534  128.1334  152.0930 H   0  0  0  0  0  0  0  0  0  0  0  0
  128.9674  129.5116  151.1995 H   0  0  0  0  0  0  0  0  0  0  0  0
  131.9307  129.0622  151.7772 H   0  0  0  0  0  0  0  0  0  0  0  0
  131.2448  130.4404  150.8838 H   0  0  0  0  0  0  0  0  0  0  0  0
  131.6019  128.8434  154.1687 H   0  0  0  0  0  0  0  0  0  0  0  0
  131.1988  130.0100  156.2968 H   0  0  0  0  0  0  0  0  0  0  0  0
  128.7611  131.0706  157.6925 H   0  0  0  0  0  0  0  0  0  0  0  0
  131.0469  135.7838  158.4979 H   0  0  0  0  0  0  0  0  0  0  0  0
  128.3586  136.1129  158.1574 H   0  0  0  0  0  0  0  0  0  0  0  0
  125.8999  136.1285  158.0288 H   0  0  0  0  0  0  0  0  0  0  0  0
  124.5614  135.3728  159.9529 H   0  0  0  0  0  0  0  0  0  0  0  0
  125.2660  133.3994  162.2545 H   0  0  0  0  0  0  0  0  0  0  0  0
  125.9926  134.6746  163.2616 H   0  0  0  0  0  0  0  0  0  0  0  0
  124.4987  135.0026  162.3512 H   0  0  0  0  0  0  0  0  0  0  0  0
  128.1412  134.5773  162.1303 H   0  0  0  0  0  0  0  0  0  0  0  0
  131.4854  136.6753  160.8319 H   0  0  0  0  0  0  0  0  0  0  0  0
  128.8540  137.8135  159.7847 H   0  0  0  0  0  0  0  0  0  0  0  0
  130.2923  138.7634  160.2282 H   0  0  0  0  0  0  0  0  0  0  0  0
  130.3571  137.6426  158.8469 H   0  0  0  0  0  0  0  0  0  0  0  0
  130.1386  136.1114  162.8361 H   0  0  0  0  0  0  0  0  0  0  0  0
  130.1646  137.8694  162.5577 H   0  0  0  0  0  0  0  0  0  0  0  0
  128.7263  136.9192  162.1142 H   0  0  0  0  0  0  0  0  0  0  0  0
  129.5284  133.3193  154.1470 H   0  0  0  0  0  0  0  0  0  0  0  0
  129.9494  132.1428  152.0280 H   0  0  0  0  0  0  0  0  0  0  0  0
  1  2  1  0
  1 29  1  0
  1 30  1  0
  1 31  1  0
  2  3  1  0
  2 32  1  0
  2 33  1  0
  3 28  2  0
  3  4  1  0
  4  5  2  0
  4 34  1  0
  5  6  1  0
  5 35  1  0
  6  7  1  0
  6 27  2  0
  7 25  1  0
  7  8  2  0
  8  9  1  0
  8 36  1  0
  9 10  1  0
  9 11  1  0
 11 12  1  0
 11 25  2  0
 12 13  1  0
 12 37  1  0
 13 14  1  1
 13 15  1  0
 13 22  1  0
 15 21  1  0
 15 16  2  0
 16 17  1  0
 16 38  1  0
 17 18  2  0
 17 39  1  0
 18 19  1  0
 18 40  1  0
 19 20  1  0
 19 21  2  0
 20 41  1  0
 20 42  1  0
 20 43  1  0
 21 44  1  0
 22 23  1  0
 22 24  1  0
 22 45  1  0
 23 46  1  0
 23 47  1  0
 23 48  1  0
 24 49  1  0
 24 50  1  0
 24 51  1  0
 25 26  1  0
 27 28  1  0
 27 52  1  0
 28 53  1  0
M  CHG  1  25   1
M  END
>  <DOCK_score>  (1) 
-59.184803

>  <SMILES>  (1) 
CCc1ccc(-c2c[nH]c(N[C@H](c3cccc(C)c3)C(C)C)[nH+]2)cc1

$$$$
