Oc1ccc([C@H](Nc2[nH]cc(-c3ccc(C(F)(F)F)cc3)[nH+]2)c2ccc(F)cc2)cc1
     RDKit          3D

 49 52  0  0  1  0  0  0  0  0999 V2000
  130.4709  140.5132  162.0128 O   0  0  0  0  0  0  0  0  0  0  0  0
  130.1406  139.2990  161.4992 C   0  0  0  0  0  0  0  0  0  0  0  0
  129.9299  138.2204  162.3459 C   0  0  0  0  0  0  0  0  0  0  0  0
  129.5947  136.9873  161.8214 C   0  0  0  0  0  0  0  0  0  0  0  0
  129.4687  136.8276  160.4537 C   0  0  0  0  0  0  0  0  0  0  0  0
  129.1024  135.4812  159.8841 C   0  0  2  0  0  0  0  0  0  0  0  0
  128.9782  134.7649  160.6962 H   0  0  0  0  0  0  0  0  0  0  0  0
  130.1674  135.0240  158.9880 N   0  0  0  0  0  0  0  0  0  0  0  0
  130.0533  133.8041  158.3433 C   0  0  0  0  0  0  0  0  0  0  0  0
  129.3942  132.7136  158.8211 N   0  0  0  0  0  0  0  0  0  0  0  0
  128.9241  132.6515  159.6673 H   0  0  0  0  0  0  0  0  0  0  0  0
  129.5177  131.7168  157.8840 C   0  0  0  0  0  0  0  0  0  0  0  0
  130.2482  132.2264  156.8614 C   0  0  0  0  0  0  0  0  0  0  0  0
  130.6360  131.5081  155.6228 C   0  0  0  0  0  0  0  0  0  0  0  0
  130.2295  131.9887  154.3792 C   0  0  0  0  0  0  0  0  0  0  0  0
  130.5936  131.3166  153.2302 C   0  0  0  0  0  0  0  0  0  0  0  0
  131.3606  130.1678  153.3114 C   0  0  0  0  0  0  0  0  0  0  0  0
  131.7551  129.4382  152.0531 C   0  0  0  0  0  0  0  0  0  0  0  0
  131.2319  130.1093  150.9417 F   0  0  0  0  0  0  0  0  0  0  0  0
  133.1499  129.3951  151.9567 F   0  0  0  0  0  0  0  0  0  0  0  0
  131.2491  128.1351  152.0913 F   0  0  0  0  0  0  0  0  0  0  0  0
  131.7620  129.6836  154.5430 C   0  0  0  0  0  0  0  0  0  0  0  0
  131.4086  130.3506  155.6983 C   0  0  0  0  0  0  0  0  0  0  0  0
  130.5667  133.5076  157.1744 N   0  0  0  0  0  0  0  0  0  0  0  0
  131.0889  134.1087  156.6206 H   0  0  0  0  0  0  0  0  0  0  0  0
  127.8123  135.5959  159.1138 C   0  0  0  0  0  0  0  0  0  0  0  0
  126.6047  135.3899  159.7544 C   0  0  0  0  0  0  0  0  0  0  0  0
  125.4206  135.5003  159.0503 C   0  0  0  0  0  0  0  0  0  0  0  0
  125.4446  135.8069  157.7003 C   0  0  0  0  0  0  0  0  0  0  0  0
  124.2881  135.9098  157.0098 F   0  0  0  0  0  0  0  0  0  0  0  0
  126.6551  136.0075  157.0585 C   0  0  0  0  0  0  0  0  0  0  0  0
  127.8375  135.9015  157.7659 C   0  0  0  0  0  0  0  0  0  0  0  0
  129.6838  137.8997  159.6074 C   0  0  0  0  0  0  0  0  0  0  0  0
  130.0142  139.1361  160.1273 C   0  0  0  0  0  0  0  0  0  0  0  0
  130.5354  140.5279  162.9776 H   0  0  0  0  0  0  0  0  0  0  0  0
  130.0280  138.3448  163.4142 H   0  0  0  0  0  0  0  0  0  0  0  0
  129.4305  136.1474  162.4800 H   0  0  0  0  0  0  0  0  0  0  0  0
  130.9524  135.5758  158.8465 H   0  0  0  0  0  0  0  0  0  0  0  0
  129.1107  130.7186  157.9491 H   0  0  0  0  0  0  0  0  0  0  0  0
  129.6310  132.8853  154.3150 H   0  0  0  0  0  0  0  0  0  0  0  0
  130.2789  131.6877  152.2661 H   0  0  0  0  0  0  0  0  0  0  0  0
  132.3567  128.7839  154.6004 H   0  0  0  0  0  0  0  0  0  0  0  0
  131.7260  129.9737  156.6593 H   0  0  0  0  0  0  0  0  0  0  0  0
  126.5864  135.1463  160.8065 H   0  0  0  0  0  0  0  0  0  0  0  0
  124.4771  135.3433  159.5519 H   0  0  0  0  0  0  0  0  0  0  0  0
  126.6750  136.2464  156.0055 H   0  0  0  0  0  0  0  0  0  0  0  0
  128.7817  136.0581  157.2654 H   0  0  0  0  0  0  0  0  0  0  0  0
  129.5895  137.7712  158.5392 H   0  0  0  0  0  0  0  0  0  0  0  0
  130.1781  139.9741  159.4661 H   0  0  0  0  0  0  0  0  0  0  0  0
  1  2  1  0
  1 35  1  0
  2 34  2  0
  2  3  1  0
  3  4  2  0
  3 36  1  0
  4  5  1  0
  4 37  1  0
  5  6  1  0
  5 33  2  0
  6  7  1  1
  6  8  1  0
  6 26  1  0
  8 38  1  0
  9  8  1  0
  9 24  2  0
  9 10  1  0
 10 11  1  0
 10 12  1  0
 12 13  2  0
 12 39  1  0
 13 14  1  0
 13 24  1  0
 14 23  1  0
 14 15  2  0
 15 16  1  0
 15 40  1  0
 16 17  2  0
 16 41  1  0
 17 18  1  0
 17 22  1  0
 18 19  1  0
 18 20  1  0
 18 21  1  0
 22 23  2  0
 22 42  1  0
 23 43  1  0
 24 25  1  0
 26 32  1  0
 26 27  2  0
 27 28  1  0
 27 44  1  0
 28 29  2  0
 28 45  1  0
 29 30  1  0
 29 31  1  0
 31 32  2  0
 31 46  1  0
 32 47  1  0
 33 34  1  0
 33 48  1  0
 34 49  1  0
M  CHG  1  24   1
M  END
>  <DOCK_score>  (1) 
-60.578636

>  <SMILES>  (1) 
Oc1ccc([C@H](Nc2[nH]cc(-c3ccc(C(F)(F)F)cc3)[nH+]2)c2ccc(F)cc2)cc1

$$$$
