CCc1ccc(-c2ccc3c(c2)C[C@H]([NH+]=C(NC2CCCCC2)N[C@H]2CCC(=O)NC2)CO3)cc1
     RDKit          3D

 74 78  0  0  1  0  0  0  0  0999 V2000
  131.4391  137.3723  171.4482 C   0  0  0  0  0  0  0  0  0  0  0  0
  131.5916  135.9189  170.9932 C   0  0  0  0  0  0  0  0  0  0  0  0
  131.9222  135.8849  169.5232 C   0  0  0  0  0  0  0  0  0  0  0  0
  133.2428  135.9105  169.1132 C   0  0  0  0  0  0  0  0  0  0  0  0
  133.5514  135.8791  167.7684 C   0  0  0  0  0  0  0  0  0  0  0  0
  132.5292  135.8227  166.8228 C   0  0  0  0  0  0  0  0  0  0  0  0
  132.8546  135.7893  165.3758 C   0  0  0  0  0  0  0  0  0  0  0  0
  134.0066  136.4158  164.9027 C   0  0  0  0  0  0  0  0  0  0  0  0
  134.3040  136.3784  163.5586 C   0  0  0  0  0  0  0  0  0  0  0  0
  133.4550  135.7268  162.6672 C   0  0  0  0  0  0  0  0  0  0  0  0
  132.3092  135.1047  163.1347 C   0  0  0  0  0  0  0  0  0  0  0  0
  132.0079  135.1369  164.4839 C   0  0  0  0  0  0  0  0  0  0  0  0
  131.3731  134.3790  162.2016 C   0  0  0  0  0  0  0  0  0  0  0  0
  131.6324  134.8254  160.7607 C   0  0  2  0  0  0  0  0  0  0  0  0
  131.2743  135.8453  160.6218 H   0  0  0  0  0  0  0  0  0  0  0  0
  130.9394  133.9281  159.8327 N   0  0  0  0  0  0  0  0  0  0  0  0
  131.3893  133.1378  159.4950 H   0  0  0  0  0  0  0  0  0  0  0  0
  129.7182  134.1916  159.4612 C   0  0  0  0  0  0  0  0  0  0  0  0
  129.2767  133.7963  158.2206 N   0  0  0  0  0  0  0  0  0  0  0  0
  130.1790  133.0789  157.3163 C   0  0  0  0  0  0  0  0  0  0  0  0
  129.8058  133.3954  155.8666 C   0  0  0  0  0  0  0  0  0  0  0  0
  130.7480  132.6463  154.9222 C   0  0  0  0  0  0  0  0  0  0  0  0
  130.6218  131.1409  155.1643 C   0  0  0  0  0  0  0  0  0  0  0  0
  130.9950  130.8243  156.6140 C   0  0  0  0  0  0  0  0  0  0  0  0
  130.0527  131.5735  157.5583 C   0  0  0  0  0  0  0  0  0  0  0  0
  128.8715  134.8645  160.3099 N   0  0  0  0  0  0  0  0  0  0  0  0
  127.4287  134.6168  160.2537 C   0  0  1  0  0  0  0  0  0  0  0  0
  127.0538  134.8632  159.2602 H   0  0  0  0  0  0  0  0  0  0  0  0
  127.1479  133.1403  160.5578 C   0  0  0  0  0  0  0  0  0  0  0  0
  125.6611  132.8702  160.3138 C   0  0  0  0  0  0  0  0  0  0  0  0
  124.8322  133.9166  161.0020 C   0  0  0  0  0  0  0  0  0  0  0  0
  123.6565  133.6856  161.1895 O   0  0  0  0  0  0  0  0  0  0  0  0
  125.3199  135.0859  161.4180 N   0  0  0  0  0  0  0  0  0  0  0  0
  126.7194  135.4759  161.3011 C   0  0  0  0  0  0  0  0  0  0  0  0
  133.1437  134.7685  160.5031 C   0  0  0  0  0  0  0  0  0  0  0  0
  133.7808  135.7274  161.3483 O   0  0  0  0  0  0  0  0  0  0  0  0
  131.2002  135.8035  167.2414 C   0  0  0  0  0  0  0  0  0  0  0  0
  130.9034  135.8291  168.5891 C   0  0  0  0  0  0  0  0  0  0  0  0
  130.6364  137.8474  170.8841 H   0  0  0  0  0  0  0  0  0  0  0  0
  131.2000  137.3969  172.5113 H   0  0  0  0  0  0  0  0  0  0  0  0
  132.3723  137.9076  171.2731 H   0  0  0  0  0  0  0  0  0  0  0  0
  130.6583  135.3842  171.1682 H   0  0  0  0  0  0  0  0  0  0  0  0
  132.3941  135.4444  171.5571 H   0  0  0  0  0  0  0  0  0  0  0  0
  134.0342  135.9541  169.8468 H   0  0  0  0  0  0  0  0  0  0  0  0
  134.5830  135.8978  167.4494 H   0  0  0  0  0  0  0  0  0  0  0  0
  134.6660  136.9261  165.5891 H   0  0  0  0  0  0  0  0  0  0  0  0
  135.1989  136.8603  163.1932 H   0  0  0  0  0  0  0  0  0  0  0  0
  131.1122  134.6546  164.8469 H   0  0  0  0  0  0  0  0  0  0  0  0
  131.5394  133.3049  162.2840 H   0  0  0  0  0  0  0  0  0  0  0  0
  130.3422  134.6075  162.4721 H   0  0  0  0  0  0  0  0  0  0  0  0
  128.3679  133.9921  157.9440 H   0  0  0  0  0  0  0  0  0  0  0  0
  131.2061  133.3922  157.5038 H   0  0  0  0  0  0  0  0  0  0  0  0
  128.7787  133.0821  155.6792 H   0  0  0  0  0  0  0  0  0  0  0  0
  129.8957  134.4680  155.6942 H   0  0  0  0  0  0  0  0  0  0  0  0
  131.7751  132.9596  155.1098 H   0  0  0  0  0  0  0  0  0  0  0  0
  130.4822  132.8718  153.8895 H   0  0  0  0  0  0  0  0  0  0  0  0
  131.2931  130.6071  154.4916 H   0  0  0  0  0  0  0  0  0  0  0  0
  129.5948  130.8275  154.9769 H   0  0  0  0  0  0  0  0  0  0  0  0
  132.0220  131.1377  156.8015 H   0  0  0  0  0  0  0  0  0  0  0  0
  130.9050  129.7519  156.7865 H   0  0  0  0  0  0  0  0  0  0  0  0
  130.3186  131.3480  158.5911 H   0  0  0  0  0  0  0  0  0  0  0  0
  129.0257  131.2601  157.3708 H   0  0  0  0  0  0  0  0  0  0  0  0
  129.2295  135.5034  160.9460 H   0  0  0  0  0  0  0  0  0  0  0  0
  127.7479  132.5098  159.9015 H   0  0  0  0  0  0  0  0  0  0  0  0
  127.3945  132.9265  161.5978 H   0  0  0  0  0  0  0  0  0  0  0  0
  125.4595  132.8951  159.2430 H   0  0  0  0  0  0  0  0  0  0  0  0
  125.4024  131.8872  160.7070 H   0  0  0  0  0  0  0  0  0  0  0  0
  124.7047  135.7164  161.8240 H   0  0  0  0  0  0  0  0  0  0  0  0
  127.2110  135.3475  162.2654 H   0  0  0  0  0  0  0  0  0  0  0  0
  126.7780  136.5239  161.0071 H   0  0  0  0  0  0  0  0  0  0  0  0
  133.3474  135.0065  159.4591 H   0  0  0  0  0  0  0  0  0  0  0  0
  133.5180  133.7707  160.7326 H   0  0  0  0  0  0  0  0  0  0  0  0
  130.4040  135.7643  166.5127 H   0  0  0  0  0  0  0  0  0  0  0  0
  129.8739  135.8094  168.9147 H   0  0  0  0  0  0  0  0  0  0  0  0
  1  2  1  0
  1 39  1  0
  1 40  1  0
  1 41  1  0
  2  3  1  0
  2 42  1  0
  2 43  1  0
  3 38  2  0
  3  4  1  0
  4  5  2  0
  4 44  1  0
  5  6  1  0
  5 45  1  0
  6  7  1  0
  6 37  2  0
  7 12  1  0
  7  8  2  0
  8  9  1  0
  8 46  1  0
  9 10  2  0
  9 47  1  0
 10 36  1  0
 10 11  1  0
 11 12  2  0
 11 13  1  0
 12 48  1  0
 13 14  1  0
 13 49  1  0
 13 50  1  0
 14 15  1  1
 14 16  1  0
 14 35  1  0
 16 17  1  0
 18 16  2  0
 18 19  1  0
 18 26  1  0
 19 20  1  0
 19 51  1  0
 20 25  1  0
 20 21  1  0
 20 52  1  0
 21 22  1  0
 21 53  1  0
 21 54  1  0
 22 23  1  0
 22 55  1  0
 22 56  1  0
 23 24  1  0
 23 57  1  0
 23 58  1  0
 24 25  1  0
 24 59  1  0
 24 60  1  0
 25 61  1  0
 25 62  1  0
 26 27  1  0
 26 63  1  0
 27 28  1  6
 27 34  1  0
 27 29  1  0
 29 30  1  0
 29 64  1  0
 29 65  1  0
 30 31  1  0
 30 66  1  0
 30 67  1  0
 31 32  2  0
 31 33  1  0
 33 34  1  0
 33 68  1  0
 34 69  1  0
 34 70  1  0
 35 36  1  0
 35 71  1  0
 35 72  1  0
 37 38  1  0
 37 73  1  0
 38 74  1  0
M  CHG  1  16   1
M  END
>  <DOCK_score>  (1) 
-46.088985

>  <SMILES>  (1) 
CCc1ccc(-c2ccc3c(c2)C[C@H]([NH+]=C(NC2CCCCC2)N[C@H]2CCC(=O)NC2)CO3)cc1

$$$$
