Fc1ccc([C@H](CCBr)Nc2[nH]cc(-c3cccnc3)[nH+]2)cc1
     RDKit          3D

 40 42  0  0  1  0  0  0  0  0999 V2000
  124.3004  135.7492  156.8556 F   0  0  0  0  0  0  0  0  0  0  0  0
  125.4483  135.7203  157.5676 C   0  0  0  0  0  0  0  0  0  0  0  0
  125.4078  135.5463  158.9407 C   0  0  0  0  0  0  0  0  0  0  0  0
  126.5829  135.5116  159.6672 C   0  0  0  0  0  0  0  0  0  0  0  0
  127.7978  135.6621  159.0251 C   0  0  0  0  0  0  0  0  0  0  0  0
  129.0781  135.6304  159.8193 C   0  0  2  0  0  0  0  0  0  0  0  0
  128.9481  134.9915  160.6928 H   0  0  0  0  0  0  0  0  0  0  0  0
  129.4325  137.0482  160.2724 C   0  0  0  0  0  0  0  0  0  0  0  0
  128.6002  137.4132  161.5033 C   0  0  0  0  0  0  0  0  0  0  0  0
  129.0555  139.2348  162.0856 Br  0  0  0  0  0  0  0  0  0  0  0  0
  130.1583  135.1006  158.9834 N   0  0  0  0  0  0  0  0  0  0  0  0
  130.0617  133.8252  158.4536 C   0  0  0  0  0  0  0  0  0  0  0  0
  129.4046  132.7782  159.0228 N   0  0  0  0  0  0  0  0  0  0  0  0
  128.9235  132.7912  159.8650 H   0  0  0  0  0  0  0  0  0  0  0  0
  129.5459  131.7003  158.1830 C   0  0  0  0  0  0  0  0  0  0  0  0
  130.2914  132.1170  157.1298 C   0  0  0  0  0  0  0  0  0  0  0  0
  130.7039  131.2890  155.9702 C   0  0  0  0  0  0  0  0  0  0  0  0
  130.3151  131.6386  154.6736 C   0  0  0  0  0  0  0  0  0  0  0  0
  130.7297  130.8358  153.6252 C   0  0  0  0  0  0  0  0  0  0  0  0
  131.4995  129.7181  153.8922 C   0  0  0  0  0  0  0  0  0  0  0  0
  131.8467  129.4106  155.1268 N   0  0  0  0  0  0  0  0  0  0  0  0
  131.4802  130.1470  156.1560 C   0  0  0  0  0  0  0  0  0  0  0  0
  130.5929  133.4255  157.3241 N   0  0  0  0  0  0  0  0  0  0  0  0
  131.1180  133.9769  156.7232 H   0  0  0  0  0  0  0  0  0  0  0  0
  127.8393  135.8413  157.6549 C   0  0  0  0  0  0  0  0  0  0  0  0
  126.6658  135.8705  156.9256 C   0  0  0  0  0  0  0  0  0  0  0  0
  124.4584  135.4331  159.4430 H   0  0  0  0  0  0  0  0  0  0  0  0
  126.5517  135.3710  160.7376 H   0  0  0  0  0  0  0  0  0  0  0  0
  130.4921  137.0952  160.5234 H   0  0  0  0  0  0  0  0  0  0  0  0
  129.2182  137.7511  159.4675 H   0  0  0  0  0  0  0  0  0  0  0  0
  127.5405  137.3662  161.2523 H   0  0  0  0  0  0  0  0  0  0  0  0
  128.8144  136.7101  162.3082 H   0  0  0  0  0  0  0  0  0  0  0  0
  130.9413  135.6435  158.8010 H   0  0  0  0  0  0  0  0  0  0  0  0
  129.1435  130.7095  158.3346 H   0  0  0  0  0  0  0  0  0  0  0  0
  129.7100  132.5150  154.4943 H   0  0  0  0  0  0  0  0  0  0  0  0
  130.4514  131.0771  152.6099 H   0  0  0  0  0  0  0  0  0  0  0  0
  131.8216  129.0873  153.0768 H   0  0  0  0  0  0  0  0  0  0  0  0
  131.7846  129.8630  157.1525 H   0  0  0  0  0  0  0  0  0  0  0  0
  128.7890  135.9580  157.1543 H   0  0  0  0  0  0  0  0  0  0  0  0
  126.6984  136.0100  155.8552 H   0  0  0  0  0  0  0  0  0  0  0  0
  1  2  1  0
  2 26  2  0
  2  3  1  0
  3  4  2  0
  3 27  1  0
  4  5  1  0
  4 28  1  0
  5  6  1  0
  5 25  2  0
  6  7  1  1
  6  8  1  0
  6 11  1  0
  8  9  1  0
  8 29  1  0
  8 30  1  0
  9 10  1  0
  9 31  1  0
  9 32  1  0
 11 33  1  0
 12 11  1  0
 12 23  2  0
 12 13  1  0
 13 14  1  0
 13 15  1  0
 15 16  2  0
 15 34  1  0
 16 17  1  0
 16 23  1  0
 17 22  1  0
 17 18  2  0
 18 19  1  0
 18 35  1  0
 19 20  2  0
 19 36  1  0
 20 21  1  0
 20 37  1  0
 21 22  2  0
 22 38  1  0
 23 24  1  0
 25 26  1  0
 25 39  1  0
 26 40  1  0
M  CHG  1  23   1
M  END
>  <DOCK_score>  (1) 
-56.900009

>  <SMILES>  (1) 
Fc1ccc([C@H](CCBr)Nc2[nH]cc(-c3cccnc3)[nH+]2)cc1

$$$$
