Fc1cccc([C@H](Cc2ccccc2)Nc2[nH]cc(-c3ccc(C4CC=CC4)cc3)[nH+]2)c1
     RDKit          3D

 59 63  0  0  1  0  0  0  0  0999 V2000
  125.9285  133.1756  162.5895 F   0  0  0  0  0  0  0  0  0  0  0  0
  126.5317  134.1337  161.8523 C   0  0  0  0  0  0  0  0  0  0  0  0
  125.7693  135.0150  161.1041 C   0  0  0  0  0  0  0  0  0  0  0  0
  126.3873  135.9947  160.3506 C   0  0  0  0  0  0  0  0  0  0  0  0
  127.7664  136.0949  160.3430 C   0  0  0  0  0  0  0  0  0  0  0  0
  128.5283  135.2154  161.0891 C   0  0  0  0  0  0  0  0  0  0  0  0
  130.0313  135.3256  161.0794 C   0  0  2  0  0  0  0  0  0  0  0  0
  130.4563  134.5540  161.7212 H   0  0  0  0  0  0  0  0  0  0  0  0
  130.4448  136.7047  161.5974 C   0  0  0  0  0  0  0  0  0  0  0  0
  131.9478  136.8148  161.5876 C   0  0  0  0  0  0  0  0  0  0  0  0
  132.6755  136.4400  162.7015 C   0  0  0  0  0  0  0  0  0  0  0  0
  134.0544  136.5365  162.6909 C   0  0  0  0  0  0  0  0  0  0  0  0
  134.7050  137.0179  161.5702 C   0  0  0  0  0  0  0  0  0  0  0  0
  133.9768  137.3977  160.4582 C   0  0  0  0  0  0  0  0  0  0  0  0
  132.5983  137.2962  160.4669 C   0  0  0  0  0  0  0  0  0  0  0  0
  130.5250  135.1495  159.7114 N   0  0  0  0  0  0  0  0  0  0  0  0
  130.2718  133.9712  159.0303 C   0  0  0  0  0  0  0  0  0  0  0  0
  129.5798  132.9061  159.5193 N   0  0  0  0  0  0  0  0  0  0  0  0
  129.1783  132.8369  160.3996 H   0  0  0  0  0  0  0  0  0  0  0  0
  129.5544  131.9474  158.5357 C   0  0  0  0  0  0  0  0  0  0  0  0
  130.2310  132.4536  157.4752 C   0  0  0  0  0  0  0  0  0  0  0  0
  130.4625  131.7689  156.1799 C   0  0  0  0  0  0  0  0  0  0  0  0
  129.9831  132.3290  154.9970 C   0  0  0  0  0  0  0  0  0  0  0  0
  130.2066  131.6903  153.7943 C   0  0  0  0  0  0  0  0  0  0  0  0
  130.8944  130.4912  153.7621 C   0  0  0  0  0  0  0  0  0  0  0  0
  131.1296  129.7954  152.4461 C   0  0  0  0  0  0  0  0  0  0  0  0
  129.9014  129.9354  151.5170 C   0  0  0  0  0  0  0  0  0  0  0  0
  129.8073  128.6063  150.8030 C   0  0  0  0  0  0  0  0  0  0  0  0
  130.5154  127.6942  151.4117 C   0  0  0  0  0  0  0  0  0  0  0  0
  131.1992  128.2621  152.6336 C   0  0  0  0  0  0  0  0  0  0  0  0
  131.3675  129.9272  154.9339 C   0  0  0  0  0  0  0  0  0  0  0  0
  131.1553  130.5601  156.1416 C   0  0  0  0  0  0  0  0  0  0  0  0
  130.6593  133.6971  157.8087 N   0  0  0  0  0  0  0  0  0  0  0  0
  131.1711  134.2884  157.2349 H   0  0  0  0  0  0  0  0  0  0  0  0
  127.9126  134.2314  161.8394 C   0  0  0  0  0  0  0  0  0  0  0  0
  124.6922  134.9366  161.1093 H   0  0  0  0  0  0  0  0  0  0  0  0
  125.7930  136.6822  159.7671 H   0  0  0  0  0  0  0  0  0  0  0  0
  128.2485  136.8605  159.7536 H   0  0  0  0  0  0  0  0  0  0  0  0
  130.0198  137.4763  160.9555 H   0  0  0  0  0  0  0  0  0  0  0  0
  130.0774  136.8356  162.6151 H   0  0  0  0  0  0  0  0  0  0  0  0
  132.1669  136.0681  163.5787 H   0  0  0  0  0  0  0  0  0  0  0  0
  134.6231  136.2402  163.5598 H   0  0  0  0  0  0  0  0  0  0  0  0
  135.7820  137.0975  161.5635 H   0  0  0  0  0  0  0  0  0  0  0  0
  134.4851  137.7741  159.5828 H   0  0  0  0  0  0  0  0  0  0  0  0
  132.0295  137.5933  159.5983 H   0  0  0  0  0  0  0  0  0  0  0  0
  131.0294  135.8586  159.2828 H   0  0  0  0  0  0  0  0  0  0  0  0
  129.0888  130.9749  158.5971 H   0  0  0  0  0  0  0  0  0  0  0  0
  129.4419  133.2632  155.0212 H   0  0  0  0  0  0  0  0  0  0  0  0
  129.8398  132.1257  152.8764 H   0  0  0  0  0  0  0  0  0  0  0  0
  132.0310  130.1719  151.9625 H   0  0  0  0  0  0  0  0  0  0  0  0
  129.0005  130.1160  152.1031 H   0  0  0  0  0  0  0  0  0  0  0  0
  130.0574  130.7419  150.8004 H   0  0  0  0  0  0  0  0  0  0  0  0
  129.2304  128.4343  149.9063 H   0  0  0  0  0  0  0  0  0  0  0  0
  130.6013  126.6684  151.0847 H   0  0  0  0  0  0  0  0  0  0  0  0
  132.2370  127.9315  152.6759 H   0  0  0  0  0  0  0  0  0  0  0  0
  130.6701  127.9659  153.5392 H   0  0  0  0  0  0  0  0  0  0  0  0
  131.9042  128.9904  154.9031 H   0  0  0  0  0  0  0  0  0  0  0  0
  131.5258  130.1197  157.0556 H   0  0  0  0  0  0  0  0  0  0  0  0
  128.5084  133.5417  162.4189 H   0  0  0  0  0  0  0  0  0  0  0  0
  1  2  1  0
  2 35  2  0
  2  3  1  0
  3  4  2  0
  3 36  1  0
  4  5  1  0
  4 37  1  0
  5  6  2  0
  5 38  1  0
  6  7  1  0
  6 35  1  0
  7  8  1  1
  7  9  1  0
  7 16  1  0
  9 10  1  0
  9 39  1  0
  9 40  1  0
 10 15  1  0
 10 11  2  0
 11 12  1  0
 11 41  1  0
 12 13  2  0
 12 42  1  0
 13 14  1  0
 13 43  1  0
 14 15  2  0
 14 44  1  0
 15 45  1  0
 16 46  1  0
 17 16  1  0
 17 33  2  0
 17 18  1  0
 18 19  1  0
 18 20  1  0
 20 21  2  0
 20 47  1  0
 21 22  1  0
 21 33  1  0
 22 32  1  0
 22 23  2  0
 23 24  1  0
 23 48  1  0
 24 25  2  0
 24 49  1  0
 25 26  1  0
 25 31  1  0
 26 30  1  0
 26 27  1  0
 26 50  1  0
 27 28  1  0
 27 51  1  0
 27 52  1  0
 28 29  2  0
 28 53  1  0
 29 30  1  0
 29 54  1  0
 30 55  1  0
 30 56  1  0
 31 32  2  0
 31 57  1  0
 32 58  1  0
 33 34  1  0
 35 59  1  0
M  CHG  1  33   1
M  END
>  <DOCK_score>  (1) 
-63.305504

>  <SMILES>  (1) 
Fc1cccc([C@H](Cc2ccccc2)Nc2[nH]cc(-c3ccc(C4CC=CC4)cc3)[nH+]2)c1

$$$$
