OC1CN(c2cccc([C@H](c3cccnc3)[NH+]3CC(O)C4(CCCC4)C3)c2)CC12CCCC2
     RDKit          3D

 71 76  0  0  1  0  0  0  0  0999 V2000
  125.1430  138.4402  163.8995 O   0  0  0  0  0  0  0  0  0  0  0  0
  126.3510  138.8887  164.5173 C   0  0  2  0  0  0  0  0  0  0  0  0
  127.2113  139.6804  163.5059 C   0  0  0  0  0  0  0  0  0  0  0  0
  128.6118  139.2970  163.8235 N   0  0  0  0  0  0  0  0  0  0  0  0
  129.4540  139.5311  162.7342 C   0  0  0  0  0  0  0  0  0  0  0  0
  129.1704  140.5587  161.8431 C   0  0  0  0  0  0  0  0  0  0  0  0
  130.0076  140.7903  160.7697 C   0  0  0  0  0  0  0  0  0  0  0  0
  131.1218  139.9943  160.5754 C   0  0  0  0  0  0  0  0  0  0  0  0
  131.4043  138.9678  161.4575 C   0  0  0  0  0  0  0  0  0  0  0  0
  132.6196  138.1031  161.2417 C   0  0  2  0  0  0  0  0  0  0  0  0
  132.9890  137.7489  162.2041 H   0  0  0  0  0  0  0  0  0  0  0  0
  133.6937  138.9081  160.5568 C   0  0  0  0  0  0  0  0  0  0  0  0
  133.7664  138.9478  159.1725 C   0  0  0  0  0  0  0  0  0  0  0  0
  134.7683  139.7052  158.5858 C   0  0  0  0  0  0  0  0  0  0  0  0
  135.6614  140.3828  159.3944 C   0  0  0  0  0  0  0  0  0  0  0  0
  135.5651  140.3183  160.7079 N   0  0  0  0  0  0  0  0  0  0  0  0
  134.6222  139.6115  161.3002 C   0  0  0  0  0  0  0  0  0  0  0  0
  132.2594  136.9528  160.4020 N   0  0  1  0  0  0  0  0  0  0  0  0
  131.9150  137.2644  159.5063 H   0  0  0  0  0  0  0  0  0  0  0  0
  133.4289  136.0529  160.2245 C   0  0  0  0  0  0  0  0  0  0  0  0
  132.8147  134.6822  159.8588 C   0  0  1  0  0  0  0  0  0  0  0  0
  133.5605  133.6250  160.4652 O   0  0  0  0  0  0  0  0  0  0  0  0
  131.3909  134.7273  160.4290 C   0  0  0  0  0  0  0  0  0  0  0  0
  131.1803  133.6098  161.4594 C   0  0  0  0  0  0  0  0  0  0  0  0
  129.7047  133.1807  161.2506 C   0  0  0  0  0  0  0  0  0  0  0  0
  129.5290  133.2859  159.7146 C   0  0  0  0  0  0  0  0  0  0  0  0
  130.3500  134.5346  159.3233 C   0  0  0  0  0  0  0  0  0  0  0  0
  131.2444  136.1075  161.0863 C   0  0  0  0  0  0  0  0  0  0  0  0
  130.5739  138.7337  162.5360 C   0  0  0  0  0  0  0  0  0  0  0  0
  128.5348  137.8447  164.1354 C   0  0  0  0  0  0  0  0  0  0  0  0
  127.2226  137.6912  164.9185 C   0  0  0  0  0  0  0  0  0  0  0  0
  126.5295  136.3688  164.5637 C   0  0  0  0  0  0  0  0  0  0  0  0
  126.9367  135.4118  165.7140 C   0  0  0  0  0  0  0  0  0  0  0  0
  126.9292  136.3407  166.9544 C   0  0  0  0  0  0  0  0  0  0  0  0
  127.4835  137.6827  166.4268 C   0  0  0  0  0  0  0  0  0  0  0  0
  125.2816  137.9175  163.0978 H   0  0  0  0  0  0  0  0  0  0  0  0
  126.1253  139.5029  165.3890 H   0  0  0  0  0  0  0  0  0  0  0  0
  126.9602  139.3916  162.4853 H   0  0  0  0  0  0  0  0  0  0  0  0
  127.0700  140.7523  163.6440 H   0  0  0  0  0  0  0  0  0  0  0  0
  128.2982  141.1778  161.9919 H   0  0  0  0  0  0  0  0  0  0  0  0
  129.7900  141.5915  160.0789 H   0  0  0  0  0  0  0  0  0  0  0  0
  131.7728  140.1752  159.7328 H   0  0  0  0  0  0  0  0  0  0  0  0
  133.0568  138.4047  158.5659 H   0  0  0  0  0  0  0  0  0  0  0  0
  134.8526  139.7617  157.5106 H   0  0  0  0  0  0  0  0  0  0  0  0
  136.4470  140.9723  158.9452 H   0  0  0  0  0  0  0  0  0  0  0  0
  134.5750  139.5825  162.3788 H   0  0  0  0  0  0  0  0  0  0  0  0
  134.0655  136.4121  159.4159 H   0  0  0  0  0  0  0  0  0  0  0  0
  133.9976  135.9813  161.1516 H   0  0  0  0  0  0  0  0  0  0  0  0
  132.7864  134.5556  158.7765 H   0  0  0  0  0  0  0  0  0  0  0  0
  133.6074  133.6794  161.4295 H   0  0  0  0  0  0  0  0  0  0  0  0
  131.8527  132.7753  161.2609 H   0  0  0  0  0  0  0  0  0  0  0  0
  131.3286  133.9892  162.4704 H   0  0  0  0  0  0  0  0  0  0  0  0
  129.0278  133.8636  161.7641 H   0  0  0  0  0  0  0  0  0  0  0  0
  129.5464  132.1563  161.5879 H   0  0  0  0  0  0  0  0  0  0  0  0
  128.4784  133.4246  159.4594 H   0  0  0  0  0  0  0  0  0  0  0  0
  129.9262  132.3986  159.2216 H   0  0  0  0  0  0  0  0  0  0  0  0
  129.6995  135.4074  159.2654 H   0  0  0  0  0  0  0  0  0  0  0  0
  130.8458  134.3734  158.3662 H   0  0  0  0  0  0  0  0  0  0  0  0
  131.4574  136.0457  162.1535 H   0  0  0  0  0  0  0  0  0  0  0  0
  130.2430  136.5045  160.9192 H   0  0  0  0  0  0  0  0  0  0  0  0
  130.7952  137.9317  163.2246 H   0  0  0  0  0  0  0  0  0  0  0  0
  129.3825  137.5416  164.7497 H   0  0  0  0  0  0  0  0  0  0  0  0
  128.5005  137.2592  163.2166 H   0  0  0  0  0  0  0  0  0  0  0  0
  125.4476  136.4988  164.5396 H   0  0  0  0  0  0  0  0  0  0  0  0
  126.8915  135.9922  163.6070 H   0  0  0  0  0  0  0  0  0  0  0  0
  127.9332  135.0045  165.5427 H   0  0  0  0  0  0  0  0  0  0  0  0
  126.2056  134.6112  165.8270 H   0  0  0  0  0  0  0  0  0  0  0  0
  127.5770  135.9405  167.7344 H   0  0  0  0  0  0  0  0  0  0  0  0
  125.9135  136.4683  167.3290 H   0  0  0  0  0  0  0  0  0  0  0  0
  128.5538  137.7483  166.6221 H   0  0  0  0  0  0  0  0  0  0  0  0
  126.9640  138.5150  166.9015 H   0  0  0  0  0  0  0  0  0  0  0  0
  1  2  1  0
  1 36  1  0
  2 31  1  0
  2  3  1  0
  2 37  1  1
  3  4  1  0
  3 38  1  0
  3 39  1  0
  4  5  1  0
  4 30  1  0
  5 29  1  0
  5  6  2  0
  6  7  1  0
  6 40  1  0
  7  8  2  0
  7 41  1  0
  8  9  1  0
  8 42  1  0
  9 10  1  0
  9 29  2  0
 10 11  1  1
 10 12  1  0
 10 18  1  0
 12 17  1  0
 12 13  2  0
 13 14  1  0
 13 43  1  0
 14 15  2  0
 14 44  1  0
 15 16  1  0
 15 45  1  0
 16 17  2  0
 17 46  1  0
 18 19  1  6
 18 28  1  0
 18 20  1  0
 20 21  1  0
 20 47  1  0
 20 48  1  0
 21 22  1  0
 21 23  1  0
 21 49  1  6
 22 50  1  0
 23 27  1  0
 23 24  1  0
 23 28  1  0
 24 25  1  0
 24 51  1  0
 24 52  1  0
 25 26  1  0
 25 53  1  0
 25 54  1  0
 26 27  1  0
 26 55  1  0
 26 56  1  0
 27 57  1  0
 27 58  1  0
 28 59  1  0
 28 60  1  0
 29 61  1  0
 30 31  1  0
 30 62  1  0
 30 63  1  0
 31 35  1  0
 31 32  1  0
 32 33  1  0
 32 64  1  0
 32 65  1  0
 33 34  1  0
 33 66  1  0
 33 67  1  0
 34 35  1  0
 34 68  1  0
 34 69  1  0
 35 70  1  0
 35 71  1  0
M  CHG  1  18   1
M  END
>  <DOCK_score>  (1) 
-41.67519

>  <SMILES>  (1) 
OC1CN(c2cccc([C@H](c3cccnc3)[NH+]3CC(O)C4(CCCC4)C3)c2)CC12CCCC2

$$$$
