CCc1ccc(-c2c[nH]c(N[C@H](c3cccc4ccccc34)c3ccnn3C)[nH+]2)cc1
     RDKit          3D

 57 61  0  0  1  0  0  0  0  0999 V2000
  130.3747  128.5066  152.0141 C   0  0  0  0  0  0  0  0  0  0  0  0
  131.4192  129.5975  152.2586 C   0  0  0  0  0  0  0  0  0  0  0  0
  131.0540  130.3745  153.4971 C   0  0  0  0  0  0  0  0  0  0  0  0
  131.5276  129.9659  154.7312 C   0  0  0  0  0  0  0  0  0  0  0  0
  131.1959  130.6729  155.8692 C   0  0  0  0  0  0  0  0  0  0  0  0
  130.3822  131.8005  155.7733 C   0  0  0  0  0  0  0  0  0  0  0  0
  130.0222  132.5646  156.9926 C   0  0  0  0  0  0  0  0  0  0  0  0
  129.3480  132.0831  158.0661 C   0  0  0  0  0  0  0  0  0  0  0  0
  129.2309  133.1188  158.9608 N   0  0  0  0  0  0  0  0  0  0  0  0
  128.7966  133.0832  159.8274 H   0  0  0  0  0  0  0  0  0  0  0  0
  129.8375  134.2041  158.4072 C   0  0  0  0  0  0  0  0  0  0  0  0
  129.9389  135.4558  158.9900 N   0  0  0  0  0  0  0  0  0  0  0  0
  129.3636  135.6953  160.3158 C   0  0  2  0  0  0  0  0  0  0  0  0
  128.2908  135.5048  160.2861 H   0  0  0  0  0  0  0  0  0  0  0  0
  129.6087  137.1267  160.7186 C   0  0  0  0  0  0  0  0  0  0  0  0
  130.7123  137.7847  160.2688 C   0  0  0  0  0  0  0  0  0  0  0  0
  130.9519  139.1102  160.6249 C   0  0  0  0  0  0  0  0  0  0  0  0
  130.0963  139.7818  161.4434 C   0  0  0  0  0  0  0  0  0  0  0  0
  128.9498  139.1336  161.9327 C   0  0  0  0  0  0  0  0  0  0  0  0
  128.0433  139.7943  162.7796 C   0  0  0  0  0  0  0  0  0  0  0  0
  126.9435  139.1343  163.2346 C   0  0  0  0  0  0  0  0  0  0  0  0
  126.7005  137.8103  162.8734 C   0  0  0  0  0  0  0  0  0  0  0  0
  127.5556  137.1389  162.0548 C   0  0  0  0  0  0  0  0  0  0  0  0
  128.7023  137.7873  161.5648 C   0  0  0  0  0  0  0  0  0  0  0  0
  130.0101  134.7738  161.3178 C   0  0  0  0  0  0  0  0  0  0  0  0
  131.3275  134.7250  161.6228 C   0  0  0  0  0  0  0  0  0  0  0  0
  131.5074  133.7377  162.5970 C   0  0  0  0  0  0  0  0  0  0  0  0
  130.3399  133.2126  162.8673 N   0  0  0  0  0  0  0  0  0  0  0  0
  129.3787  133.8501  162.0723 N   0  0  0  0  0  0  0  0  0  0  0  0
  127.9419  133.5647  162.0620 C   0  0  0  0  0  0  0  0  0  0  0  0
  130.3048  133.8704  157.2291 N   0  0  0  0  0  0  0  0  0  0  0  0
  130.7787  134.4619  156.6237 H   0  0  0  0  0  0  0  0  0  0  0  0
  129.9034  132.2041  154.5281 C   0  0  0  0  0  0  0  0  0  0  0  0
  130.2462  131.4926  153.3963 C   0  0  0  0  0  0  0  0  0  0  0  0
  130.3460  127.8326  152.8701 H   0  0  0  0  0  0  0  0  0  0  0  0
  129.3950  128.9653  151.8797 H   0  0  0  0  0  0  0  0  0  0  0  0
  130.6389  127.9449  151.1180 H   0  0  0  0  0  0  0  0  0  0  0  0
  131.4478  130.2715  151.4025 H   0  0  0  0  0  0  0  0  0  0  0  0
  132.3989  129.1389  152.3930 H   0  0  0  0  0  0  0  0  0  0  0  0
  132.1580  129.0919  154.8044 H   0  0  0  0  0  0  0  0  0  0  0  0
  131.5662  130.3534  156.8319 H   0  0  0  0  0  0  0  0  0  0  0  0
  128.9743  131.0777  158.1932 H   0  0  0  0  0  0  0  0  0  0  0  0
  130.3910  136.1742  158.5203 H   0  0  0  0  0  0  0  0  0  0  0  0
  131.4097  137.2732  159.6220 H   0  0  0  0  0  0  0  0  0  0  0  0
  131.8326  139.6108  160.2503 H   0  0  0  0  0  0  0  0  0  0  0  0
  130.2975  140.8075  161.7150 H   0  0  0  0  0  0  0  0  0  0  0  0
  128.2184  140.8203  163.0675 H   0  0  0  0  0  0  0  0  0  0  0  0
  126.2487  139.6442  163.8855 H   0  0  0  0  0  0  0  0  0  0  0  0
  125.8201  137.3096  163.2485 H   0  0  0  0  0  0  0  0  0  0  0  0
  127.3540  136.1133  161.7829 H   0  0  0  0  0  0  0  0  0  0  0  0
  132.1030  135.3398  161.1904 H   0  0  0  0  0  0  0  0  0  0  0  0
  132.4475  133.4576  163.0486 H   0  0  0  0  0  0  0  0  0  0  0  0
  127.4408  134.1953  162.7962 H   0  0  0  0  0  0  0  0  0  0  0  0
  127.5378  133.7699  161.0707 H   0  0  0  0  0  0  0  0  0  0  0  0
  127.7779  132.5163  162.3112 H   0  0  0  0  0  0  0  0  0  0  0  0
  129.2687  133.0742  154.4486 H   0  0  0  0  0  0  0  0  0  0  0  0
  129.8795  131.8070  152.4303 H   0  0  0  0  0  0  0  0  0  0  0  0
  1  2  1  0
  1 35  1  0
  1 36  1  0
  1 37  1  0
  2  3  1  0
  2 38  1  0
  2 39  1  0
  3 34  2  0
  3  4  1  0
  4  5  2  0
  4 40  1  0
  5  6  1  0
  5 41  1  0
  6  7  1  0
  6 33  2  0
  7 31  1  0
  7  8  2  0
  8  9  1  0
  8 42  1  0
  9 10  1  0
  9 11  1  0
 11 12  1  0
 11 31  2  0
 12 13  1  0
 12 43  1  0
 13 14  1  6
 13 15  1  0
 13 25  1  0
 15 24  1  0
 15 16  2  0
 16 17  1  0
 16 44  1  0
 17 18  2  0
 17 45  1  0
 18 19  1  0
 18 46  1  0
 19 24  2  0
 19 20  1  0
 20 21  2  0
 20 47  1  0
 21 22  1  0
 21 48  1  0
 22 23  2  0
 22 49  1  0
 23 24  1  0
 23 50  1  0
 25 29  1  0
 25 26  2  0
 26 27  1  0
 26 51  1  0
 27 28  2  0
 27 52  1  0
 28 29  1  0
 29 30  1  0
 30 53  1  0
 30 54  1  0
 30 55  1  0
 31 32  1  0
 33 34  1  0
 33 56  1  0
 34 57  1  0
M  CHG  1  31   1
M  END
>  <DOCK_score>  (1) 
-58.727089

>  <SMILES>  (1) 
CCc1ccc(-c2c[nH]c(N[C@H](c3cccc4ccccc34)c3ccnn3C)[nH+]2)cc1

$$$$
