Cc1cc(Nc2ccccc2C2=CC[N@@H+](Cc3cccc(F)c3Cl)CC2)ccc1-c1ccccc1
     RDKit          3D

 64 68  0  0  1  0  0  0  0  0999 V2000
  138.7115  135.7021  164.6702 C   0  0  0  0  0  0  0  0  0  0  0  0
  137.5460  136.6252  164.9164 C   0  0  0  0  0  0  0  0  0  0  0  0
  136.7104  136.9738  163.8767 C   0  0  0  0  0  0  0  0  0  0  0  0
  135.6384  137.8296  164.1022 C   0  0  0  0  0  0  0  0  0  0  0  0
  134.7964  138.1851  163.0471 N   0  0  0  0  0  0  0  0  0  0  0  0
  135.3150  138.8439  161.9330 C   0  0  0  0  0  0  0  0  0  0  0  0
  136.4183  139.6753  162.0656 C   0  0  0  0  0  0  0  0  0  0  0  0
  136.9268  140.3314  160.9616 C   0  0  0  0  0  0  0  0  0  0  0  0
  136.3458  140.1608  159.7166 C   0  0  0  0  0  0  0  0  0  0  0  0
  135.2521  139.3334  159.5662 C   0  0  0  0  0  0  0  0  0  0  0  0
  134.7278  138.6650  160.6726 C   0  0  0  0  0  0  0  0  0  0  0  0
  133.5567  137.7784  160.5181 C   0  0  0  0  0  0  0  0  0  0  0  0
  133.6736  136.5094  160.8479 C   0  0  0  0  0  0  0  0  0  0  0  0
  132.5404  135.5300  160.7398 C   0  0  0  0  0  0  0  0  0  0  0  0
  131.4966  136.0514  159.8498 N   0  0  1  0  0  0  0  0  0  0  0  0
  131.8486  136.0937  158.9050 H   0  0  0  0  0  0  0  0  0  0  0  0
  130.3234  135.1687  159.8981 C   0  0  0  0  0  0  0  0  0  0  0  0
  130.5622  133.9672  159.0204 C   0  0  0  0  0  0  0  0  0  0  0  0
  130.1889  133.9984  157.6895 C   0  0  0  0  0  0  0  0  0  0  0  0
  130.4124  132.8992  156.8818 C   0  0  0  0  0  0  0  0  0  0  0  0
  130.9994  131.7627  157.4063 C   0  0  0  0  0  0  0  0  0  0  0  0
  131.3688  131.7273  158.7396 C   0  0  0  0  0  0  0  0  0  0  0  0
  131.9422  130.6171  159.2530 F   0  0  0  0  0  0  0  0  0  0  0  0
  131.1496  132.8319  159.5475 C   0  0  0  0  0  0  0  0  0  0  0  0
  131.6116  132.7897  161.2204 Cl  0  0  0  0  0  0  0  0  0  0  0  0
  131.1164  137.4008  160.2964 C   0  0  0  0  0  0  0  0  0  0  0  0
  132.2716  138.3590  159.9954 C   0  0  0  0  0  0  0  0  0  0  0  0
  135.4002  138.3274  165.3786 C   0  0  0  0  0  0  0  0  0  0  0  0
  136.2301  137.9771  166.4217 C   0  0  0  0  0  0  0  0  0  0  0  0
  137.3090  137.1231  166.1967 C   0  0  0  0  0  0  0  0  0  0  0  0
  138.2038  136.7454  167.3179 C   0  0  0  0  0  0  0  0  0  0  0  0
  137.9208  135.6199  168.0898 C   0  0  0  0  0  0  0  0  0  0  0  0
  138.7593  135.2704  169.1287 C   0  0  0  0  0  0  0  0  0  0  0  0
  139.8733  136.0404  169.4108 C   0  0  0  0  0  0  0  0  0  0  0  0
  140.1562  137.1614  168.6514 C   0  0  0  0  0  0  0  0  0  0  0  0
  139.3272  137.5175  167.6069 C   0  0  0  0  0  0  0  0  0  0  0  0
  138.3939  134.6694  164.8150 H   0  0  0  0  0  0  0  0  0  0  0  0
  139.0687  135.8323  163.6487 H   0  0  0  0  0  0  0  0  0  0  0  0
  139.5147  135.9365  165.3688 H   0  0  0  0  0  0  0  0  0  0  0  0
  136.8911  136.5846  162.8855 H   0  0  0  0  0  0  0  0  0  0  0  0
  133.8507  137.9738  163.0890 H   0  0  0  0  0  0  0  0  0  0  0  0
  136.8766  139.8131  163.0338 H   0  0  0  0  0  0  0  0  0  0  0  0
  137.7829  140.9810  161.0702 H   0  0  0  0  0  0  0  0  0  0  0  0
  136.7509  140.6774  158.8590 H   0  0  0  0  0  0  0  0  0  0  0  0
  134.8025  139.2033  158.5929 H   0  0  0  0  0  0  0  0  0  0  0  0
  134.6269  136.1569  161.2129 H   0  0  0  0  0  0  0  0  0  0  0  0
  132.9156  134.5871  160.3421 H   0  0  0  0  0  0  0  0  0  0  0  0
  132.1174  135.3578  161.7295 H   0  0  0  0  0  0  0  0  0  0  0  0
  130.1570  134.8416  160.9245 H   0  0  0  0  0  0  0  0  0  0  0  0
  129.4466  135.7100  159.5426 H   0  0  0  0  0  0  0  0  0  0  0  0
  129.7262  134.8839  157.2795 H   0  0  0  0  0  0  0  0  0  0  0  0
  130.1243  132.9266  155.8414 H   0  0  0  0  0  0  0  0  0  0  0  0
  131.1694  130.9027  156.7757 H   0  0  0  0  0  0  0  0  0  0  0  0
  130.2233  137.7250  159.7622 H   0  0  0  0  0  0  0  0  0  0  0  0
  130.9207  137.3897  161.3687 H   0  0  0  0  0  0  0  0  0  0  0  0
  132.0833  139.3177  160.4785 H   0  0  0  0  0  0  0  0  0  0  0  0
  132.3508  138.5049  158.9181 H   0  0  0  0  0  0  0  0  0  0  0  0
  134.5647  138.9892  165.5526 H   0  0  0  0  0  0  0  0  0  0  0  0
  136.0445  138.3637  167.4130 H   0  0  0  0  0  0  0  0  0  0  0  0
  137.0490  135.0205  167.8730 H   0  0  0  0  0  0  0  0  0  0  0  0
  138.5429  134.3967  169.7254 H   0  0  0  0  0  0  0  0  0  0  0  0
  140.5245  135.7656  170.2274 H   0  0  0  0  0  0  0  0  0  0  0  0
  141.0270  137.7591  168.8762 H   0  0  0  0  0  0  0  0  0  0  0  0
  139.5490  138.3930  167.0147 H   0  0  0  0  0  0  0  0  0  0  0  0
  1  2  1  0
  1 37  1  0
  1 38  1  0
  1 39  1  0
  2 30  2  0
  2  3  1  0
  3  4  2  0
  3 40  1  0
  4  5  1  0
  4 28  1  0
  5  6  1  0
  5 41  1  0
  6 11  1  0
  6  7  2  0
  7  8  1  0
  7 42  1  0
  8  9  2  0
  8 43  1  0
  9 10  1  0
  9 44  1  0
 10 11  2  0
 10 45  1  0
 11 12  1  0
 12 27  1  0
 12 13  2  0
 13 14  1  0
 13 46  1  0
 14 15  1  0
 14 47  1  0
 14 48  1  0
 15 16  1  6
 15 17  1  0
 15 26  1  0
 17 18  1  0
 17 49  1  0
 17 50  1  0
 18 24  1  0
 18 19  2  0
 19 20  1  0
 19 51  1  0
 20 21  2  0
 20 52  1  0
 21 22  1  0
 21 53  1  0
 22 23  1  0
 22 24  2  0
 24 25  1  0
 26 27  1  0
 26 54  1  0
 26 55  1  0
 27 56  1  0
 27 57  1  0
 28 29  2  0
 28 58  1  0
 29 30  1  0
 29 59  1  0
 30 31  1  0
 31 36  1  0
 31 32  2  0
 32 33  1  0
 32 60  1  0
 33 34  2  0
 33 61  1  0
 34 35  1  0
 34 62  1  0
 35 36  2  0
 35 63  1  0
 36 64  1  0
M  CHG  1  15   1
M  END
>  <DOCK_score>  (1) 
-59.912308

>  <SMILES>  (1) 
Cc1cc(Nc2ccccc2C2=CC[N@@H+](Cc3cccc(F)c3Cl)CC2)ccc1-c1ccccc1

$$$$
