NC[C@@H](c1ccc(Nc2nc(-c3c(O)cccc3F)cs2)cc1)[NH+]1CCCC1
     RDKit          3D

 52 55  0  0  1  0  0  0  0  0999 V2000
  129.4651  140.9691  160.4541 N   0  0  0  0  0  0  0  0  0  0  0  0
  130.5365  140.2303  159.7724 C   0  0  0  0  0  0  0  0  0  0  0  0
  130.9073  138.9949  160.5953 C   0  0  1  0  0  0  0  0  0  0  0  0
  131.2509  139.3053  161.5820 H   0  0  0  0  0  0  0  0  0  0  0  0
  129.6984  138.1068  160.7407 C   0  0  0  0  0  0  0  0  0  0  0  0
  129.0843  137.5879  159.6155 C   0  0  0  0  0  0  0  0  0  0  0  0
  127.9767  136.7732  159.7451 C   0  0  0  0  0  0  0  0  0  0  0  0
  127.4793  136.4756  161.0076 C   0  0  0  0  0  0  0  0  0  0  0  0
  126.3588  135.6515  161.1424 N   0  0  0  0  0  0  0  0  0  0  0  0
  126.3915  134.3524  160.6595 C   0  0  0  0  0  0  0  0  0  0  0  0
  127.4040  133.7974  160.0674 N   0  0  0  0  0  0  0  0  0  0  0  0
  127.2523  132.5422  159.6668 C   0  0  0  0  0  0  0  0  0  0  0  0
  128.3306  131.7955  158.9743 C   0  0  0  0  0  0  0  0  0  0  0  0
  129.2598  132.4768  158.1823 C   0  0  0  0  0  0  0  0  0  0  0  0
  129.1784  133.8262  158.0443 O   0  0  0  0  0  0  0  0  0  0  0  0
  130.2605  131.7713  157.5347 C   0  0  0  0  0  0  0  0  0  0  0  0
  130.3468  130.3993  157.6788 C   0  0  0  0  0  0  0  0  0  0  0  0
  129.4331  129.7207  158.4656 C   0  0  0  0  0  0  0  0  0  0  0  0
  128.4256  130.4112  159.1140 C   0  0  0  0  0  0  0  0  0  0  0  0
  127.5344  129.7458  159.8812 F   0  0  0  0  0  0  0  0  0  0  0  0
  126.0563  131.9913  159.9367 C   0  0  0  0  0  0  0  0  0  0  0  0
  125.0676  133.1954  160.7603 S   0  0  0  0  0  0  0  0  0  0  0  0
  128.0950  137.0035  162.1355 C   0  0  0  0  0  0  0  0  0  0  0  0
  129.2062  137.8120  161.9989 C   0  0  0  0  0  0  0  0  0  0  0  0
  131.9785  138.2561  159.9138 N   0  0  0  0  0  0  0  0  0  0  0  0
  131.6720  137.9636  158.9988 H   0  0  0  0  0  0  0  0  0  0  0  0
  133.1938  139.1032  159.8026 C   0  0  0  0  0  0  0  0  0  0  0  0
  134.3310  138.0678  159.6132 C   0  0  0  0  0  0  0  0  0  0  0  0
  133.8982  136.9068  160.5380 C   0  0  0  0  0  0  0  0  0  0  0  0
  132.3788  137.0811  160.7183 C   0  0  0  0  0  0  0  0  0  0  0  0
  129.8454  141.6285  161.1162 H   0  0  0  0  0  0  0  0  0  0  0  0
  128.8643  141.4311  159.7881 H   0  0  0  0  0  0  0  0  0  0  0  0
  131.4108  140.8727  159.6673 H   0  0  0  0  0  0  0  0  0  0  0  0
  130.1928  139.9198  158.7857 H   0  0  0  0  0  0  0  0  0  0  0  0
  129.4715  137.8198  158.6343 H   0  0  0  0  0  0  0  0  0  0  0  0
  127.4980  136.3679  158.8660 H   0  0  0  0  0  0  0  0  0  0  0  0
  125.5580  135.9885  161.5739 H   0  0  0  0  0  0  0  0  0  0  0  0
  129.8642  134.2056  157.4780 H   0  0  0  0  0  0  0  0  0  0  0  0
  130.9774  132.2946  156.9194 H   0  0  0  0  0  0  0  0  0  0  0  0
  131.1315  129.8537  157.1758 H   0  0  0  0  0  0  0  0  0  0  0  0
  129.5071  128.6487  158.5740 H   0  0  0  0  0  0  0  0  0  0  0  0
  125.7535  130.9841  159.6915 H   0  0  0  0  0  0  0  0  0  0  0  0
  127.7083  136.7776  163.1182 H   0  0  0  0  0  0  0  0  0  0  0  0
  129.6884  138.2185  162.8756 H   0  0  0  0  0  0  0  0  0  0  0  0
  133.1252  139.7613  158.9358 H   0  0  0  0  0  0  0  0  0  0  0  0
  133.3457  139.6801  160.7149 H   0  0  0  0  0  0  0  0  0  0  0  0
  135.2865  138.4816  159.9356 H   0  0  0  0  0  0  0  0  0  0  0  0
  134.3861  137.7358  158.5765 H   0  0  0  0  0  0  0  0  0  0  0  0
  134.4043  136.9802  161.5006 H   0  0  0  0  0  0  0  0  0  0  0  0
  134.1159  135.9471  160.0691 H   0  0  0  0  0  0  0  0  0  0  0  0
  132.1470  137.2536  161.7691 H   0  0  0  0  0  0  0  0  0  0  0  0
  131.8582  136.1924  160.3613 H   0  0  0  0  0  0  0  0  0  0  0  0
  1  2  1  0
  1 31  1  0
  1 32  1  0
  2  3  1  0
  2 33  1  0
  2 34  1  0
  3  4  1  1
  3  5  1  0
  3 25  1  0
  5 24  1  0
  5  6  2  0
  6  7  1  0
  6 35  1  0
  7  8  2  0
  7 36  1  0
  8  9  1  0
  8 23  1  0
  9 10  1  0
  9 37  1  0
 10 22  1  0
 10 11  2  0
 11 12  1  0
 12 13  1  0
 12 21  2  0
 13 19  1  0
 13 14  2  0
 14 15  1  0
 14 16  1  0
 15 38  1  0
 16 17  2  0
 16 39  1  0
 17 18  1  0
 17 40  1  0
 18 19  2  0
 18 41  1  0
 19 20  1  0
 21 22  1  0
 21 42  1  0
 23 24  2  0
 23 43  1  0
 24 44  1  0
 25 26  1  0
 25 30  1  0
 25 27  1  0
 27 28  1  0
 27 45  1  0
 27 46  1  0
 28 29  1  0
 28 47  1  0
 28 48  1  0
 29 30  1  0
 29 49  1  0
 29 50  1  0
 30 51  1  0
 30 52  1  0
M  CHG  1  25   1
M  END
>  <DOCK_score>  (1) 
-43.528034

>  <SMILES>  (1) 
NC[C@@H](c1ccc(Nc2nc(-c3c(O)cccc3F)cs2)cc1)[NH+]1CCCC1

$$$$
