FC[C@@H](Nc1[nH]cc(-c2ccc(-c3ccccc3)cc2)[nH+]1)c1ccccc1F
     RDKit          3D

 48 51  0  0  1  0  0  0  0  0999 V2000
  128.9161  136.1048  159.7349 F   0  0  0  0  0  0  0  0  0  0  0  0
  129.3384  135.8576  161.0455 C   0  0  0  0  0  0  0  0  0  0  0  0
  130.8336  136.1593  161.1650 C   0  0  1  0  0  0  0  0  0  0  0  0
  131.2383  135.6502  162.0397 H   0  0  0  0  0  0  0  0  0  0  0  0
  131.5246  135.6878  159.9623 N   0  0  0  0  0  0  0  0  0  0  0  0
  131.1640  134.4827  159.3845 C   0  0  0  0  0  0  0  0  0  0  0  0
  130.6680  133.4026  160.0478 N   0  0  0  0  0  0  0  0  0  0  0  0
  130.5047  133.3396  161.0018 H   0  0  0  0  0  0  0  0  0  0  0  0
  130.4408  132.4186  159.1169 C   0  0  0  0  0  0  0  0  0  0  0  0
  130.8042  132.9252  157.9119 C   0  0  0  0  0  0  0  0  0  0  0  0
  130.7334  132.2181  156.6109 C   0  0  0  0  0  0  0  0  0  0  0  0
  129.9494  132.7334  155.5786 C   0  0  0  0  0  0  0  0  0  0  0  0
  129.8841  132.0766  154.3697 C   0  0  0  0  0  0  0  0  0  0  0  0
  130.6025  130.8960  154.1779 C   0  0  0  0  0  0  0  0  0  0  0  0
  130.5319  130.1895  152.8758 C   0  0  0  0  0  0  0  0  0  0  0  0
  130.6773  128.8043  152.8234 C   0  0  0  0  0  0  0  0  0  0  0  0
  130.6113  128.1517  151.6092 C   0  0  0  0  0  0  0  0  0  0  0  0
  130.4007  128.8699  150.4455 C   0  0  0  0  0  0  0  0  0  0  0  0
  130.2612  130.2451  150.4910 C   0  0  0  0  0  0  0  0  0  0  0  0
  130.3206  130.9079  151.7001 C   0  0  0  0  0  0  0  0  0  0  0  0
  131.3820  130.3785  155.2113 C   0  0  0  0  0  0  0  0  0  0  0  0
  131.4512  131.0376  156.4187 C   0  0  0  0  0  0  0  0  0  0  0  0
  131.2495  134.1916  158.1094 N   0  0  0  0  0  0  0  0  0  0  0  0
  131.5761  134.7875  157.4172 H   0  0  0  0  0  0  0  0  0  0  0  0
  131.0361  137.6455  161.3106 C   0  0  0  0  0  0  0  0  0  0  0  0
  131.2025  138.4339  160.1876 C   0  0  0  0  0  0  0  0  0  0  0  0
  131.3826  139.7979  160.3205 C   0  0  0  0  0  0  0  0  0  0  0  0
  131.4078  140.3737  161.5773 C   0  0  0  0  0  0  0  0  0  0  0  0
  131.2472  139.5868  162.7017 C   0  0  0  0  0  0  0  0  0  0  0  0
  131.0611  138.2210  162.5695 C   0  0  0  0  0  0  0  0  0  0  0  0
  130.9045  137.4505  163.6681 F   0  0  0  0  0  0  0  0  0  0  0  0
  129.1577  134.8120  161.2944 H   0  0  0  0  0  0  0  0  0  0  0  0
  128.7829  136.4960  161.7326 H   0  0  0  0  0  0  0  0  0  0  0  0
  132.2347  136.2201  159.5709 H   0  0  0  0  0  0  0  0  0  0  0  0
  130.0478  131.4309  159.3076 H   0  0  0  0  0  0  0  0  0  0  0  0
  129.3933  133.6473  155.7274 H   0  0  0  0  0  0  0  0  0  0  0  0
  129.2771  132.4757  153.5705 H   0  0  0  0  0  0  0  0  0  0  0  0
  130.8409  128.2428  153.7313 H   0  0  0  0  0  0  0  0  0  0  0  0
  130.7239  127.0784  151.5674 H   0  0  0  0  0  0  0  0  0  0  0  0
  130.3496  128.3552  149.4973 H   0  0  0  0  0  0  0  0  0  0  0  0
  130.1016  130.8010  149.5789 H   0  0  0  0  0  0  0  0  0  0  0  0
  130.2072  131.9813  151.7348 H   0  0  0  0  0  0  0  0  0  0  0  0
  131.9347  129.4625  155.0636 H   0  0  0  0  0  0  0  0  0  0  0  0
  132.0586  130.6387  157.2176 H   0  0  0  0  0  0  0  0  0  0  0  0
  131.1875  137.9846  159.2055 H   0  0  0  0  0  0  0  0  0  0  0  0
  131.5081  140.4137  159.4422 H   0  0  0  0  0  0  0  0  0  0  0  0
  131.5526  141.4390  161.6802 H   0  0  0  0  0  0  0  0  0  0  0  0
  131.2665  140.0370  163.6832 H   0  0  0  0  0  0  0  0  0  0  0  0
  1  2  1  0
  2  3  1  0
  2 32  1  0
  2 33  1  0
  3  4  1  1
  3  5  1  0
  3 25  1  0
  5 34  1  0
  6  5  1  0
  6 23  2  0
  6  7  1  0
  7  8  1  0
  7  9  1  0
  9 10  2  0
  9 35  1  0
 10 11  1  0
 10 23  1  0
 11 22  1  0
 11 12  2  0
 12 13  1  0
 12 36  1  0
 13 14  2  0
 13 37  1  0
 14 15  1  0
 14 21  1  0
 15 20  1  0
 15 16  2  0
 16 17  1  0
 16 38  1  0
 17 18  2  0
 17 39  1  0
 18 19  1  0
 18 40  1  0
 19 20  2  0
 19 41  1  0
 20 42  1  0
 21 22  2  0
 21 43  1  0
 22 44  1  0
 23 24  1  0
 25 30  1  0
 25 26  2  0
 26 27  1  0
 26 45  1  0
 27 28  2  0
 27 46  1  0
 28 29  1  0
 28 47  1  0
 29 30  2  0
 29 48  1  0
 30 31  1  0
M  CHG  1  23   1
M  END
>  <DOCK_score>  (1) 
-57.559032

>  <SMILES>  (1) 
FC[C@@H](Nc1[nH]cc(-c2ccc(-c3ccccc3)cc2)[nH+]1)c1ccccc1F

$$$$
