OCC[NH2+]C[C@H]1CC=C(c2n[nH]cc2CCc2cccc(CCBr)c2)CC1
     RDKit          3D

 58 60  0  0  1  0  0  0  0  0999 V2000
  132.5655  133.8104  153.4471 O   0  0  0  0  0  0  0  0  0  0  0  0
  131.3738  133.0722  153.1697 C   0  0  0  0  0  0  0  0  0  0  0  0
  130.9666  132.2757  154.4109 C   0  0  0  0  0  0  0  0  0  0  0  0
  130.7218  133.1992  155.5268 N   0  0  0  0  0  0  0  0  0  0  0  0
  131.5631  133.7206  155.7228 H   0  0  0  0  0  0  0  0  0  0  0  0
  129.9808  133.8376  155.2785 H   0  0  0  0  0  0  0  0  0  0  0  0
  130.3307  132.4346  156.7185 C   0  0  0  0  0  0  0  0  0  0  0  0
  130.0758  133.3967  157.8807 C   0  0  1  0  0  0  0  0  0  0  0  0
  130.9834  133.9611  158.0946 H   0  0  0  0  0  0  0  0  0  0  0  0
  128.9424  134.3570  157.5141 C   0  0  0  0  0  0  0  0  0  0  0  0
  128.5077  135.1296  158.7252 C   0  0  0  0  0  0  0  0  0  0  0  0
  128.7909  134.7784  159.9558 C   0  0  0  0  0  0  0  0  0  0  0  0
  128.2894  135.6300  161.0555 C   0  0  0  0  0  0  0  0  0  0  0  0
  127.0255  135.8964  161.3156 N   0  0  0  0  0  0  0  0  0  0  0  0
  126.9797  136.7366  162.4354 N   0  0  0  0  0  0  0  0  0  0  0  0
  126.1766  137.0908  162.8485 H   0  0  0  0  0  0  0  0  0  0  0  0
  128.2471  136.9676  162.8409 C   0  0  0  0  0  0  0  0  0  0  0  0
  129.0786  136.2960  162.0157 C   0  0  0  0  0  0  0  0  0  0  0  0
  130.5827  136.2663  162.1033 C   0  0  0  0  0  0  0  0  0  0  0  0
  131.0418  137.1199  163.2872 C   0  0  0  0  0  0  0  0  0  0  0  0
  132.5459  137.0903  163.3746 C   0  0  0  0  0  0  0  0  0  0  0  0
  133.1754  136.1178  164.1295 C   0  0  0  0  0  0  0  0  0  0  0  0
  134.5551  136.0875  164.2055 C   0  0  0  0  0  0  0  0  0  0  0  0
  135.3055  137.0355  163.5349 C   0  0  0  0  0  0  0  0  0  0  0  0
  134.6759  138.0115  162.7855 C   0  0  0  0  0  0  0  0  0  0  0  0
  135.4938  139.0454  162.0551 C   0  0  0  0  0  0  0  0  0  0  0  0
  135.7197  140.2536  162.9662 C   0  0  0  0  0  0  0  0  0  0  0  0
  136.7866  141.6023  162.0134 Br  0  0  0  0  0  0  0  0  0  0  0  0
  133.2960  138.0385  162.7049 C   0  0  0  0  0  0  0  0  0  0  0  0
  129.5947  133.5626  160.3145 C   0  0  0  0  0  0  0  0  0  0  0  0
  129.6575  132.6028  159.1245 C   0  0  0  0  0  0  0  0  0  0  0  0
  132.4768  134.4412  154.1745 H   0  0  0  0  0  0  0  0  0  0  0  0
  131.5554  132.3867  152.3418 H   0  0  0  0  0  0  0  0  0  0  0  0
  130.5733  133.7616  152.9017 H   0  0  0  0  0  0  0  0  0  0  0  0
  130.0577  131.7124  154.1994 H   0  0  0  0  0  0  0  0  0  0  0  0
  131.7671  131.5862  154.6790 H   0  0  0  0  0  0  0  0  0  0  0  0
  129.4216  131.8716  156.5068 H   0  0  0  0  0  0  0  0  0  0  0  0
  131.1310  131.7449  156.9866 H   0  0  0  0  0  0  0  0  0  0  0  0
  129.2901  135.0507  156.7485 H   0  0  0  0  0  0  0  0  0  0  0  0
  128.0977  133.7877  157.1263 H   0  0  0  0  0  0  0  0  0  0  0  0
  127.9275  136.0278  158.5738 H   0  0  0  0  0  0  0  0  0  0  0  0
  128.5434  137.5787  163.6806 H   0  0  0  0  0  0  0  0  0  0  0  0
  130.9183  135.2388  162.2445 H   0  0  0  0  0  0  0  0  0  0  0  0
  131.0083  136.6640  161.1820 H   0  0  0  0  0  0  0  0  0  0  0  0
  130.7063  138.1473  163.1460 H   0  0  0  0  0  0  0  0  0  0  0  0
  130.6163  136.7222  164.2085 H   0  0  0  0  0  0  0  0  0  0  0  0
  132.5892  135.3796  164.6564 H   0  0  0  0  0  0  0  0  0  0  0  0
  135.0471  135.3251  164.7913 H   0  0  0  0  0  0  0  0  0  0  0  0
  136.3834  137.0144  163.5980 H   0  0  0  0  0  0  0  0  0  0  0  0
  136.4559  138.6163  161.7754 H   0  0  0  0  0  0  0  0  0  0  0  0
  134.9621  139.3614  161.1576 H   0  0  0  0  0  0  0  0  0  0  0  0
  134.7575  140.6827  163.2459 H   0  0  0  0  0  0  0  0  0  0  0  0
  136.2511  139.9375  163.8638 H   0  0  0  0  0  0  0  0  0  0  0  0
  132.8041  138.8007  162.1187 H   0  0  0  0  0  0  0  0  0  0  0  0
  129.1292  133.0584  161.1612 H   0  0  0  0  0  0  0  0  0  0  0  0
  130.6055  133.8655  160.5881 H   0  0  0  0  0  0  0  0  0  0  0  0
  128.6764  132.1568  158.9615 H   0  0  0  0  0  0  0  0  0  0  0  0
  130.3902  131.8206  159.3232 H   0  0  0  0  0  0  0  0  0  0  0  0
  1  2  1  0
  1 32  1  0
  2  3  1  0
  2 33  1  0
  2 34  1  0
  3  4  1  0
  3 35  1  0
  3 36  1  0
  4  5  1  0
  4  6  1  0
  4  7  1  0
  7  8  1  0
  7 37  1  0
  7 38  1  0
  8  9  1  1
  8 31  1  0
  8 10  1  0
 10 11  1  0
 10 39  1  0
 10 40  1  0
 11 12  2  0
 11 41  1  0
 12 13  1  0
 12 30  1  0
 13 18  1  0
 13 14  2  0
 14 15  1  0
 15 16  1  0
 15 17  1  0
 17 18  2  0
 17 42  1  0
 18 19  1  0
 19 20  1  0
 19 43  1  0
 19 44  1  0
 20 21  1  0
 20 45  1  0
 20 46  1  0
 21 29  1  0
 21 22  2  0
 22 23  1  0
 22 47  1  0
 23 24  2  0
 23 48  1  0
 24 25  1  0
 24 49  1  0
 25 26  1  0
 25 29  2  0
 26 27  1  0
 26 50  1  0
 26 51  1  0
 27 28  1  0
 27 52  1  0
 27 53  1  0
 29 54  1  0
 30 31  1  0
 30 55  1  0
 30 56  1  0
 31 57  1  0
 31 58  1  0
M  CHG  1   4   1
M  END
>  <DOCK_score>  (1) 
-44.25502

>  <SMILES>  (1) 
OCC[NH2+]C[C@H]1CC=C(c2n[nH]cc2CCc2cccc(CCBr)c2)CC1

$$$$
