Cc1ccc(-c2ccc(-c3cccc(C4=CC[N@H+](Cc5ccc(C)[nH]5)CC4)c3)cc2)nc1
     RDKit          3D

 62 66  0  0  1  0  0  0  0  0999 V2000
  138.4777  143.0520  170.7792 C   0  0  0  0  0  0  0  0  0  0  0  0
  137.9644  142.5624  169.4495 C   0  0  0  0  0  0  0  0  0  0  0  0
  136.6262  142.2283  169.2950 C   0  0  0  0  0  0  0  0  0  0  0  0
  136.1952  141.7823  168.0580 C   0  0  0  0  0  0  0  0  0  0  0  0
  137.1149  141.6852  167.0151 C   0  0  0  0  0  0  0  0  0  0  0  0
  136.6696  141.2085  165.6837 C   0  0  0  0  0  0  0  0  0  0  0  0
  136.8091  142.0312  164.5662 C   0  0  0  0  0  0  0  0  0  0  0  0
  136.3953  141.5886  163.3291 C   0  0  0  0  0  0  0  0  0  0  0  0
  135.8367  140.3182  163.1941 C   0  0  0  0  0  0  0  0  0  0  0  0
  135.3912  139.8417  161.8620 C   0  0  0  0  0  0  0  0  0  0  0  0
  136.0327  140.2925  160.7083 C   0  0  0  0  0  0  0  0  0  0  0  0
  135.6203  139.8496  159.4671 C   0  0  0  0  0  0  0  0  0  0  0  0
  134.5742  138.9547  159.3595 C   0  0  0  0  0  0  0  0  0  0  0  0
  133.9204  138.5006  160.5061 C   0  0  0  0  0  0  0  0  0  0  0  0
  132.7969  137.5468  160.3898 C   0  0  0  0  0  0  0  0  0  0  0  0
  131.5749  138.0182  160.2671 C   0  0  0  0  0  0  0  0  0  0  0  0
  130.3667  137.1348  160.1483 C   0  0  0  0  0  0  0  0  0  0  0  0
  130.7624  135.7764  159.7586 N   0  0  2  0  0  0  0  0  0  0  0  0
  131.1265  135.7875  158.8176 H   0  0  0  0  0  0  0  0  0  0  0  0
  129.5953  134.8867  159.8237 C   0  0  0  0  0  0  0  0  0  0  0  0
  129.8509  133.6608  158.9852 C   0  0  0  0  0  0  0  0  0  0  0  0
  129.5928  132.3876  159.3471 C   0  0  0  0  0  0  0  0  0  0  0  0
  129.9792  131.5581  158.2758 C   0  0  0  0  0  0  0  0  0  0  0  0
  130.4587  132.3560  157.3001 C   0  0  0  0  0  0  0  0  0  0  0  0
  130.9875  131.8988  155.9650 C   0  0  0  0  0  0  0  0  0  0  0  0
  130.3824  133.6478  157.7299 N   0  0  0  0  0  0  0  0  0  0  0  0
  130.6609  134.4283  157.2258 H   0  0  0  0  0  0  0  0  0  0  0  0
  131.8012  135.2944  160.6827 C   0  0  0  0  0  0  0  0  0  0  0  0
  133.0918  136.0723  160.4165 C   0  0  0  0  0  0  0  0  0  0  0  0
  134.3331  138.9440  161.7611 C   0  0  0  0  0  0  0  0  0  0  0  0
  135.6915  139.4978  164.3123 C   0  0  0  0  0  0  0  0  0  0  0  0
  136.1104  139.9379  165.5486 C   0  0  0  0  0  0  0  0  0  0  0  0
  138.3874  142.0090  167.2061 N   0  0  0  0  0  0  0  0  0  0  0  0
  138.8223  142.4414  168.3721 C   0  0  0  0  0  0  0  0  0  0  0  0
  138.8111  142.2024  171.3751 H   0  0  0  0  0  0  0  0  0  0  0  0
  139.3132  143.7329  170.6177 H   0  0  0  0  0  0  0  0  0  0  0  0
  137.6796  143.5747  171.3065 H   0  0  0  0  0  0  0  0  0  0  0  0
  135.9368  142.3141  170.1218 H   0  0  0  0  0  0  0  0  0  0  0  0
  135.1607  141.5142  167.9026 H   0  0  0  0  0  0  0  0  0  0  0  0
  137.2422  143.0151  164.6707 H   0  0  0  0  0  0  0  0  0  0  0  0
  136.5034  142.2258  162.4638 H   0  0  0  0  0  0  0  0  0  0  0  0
  136.8542  140.9894  160.7861 H   0  0  0  0  0  0  0  0  0  0  0  0
  136.1209  140.2011  158.5771 H   0  0  0  0  0  0  0  0  0  0  0  0
  134.2590  138.6083  158.3863 H   0  0  0  0  0  0  0  0  0  0  0  0
  131.4344  139.0890  160.2508 H   0  0  0  0  0  0  0  0  0  0  0  0
  129.6935  137.5441  159.3952 H   0  0  0  0  0  0  0  0  0  0  0  0
  129.8537  137.0990  161.1094 H   0  0  0  0  0  0  0  0  0  0  0  0
  128.7178  135.4100  159.4441 H   0  0  0  0  0  0  0  0  0  0  0  0
  129.4221  134.5897  160.8580 H   0  0  0  0  0  0  0  0  0  0  0  0
  129.1717  132.0631  160.2872 H   0  0  0  0  0  0  0  0  0  0  0  0
  129.9055  130.4811  158.2424 H   0  0  0  0  0  0  0  0  0  0  0  0
  132.0584  131.7111  156.0434 H   0  0  0  0  0  0  0  0  0  0  0  0
  130.4787  130.9820  155.6675 H   0  0  0  0  0  0  0  0  0  0  0  0
  130.8079  132.6726  155.2188 H   0  0  0  0  0  0  0  0  0  0  0  0
  131.4815  135.4607  161.7114 H   0  0  0  0  0  0  0  0  0  0  0  0
  131.9729  134.2308  160.5176 H   0  0  0  0  0  0  0  0  0  0  0  0
  133.5056  135.7674  159.4553 H   0  0  0  0  0  0  0  0  0  0  0  0
  133.8134  135.8606  161.2056 H   0  0  0  0  0  0  0  0  0  0  0  0
  133.8332  138.5927  162.6517 H   0  0  0  0  0  0  0  0  0  0  0  0
  135.2545  138.5156  164.2085 H   0  0  0  0  0  0  0  0  0  0  0  0
  136.0024  139.3005  166.4138 H   0  0  0  0  0  0  0  0  0  0  0  0
  139.8644  142.7003  168.4893 H   0  0  0  0  0  0  0  0  0  0  0  0
  1  2  1  0
  1 35  1  0
  1 36  1  0
  1 37  1  0
  2 34  2  0
  2  3  1  0
  3  4  2  0
  3 38  1  0
  4  5  1  0
  4 39  1  0
  5  6  1  0
  5 33  2  0
  6 32  1  0
  6  7  2  0
  7  8  1  0
  7 40  1  0
  8  9  2  0
  8 41  1  0
  9 10  1  0
  9 31  1  0
 10 30  1  0
 10 11  2  0
 11 12  1  0
 11 42  1  0
 12 13  2  0
 12 43  1  0
 13 14  1  0
 13 44  1  0
 14 15  1  0
 14 30  2  0
 15 29  1  0
 15 16  2  0
 16 17  1  0
 16 45  1  0
 17 18  1  0
 17 46  1  0
 17 47  1  0
 18 19  1  6
 18 20  1  0
 18 28  1  0
 20 21  1  0
 20 48  1  0
 20 49  1  0
 21 26  1  0
 21 22  2  0
 22 23  1  0
 22 50  1  0
 23 24  2  0
 23 51  1  0
 24 25  1  0
 24 26  1  0
 25 52  1  0
 25 53  1  0
 25 54  1  0
 26 27  1  0
 28 29  1  0
 28 55  1  0
 28 56  1  0
 29 57  1  0
 29 58  1  0
 30 59  1  0
 31 32  2  0
 31 60  1  0
 32 61  1  0
 33 34  1  0
 34 62  1  0
M  CHG  1  18   1
M  END
>  <DOCK_score>  (1) 
-59.713913

>  <SMILES>  (1) 
Cc1ccc(-c2ccc(-c3cccc(C4=CC[N@H+](Cc5ccc(C)[nH]5)CC4)c3)cc2)nc1

$$$$
