c1ccc(-c2ccccc2[C@@H](c2ccccc2)[NH+]2CCN(c3cncc4c3CCCC4)CC2)cc1
     RDKit          3D

 69 74  0  0  1  0  0  0  0  0999 V2000
  126.4648  130.7020  161.5112 C   0  0  0  0  0  0  0  0  0  0  0  0
  126.5473  131.9814  162.0304 C   0  0  0  0  0  0  0  0  0  0  0  0
  126.7541  133.0574  161.1912 C   0  0  0  0  0  0  0  0  0  0  0  0
  126.8803  132.8530  159.8187 C   0  0  0  0  0  0  0  0  0  0  0  0
  127.1028  134.0060  158.9115 C   0  0  0  0  0  0  0  0  0  0  0  0
  126.0161  134.6775  158.3545 C   0  0  0  0  0  0  0  0  0  0  0  0
  126.2288  135.7494  157.5117 C   0  0  0  0  0  0  0  0  0  0  0  0
  127.5179  136.1568  157.2185 C   0  0  0  0  0  0  0  0  0  0  0  0
  128.6001  135.4934  157.7677 C   0  0  0  0  0  0  0  0  0  0  0  0
  128.3989  134.4205  158.6127 C   0  0  0  0  0  0  0  0  0  0  0  0
  129.5791  133.6951  159.2059 C   0  0  1  0  0  0  0  0  0  0  0  0
  129.3021  133.2834  160.1763 H   0  0  0  0  0  0  0  0  0  0  0  0
  129.9954  132.5766  158.2858 C   0  0  0  0  0  0  0  0  0  0  0  0
  129.7932  132.6909  156.9231 C   0  0  0  0  0  0  0  0  0  0  0  0
  130.1792  131.6667  156.0788 C   0  0  0  0  0  0  0  0  0  0  0  0
  130.7585  130.5240  156.5981 C   0  0  0  0  0  0  0  0  0  0  0  0
  130.9563  130.4077  157.9613 C   0  0  0  0  0  0  0  0  0  0  0  0
  130.5743  131.4337  158.8051 C   0  0  0  0  0  0  0  0  0  0  0  0
  130.6970  134.6335  159.3730 N   0  0  0  0  0  0  0  0  0  0  0  0
  130.9532  135.0145  158.4746 H   0  0  0  0  0  0  0  0  0  0  0  0
  131.8474  133.9260  159.9505 C   0  0  0  0  0  0  0  0  0  0  0  0
  133.0184  134.8986  160.1069 C   0  0  0  0  0  0  0  0  0  0  0  0
  132.6155  136.0091  160.9813 N   0  0  0  0  0  0  0  0  0  0  0  0
  133.6779  136.8915  161.1919 C   0  0  0  0  0  0  0  0  0  0  0  0
  134.2719  137.5443  160.1205 C   0  0  0  0  0  0  0  0  0  0  0  0
  135.2746  138.3765  160.3179 N   0  0  0  0  0  0  0  0  0  0  0  0
  135.7480  138.6171  161.5229 C   0  0  0  0  0  0  0  0  0  0  0  0
  135.2077  138.0020  162.6436 C   0  0  0  0  0  0  0  0  0  0  0  0
  134.1516  137.1323  162.4834 C   0  0  0  0  0  0  0  0  0  0  0  0
  133.4967  136.4240  163.6365 C   0  0  0  0  0  0  0  0  0  0  0  0
  134.3976  136.4628  164.8704 C   0  0  0  0  0  0  0  0  0  0  0  0
  134.8364  137.9128  165.1058 C   0  0  0  0  0  0  0  0  0  0  0  0
  135.8007  138.3151  163.9907 C   0  0  0  0  0  0  0  0  0  0  0  0
  131.4487  136.7116  160.4287 C   0  0  0  0  0  0  0  0  0  0  0  0
  130.2907  135.7239  160.2693 C   0  0  0  0  0  0  0  0  0  0  0  0
  126.7910  131.5627  159.3005 C   0  0  0  0  0  0  0  0  0  0  0  0
  126.5896  130.4933  160.1496 C   0  0  0  0  0  0  0  0  0  0  0  0
  126.3025  129.8629  162.1716 H   0  0  0  0  0  0  0  0  0  0  0  0
  126.4494  132.1388  163.0944 H   0  0  0  0  0  0  0  0  0  0  0  0
  126.8184  134.0560  161.5976 H   0  0  0  0  0  0  0  0  0  0  0  0
  125.0093  134.3603  158.5827 H   0  0  0  0  0  0  0  0  0  0  0  0
  125.3874  136.2709  157.0801 H   0  0  0  0  0  0  0  0  0  0  0  0
  127.6799  136.9961  156.5585 H   0  0  0  0  0  0  0  0  0  0  0  0
  129.6043  135.8157  157.5354 H   0  0  0  0  0  0  0  0  0  0  0  0
  129.3368  133.5819  156.5179 H   0  0  0  0  0  0  0  0  0  0  0  0
  130.0249  131.7577  155.0138 H   0  0  0  0  0  0  0  0  0  0  0  0
  131.0569  129.7224  155.9388 H   0  0  0  0  0  0  0  0  0  0  0  0
  131.4090  129.5150  158.3670 H   0  0  0  0  0  0  0  0  0  0  0  0
  130.7286  131.3427  159.8703 H   0  0  0  0  0  0  0  0  0  0  0  0
  131.5748  133.5251  160.9268 H   0  0  0  0  0  0  0  0  0  0  0  0
  132.1397  133.1088  159.2911 H   0  0  0  0  0  0  0  0  0  0  0  0
  133.3001  135.2892  159.1292 H   0  0  0  0  0  0  0  0  0  0  0  0
  133.8678  134.3776  160.5489 H   0  0  0  0  0  0  0  0  0  0  0  0
  133.9101  137.3687  159.1183 H   0  0  0  0  0  0  0  0  0  0  0  0
  136.5719  139.3053  161.6412 H   0  0  0  0  0  0  0  0  0  0  0  0
  133.3043  135.3866  163.3632 H   0  0  0  0  0  0  0  0  0  0  0  0
  132.5521  136.9179  163.8643 H   0  0  0  0  0  0  0  0  0  0  0  0
  135.2745  135.8371  164.7036 H   0  0  0  0  0  0  0  0  0  0  0  0
  133.8491  136.1004  165.7399 H   0  0  0  0  0  0  0  0  0  0  0  0
  135.3384  137.9915  166.0699 H   0  0  0  0  0  0  0  0  0  0  0  0
  133.9644  138.5665  165.0892 H   0  0  0  0  0  0  0  0  0  0  0  0
  136.7361  137.7682  164.1086 H   0  0  0  0  0  0  0  0  0  0  0  0
  136.0014  139.3844  164.0564 H   0  0  0  0  0  0  0  0  0  0  0  0
  131.7044  137.1322  159.4562 H   0  0  0  0  0  0  0  0  0  0  0  0
  131.1524  137.5133  161.1051 H   0  0  0  0  0  0  0  0  0  0  0  0
  129.4287  136.2399  159.8461 H   0  0  0  0  0  0  0  0  0  0  0  0
  130.0263  135.3137  161.2439 H   0  0  0  0  0  0  0  0  0  0  0  0
  126.8832  131.3991  158.2370 H   0  0  0  0  0  0  0  0  0  0  0  0
  126.5247  129.4922  159.7496 H   0  0  0  0  0  0  0  0  0  0  0  0
  1 37  2  0
  1  2  1  0
  1 38  1  0
  2  3  2  0
  2 39  1  0
  3  4  1  0
  3 40  1  0
  4  5  1  0
  4 36  2  0
  5 10  1  0
  5  6  2  0
  6  7  1  0
  6 41  1  0
  7  8  2  0
  7 42  1  0
  8  9  1  0
  8 43  1  0
  9 10  2  0
  9 44  1  0
 10 11  1  0
 11 12  1  1
 11 13  1  0
 11 19  1  0
 13 18  1  0
 13 14  2  0
 14 15  1  0
 14 45  1  0
 15 16  2  0
 15 46  1  0
 16 17  1  0
 16 47  1  0
 17 18  2  0
 17 48  1  0
 18 49  1  0
 19 20  1  0
 19 35  1  0
 19 21  1  0
 21 22  1  0
 21 50  1  0
 21 51  1  0
 22 23  1  0
 22 52  1  0
 22 53  1  0
 23 24  1  0
 23 34  1  0
 24 29  1  0
 24 25  2  0
 25 26  1  0
 25 54  1  0
 26 27  2  0
 27 28  1  0
 27 55  1  0
 28 33  1  0
 28 29  2  0
 29 30  1  0
 30 31  1  0
 30 56  1  0
 30 57  1  0
 31 32  1  0
 31 58  1  0
 31 59  1  0
 32 33  1  0
 32 60  1  0
 32 61  1  0
 33 62  1  0
 33 63  1  0
 34 35  1  0
 34 64  1  0
 34 65  1  0
 35 66  1  0
 35 67  1  0
 36 37  1  0
 36 68  1  0
 37 69  1  0
M  CHG  1  19   1
M  END
>  <DOCK_score>  (1) 
-57.739304

>  <SMILES>  (1) 
c1ccc(-c2ccccc2[C@@H](c2ccccc2)[NH+]2CCN(c3cncc4c3CCCC4)CC2)cc1

$$$$
