Cc1ccccc1C=Cc1c(C)cccc1N1CC[NH+](C(c2ccccc2)c2ccccc2)CC1
     RDKit          3D

 70 74  0  0  1  0  0  0  0  0999 V2000
  135.1463  141.1390  165.7277 C   0  0  0  0  0  0  0  0  0  0  0  0
  133.7445  140.6661  166.0145 C   0  0  0  0  0  0  0  0  0  0  0  0
  133.3316  140.4763  167.3169 C   0  0  0  0  0  0  0  0  0  0  0  0
  132.0449  140.0426  167.5819 C   0  0  0  0  0  0  0  0  0  0  0  0
  131.1628  139.7955  166.5443 C   0  0  0  0  0  0  0  0  0  0  0  0
  131.5593  139.9868  165.2375 C   0  0  0  0  0  0  0  0  0  0  0  0
  132.8595  140.4192  164.9617 C   0  0  0  0  0  0  0  0  0  0  0  0
  133.2930  140.6196  163.5676 C   0  0  0  0  0  0  0  0  0  0  0  0
  133.8534  139.6065  162.8863 C   0  0  0  0  0  0  0  0  0  0  0  0
  134.2809  139.8050  161.4913 C   0  0  0  0  0  0  0  0  0  0  0  0
  135.2449  140.7676  161.1819 C   0  0  0  0  0  0  0  0  0  0  0  0
  135.8509  141.6077  162.2765 C   0  0  0  0  0  0  0  0  0  0  0  0
  135.6410  140.9482  159.8735 C   0  0  0  0  0  0  0  0  0  0  0  0
  135.0878  140.1797  158.8629 C   0  0  0  0  0  0  0  0  0  0  0  0
  134.1331  139.2243  159.1537 C   0  0  0  0  0  0  0  0  0  0  0  0
  133.7267  139.0239  160.4650 C   0  0  0  0  0  0  0  0  0  0  0  0
  132.7685  138.0564  160.7610 N   0  0  0  0  0  0  0  0  0  0  0  0
  133.2621  136.7101  160.4380 C   0  0  0  0  0  0  0  0  0  0  0  0
  132.2063  135.6749  160.8322 C   0  0  0  0  0  0  0  0  0  0  0  0
  130.9594  135.9456  160.1046 N   0  0  0  0  0  0  0  0  0  0  0  0
  131.1333  135.9016  159.1116 H   0  0  0  0  0  0  0  0  0  0  0  0
  129.9518  134.9407  160.4697 C   0  0  0  0  0  0  0  0  0  0  0  0
  128.6724  135.2181  159.7233 C   0  0  0  0  0  0  0  0  0  0  0  0
  127.4568  134.8703  160.2822 C   0  0  0  0  0  0  0  0  0  0  0  0
  126.2830  135.1292  159.5997 C   0  0  0  0  0  0  0  0  0  0  0  0
  126.3248  135.7266  158.3543 C   0  0  0  0  0  0  0  0  0  0  0  0
  127.5411  136.0695  157.7925 C   0  0  0  0  0  0  0  0  0  0  0  0
  128.7147  135.8154  158.4773 C   0  0  0  0  0  0  0  0  0  0  0  0
  130.4573  133.5680  160.1074 C   0  0  0  0  0  0  0  0  0  0  0  0
  130.0647  132.4691  160.8484 C   0  0  0  0  0  0  0  0  0  0  0  0
  130.5246  131.2093  160.5130 C   0  0  0  0  0  0  0  0  0  0  0  0
  131.3854  131.0500  159.4432 C   0  0  0  0  0  0  0  0  0  0  0  0
  131.7822  132.1496  158.7054 C   0  0  0  0  0  0  0  0  0  0  0  0
  131.3181  133.4086  159.0374 C   0  0  0  0  0  0  0  0  0  0  0  0
  130.4659  137.2836  160.4562 C   0  0  0  0  0  0  0  0  0  0  0  0
  131.5072  138.3322  160.0589 C   0  0  0  0  0  0  0  0  0  0  0  0
  135.1636  142.2286  165.6995 H   0  0  0  0  0  0  0  0  0  0  0  0
  135.8165  140.7853  166.5112 H   0  0  0  0  0  0  0  0  0  0  0  0
  135.4728  140.7454  164.7651 H   0  0  0  0  0  0  0  0  0  0  0  0
  134.0144  140.6670  168.1316 H   0  0  0  0  0  0  0  0  0  0  0  0
  131.7271  139.8956  168.6037 H   0  0  0  0  0  0  0  0  0  0  0  0
  130.1601  139.4565  166.7589 H   0  0  0  0  0  0  0  0  0  0  0  0
  130.8685  139.7987  164.4291 H   0  0  0  0  0  0  0  0  0  0  0  0
  133.1561  141.5796  163.0922 H   0  0  0  0  0  0  0  0  0  0  0  0
  133.9902  138.6465  163.3616 H   0  0  0  0  0  0  0  0  0  0  0  0
  136.7378  141.1096  162.6682 H   0  0  0  0  0  0  0  0  0  0  0  0
  136.1291  142.5820  161.8749 H   0  0  0  0  0  0  0  0  0  0  0  0
  135.1241  141.7391  163.0782 H   0  0  0  0  0  0  0  0  0  0  0  0
  136.3865  141.6925  159.6357 H   0  0  0  0  0  0  0  0  0  0  0  0
  135.4042  140.3286  157.8411 H   0  0  0  0  0  0  0  0  0  0  0  0
  133.7061  138.6293  158.3599 H   0  0  0  0  0  0  0  0  0  0  0  0
  133.4571  136.6414  159.3678 H   0  0  0  0  0  0  0  0  0  0  0  0
  134.1829  136.5185  160.9889 H   0  0  0  0  0  0  0  0  0  0  0  0
  132.0215  135.7347  161.9047 H   0  0  0  0  0  0  0  0  0  0  0  0
  132.5646  134.6767  160.5803 H   0  0  0  0  0  0  0  0  0  0  0  0
  129.7641  134.9875  161.5423 H   0  0  0  0  0  0  0  0  0  0  0  0
  127.4241  134.3997  161.2537 H   0  0  0  0  0  0  0  0  0  0  0  0
  125.3329  134.8608  160.0378 H   0  0  0  0  0  0  0  0  0  0  0  0
  125.4082  135.9246  157.8184 H   0  0  0  0  0  0  0  0  0  0  0  0
  127.5741  136.5357  156.8189 H   0  0  0  0  0  0  0  0  0  0  0  0
  129.6646  136.0830  158.0387 H   0  0  0  0  0  0  0  0  0  0  0  0
  129.3958  132.5943  161.6869 H   0  0  0  0  0  0  0  0  0  0  0  0
  130.2149  130.3503  161.0896 H   0  0  0  0  0  0  0  0  0  0  0  0
  131.7482  130.0663  159.1839 H   0  0  0  0  0  0  0  0  0  0  0  0
  132.4549  132.0251  157.8698 H   0  0  0  0  0  0  0  0  0  0  0  0
  131.6283  134.2678  158.4614 H   0  0  0  0  0  0  0  0  0  0  0  0
  130.2899  137.3352  161.5307 H   0  0  0  0  0  0  0  0  0  0  0  0
  129.5337  137.4780  159.9258 H   0  0  0  0  0  0  0  0  0  0  0  0
  131.1475  139.3239  160.3333 H   0  0  0  0  0  0  0  0  0  0  0  0
  131.6732  138.2902  158.9825 H   0  0  0  0  0  0  0  0  0  0  0  0
  1  2  1  0
  1 37  1  0
  1 38  1  0
  1 39  1  0
  2  7  2  0
  2  3  1  0
  3  4  2  0
  3 40  1  0
  4  5  1  0
  4 41  1  0
  5  6  2  0
  5 42  1  0
  6  7  1  0
  6 43  1  0
  7  8  1  0
  8  9  2  0
  8 44  1  0
  9 10  1  0
  9 45  1  0
 10 16  1  0
 10 11  2  0
 11 12  1  0
 11 13  1  0
 12 46  1  0
 12 47  1  0
 12 48  1  0
 13 14  2  0
 13 49  1  0
 14 15  1  0
 14 50  1  0
 15 16  2  0
 15 51  1  0
 16 17  1  0
 17 36  1  0
 17 18  1  0
 18 19  1  0
 18 52  1  0
 18 53  1  0
 19 20  1  0
 19 54  1  0
 19 55  1  0
 20 21  1  0
 20 22  1  0
 20 35  1  0
 22 23  1  0
 22 29  1  0
 22 56  1  0
 23 28  1  0
 23 24  2  0
 24 25  1  0
 24 57  1  0
 25 26  2  0
 25 58  1  0
 26 27  1  0
 26 59  1  0
 27 28  2  0
 27 60  1  0
 28 61  1  0
 29 34  1  0
 29 30  2  0
 30 31  1  0
 30 62  1  0
 31 32  2  0
 31 63  1  0
 32 33  1  0
 32 64  1  0
 33 34  2  0
 33 65  1  0
 34 66  1  0
 35 36  1  0
 35 67  1  0
 35 68  1  0
 36 69  1  0
 36 70  1  0
M  CHG  1  20   1
M  END
>  <DOCK_score>  (1) 
-55.952187

>  <SMILES>  (1) 
Cc1ccccc1C=Cc1c(C)cccc1N1CC[NH+](C(c2ccccc2)c2ccccc2)CC1

$$$$
