Cc1ccc([C@H](Nc2[nH]cc(-c3ccc(Nc4ccccc4N)cc3)[nH+]2)c2ccccc2)cc1
     RDKit          3D

 62 66  0  0  1  0  0  0  0  0999 V2000
  137.6654  135.2144  164.6756 C   0  0  0  0  0  0  0  0  0  0  0  0
  137.0204  136.5587  164.4571 C   0  0  0  0  0  0  0  0  0  0  0  0
  136.0815  137.0292  165.3559 C   0  0  0  0  0  0  0  0  0  0  0  0
  135.4899  138.2623  165.1554 C   0  0  0  0  0  0  0  0  0  0  0  0
  135.8372  139.0251  164.0560 C   0  0  0  0  0  0  0  0  0  0  0  0
  135.1919  140.3692  163.8372 C   0  0  2  0  0  0  0  0  0  0  0  0
  134.1848  140.3608  164.2539 H   0  0  0  0  0  0  0  0  0  0  0  0
  135.1239  140.6503  162.4011 N   0  0  0  0  0  0  0  0  0  0  0  0
  134.4220  139.8018  161.5621 C   0  0  0  0  0  0  0  0  0  0  0  0
  134.2796  139.9559  160.2176 N   0  0  0  0  0  0  0  0  0  0  0  0
  134.6484  140.6737  159.6793 H   0  0  0  0  0  0  0  0  0  0  0  0
  133.5167  138.9064  159.7633 C   0  0  0  0  0  0  0  0  0  0  0  0
  133.2156  138.1429  160.8428 C   0  0  0  0  0  0  0  0  0  0  0  0
  132.4070  136.8993  160.8344 C   0  0  0  0  0  0  0  0  0  0  0  0
  131.0254  136.9638  161.0103 C   0  0  0  0  0  0  0  0  0  0  0  0
  130.2756  135.8068  161.0017 C   0  0  0  0  0  0  0  0  0  0  0  0
  130.8963  134.5766  160.8183 C   0  0  0  0  0  0  0  0  0  0  0  0
  130.1349  133.4055  160.8109 N   0  0  0  0  0  0  0  0  0  0  0  0
  130.5500  132.3054  160.0511 C   0  0  0  0  0  0  0  0  0  0  0  0
  130.8164  131.0931  160.6702 C   0  0  0  0  0  0  0  0  0  0  0  0
  131.2309  130.0094  159.9184 C   0  0  0  0  0  0  0  0  0  0  0  0
  131.3712  130.1265  158.5479 C   0  0  0  0  0  0  0  0  0  0  0  0
  131.1078  131.3311  157.9223 C   0  0  0  0  0  0  0  0  0  0  0  0
  130.6967  132.4249  158.6690 C   0  0  0  0  0  0  0  0  0  0  0  0
  130.4290  133.6453  158.0376 N   0  0  0  0  0  0  0  0  0  0  0  0
  132.2744  134.5095  160.6480 C   0  0  0  0  0  0  0  0  0  0  0  0
  133.0273  135.6644  160.6501 C   0  0  0  0  0  0  0  0  0  0  0  0
  133.7800  138.7207  161.9328 N   0  0  0  0  0  0  0  0  0  0  0  0
  133.7201  138.3860  162.8412 H   0  0  0  0  0  0  0  0  0  0  0  0
  136.0090  141.4358  164.5197 C   0  0  0  0  0  0  0  0  0  0  0  0
  135.7366  141.7825  165.8298 C   0  0  0  0  0  0  0  0  0  0  0  0
  136.4891  142.7579  166.4572 C   0  0  0  0  0  0  0  0  0  0  0  0
  137.5077  143.3928  165.7717 C   0  0  0  0  0  0  0  0  0  0  0  0
  137.7766  143.0496  164.4599 C   0  0  0  0  0  0  0  0  0  0  0  0
  137.0272  142.0714  163.8338 C   0  0  0  0  0  0  0  0  0  0  0  0
  136.7723  138.5523  163.1544 C   0  0  0  0  0  0  0  0  0  0  0  0
  137.3682  137.3216  163.3579 C   0  0  0  0  0  0  0  0  0  0  0  0
  137.0741  134.4431  164.1821 H   0  0  0  0  0  0  0  0  0  0  0  0
  138.6726  135.2224  164.2587 H   0  0  0  0  0  0  0  0  0  0  0  0
  137.7162  135.0051  165.7441 H   0  0  0  0  0  0  0  0  0  0  0  0
  135.8098  136.4333  166.2146 H   0  0  0  0  0  0  0  0  0  0  0  0
  134.7560  138.6297  165.8575 H   0  0  0  0  0  0  0  0  0  0  0  0
  135.5710  141.4309  162.0380 H   0  0  0  0  0  0  0  0  0  0  0  0
  133.2151  138.7245  158.7423 H   0  0  0  0  0  0  0  0  0  0  0  0
  130.5429  137.9194  161.1527 H   0  0  0  0  0  0  0  0  0  0  0  0
  129.2054  135.8564  161.1379 H   0  0  0  0  0  0  0  0  0  0  0  0
  129.3185  133.3546  161.3321 H   0  0  0  0  0  0  0  0  0  0  0  0
  130.7043  130.9971  161.7401 H   0  0  0  0  0  0  0  0  0  0  0  0
  131.4418  129.0674  160.4027 H   0  0  0  0  0  0  0  0  0  0  0  0
  131.6913  129.2758  157.9648 H   0  0  0  0  0  0  0  0  0  0  0  0
  131.2220  131.4202  156.8520 H   0  0  0  0  0  0  0  0  0  0  0  0
  130.1412  134.4093  158.5614 H   0  0  0  0  0  0  0  0  0  0  0  0
  130.5314  133.7268  157.0765 H   0  0  0  0  0  0  0  0  0  0  0  0
  132.7550  133.5522  160.5098 H   0  0  0  0  0  0  0  0  0  0  0  0
  134.0973  135.6123  160.5137 H   0  0  0  0  0  0  0  0  0  0  0  0
  134.9383  141.2893  166.3642 H   0  0  0  0  0  0  0  0  0  0  0  0
  136.2792  143.0257  167.4823 H   0  0  0  0  0  0  0  0  0  0  0  0
  138.0938  144.1567  166.2612 H   0  0  0  0  0  0  0  0  0  0  0  0
  138.5726  143.5456  163.9242 H   0  0  0  0  0  0  0  0  0  0  0  0
  137.2373  141.8033  162.8090 H   0  0  0  0  0  0  0  0  0  0  0  0
  137.0405  139.1462  162.2932 H   0  0  0  0  0  0  0  0  0  0  0  0
  138.1020  136.9542  162.6559 H   0  0  0  0  0  0  0  0  0  0  0  0
  1  2  1  0
  1 38  1  0
  1 39  1  0
  1 40  1  0
  2 37  2  0
  2  3  1  0
  3  4  2  0
  3 41  1  0
  4  5  1  0
  4 42  1  0
  5  6  1  0
  5 36  2  0
  6  7  1  1
  6  8  1  0
  6 30  1  0
  8 43  1  0
  9  8  1  0
  9 28  2  0
  9 10  1  0
 10 11  1  0
 10 12  1  0
 12 13  2  0
 12 44  1  0
 13 14  1  0
 13 28  1  0
 14 27  1  0
 14 15  2  0
 15 16  1  0
 15 45  1  0
 16 17  2  0
 16 46  1  0
 17 18  1  0
 17 26  1  0
 18 19  1  0
 18 47  1  0
 19 24  1  0
 19 20  2  0
 20 21  1  0
 20 48  1  0
 21 22  2  0
 21 49  1  0
 22 23  1  0
 22 50  1  0
 23 24  2  0
 23 51  1  0
 24 25  1  0
 25 52  1  0
 25 53  1  0
 26 27  2  0
 26 54  1  0
 27 55  1  0
 28 29  1  0
 30 35  1  0
 30 31  2  0
 31 32  1  0
 31 56  1  0
 32 33  2  0
 32 57  1  0
 33 34  1  0
 33 58  1  0
 34 35  2  0
 34 59  1  0
 35 60  1  0
 36 37  1  0
 36 61  1  0
 37 62  1  0
M  CHG  1  28   1
M  END
>  <DOCK_score>  (1) 
-55.935116

>  <SMILES>  (1) 
Cc1ccc([C@H](Nc2[nH]cc(-c3ccc(Nc4ccccc4N)cc3)[nH+]2)c2ccccc2)cc1

$$$$
