CNc1ccc(Nc2[nH]cc(C3=CCC=CC3)[nH+]2)c(C)c1
     RDKit          3D

 42 44  0  0  1  0  0  0  0  0999 V2000
  126.8354  137.2848  163.9996 C   0  0  0  0  0  0  0  0  0  0  0  0
  126.4325  136.9963  162.6209 N   0  0  0  0  0  0  0  0  0  0  0  0
  127.3710  136.5065  161.7056 C   0  0  0  0  0  0  0  0  0  0  0  0
  128.6845  136.2938  162.1041 C   0  0  0  0  0  0  0  0  0  0  0  0
  129.6105  135.8116  161.2010 C   0  0  0  0  0  0  0  0  0  0  0  0
  129.2287  135.5384  159.8938 C   0  0  0  0  0  0  0  0  0  0  0  0
  130.1681  135.0495  158.9774 N   0  0  0  0  0  0  0  0  0  0  0  0
  129.9703  133.8196  158.3725 C   0  0  0  0  0  0  0  0  0  0  0  0
  129.3100  132.7632  158.9218 N   0  0  0  0  0  0  0  0  0  0  0  0
  128.8974  132.7373  159.7994 H   0  0  0  0  0  0  0  0  0  0  0  0
  129.3312  131.7432  158.0034 C   0  0  0  0  0  0  0  0  0  0  0  0
  130.0125  132.2019  156.9210 C   0  0  0  0  0  0  0  0  0  0  0  0
  130.2893  131.4453  155.6826 C   0  0  0  0  0  0  0  0  0  0  0  0
  129.8288  131.9113  154.5418 C   0  0  0  0  0  0  0  0  0  0  0  0
  130.0628  131.2188  153.2326 C   0  0  0  0  0  0  0  0  0  0  0  0
  131.2151  130.2645  153.3224 C   0  0  0  0  0  0  0  0  0  0  0  0
  131.6650  129.8024  154.4482 C   0  0  0  0  0  0  0  0  0  0  0  0
  131.0796  130.1746  155.7768 C   0  0  0  0  0  0  0  0  0  0  0  0
  130.3886  133.4810  157.1774 N   0  0  0  0  0  0  0  0  0  0  0  0
  130.8873  134.0526  156.5730 H   0  0  0  0  0  0  0  0  0  0  0  0
  127.9167  135.7555  159.4940 C   0  0  0  0  0  0  0  0  0  0  0  0
  127.5038  135.4649  158.0740 C   0  0  0  0  0  0  0  0  0  0  0  0
  126.9891  136.2334  160.3987 C   0  0  0  0  0  0  0  0  0  0  0  0
  127.6209  138.0405  163.9980 H   0  0  0  0  0  0  0  0  0  0  0  0
  125.9764  137.6549  164.5592 H   0  0  0  0  0  0  0  0  0  0  0  0
  127.2088  136.3738  164.4672 H   0  0  0  0  0  0  0  0  0  0  0  0
  125.5152  137.1448  162.3426 H   0  0  0  0  0  0  0  0  0  0  0  0
  128.9814  136.5062  163.1205 H   0  0  0  0  0  0  0  0  0  0  0  0
  130.6319  135.6469  161.5107 H   0  0  0  0  0  0  0  0  0  0  0  0
  130.9574  135.5724  158.7664 H   0  0  0  0  0  0  0  0  0  0  0  0
  128.8928  130.7632  158.1200 H   0  0  0  0  0  0  0  0  0  0  0  0
  129.2637  132.8315  154.5479 H   0  0  0  0  0  0  0  0  0  0  0  0
  129.1641  130.6685  152.9539 H   0  0  0  0  0  0  0  0  0  0  0  0
  130.2766  131.9648  152.4671 H   0  0  0  0  0  0  0  0  0  0  0  0
  131.6931  129.9470  152.4075 H   0  0  0  0  0  0  0  0  0  0  0  0
  132.4999  129.1176  154.4270 H   0  0  0  0  0  0  0  0  0  0  0  0
  130.4289  129.3697  156.1186 H   0  0  0  0  0  0  0  0  0  0  0  0
  131.8864  130.3108  156.4970 H   0  0  0  0  0  0  0  0  0  0  0  0
  127.1636  134.4322  157.9987 H   0  0  0  0  0  0  0  0  0  0  0  0
  126.6944  136.1361  157.7865 H   0  0  0  0  0  0  0  0  0  0  0  0
  128.3548  135.6166  157.4100 H   0  0  0  0  0  0  0  0  0  0  0  0
  125.9680  136.3986  160.0888 H   0  0  0  0  0  0  0  0  0  0  0  0
  1  2  1  0
  1 24  1  0
  1 25  1  0
  1 26  1  0
  2  3  1  0
  2 27  1  0
  3 23  2  0
  3  4  1  0
  4  5  2  0
  4 28  1  0
  5  6  1  0
  5 29  1  0
  6  7  1  0
  6 21  2  0
  7 30  1  0
  8  7  1  0
  8 19  2  0
  8  9  1  0
  9 10  1  0
  9 11  1  0
 11 12  2  0
 11 31  1  0
 12 13  1  0
 12 19  1  0
 13 18  1  0
 13 14  2  0
 14 15  1  0
 14 32  1  0
 15 16  1  0
 15 33  1  0
 15 34  1  0
 16 17  2  0
 16 35  1  0
 17 18  1  0
 17 36  1  0
 18 37  1  0
 18 38  1  0
 19 20  1  0
 21 22  1  0
 21 23  1  0
 22 39  1  0
 22 40  1  0
 22 41  1  0
 23 42  1  0
M  CHG  1  19   1
M  END
>  <DOCK_score>  (1) 
-52.084297

>  <SMILES>  (1) 
CNc1ccc(Nc2[nH]cc(C3=CCC=CC3)[nH+]2)c(C)c1

$$$$
