C[C@@H](Cc1ccccc1Cl)NC(NC1CCC1)=[NH+][C@H]1CCC(=O)NC1
     RDKit          3D

 53 55  0  0  1  0  0  0  0  0999 V2000
  130.8468  133.9150  162.1296 C   0  0  0  0  0  0  0  0  0  0  0  0
  131.4060  135.0955  161.3328 C   0  0  1  0  0  0  0  0  0  0  0  0
  130.9690  136.0231  161.7028 H   0  0  0  0  0  0  0  0  0  0  0  0
  132.9263  135.1469  161.4968 C   0  0  0  0  0  0  0  0  0  0  0  0
  133.4223  136.5274  161.1515 C   0  0  0  0  0  0  0  0  0  0  0  0
  133.7898  136.8251  159.8524 C   0  0  0  0  0  0  0  0  0  0  0  0
  134.2402  138.0924  159.5345 C   0  0  0  0  0  0  0  0  0  0  0  0
  134.3336  139.0603  160.5174 C   0  0  0  0  0  0  0  0  0  0  0  0
  133.9717  138.7625  161.8174 C   0  0  0  0  0  0  0  0  0  0  0  0
  133.5156  137.4952  162.1353 C   0  0  0  0  0  0  0  0  0  0  0  0
  133.0602  137.1205  163.7680 Cl  0  0  0  0  0  0  0  0  0  0  0  0
  131.0730  134.9298  159.9159 N   0  0  0  0  0  0  0  0  0  0  0  0
  129.7576  134.8571  159.5228 C   0  0  0  0  0  0  0  0  0  0  0  0
  129.4117  134.1262  158.4110 N   0  0  0  0  0  0  0  0  0  0  0  0
  130.4449  133.4245  157.6452 C   0  0  0  0  0  0  0  0  0  0  0  0
  129.9285  132.8094  156.3337 C   0  0  0  0  0  0  0  0  0  0  0  0
  130.8189  131.5933  156.6475 C   0  0  0  0  0  0  0  0  0  0  0  0
  130.7014  131.9877  158.1292 C   0  0  0  0  0  0  0  0  0  0  0  0
  128.8383  135.4815  160.2042 N   0  0  0  0  0  0  0  0  0  0  0  0
  129.0569  136.2997  160.6770 H   0  0  0  0  0  0  0  0  0  0  0  0
  127.4751  134.9476  160.2557 C   0  0  1  0  0  0  0  0  0  0  0  0
  127.0641  134.8963  159.2474 H   0  0  0  0  0  0  0  0  0  0  0  0
  127.4950  133.5449  160.8750 C   0  0  0  0  0  0  0  0  0  0  0  0
  126.0952  132.9390  160.7459 C   0  0  0  0  0  0  0  0  0  0  0  0
  125.0667  133.9225  161.2254 C   0  0  0  0  0  0  0  0  0  0  0  0
  123.9598  133.5084  161.4979 O   0  0  0  0  0  0  0  0  0  0  0  0
  125.3051  135.2268  161.3675 N   0  0  0  0  0  0  0  0  0  0  0  0
  126.5967  135.8536  161.1161 C   0  0  0  0  0  0  0  0  0  0  0  0
  131.2838  132.9874  161.7597 H   0  0  0  0  0  0  0  0  0  0  0  0
  131.0945  134.0383  163.1839 H   0  0  0  0  0  0  0  0  0  0  0  0
  129.7637  133.8784  162.0127 H   0  0  0  0  0  0  0  0  0  0  0  0
  133.1886  134.9143  162.5290 H   0  0  0  0  0  0  0  0  0  0  0  0
  133.3884  134.4177  160.8314 H   0  0  0  0  0  0  0  0  0  0  0  0
  133.7212  136.0682  159.0851 H   0  0  0  0  0  0  0  0  0  0  0  0
  134.5236  138.3257  158.5187 H   0  0  0  0  0  0  0  0  0  0  0  0
  134.6893  140.0495  160.2692 H   0  0  0  0  0  0  0  0  0  0  0  0
  134.0443  139.5187  162.5851 H   0  0  0  0  0  0  0  0  0  0  0  0
  131.7806  134.8714  159.2550 H   0  0  0  0  0  0  0  0  0  0  0  0
  128.4836  134.0748  158.1337 H   0  0  0  0  0  0  0  0  0  0  0  0
  131.3542  134.0131  157.5231 H   0  0  0  0  0  0  0  0  0  0  0  0
  128.8620  132.5846  156.3471 H   0  0  0  0  0  0  0  0  0  0  0  0
  130.2354  133.3583  155.4435 H   0  0  0  0  0  0  0  0  0  0  0  0
  131.8306  131.6807  156.2512 H   0  0  0  0  0  0  0  0  0  0  0  0
  130.3534  130.6361  156.4123 H   0  0  0  0  0  0  0  0  0  0  0  0
  131.6314  131.8741  158.6863 H   0  0  0  0  0  0  0  0  0  0  0  0
  129.8467  131.5379  158.6343 H   0  0  0  0  0  0  0  0  0  0  0  0
  127.7701  133.6123  161.9276 H   0  0  0  0  0  0  0  0  0  0  0  0
  128.2153  132.9205  160.3463 H   0  0  0  0  0  0  0  0  0  0  0  0
  126.0366  132.0317  161.3469 H   0  0  0  0  0  0  0  0  0  0  0  0
  125.9020  132.6932  159.7017 H   0  0  0  0  0  0  0  0  0  0  0  0
  124.5719  135.7946  161.6521 H   0  0  0  0  0  0  0  0  0  0  0  0
  126.4427  136.8025  160.6023 H   0  0  0  0  0  0  0  0  0  0  0  0
  127.0982  136.0390  162.0660 H   0  0  0  0  0  0  0  0  0  0  0  0
  1  2  1  0
  1 29  1  0
  1 30  1  0
  1 31  1  0
  2  3  1  1
  2  4  1  0
  2 12  1  0
  4  5  1  0
  4 32  1  0
  4 33  1  0
  5 10  1  0
  5  6  2  0
  6  7  1  0
  6 34  1  0
  7  8  2  0
  7 35  1  0
  8  9  1  0
  8 36  1  0
  9 10  2  0
  9 37  1  0
 10 11  1  0
 12 38  1  0
 13 12  1  0
 13 14  1  0
 13 19  2  0
 14 15  1  0
 14 39  1  0
 15 18  1  0
 15 16  1  0
 15 40  1  0
 16 17  1  0
 16 41  1  0
 16 42  1  0
 17 18  1  0
 17 43  1  0
 17 44  1  0
 18 45  1  0
 18 46  1  0
 19 20  1  0
 19 21  1  0
 21 22  1  6
 21 28  1  0
 21 23  1  0
 23 24  1  0
 23 47  1  0
 23 48  1  0
 24 25  1  0
 24 49  1  0
 24 50  1  0
 25 26  2  0
 25 27  1  0
 27 28  1  0
 27 51  1  0
 28 52  1  0
 28 53  1  0
M  CHG  1  19   1
M  END
>  <DOCK_score>  (1) 
-45.500694

>  <SMILES>  (1) 
C[C@@H](Cc1ccccc1Cl)NC(NC1CCC1)=[NH+][C@H]1CCC(=O)NC1

$$$$
