CC(C)c1ccc([C@@H](C)CNc2[nH]cc(-c3ccccc3)[nH+]2)cc1
     RDKit          3D

 50 52  0  0  1  0  0  0  0  0999 V2000
  135.0121  139.9221  160.6741 C   0  0  0  0  0  0  0  0  0  0  0  0
  134.1222  139.4968  159.5043 C   0  0  0  0  0  0  0  0  0  0  0  0
  134.9855  138.8668  158.4095 C   0  0  0  0  0  0  0  0  0  0  0  0
  133.1074  138.4916  159.9846 C   0  0  0  0  0  0  0  0  0  0  0  0
  131.7571  138.7652  159.8730 C   0  0  0  0  0  0  0  0  0  0  0  0
  130.8263  137.8431  160.3140 C   0  0  0  0  0  0  0  0  0  0  0  0
  131.2459  136.6473  160.8660 C   0  0  0  0  0  0  0  0  0  0  0  0
  130.2312  135.6421  161.3466 C   0  0  1  0  0  0  0  0  0  0  0  0
  130.7463  134.7689  161.7470 H   0  0  0  0  0  0  0  0  0  0  0  0
  129.3684  136.2720  162.4420 C   0  0  0  0  0  0  0  0  0  0  0  0
  129.3408  135.2170  160.1772 C   0  0  0  0  0  0  0  0  0  0  0  0
  130.1579  135.0667  158.9707 N   0  0  0  0  0  0  0  0  0  0  0  0
  130.2213  133.8434  158.3256 C   0  0  0  0  0  0  0  0  0  0  0  0
  129.9118  132.6389  158.8783 N   0  0  0  0  0  0  0  0  0  0  0  0
  129.6099  132.4843  159.7870 H   0  0  0  0  0  0  0  0  0  0  0  0
  130.0997  131.6830  157.9098 C   0  0  0  0  0  0  0  0  0  0  0  0
  130.5271  132.3292  156.7968 C   0  0  0  0  0  0  0  0  0  0  0  0
  130.8620  131.6997  155.4961 C   0  0  0  0  0  0  0  0  0  0  0  0
  130.6839  132.4084  154.3094 C   0  0  0  0  0  0  0  0  0  0  0  0
  130.9963  131.8173  153.1021 C   0  0  0  0  0  0  0  0  0  0  0  0
  131.4860  130.5239  153.0686 C   0  0  0  0  0  0  0  0  0  0  0  0
  131.6653  129.8160  154.2433 C   0  0  0  0  0  0  0  0  0  0  0  0
  131.3557  130.3968  155.4563 C   0  0  0  0  0  0  0  0  0  0  0  0
  130.5886  133.6543  157.0817 N   0  0  0  0  0  0  0  0  0  0  0  0
  130.8606  134.3505  156.4635 H   0  0  0  0  0  0  0  0  0  0  0  0
  132.5963  136.3757  160.9819 C   0  0  0  0  0  0  0  0  0  0  0  0
  133.5271  137.2960  160.5374 C   0  0  0  0  0  0  0  0  0  0  0  0
  135.5271  139.0491  161.0749 H   0  0  0  0  0  0  0  0  0  0  0  0
  135.7459  140.6493  160.3266 H   0  0  0  0  0  0  0  0  0  0  0  0
  134.3970  140.3710  161.4539 H   0  0  0  0  0  0  0  0  0  0  0  0
  133.6072  140.3699  159.1034 H   0  0  0  0  0  0  0  0  0  0  0  0
  134.3515  138.5639  157.5761 H   0  0  0  0  0  0  0  0  0  0  0  0
  135.7195  139.5940  158.0621 H   0  0  0  0  0  0  0  0  0  0  0  0
  135.5006  137.9938  158.8103 H   0  0  0  0  0  0  0  0  0  0  0  0
  131.4293  139.6993  159.4415 H   0  0  0  0  0  0  0  0  0  0  0  0
  129.7712  138.0570  160.2270 H   0  0  0  0  0  0  0  0  0  0  0  0
  128.8534  137.1452  162.0416 H   0  0  0  0  0  0  0  0  0  0  0  0
  128.6346  135.5450  162.7896 H   0  0  0  0  0  0  0  0  0  0  0  0
  130.0029  136.5746  163.2751 H   0  0  0  0  0  0  0  0  0  0  0  0
  128.5777  135.9765  160.0069 H   0  0  0  0  0  0  0  0  0  0  0  0
  128.8615  134.2667  160.4123 H   0  0  0  0  0  0  0  0  0  0  0  0
  130.6546  135.8242  158.6237 H   0  0  0  0  0  0  0  0  0  0  0  0
  129.9398  130.6201  158.0150 H   0  0  0  0  0  0  0  0  0  0  0  0
  130.3019  133.4184  154.3345 H   0  0  0  0  0  0  0  0  0  0  0  0
  130.8625  132.3671  152.1822 H   0  0  0  0  0  0  0  0  0  0  0  0
  131.7289  130.0652  152.1214 H   0  0  0  0  0  0  0  0  0  0  0  0
  132.0480  128.8065  154.2111 H   0  0  0  0  0  0  0  0  0  0  0  0
  131.4962  129.8431  156.3729 H   0  0  0  0  0  0  0  0  0  0  0  0
  132.9242  135.4433  161.4171 H   0  0  0  0  0  0  0  0  0  0  0  0
  134.5821  137.0825  160.6250 H   0  0  0  0  0  0  0  0  0  0  0  0
  1  2  1  0
  1 28  1  0
  1 29  1  0
  1 30  1  0
  2  3  1  0
  2  4  1  0
  2 31  1  0
  3 32  1  0
  3 33  1  0
  3 34  1  0
  4 27  2  0
  4  5  1  0
  5  6  2  0
  5 35  1  0
  6  7  1  0
  6 36  1  0
  7  8  1  0
  7 26  2  0
  8  9  1  1
  8 10  1  0
  8 11  1  0
 10 37  1  0
 10 38  1  0
 10 39  1  0
 11 12  1  0
 11 40  1  0
 11 41  1  0
 12 42  1  0
 13 12  1  0
 13 24  2  0
 13 14  1  0
 14 15  1  0
 14 16  1  0
 16 17  2  0
 16 43  1  0
 17 18  1  0
 17 24  1  0
 18 23  1  0
 18 19  2  0
 19 20  1  0
 19 44  1  0
 20 21  2  0
 20 45  1  0
 21 22  1  0
 21 46  1  0
 22 23  2  0
 22 47  1  0
 23 48  1  0
 24 25  1  0
 26 27  1  0
 26 49  1  0
 27 50  1  0
M  CHG  1  24   1
M  END
>  <DOCK_score>  (1) 
-56.642242

>  <SMILES>  (1) 
CC(C)c1ccc([C@@H](C)CNc2[nH]cc(-c3ccccc3)[nH+]2)cc1

$$$$
