c1ccc([C@H](c2cccc3ccccc23)[NH+]2CCN(c3cncc4ccccc34)CC2)cc1
     RDKit          3D

 61 66  0  0  1  0  0  0  0  0999 V2000
  131.6609  131.1572  158.2438 C   0  0  0  0  0  0  0  0  0  0  0  0
  130.9380  132.0170  157.4382 C   0  0  0  0  0  0  0  0  0  0  0  0
  130.4449  133.1996  157.9569 C   0  0  0  0  0  0  0  0  0  0  0  0
  130.6740  133.5221  159.2815 C   0  0  0  0  0  0  0  0  0  0  0  0
  130.1364  134.8113  159.8470 C   0  0  2  0  0  0  0  0  0  0  0  0
  129.9303  134.6840  160.9098 H   0  0  0  0  0  0  0  0  0  0  0  0
  128.8642  135.1826  159.1296 C   0  0  0  0  0  0  0  0  0  0  0  0
  128.9103  135.9585  158.0122 C   0  0  0  0  0  0  0  0  0  0  0  0
  127.7452  136.3064  157.3317 C   0  0  0  0  0  0  0  0  0  0  0  0
  126.5258  135.8909  157.7719 C   0  0  0  0  0  0  0  0  0  0  0  0
  126.4379  135.0939  158.9256 C   0  0  0  0  0  0  0  0  0  0  0  0
  125.1970  134.6460  159.4104 C   0  0  0  0  0  0  0  0  0  0  0  0
  125.1503  133.8758  160.5313 C   0  0  0  0  0  0  0  0  0  0  0  0
  126.3164  133.5228  161.2086 C   0  0  0  0  0  0  0  0  0  0  0  0
  127.5354  133.9376  160.7684 C   0  0  0  0  0  0  0  0  0  0  0  0
  127.6237  134.7345  159.6141 C   0  0  0  0  0  0  0  0  0  0  0  0
  131.1300  135.8778  159.6652 N   0  0  0  0  0  0  0  0  0  0  0  0
  131.3205  135.9954  158.6814 H   0  0  0  0  0  0  0  0  0  0  0  0
  132.3703  135.5151  160.3636 C   0  0  0  0  0  0  0  0  0  0  0  0
  133.4121  136.6171  160.1589 C   0  0  0  0  0  0  0  0  0  0  0  0
  132.8879  137.8864  160.6825 N   0  0  0  0  0  0  0  0  0  0  0  0
  133.8322  138.9046  160.5619 C   0  0  0  0  0  0  0  0  0  0  0  0
  134.3229  139.2699  159.3250 C   0  0  0  0  0  0  0  0  0  0  0  0
  135.2168  140.2385  159.1919 N   0  0  0  0  0  0  0  0  0  0  0  0
  135.7022  140.9051  160.2128 C   0  0  0  0  0  0  0  0  0  0  0  0
  135.2746  140.6099  161.5172 C   0  0  0  0  0  0  0  0  0  0  0  0
  135.7692  141.2992  162.6360 C   0  0  0  0  0  0  0  0  0  0  0  0
  135.3201  140.9711  163.8789 C   0  0  0  0  0  0  0  0  0  0  0  0
  134.3760  139.9622  164.0594 C   0  0  0  0  0  0  0  0  0  0  0  0
  133.8741  139.2725  162.9967 C   0  0  0  0  0  0  0  0  0  0  0  0
  134.3136  139.5829  161.7035 C   0  0  0  0  0  0  0  0  0  0  0  0
  131.6326  138.2499  160.0099 C   0  0  0  0  0  0  0  0  0  0  0  0
  130.6055  137.1344  160.2158 C   0  0  0  0  0  0  0  0  0  0  0  0
  131.4010  132.6645  160.0858 C   0  0  0  0  0  0  0  0  0  0  0  0
  131.8907  131.4799  159.5680 C   0  0  0  0  0  0  0  0  0  0  0  0
  132.0464  130.2334  157.8382 H   0  0  0  0  0  0  0  0  0  0  0  0
  130.7588  131.7651  156.4033 H   0  0  0  0  0  0  0  0  0  0  0  0
  129.8804  133.8717  157.3274 H   0  0  0  0  0  0  0  0  0  0  0  0
  129.8646  136.3054  157.6444 H   0  0  0  0  0  0  0  0  0  0  0  0
  127.8100  136.9190  156.4445 H   0  0  0  0  0  0  0  0  0  0  0  0
  125.6307  136.1723  157.2370 H   0  0  0  0  0  0  0  0  0  0  0  0
  124.2854  134.9115  158.8958 H   0  0  0  0  0  0  0  0  0  0  0  0
  124.1956  133.5332  160.9020 H   0  0  0  0  0  0  0  0  0  0  0  0
  126.2513  132.9105  162.0959 H   0  0  0  0  0  0  0  0  0  0  0  0
  128.4303  133.6556  161.3030 H   0  0  0  0  0  0  0  0  0  0  0  0
  132.7516  134.5758  159.9631 H   0  0  0  0  0  0  0  0  0  0  0  0
  132.1675  135.4003  161.4284 H   0  0  0  0  0  0  0  0  0  0  0  0
  134.3276  136.3553  160.6894 H   0  0  0  0  0  0  0  0  0  0  0  0
  133.6254  136.7229  159.0951 H   0  0  0  0  0  0  0  0  0  0  0  0
  133.9665  138.7568  158.4442 H   0  0  0  0  0  0  0  0  0  0  0  0
  136.4329  141.6836  160.0491 H   0  0  0  0  0  0  0  0  0  0  0  0
  136.5008  142.0840  162.5116 H   0  0  0  0  0  0  0  0  0  0  0  0
  135.7017  141.5016  164.7388 H   0  0  0  0  0  0  0  0  0  0  0  0
  134.0372  139.7230  165.0567 H   0  0  0  0  0  0  0  0  0  0  0  0
  133.1428  138.4929  163.1504 H   0  0  0  0  0  0  0  0  0  0  0  0
  131.2498  139.1792  160.4316 H   0  0  0  0  0  0  0  0  0  0  0  0
  131.8166  138.3826  158.9437 H   0  0  0  0  0  0  0  0  0  0  0  0
  130.4117  137.0113  161.2814 H   0  0  0  0  0  0  0  0  0  0  0  0
  129.6783  137.3956  159.7058 H   0  0  0  0  0  0  0  0  0  0  0  0
  131.5836  132.9183  161.1194 H   0  0  0  0  0  0  0  0  0  0  0  0
  132.4558  130.8084  160.1974 H   0  0  0  0  0  0  0  0  0  0  0  0
  1 35  2  0
  1  2  1  0
  1 36  1  0
  2  3  2  0
  2 37  1  0
  3  4  1  0
  3 38  1  0
  4  5  1  0
  4 34  2  0
  5  6  1  1
  5  7  1  0
  5 17  1  0
  7 16  1  0
  7  8  2  0
  8  9  1  0
  8 39  1  0
  9 10  2  0
  9 40  1  0
 10 11  1  0
 10 41  1  0
 11 16  2  0
 11 12  1  0
 12 13  2  0
 12 42  1  0
 13 14  1  0
 13 43  1  0
 14 15  2  0
 14 44  1  0
 15 16  1  0
 15 45  1  0
 17 18  1  0
 17 33  1  0
 17 19  1  0
 19 20  1  0
 19 46  1  0
 19 47  1  0
 20 21  1  0
 20 48  1  0
 20 49  1  0
 21 22  1  0
 21 32  1  0
 22 31  1  0
 22 23  2  0
 23 24  1  0
 23 50  1  0
 24 25  2  0
 25 26  1  0
 25 51  1  0
 26 31  2  0
 26 27  1  0
 27 28  2  0
 27 52  1  0
 28 29  1  0
 28 53  1  0
 29 30  2  0
 29 54  1  0
 30 31  1  0
 30 55  1  0
 32 33  1  0
 32 56  1  0
 32 57  1  0
 33 58  1  0
 33 59  1  0
 34 35  1  0
 34 60  1  0
 35 61  1  0
M  CHG  1  17   1
M  END
>  <DOCK_score>  (1) 
-57.158707

>  <SMILES>  (1) 
c1ccc([C@H](c2cccc3ccccc23)[NH+]2CCN(c3cncc4ccccc34)CC2)cc1

$$$$
