
     RDKit          2D

 32 36  0  0  0  0  0  0  0  0999 V2000
    3.7500   -1.2990    0.0000 C   0  0  0  0  0  0  0  0  0  0  0  0
    3.0000    0.0000    0.0000 C   0  0  0  0  0  0  0  0  0  0  0  0
    1.5000    0.0000    0.0000 C   0  0  0  0  0  0  0  0  0  0  0  0
    0.7500   -1.2990    0.0000 C   0  0  0  0  0  0  0  0  0  0  0  0
   -0.7500   -1.2990    0.0000 C   0  0  0  0  0  0  0  0  0  0  0  0
   -1.5000    0.0000    0.0000 C   0  0  0  0  0  0  0  0  0  0  0  0
   -3.0000    0.0000    0.0000 C   0  0  0  0  0  0  0  0  0  0  0  0
   -3.8817   -1.2135    0.0000 C   0  0  0  0  0  0  0  0  0  0  0  0
   -5.3083   -0.7500    0.0000 N   0  0  0  0  0  0  0  0  0  0  0  0
   -5.3083    0.7500    0.0000 C   0  0  0  0  0  0  0  0  0  0  0  0
   -6.5218    1.6317    0.0000 N   0  0  0  0  0  0  0  0  0  0  0  0
   -6.3650    3.1235    0.0000 C   0  0  0  0  0  0  0  0  0  0  0  0
   -7.5785    4.0051    0.0000 C   0  0  0  0  0  0  0  0  0  0  0  0
   -9.0051    3.5416    0.0000 C   0  0  0  0  0  0  0  0  0  0  0  0
   -9.4686    2.1150    0.0000 N   0  0  0  0  0  0  0  0  0  0  0  0
   -9.8868    4.7551    0.0000 C   0  0  0  0  0  0  0  0  0  0  0  0
   -9.0051    5.9687    0.0000 C   0  0  0  0  0  0  0  0  0  0  0  0
   -7.5785    5.5051    0.0000 C   0  0  0  0  0  0  0  0  0  0  0  0
   -4.9947    3.7336    0.0000 C   0  0  0  0  0  0  0  0  0  0  0  0
   -4.6828    5.2008    0.0000 C   0  0  0  0  0  0  0  0  0  0  0  0
   -3.1910    5.3576    0.0000 N   0  0  0  0  0  0  0  0  0  0  0  0
   -2.4410    6.6566    0.0000 C   0  0  0  0  0  0  0  0  0  0  0  0
   -0.9410    6.6566    0.0000 C   0  0  0  0  0  0  0  0  0  0  0  0
   -0.1910    7.9557    0.0000 C   0  0  0  0  0  0  0  0  0  0  0  0
   -0.9410    9.2547    0.0000 O   0  0  0  0  0  0  0  0  0  0  0  0
   -2.4410    9.2547    0.0000 C   0  0  0  0  0  0  0  0  0  0  0  0
   -3.1910    7.9557    0.0000 C   0  0  0  0  0  0  0  0  0  0  0  0
   -2.5809    3.9873    0.0000 N   0  0  0  0  0  0  0  0  0  0  0  0
   -3.6956    2.9836    0.0000 N   0  0  0  0  0  0  0  0  0  0  0  0
   -3.8817    1.2135    0.0000 N   0  0  0  0  0  0  0  0  0  0  0  0
   -0.7500    1.2990    0.0000 C   0  0  0  0  0  0  0  0  0  0  0  0
    0.7500    1.2990    0.0000 C   0  0  0  0  0  0  0  0  0  0  0  0
  1  2  1  0
  2  3  1  0
  3  4  2  0
  4  5  1  0
  5  6  2  0
  6  7  1  0
  7  8  2  0
  8  9  1  0
  9 10  1  0
 10 11  1  0
 11 12  1  0
 12 13  1  0
 13 14  2  0
 14 15  1  0
 14 16  1  0
 16 17  1  0
 17 18  1  0
 12 19  1  0
 19 20  2  0
 20 21  1  0
 21 22  1  0
 22 23  1  0
 23 24  1  0
 24 25  1  0
 25 26  1  0
 26 27  1  0
 21 28  1  0
 28 29  2  0
 10 30  2  0
  6 31  1  0
 31 32  2  0
 32  3  1  0
 30  7  1  0
 18 13  1  0
 29 19  1  0
 27 22  1  0
M  END
$$$$
