C[C@H](Cc1ccccc1)CN(C)C=C[NH2+]C(Cc1ccccc1)Cc1ccccc1
     RDKit          3D

 65 67  0  0  1  0  0  0  0  0999 V2000
  131.7970  137.6955  161.8432 C   0  0  0  0  0  0  0  0  0  0  0  0
  132.8270  137.0759  162.7896 C   0  0  2  0  0  0  0  0  0  0  0  0
  132.3120  136.5256  163.5771 H   0  0  0  0  0  0  0  0  0  0  0  0
  133.6772  138.1840  163.4142 C   0  0  0  0  0  0  0  0  0  0  0  0
  134.3312  137.6680  164.6700 C   0  0  0  0  0  0  0  0  0  0  0  0
  133.6898  137.7996  165.8875 C   0  0  0  0  0  0  0  0  0  0  0  0
  134.2876  137.3218  167.0388 C   0  0  0  0  0  0  0  0  0  0  0  0
  135.5314  136.7222  166.9741 C   0  0  0  0  0  0  0  0  0  0  0  0
  136.1750  136.5955  165.7574 C   0  0  0  0  0  0  0  0  0  0  0  0
  135.5750  137.0683  164.6053 C   0  0  0  0  0  0  0  0  0  0  0  0
  133.7296  136.1207  162.0064 C   0  0  0  0  0  0  0  0  0  0  0  0
  132.9156  135.0596  161.4083 N   0  0  0  0  0  0  0  0  0  0  0  0
  132.4811  133.9223  162.2232 C   0  0  0  0  0  0  0  0  0  0  0  0
  132.5558  135.1317  160.0685 C   0  0  0  0  0  0  0  0  0  0  0  0
  131.8224  134.1757  159.5297 C   0  0  0  0  0  0  0  0  0  0  0  0
  131.4228  134.2704  158.1934 N   0  0  0  0  0  0  0  0  0  0  0  0
  131.7800  135.1260  157.7953 H   0  0  0  0  0  0  0  0  0  0  0  0
  131.7848  133.4824  157.6774 H   0  0  0  0  0  0  0  0  0  0  0  0
  129.9556  134.2714  158.1200 C   0  0  0  0  0  0  0  0  0  0  0  0
  129.4296  135.6707  158.4456 C   0  0  0  0  0  0  0  0  0  0  0  0
  127.9813  135.5811  158.8521 C   0  0  0  0  0  0  0  0  0  0  0  0
  126.9875  135.6877  157.8971 C   0  0  0  0  0  0  0  0  0  0  0  0
  125.6591  135.6006  158.2694 C   0  0  0  0  0  0  0  0  0  0  0  0
  125.3242  135.4169  159.5978 C   0  0  0  0  0  0  0  0  0  0  0  0
  126.3178  135.3162  160.5536 C   0  0  0  0  0  0  0  0  0  0  0  0
  127.6464  135.3979  160.1807 C   0  0  0  0  0  0  0  0  0  0  0  0
  129.5154  133.8767  156.7088 C   0  0  0  0  0  0  0  0  0  0  0  0
  130.0336  132.4984  156.3881 C   0  0  0  0  0  0  0  0  0  0  0  0
  130.3241  132.1560  155.0807 C   0  0  0  0  0  0  0  0  0  0  0  0
  130.8039  130.8933  154.7872 C   0  0  0  0  0  0  0  0  0  0  0  0
  130.9837  129.9697  155.7999 C   0  0  0  0  0  0  0  0  0  0  0  0
  130.6878  130.3101  157.1065 C   0  0  0  0  0  0  0  0  0  0  0  0
  130.2130  131.5745  157.4007 C   0  0  0  0  0  0  0  0  0  0  0  0
  132.3113  138.1792  161.0128 H   0  0  0  0  0  0  0  0  0  0  0  0
  131.1407  136.9147  161.4586 H   0  0  0  0  0  0  0  0  0  0  0  0
  131.2050  138.4341  162.3835 H   0  0  0  0  0  0  0  0  0  0  0  0
  134.4452  138.4954  162.7062 H   0  0  0  0  0  0  0  0  0  0  0  0
  133.0418  139.0352  163.6588 H   0  0  0  0  0  0  0  0  0  0  0  0
  132.7200  138.2720  165.9387 H   0  0  0  0  0  0  0  0  0  0  0  0
  133.7849  137.4213  167.9895 H   0  0  0  0  0  0  0  0  0  0  0  0
  136.0004  136.3530  167.8742 H   0  0  0  0  0  0  0  0  0  0  0  0
  137.1471  136.1272  165.7068 H   0  0  0  0  0  0  0  0  0  0  0  0
  136.0782  136.9696  163.6547 H   0  0  0  0  0  0  0  0  0  0  0  0
  134.4635  135.6792  162.6807 H   0  0  0  0  0  0  0  0  0  0  0  0
  134.2447  136.6710  161.2190 H   0  0  0  0  0  0  0  0  0  0  0  0
  133.1789  133.0950  162.0941 H   0  0  0  0  0  0  0  0  0  0  0  0
  132.4558  134.2159  163.2726 H   0  0  0  0  0  0  0  0  0  0  0  0
  131.4852  133.6099  161.9093 H   0  0  0  0  0  0  0  0  0  0  0  0
  132.8762  135.9701  159.4678 H   0  0  0  0  0  0  0  0  0  0  0  0
  131.5311  133.3203  160.1212 H   0  0  0  0  0  0  0  0  0  0  0  0
  129.5554  133.5565  158.8388 H   0  0  0  0  0  0  0  0  0  0  0  0
  130.0110  136.0963  159.2637 H   0  0  0  0  0  0  0  0  0  0  0  0
  129.5212  136.3073  157.5655 H   0  0  0  0  0  0  0  0  0  0  0  0
  127.2492  135.8352  156.8598 H   0  0  0  0  0  0  0  0  0  0  0  0
  124.8828  135.6796  157.5226 H   0  0  0  0  0  0  0  0  0  0  0  0
  124.2862  135.3527  159.8891 H   0  0  0  0  0  0  0  0  0  0  0  0
  126.0561  135.1730  161.5916 H   0  0  0  0  0  0  0  0  0  0  0  0
  128.4226  135.3192  160.9274 H   0  0  0  0  0  0  0  0  0  0  0  0
  128.4268  133.8773  156.6544 H   0  0  0  0  0  0  0  0  0  0  0  0
  129.9156  134.5918  155.9900 H   0  0  0  0  0  0  0  0  0  0  0  0
  130.1797  132.8764  154.2891 H   0  0  0  0  0  0  0  0  0  0  0  0
  131.0348  130.6272  153.7663 H   0  0  0  0  0  0  0  0  0  0  0  0
  131.3551  128.9818  155.5700 H   0  0  0  0  0  0  0  0  0  0  0  0
  130.8279  129.5883  157.8976 H   0  0  0  0  0  0  0  0  0  0  0  0
  129.9817  131.8405  158.4216 H   0  0  0  0  0  0  0  0  0  0  0  0
  1  2  1  0
  1 34  1  0
  1 35  1  0
  1 36  1  0
  2  3  1  1
  2  4  1  0
  2 11  1  0
  4  5  1  0
  4 37  1  0
  4 38  1  0
  5 10  1  0
  5  6  2  0
  6  7  1  0
  6 39  1  0
  7  8  2  0
  7 40  1  0
  8  9  1  0
  8 41  1  0
  9 10  2  0
  9 42  1  0
 10 43  1  0
 11 12  1  0
 11 44  1  0
 11 45  1  0
 12 13  1  0
 12 14  1  0
 13 46  1  0
 13 47  1  0
 13 48  1  0
 14 15  2  0
 14 49  1  0
 15 16  1  0
 15 50  1  0
 16 17  1  0
 16 18  1  0
 16 19  1  0
 19 20  1  0
 19 27  1  0
 19 51  1  0
 20 21  1  0
 20 52  1  0
 20 53  1  0
 21 26  1  0
 21 22  2  0
 22 23  1  0
 22 54  1  0
 23 24  2  0
 23 55  1  0
 24 25  1  0
 24 56  1  0
 25 26  2  0
 25 57  1  0
 26 58  1  0
 27 28  1  0
 27 59  1  0
 27 60  1  0
 28 33  1  0
 28 29  2  0
 29 30  1  0
 29 61  1  0
 30 31  2  0
 30 62  1  0
 31 32  1  0
 31 63  1  0
 32 33  2  0
 32 64  1  0
 33 65  1  0
M  CHG  1  16   1
M  END
>  <DOCK_score>  (1) 
-57.017284

>  <SMILES>  (1) 
C[C@H](Cc1ccccc1)CN(C)C=C[NH2+]C(Cc1ccccc1)Cc1ccccc1

$$$$
