Cc1c(C2C[C@H]2C)cccc1N1CCN(c2ccc(Nc3[nH]cc(-c4ccc(N)cc4)[nH+]3)cc2)CC1
     RDKit          3D

 71 76  0  0  1  0  0  0  0  0999 V2000
  127.7355  138.7377  167.4991 C   0  0  0  0  0  0  0  0  0  0  0  0
  127.0318  137.5411  168.0858 C   0  0  0  0  0  0  0  0  0  0  0  0
  126.4940  137.6095  169.3562 C   0  0  0  0  0  0  0  0  0  0  0  0
  126.6112  138.8815  170.1557 C   0  0  2  0  0  0  0  0  0  0  0  0
  127.9287  139.1351  170.8909 C   0  0  0  0  0  0  0  0  0  0  0  0
  126.6728  138.7554  171.6792 C   0  0  1  0  0  0  0  0  0  0  0  0
  126.6285  137.7523  172.1033 H   0  0  0  0  0  0  0  0  0  0  0  0
  125.9993  139.8520  172.5067 C   0  0  0  0  0  0  0  0  0  0  0  0
  125.8479  136.5123  169.8950 C   0  0  0  0  0  0  0  0  0  0  0  0
  125.7377  135.3430  169.1646 C   0  0  0  0  0  0  0  0  0  0  0  0
  126.2731  135.2679  167.8940 C   0  0  0  0  0  0  0  0  0  0  0  0
  126.9230  136.3686  167.3495 C   0  0  0  0  0  0  0  0  0  0  0  0
  127.4661  136.2958  166.0647 N   0  0  0  0  0  0  0  0  0  0  0  0
  126.4142  136.0912  165.0590 C   0  0  0  0  0  0  0  0  0  0  0  0
  127.0396  136.0968  163.6622 C   0  0  0  0  0  0  0  0  0  0  0  0
  128.0562  135.0388  163.5793 N   0  0  0  0  0  0  0  0  0  0  0  0
  128.6012  134.9656  162.2923 C   0  0  0  0  0  0  0  0  0  0  0  0
  127.7793  134.6961  161.2051 C   0  0  0  0  0  0  0  0  0  0  0  0
  128.3154  134.6299  159.9344 C   0  0  0  0  0  0  0  0  0  0  0  0
  129.6776  134.8218  159.7446 C   0  0  0  0  0  0  0  0  0  0  0  0
  130.2224  134.7493  158.4563 N   0  0  0  0  0  0  0  0  0  0  0  0
  130.1080  133.5812  157.7208 C   0  0  0  0  0  0  0  0  0  0  0  0
  129.4981  132.4381  158.1379 N   0  0  0  0  0  0  0  0  0  0  0  0
  129.0686  132.2962  158.9959 H   0  0  0  0  0  0  0  0  0  0  0  0
  129.6006  131.5234  157.1172 C   0  0  0  0  0  0  0  0  0  0  0  0
  130.2764  132.1310  156.1108 C   0  0  0  0  0  0  0  0  0  0  0  0
  130.6278  131.5234  154.8037 C   0  0  0  0  0  0  0  0  0  0  0  0
  130.1533  132.0884  153.6211 C   0  0  0  0  0  0  0  0  0  0  0  0
  130.4862  131.5257  152.4070 C   0  0  0  0  0  0  0  0  0  0  0  0
  131.2842  130.3885  152.3626 C   0  0  0  0  0  0  0  0  0  0  0  0
  131.6151  129.8163  151.1320 N   0  0  0  0  0  0  0  0  0  0  0  0
  131.7538  129.8201  153.5408 C   0  0  0  0  0  0  0  0  0  0  0  0
  131.4284  130.3831  154.7568 C   0  0  0  0  0  0  0  0  0  0  0  0
  130.5743  133.3923  156.5102 N   0  0  0  0  0  0  0  0  0  0  0  0
  131.0559  134.0498  155.9841 H   0  0  0  0  0  0  0  0  0  0  0  0
  130.4998  135.0860  160.8322 C   0  0  0  0  0  0  0  0  0  0  0  0
  129.9628  135.1578  162.1022 C   0  0  0  0  0  0  0  0  0  0  0  0
  129.1081  135.2433  164.5849 C   0  0  0  0  0  0  0  0  0  0  0  0
  128.4827  135.2378  165.9818 C   0  0  0  0  0  0  0  0  0  0  0  0
  127.0153  139.3562  166.9635 H   0  0  0  0  0  0  0  0  0  0  0  0
  128.1903  139.3205  168.3000 H   0  0  0  0  0  0  0  0  0  0  0  0
  128.5098  138.4017  166.8093 H   0  0  0  0  0  0  0  0  0  0  0  0
  126.0907  139.7458  169.7429 H   0  0  0  0  0  0  0  0  0  0  0  0
  128.7109  138.3818  170.7963 H   0  0  0  0  0  0  0  0  0  0  0  0
  128.2751  140.1662  170.9620 H   0  0  0  0  0  0  0  0  0  0  0  0
  124.9373  139.8902  172.2636 H   0  0  0  0  0  0  0  0  0  0  0  0
  126.1214  139.6334  173.5676 H   0  0  0  0  0  0  0  0  0  0  0  0
  126.4591  140.8135  172.2784 H   0  0  0  0  0  0  0  0  0  0  0  0
  125.4282  136.5684  170.8885 H   0  0  0  0  0  0  0  0  0  0  0  0
  125.2323  134.4878  169.5884 H   0  0  0  0  0  0  0  0  0  0  0  0
  126.1828  134.3560  167.3224 H   0  0  0  0  0  0  0  0  0  0  0  0
  125.9246  135.1334  165.2346 H   0  0  0  0  0  0  0  0  0  0  0  0
  125.6804  136.8939  165.1322 H   0  0  0  0  0  0  0  0  0  0  0  0
  127.5056  137.0644  163.4762 H   0  0  0  0  0  0  0  0  0  0  0  0
  126.2656  135.9167  162.9161 H   0  0  0  0  0  0  0  0  0  0  0  0
  126.7206  134.5421  161.3532 H   0  0  0  0  0  0  0  0  0  0  0  0
  127.6761  134.4241  159.0886 H   0  0  0  0  0  0  0  0  0  0  0  0
  130.6797  135.5170  158.0792 H   0  0  0  0  0  0  0  0  0  0  0  0
  129.2195  130.5129  157.1182 H   0  0  0  0  0  0  0  0  0  0  0  0
  129.5289  132.9691  153.6554 H   0  0  0  0  0  0  0  0  0  0  0  0
  130.1227  131.9658  151.4903 H   0  0  0  0  0  0  0  0  0  0  0  0
  132.1722  129.0230  151.1001 H   0  0  0  0  0  0  0  0  0  0  0  0
  131.2878  130.2125  150.3093 H   0  0  0  0  0  0  0  0  0  0  0  0
  132.3737  128.9365  153.5040 H   0  0  0  0  0  0  0  0  0  0  0  0
  131.7938  129.9413  155.6720 H   0  0  0  0  0  0  0  0  0  0  0  0
  131.5592  135.2355  160.6847 H   0  0  0  0  0  0  0  0  0  0  0  0
  130.6022  135.3629  162.9481 H   0  0  0  0  0  0  0  0  0  0  0  0
  129.5977  136.2013  164.4094 H   0  0  0  0  0  0  0  0  0  0  0  0
  129.8423  134.4409  164.5120 H   0  0  0  0  0  0  0  0  0  0  0  0
  129.2569  135.4182  166.7276 H   0  0  0  0  0  0  0  0  0  0  0  0
  128.0166  134.2702  166.1681 H   0  0  0  0  0  0  0  0  0  0  0  0
  1  2  1  0
  1 40  1  0
  1 41  1  0
  1 42  1  0
  2 12  2  0
  2  3  1  0
  3  4  1  0
  3  9  2  0
  4  6  1  0
  4  5  1  0
  4 43  1  1
  5  6  1  0
  5 44  1  0
  5 45  1  0
  6  7  1  6
  6  8  1  0
  8 46  1  0
  8 47  1  0
  8 48  1  0
  9 10  1  0
  9 49  1  0
 10 11  2  0
 10 50  1  0
 11 12  1  0
 11 51  1  0
 12 13  1  0
 13 39  1  0
 13 14  1  0
 14 15  1  0
 14 52  1  0
 14 53  1  0
 15 16  1  0
 15 54  1  0
 15 55  1  0
 16 17  1  0
 16 38  1  0
 17 37  1  0
 17 18  2  0
 18 19  1  0
 18 56  1  0
 19 20  2  0
 19 57  1  0
 20 21  1  0
 20 36  1  0
 21 58  1  0
 22 21  1  0
 22 34  2  0
 22 23  1  0
 23 24  1  0
 23 25  1  0
 25 26  2  0
 25 59  1  0
 26 27  1  0
 26 34  1  0
 27 33  1  0
 27 28  2  0
 28 29  1  0
 28 60  1  0
 29 30  2  0
 29 61  1  0
 30 31  1  0
 30 32  1  0
 31 62  1  0
 31 63  1  0
 32 33  2  0
 32 64  1  0
 33 65  1  0
 34 35  1  0
 36 37  2  0
 36 66  1  0
 37 67  1  0
 38 39  1  0
 38 68  1  0
 38 69  1  0
 39 70  1  0
 39 71  1  0
M  CHG  1  34   1
M  END
>  <DOCK_score>  (1) 
-56.353367

>  <SMILES>  (1) 
Cc1c(C2C[C@H]2C)cccc1N1CCN(c2ccc(Nc3[nH]cc(-c4ccc(N)cc4)[nH+]3)cc2)CC1

$$$$
