Cc1ccc(C[C@H](CBr)CNc2[nH]cc(-c3ccccc3)[nH+]2)cc1
     RDKit          3D

 47 49  0  0  1  0  0  0  0  0999 V2000
  136.5678  140.0194  161.7906 C   0  0  0  0  0  0  0  0  0  0  0  0
  135.5746  138.9023  161.6006 C   0  0  0  0  0  0  0  0  0  0  0  0
  135.1440  138.5689  160.3300 C   0  0  0  0  0  0  0  0  0  0  0  0
  134.2328  137.5440  160.1557 C   0  0  0  0  0  0  0  0  0  0  0  0
  133.7529  136.8519  161.2519 C   0  0  0  0  0  0  0  0  0  0  0  0
  132.7596  135.7347  161.0618 C   0  0  0  0  0  0  0  0  0  0  0  0
  131.3393  136.3011  161.1117 C   0  0  2  0  0  0  0  0  0  0  0  0
  131.3096  137.2547  160.5847 H   0  0  0  0  0  0  0  0  0  0  0  0
  130.9247  136.5110  162.5694 C   0  0  0  0  0  0  0  0  0  0  0  0
  129.0995  137.2387  162.6335 Br  0  0  0  0  0  0  0  0  0  0  0  0
  130.3748  135.3191  160.4435 C   0  0  0  0  0  0  0  0  0  0  0  0
  130.7718  135.1182  159.0477 N   0  0  0  0  0  0  0  0  0  0  0  0
  130.5165  133.9097  158.4224 C   0  0  0  0  0  0  0  0  0  0  0  0
  129.9117  132.8333  158.9949 N   0  0  0  0  0  0  0  0  0  0  0  0
  129.5845  132.7754  159.9062 H   0  0  0  0  0  0  0  0  0  0  0  0
  129.8472  131.8450  158.0429 C   0  0  0  0  0  0  0  0  0  0  0  0
  130.4214  132.3425  156.9196 C   0  0  0  0  0  0  0  0  0  0  0  0
  130.5819  131.6263  155.6307 C   0  0  0  0  0  0  0  0  0  0  0  0
  129.9929  132.1304  154.4725 C   0  0  0  0  0  0  0  0  0  0  0  0
  130.1507  131.4631  153.2747 C   0  0  0  0  0  0  0  0  0  0  0  0
  130.8816  130.2894  153.2249 C   0  0  0  0  0  0  0  0  0  0  0  0
  131.4635  129.7817  154.3724 C   0  0  0  0  0  0  0  0  0  0  0  0
  131.3174  130.4438  155.5743 C   0  0  0  0  0  0  0  0  0  0  0  0
  130.8225  133.6115  157.1834 N   0  0  0  0  0  0  0  0  0  0  0  0
  131.2651  134.2036  156.5553 H   0  0  0  0  0  0  0  0  0  0  0  0
  134.1799  137.1884  162.5228 C   0  0  0  0  0  0  0  0  0  0  0  0
  135.0943  138.2105  162.6967 C   0  0  0  0  0  0  0  0  0  0  0  0
  136.0348  140.9612  161.9218 H   0  0  0  0  0  0  0  0  0  0  0  0
  137.1751  139.8196  162.6734 H   0  0  0  0  0  0  0  0  0  0  0  0
  137.2122  140.0858  160.9139 H   0  0  0  0  0  0  0  0  0  0  0  0
  135.5191  139.1093  159.4734 H   0  0  0  0  0  0  0  0  0  0  0  0
  133.8962  137.2838  159.1630 H   0  0  0  0  0  0  0  0  0  0  0  0
  132.8851  134.9980  161.8554 H   0  0  0  0  0  0  0  0  0  0  0  0
  132.9276  135.2596  160.0952 H   0  0  0  0  0  0  0  0  0  0  0  0
  130.9542  135.5573  163.0964 H   0  0  0  0  0  0  0  0  0  0  0  0
  131.6118  137.2105  163.0454 H   0  0  0  0  0  0  0  0  0  0  0  0
  130.4044  134.3654  160.9705 H   0  0  0  0  0  0  0  0  0  0  0  0
  129.3629  135.7226  160.4789 H   0  0  0  0  0  0  0  0  0  0  0  0
  131.2134  135.8320  158.5614 H   0  0  0  0  0  0  0  0  0  0  0  0
  129.4243  130.8591  158.1668 H   0  0  0  0  0  0  0  0  0  0  0  0
  129.4182  133.0439  154.5111 H   0  0  0  0  0  0  0  0  0  0  0  0
  129.6991  131.8555  152.3756 H   0  0  0  0  0  0  0  0  0  0  0  0
  130.9987  129.7679  152.2864 H   0  0  0  0  0  0  0  0  0  0  0  0
  132.0335  128.8656  154.3274 H   0  0  0  0  0  0  0  0  0  0  0  0
  131.7726  130.0465  156.4697 H   0  0  0  0  0  0  0  0  0  0  0  0
  133.8016  136.6507  163.3797 H   0  0  0  0  0  0  0  0  0  0  0  0
  135.4310  138.4706  163.6894 H   0  0  0  0  0  0  0  0  0  0  0  0
  1  2  1  0
  1 28  1  0
  1 29  1  0
  1 30  1  0
  2 27  2  0
  2  3  1  0
  3  4  2  0
  3 31  1  0
  4  5  1  0
  4 32  1  0
  5  6  1  0
  5 26  2  0
  6  7  1  0
  6 33  1  0
  6 34  1  0
  7  8  1  6
  7  9  1  0
  7 11  1  0
  9 10  1  0
  9 35  1  0
  9 36  1  0
 11 12  1  0
 11 37  1  0
 11 38  1  0
 12 39  1  0
 13 12  1  0
 13 24  2  0
 13 14  1  0
 14 15  1  0
 14 16  1  0
 16 17  2  0
 16 40  1  0
 17 18  1  0
 17 24  1  0
 18 23  1  0
 18 19  2  0
 19 20  1  0
 19 41  1  0
 20 21  2  0
 20 42  1  0
 21 22  1  0
 21 43  1  0
 22 23  2  0
 22 44  1  0
 23 45  1  0
 24 25  1  0
 26 27  1  0
 26 46  1  0
 27 47  1  0
M  CHG  1  24   1
M  END
>  <DOCK_score>  (1) 
-56.586411

>  <SMILES>  (1) 
Cc1ccc(C[C@H](CBr)CNc2[nH]cc(-c3ccccc3)[nH+]2)cc1

$$$$
