C[C@]1(c2ccccc2)CC1Nc1ccc(-c2n[nH]cc2C[NH2+]CC2CCC3CC3C2)o1
     RDKit          3D

 64 69  0  0  1  0  0  0  0  0999 V2000
  126.5732  136.2031  165.0410 C   0  0  0  0  0  0  0  0  0  0  0  0
  127.2273  137.2853  164.1796 C   0  0  2  0  0  0  0  0  0  0  0  0
  128.5428  137.8151  164.6893 C   0  0  0  0  0  0  0  0  0  0  0  0
  129.7262  137.2140  164.3031 C   0  0  0  0  0  0  0  0  0  0  0  0
  130.9332  137.7026  164.7670 C   0  0  0  0  0  0  0  0  0  0  0  0
  130.9563  138.7868  165.6243 C   0  0  0  0  0  0  0  0  0  0  0  0
  129.7725  139.3846  166.0148 C   0  0  0  0  0  0  0  0  0  0  0  0
  128.5659  138.8986  165.5474 C   0  0  0  0  0  0  0  0  0  0  0  0
  126.3030  138.2668  163.4560 C   0  0  0  0  0  0  0  0  0  0  0  0
  127.0443  137.1880  162.6638 C   0  0  2  0  0  0  0  0  0  0  0  0
  126.2564  136.0658  162.1481 N   0  0  0  0  0  0  0  0  0  0  0  0
  126.8358  135.1535  161.2740 C   0  0  0  0  0  0  0  0  0  0  0  0
  126.2174  134.0768  160.7279 C   0  0  0  0  0  0  0  0  0  0  0  0
  127.1642  133.4303  159.9091 C   0  0  0  0  0  0  0  0  0  0  0  0
  128.3156  134.1471  159.9971 C   0  0  0  0  0  0  0  0  0  0  0  0
  129.5826  133.8383  159.3027 C   0  0  0  0  0  0  0  0  0  0  0  0
  129.7948  132.8218  158.4901 N   0  0  0  0  0  0  0  0  0  0  0  0
  131.1211  132.8907  158.0453 N   0  0  0  0  0  0  0  0  0  0  0  0
  131.5500  132.2688  157.4367 H   0  0  0  0  0  0  0  0  0  0  0  0
  131.6982  133.9758  158.6055 C   0  0  0  0  0  0  0  0  0  0  0  0
  130.7801  134.5791  159.3907 C   0  0  0  0  0  0  0  0  0  0  0  0
  130.9946  135.8255  160.2101 C   0  0  0  0  0  0  0  0  0  0  0  0
  132.3753  136.2953  160.0345 N   0  0  0  0  0  0  0  0  0  0  0  0
  132.5392  136.5008  159.0602 H   0  0  0  0  0  0  0  0  0  0  0  0
  133.0160  135.5780  160.3394 H   0  0  0  0  0  0  0  0  0  0  0  0
  132.5845  137.5103  160.8332 C   0  0  0  0  0  0  0  0  0  0  0  0
  134.0225  137.9997  160.6503 C   0  0  2  0  0  0  0  0  0  0  0  0
  134.3954  138.9427  161.8001 C   0  0  0  0  0  0  0  0  0  0  0  0
  135.9120  139.1351  161.8001 C   0  0  0  0  0  0  0  0  0  0  0  0
  136.3877  139.6199  160.4396 C   0  0  2  0  0  0  0  0  0  0  0  0
  135.6963  140.8013  159.7719 C   0  0  0  0  0  0  0  0  0  0  0  0
  135.5317  139.3825  159.2054 C   0  0  2  0  0  0  0  0  0  0  0  0
  134.1399  138.7671  159.3333 C   0  0  0  0  0  0  0  0  0  0  0  0
  128.1046  135.1861  160.8325 O   0  0  0  0  0  0  0  0  0  0  0  0
  126.9733  135.2276  164.7647 H   0  0  0  0  0  0  0  0  0  0  0  0
  126.7849  136.3981  166.0923 H   0  0  0  0  0  0  0  0  0  0  0  0
  125.4952  136.2126  164.8798 H   0  0  0  0  0  0  0  0  0  0  0  0
  129.7079  136.3647  163.6361 H   0  0  0  0  0  0  0  0  0  0  0  0
  131.8580  137.2358  164.4617 H   0  0  0  0  0  0  0  0  0  0  0  0
  131.8992  139.1669  165.9890 H   0  0  0  0  0  0  0  0  0  0  0  0
  129.7907  140.2315  166.6846 H   0  0  0  0  0  0  0  0  0  0  0  0
  127.6410  139.3656  165.8524 H   0  0  0  0  0  0  0  0  0  0  0  0
  126.6466  139.2956  163.3487 H   0  0  0  0  0  0  0  0  0  0  0  0
  125.2290  138.1417  163.5933 H   0  0  0  0  0  0  0  0  0  0  0  0
  127.8754  137.5073  162.0348 H   0  0  0  0  0  0  0  0  0  0  0  0
  125.3304  135.9595  162.4166 H   0  0  0  0  0  0  0  0  0  0  0  0
  125.1939  133.7727  160.8902 H   0  0  0  0  0  0  0  0  0  0  0  0
  127.0057  132.5365  159.3241 H   0  0  0  0  0  0  0  0  0  0  0  0
  132.7164  134.3022  158.4544 H   0  0  0  0  0  0  0  0  0  0  0  0
  130.8175  135.6033  161.2626 H   0  0  0  0  0  0  0  0  0  0  0  0
  130.3024  136.6003  159.8808 H   0  0  0  0  0  0  0  0  0  0  0  0
  132.4072  137.2882  161.8856 H   0  0  0  0  0  0  0  0  0  0  0  0
  131.8923  138.2853  160.5039 H   0  0  0  0  0  0  0  0  0  0  0  0
  134.7007  137.1465  160.6384 H   0  0  0  0  0  0  0  0  0  0  0  0
  133.9044  139.9053  161.6578 H   0  0  0  0  0  0  0  0  0  0  0  0
  134.0819  138.5055  162.7481 H   0  0  0  0  0  0  0  0  0  0  0  0
  136.3949  138.1860  162.0329 H   0  0  0  0  0  0  0  0  0  0  0  0
  136.1811  139.8704  162.5583 H   0  0  0  0  0  0  0  0  0  0  0  0
  137.4655  139.5532  160.2921 H   0  0  0  0  0  0  0  0  0  0  0  0
  136.3190  141.4986  159.2113 H   0  0  0  0  0  0  0  0  0  0  0  0
  134.8416  141.2412  160.2856 H   0  0  0  0  0  0  0  0  0  0  0  0
  136.0622  139.1502  158.2820 H   0  0  0  0  0  0  0  0  0  0  0  0
  133.9687  138.0847  158.5010 H   0  0  0  0  0  0  0  0  0  0  0  0
  133.3928  139.5604  159.3096 H   0  0  0  0  0  0  0  0  0  0  0  0
  1 35  1  0
  1 36  1  0
  1 37  1  0
  2  1  1  1
  2 10  1  0
  2  3  1  0
  2  9  1  0
  3  8  1  0
  3  4  2  0
  4  5  1  0
  4 38  1  0
  5  6  2  0
  5 39  1  0
  6  7  1  0
  6 40  1  0
  7  8  2  0
  7 41  1  0
  8 42  1  0
  9 10  1  0
  9 43  1  0
  9 44  1  0
 10 11  1  0
 10 45  1  6
 11 12  1  0
 11 46  1  0
 12 34  1  0
 12 13  2  0
 13 14  1  0
 13 47  1  0
 14 15  2  0
 14 48  1  0
 15 16  1  0
 15 34  1  0
 16 21  1  0
 16 17  2  0
 17 18  1  0
 18 19  1  0
 18 20  1  0
 20 21  2  0
 20 49  1  0
 21 22  1  0
 22 23  1  0
 22 50  1  0
 22 51  1  0
 23 24  1  0
 23 25  1  0
 23 26  1  0
 26 27  1  0
 26 52  1  0
 26 53  1  0
 27 33  1  0
 27 28  1  0
 27 54  1  6
 28 29  1  0
 28 55  1  0
 28 56  1  0
 29 30  1  0
 29 57  1  0
 29 58  1  0
 30 32  1  0
 30 31  1  0
 30 59  1  6
 31 32  1  0
 31 60  1  0
 31 61  1  0
 32 33  1  0
 32 62  1  6
 33 63  1  0
 33 64  1  0
M  CHG  1  23   1
M  END
>  <DOCK_score>  (1) 
-48.022804

>  <SMILES>  (1) 
C[C@]1(c2ccccc2)CC1Nc1ccc(-c2n[nH]cc2C[NH2+]CC2CCC3CC3C2)o1

$$$$
