C1=CC[C@@H]([NH2+]Cc2c[nH]nc2-c2ccc(NCC3=CCCC3)o2)CC1
     RDKit          3D

 52 55  0  0  1  0  0  0  0  0999 V2000
  132.5202  140.6554  161.4371 C   0  0  0  0  0  0  0  0  0  0  0  0
  131.3414  140.1950  161.1650 C   0  0  0  0  0  0  0  0  0  0  0  0
  131.0837  138.8388  160.5764 C   0  0  0  0  0  0  0  0  0  0  0  0
  132.3174  137.9487  160.7431 C   0  0  1  0  0  0  0  0  0  0  0  0
  132.4406  137.6864  161.7938 H   0  0  0  0  0  0  0  0  0  0  0  0
  132.1560  136.7264  159.9446 N   0  0  0  0  0  0  0  0  0  0  0  0
  133.0598  136.3073  159.7847 H   0  0  0  0  0  0  0  0  0  0  0  0
  131.7308  136.9568  159.0590 H   0  0  0  0  0  0  0  0  0  0  0  0
  131.2978  135.7787  160.6680 C   0  0  0  0  0  0  0  0  0  0  0  0
  131.1322  134.5247  159.8488 C   0  0  0  0  0  0  0  0  0  0  0  0
  132.1158  133.8582  159.2073 C   0  0  0  0  0  0  0  0  0  0  0  0
  131.5630  132.7947  158.5844 N   0  0  0  0  0  0  0  0  0  0  0  0
  132.0364  132.1427  158.0442 H   0  0  0  0  0  0  0  0  0  0  0  0
  130.1882  132.7967  158.8525 N   0  0  0  0  0  0  0  0  0  0  0  0
  129.9223  133.8366  159.6181 C   0  0  0  0  0  0  0  0  0  0  0  0
  128.5923  134.2174  160.1370 C   0  0  0  0  0  0  0  0  0  0  0  0
  127.4291  133.5516  159.9114 C   0  0  0  0  0  0  0  0  0  0  0  0
  126.4171  134.2554  160.5936 C   0  0  0  0  0  0  0  0  0  0  0  0
  127.0095  135.3180  161.1934 C   0  0  0  0  0  0  0  0  0  0  0  0
  126.3660  136.2750  161.9697 N   0  0  0  0  0  0  0  0  0  0  0  0
  127.1367  137.0994  162.9037 C   0  0  0  0  0  0  0  0  0  0  0  0
  127.1964  136.4160  164.2456 C   0  0  0  0  0  0  0  0  0  0  0  0
  128.2997  136.0505  164.8396 C   0  0  0  0  0  0  0  0  0  0  0  0
  128.0095  135.3879  166.1662 C   0  0  0  0  0  0  0  0  0  0  0  0
  126.5505  135.7889  166.4932 C   0  0  0  0  0  0  0  0  0  0  0  0
  125.9869  136.0635  165.0798 C   0  0  0  0  0  0  0  0  0  0  0  0
  128.3240  135.2866  160.9158 O   0  0  0  0  0  0  0  0  0  0  0  0
  133.5491  138.7231  160.2572 C   0  0  0  0  0  0  0  0  0  0  0  0
  133.7932  139.8934  161.2119 C   0  0  0  0  0  0  0  0  0  0  0  0
  132.5920  141.6497  161.8525 H   0  0  0  0  0  0  0  0  0  0  0  0
  130.4905  140.8262  161.3743 H   0  0  0  0  0  0  0  0  0  0  0  0
  130.8540  138.9429  159.5161 H   0  0  0  0  0  0  0  0  0  0  0  0
  130.2363  138.3808  161.0865 H   0  0  0  0  0  0  0  0  0  0  0  0
  130.3215  136.2314  160.8408 H   0  0  0  0  0  0  0  0  0  0  0  0
  131.7573  135.5297  161.6246 H   0  0  0  0  0  0  0  0  0  0  0  0
  133.1608  134.1303  159.1914 H   0  0  0  0  0  0  0  0  0  0  0  0
  127.3051  132.6533  159.3248 H   0  0  0  0  0  0  0  0  0  0  0  0
  125.3687  133.9988  160.6303 H   0  0  0  0  0  0  0  0  0  0  0  0
  125.4068  136.3969  161.8929 H   0  0  0  0  0  0  0  0  0  0  0  0
  126.6559  138.0716  163.0123 H   0  0  0  0  0  0  0  0  0  0  0  0
  128.1478  137.2350  162.5199 H   0  0  0  0  0  0  0  0  0  0  0  0
  129.2897  136.1982  164.4339 H   0  0  0  0  0  0  0  0  0  0  0  0
  128.0975  134.3052  166.0772 H   0  0  0  0  0  0  0  0  0  0  0  0
  128.6862  135.7628  166.9339 H   0  0  0  0  0  0  0  0  0  0  0  0
  126.5164  136.6874  167.1094 H   0  0  0  0  0  0  0  0  0  0  0  0
  126.0198  134.9669  166.9734 H   0  0  0  0  0  0  0  0  0  0  0  0
  125.2869  136.8987  165.1058 H   0  0  0  0  0  0  0  0  0  0  0  0
  125.4992  135.1727  164.6839 H   0  0  0  0  0  0  0  0  0  0  0  0
  134.4174  138.0643  160.2514 H   0  0  0  0  0  0  0  0  0  0  0  0
  133.3687  139.1055  159.2525 H   0  0  0  0  0  0  0  0  0  0  0  0
  134.5422  140.5595  160.7838 H   0  0  0  0  0  0  0  0  0  0  0  0
  134.1559  139.5063  162.1642 H   0  0  0  0  0  0  0  0  0  0  0  0
  1 29  1  0
  1  2  2  0
  1 30  1  0
  2  3  1  0
  2 31  1  0
  3  4  1  0
  3 32  1  0
  3 33  1  0
  4  5  1  1
  4  6  1  0
  4 28  1  0
  6  7  1  0
  6  8  1  0
  6  9  1  0
  9 10  1  0
  9 34  1  0
  9 35  1  0
 10 15  1  0
 10 11  2  0
 11 12  1  0
 11 36  1  0
 12 13  1  0
 12 14  1  0
 14 15  2  0
 15 16  1  0
 16 27  1  0
 16 17  2  0
 17 18  1  0
 17 37  1  0
 18 19  2  0
 18 38  1  0
 19 20  1  0
 19 27  1  0
 20 21  1  0
 20 39  1  0
 21 22  1  0
 21 40  1  0
 21 41  1  0
 22 26  1  0
 22 23  2  0
 23 24  1  0
 23 42  1  0
 24 25  1  0
 24 43  1  0
 24 44  1  0
 25 26  1  0
 25 45  1  0
 25 46  1  0
 26 47  1  0
 26 48  1  0
 28 29  1  0
 28 49  1  0
 28 50  1  0
 29 51  1  0
 29 52  1  0
M  CHG  1   6   1
M  END
>  <DOCK_score>  (1) 
-43.974792

>  <SMILES>  (1) 
C1=CC[C@@H]([NH2+]Cc2c[nH]nc2-c2ccc(NCC3=CCCC3)o2)CC1

$$$$
