BrCc1ccc(-c2c[nH]c(NC(c3ccccc3)c3ccccc3)[nH+]2)cc1
     RDKit          3D

 48 51  0  0  1  0  0  0  0  0999 V2000
  130.1480  129.1403  150.9997 Br  0  0  0  0  0  0  0  0  0  0  0  0
  131.6960  129.3607  152.1919 C   0  0  0  0  0  0  0  0  0  0  0  0
  131.2786  130.1278  153.4201 C   0  0  0  0  0  0  0  0  0  0  0  0
  131.6792  129.6959  154.6713 C   0  0  0  0  0  0  0  0  0  0  0  0
  131.3046  130.3974  155.7992 C   0  0  0  0  0  0  0  0  0  0  0  0
  130.5117  131.5371  155.6764 C   0  0  0  0  0  0  0  0  0  0  0  0
  130.1014  132.2923  156.8854 C   0  0  0  0  0  0  0  0  0  0  0  0
  129.3673  131.8082  157.9177 C   0  0  0  0  0  0  0  0  0  0  0  0
  129.2220  132.8344  158.8193 N   0  0  0  0  0  0  0  0  0  0  0  0
  128.7460  132.7944  159.6635 H   0  0  0  0  0  0  0  0  0  0  0  0
  129.8648  133.9190  158.3070 C   0  0  0  0  0  0  0  0  0  0  0  0
  129.9514  135.1633  158.9078 N   0  0  0  0  0  0  0  0  0  0  0  0
  128.8739  135.6303  159.7837 C   0  0  0  0  0  0  0  0  0  0  0  0
  129.2103  137.0034  160.3056 C   0  0  0  0  0  0  0  0  0  0  0  0
  128.7450  137.4054  161.5437 C   0  0  0  0  0  0  0  0  0  0  0  0
  129.0576  138.6632  162.0245 C   0  0  0  0  0  0  0  0  0  0  0  0
  129.8266  139.5229  161.2628 C   0  0  0  0  0  0  0  0  0  0  0  0
  130.2874  139.1228  160.0223 C   0  0  0  0  0  0  0  0  0  0  0  0
  129.9792  137.8631  159.5438 C   0  0  0  0  0  0  0  0  0  0  0  0
  127.5846  135.6904  159.0059 C   0  0  0  0  0  0  0  0  0  0  0  0
  126.3789  135.4825  159.6495 C   0  0  0  0  0  0  0  0  0  0  0  0
  125.1958  135.5424  158.9370 C   0  0  0  0  0  0  0  0  0  0  0  0
  125.2192  135.8000  157.5790 C   0  0  0  0  0  0  0  0  0  0  0  0
  126.4251  136.0026  156.9345 C   0  0  0  0  0  0  0  0  0  0  0  0
  127.6078  135.9479  157.6480 C   0  0  0  0  0  0  0  0  0  0  0  0
  130.3889  133.5912  157.1513 N   0  0  0  0  0  0  0  0  0  0  0  0
  130.9006  134.1829  156.5776 H   0  0  0  0  0  0  0  0  0  0  0  0
  130.1063  131.9649  154.4134 C   0  0  0  0  0  0  0  0  0  0  0  0
  130.4914  131.2587  153.2921 C   0  0  0  0  0  0  0  0  0  0  0  0
  132.0711  128.3810  152.4853 H   0  0  0  0  0  0  0  0  0  0  0  0
  132.4804  129.9095  151.6702 H   0  0  0  0  0  0  0  0  0  0  0  0
  132.2898  128.8101  154.7655 H   0  0  0  0  0  0  0  0  0  0  0  0
  131.6217  130.0614  156.7754 H   0  0  0  0  0  0  0  0  0  0  0  0
  128.9744  130.8068  158.0139 H   0  0  0  0  0  0  0  0  0  0  0  0
  130.7254  135.7259  158.7488 H   0  0  0  0  0  0  0  0  0  0  0  0
  128.7615  134.9409  160.6206 H   0  0  0  0  0  0  0  0  0  0  0  0
  128.1405  136.7353  162.1371 H   0  0  0  0  0  0  0  0  0  0  0  0
  128.6972  138.9758  162.9935 H   0  0  0  0  0  0  0  0  0  0  0  0
  130.0671  140.5072  161.6366 H   0  0  0  0  0  0  0  0  0  0  0  0
  130.8880  139.7947  159.4271 H   0  0  0  0  0  0  0  0  0  0  0  0
  130.3391  137.5507  158.5746 H   0  0  0  0  0  0  0  0  0  0  0  0
  126.3610  135.2769  160.7096 H   0  0  0  0  0  0  0  0  0  0  0  0
  124.2536  135.3837  159.4404 H   0  0  0  0  0  0  0  0  0  0  0  0
  124.2951  135.8423  157.0215 H   0  0  0  0  0  0  0  0  0  0  0  0
  126.4434  136.2035  155.8735 H   0  0  0  0  0  0  0  0  0  0  0  0
  128.5500  136.1059  157.1444 H   0  0  0  0  0  0  0  0  0  0  0  0
  129.4916  132.8471  154.3125 H   0  0  0  0  0  0  0  0  0  0  0  0
  130.1782  131.5894  152.3128 H   0  0  0  0  0  0  0  0  0  0  0  0
  1  2  1  0
  2  3  1  0
  2 30  1  0
  2 31  1  0
  3 29  2  0
  3  4  1  0
  4  5  2  0
  4 32  1  0
  5  6  1  0
  5 33  1  0
  6  7  1  0
  6 28  2  0
  7 26  1  0
  7  8  2  0
  8  9  1  0
  8 34  1  0
  9 10  1  0
  9 11  1  0
 11 12  1  0
 11 26  2  0
 12 13  1  0
 12 35  1  0
 13 14  1  0
 13 20  1  0
 13 36  1  0
 14 19  1  0
 14 15  2  0
 15 16  1  0
 15 37  1  0
 16 17  2  0
 16 38  1  0
 17 18  1  0
 17 39  1  0
 18 19  2  0
 18 40  1  0
 19 41  1  0
 20 25  1  0
 20 21  2  0
 21 22  1  0
 21 42  1  0
 22 23  2  0
 22 43  1  0
 23 24  1  0
 23 44  1  0
 24 25  2  0
 24 45  1  0
 25 46  1  0
 26 27  1  0
 28 29  1  0
 28 47  1  0
 29 48  1  0
M  CHG  1  26   1
M  END
>  <DOCK_score>  (1) 
-65.000351

>  <SMILES>  (1) 
BrCc1ccc(-c2c[nH]c(NC(c3ccccc3)c3ccccc3)[nH+]2)cc1

$$$$
