Fc1ccc(-c2c[nH]c(N[C@@H](CCc3ccccc3)c3cccc4cc[nH]c34)[nH+]2)cc1
     RDKit          3D

 55 59  0  0  1  0  0  0  0  0999 V2000
  131.1418  129.6757  151.7782 F   0  0  0  0  0  0  0  0  0  0  0  0
  130.9500  130.2943  152.9638 C   0  0  0  0  0  0  0  0  0  0  0  0
  130.1123  131.3960  153.0398 C   0  0  0  0  0  0  0  0  0  0  0  0
  129.9135  132.0317  154.2482 C   0  0  0  0  0  0  0  0  0  0  0  0
  130.5562  131.5643  155.3931 C   0  0  0  0  0  0  0  0  0  0  0  0
  130.3460  132.2448  156.6945 C   0  0  0  0  0  0  0  0  0  0  0  0
  129.8341  131.6809  157.8163 C   0  0  0  0  0  0  0  0  0  0  0  0
  129.8149  132.6592  158.7812 N   0  0  0  0  0  0  0  0  0  0  0  0
  129.5019  132.5599  159.6938 H   0  0  0  0  0  0  0  0  0  0  0  0
  130.3161  133.7930  158.2197 C   0  0  0  0  0  0  0  0  0  0  0  0
  130.4674  135.0110  158.8601 N   0  0  0  0  0  0  0  0  0  0  0  0
  130.0722  135.1549  160.2634 C   0  0  1  0  0  0  0  0  0  0  0  0
  130.3602  134.2604  160.8155 H   0  0  0  0  0  0  0  0  0  0  0  0
  130.7710  136.3745  160.8676 C   0  0  0  0  0  0  0  0  0  0  0  0
  130.3665  137.6302  160.0923 C   0  0  0  0  0  0  0  0  0  0  0  0
  131.0549  138.8314  160.6875 C   0  0  0  0  0  0  0  0  0  0  0  0
  130.4438  139.5470  161.7001 C   0  0  0  0  0  0  0  0  0  0  0  0
  131.0775  140.6461  162.2492 C   0  0  0  0  0  0  0  0  0  0  0  0
  132.3174  141.0357  161.7785 C   0  0  0  0  0  0  0  0  0  0  0  0
  132.9262  140.3232  160.7623 C   0  0  0  0  0  0  0  0  0  0  0  0
  132.2949  139.2209  160.2168 C   0  0  0  0  0  0  0  0  0  0  0  0
  128.5788  135.3384  160.3483 C   0  0  0  0  0  0  0  0  0  0  0  0
  127.8173  135.3498  159.1999 C   0  0  0  0  0  0  0  0  0  0  0  0
  126.4406  135.5132  159.2652 C   0  0  0  0  0  0  0  0  0  0  0  0
  125.8172  135.6763  160.4704 C   0  0  0  0  0  0  0  0  0  0  0  0
  126.5699  135.6734  161.6460 C   0  0  0  0  0  0  0  0  0  0  0  0
  126.2410  135.8178  163.0661 C   0  0  0  0  0  0  0  0  0  0  0  0
  127.3945  135.7308  163.7470 C   0  0  0  0  0  0  0  0  0  0  0  0
  128.4355  135.5427  162.8790 N   0  0  0  0  0  0  0  0  0  0  0  0
  129.3661  135.4504  163.1368 H   0  0  0  0  0  0  0  0  0  0  0  0
  127.9652  135.5028  161.5856 C   0  0  0  0  0  0  0  0  0  0  0  0
  130.6323  133.5414  156.9728 N   0  0  0  0  0  0  0  0  0  0  0  0
  131.0112  134.1802  156.3488 H   0  0  0  0  0  0  0  0  0  0  0  0
  131.4015  130.4592  155.3107 C   0  0  0  0  0  0  0  0  0  0  0  0
  131.5903  129.8265  154.0992 C   0  0  0  0  0  0  0  0  0  0  0  0
  129.6147  131.7574  152.1521 H   0  0  0  0  0  0  0  0  0  0  0  0
  129.2606  132.8899  154.3067 H   0  0  0  0  0  0  0  0  0  0  0  0
  129.5084  130.6576  157.9309 H   0  0  0  0  0  0  0  0  0  0  0  0
  130.8352  135.7691  158.3795 H   0  0  0  0  0  0  0  0  0  0  0  0
  130.4768  136.4817  161.9116 H   0  0  0  0  0  0  0  0  0  0  0  0
  131.8511  136.2418  160.8061 H   0  0  0  0  0  0  0  0  0  0  0  0
  130.6606  137.5230  159.0484 H   0  0  0  0  0  0  0  0  0  0  0  0
  129.2863  137.7628  160.1538 H   0  0  0  0  0  0  0  0  0  0  0  0
  129.4730  139.2454  162.0647 H   0  0  0  0  0  0  0  0  0  0  0  0
  130.6017  141.2030  163.0429 H   0  0  0  0  0  0  0  0  0  0  0  0
  132.8104  141.8970  162.2045 H   0  0  0  0  0  0  0  0  0  0  0  0
  133.8947  140.6277  160.3944 H   0  0  0  0  0  0  0  0  0  0  0  0
  132.7704  138.6644  159.4226 H   0  0  0  0  0  0  0  0  0  0  0  0
  128.2961  135.2265  158.2398 H   0  0  0  0  0  0  0  0  0  0  0  0
  125.8578  135.5151  158.3560 H   0  0  0  0  0  0  0  0  0  0  0  0
  124.7460  135.8074  160.5131 H   0  0  0  0  0  0  0  0  0  0  0  0
  125.2568  135.9658  163.4858 H   0  0  0  0  0  0  0  0  0  0  0  0
  127.4872  135.7993  164.8208 H   0  0  0  0  0  0  0  0  0  0  0  0
  131.9048  130.0961  156.1946 H   0  0  0  0  0  0  0  0  0  0  0  0
  132.2419  128.9677  154.0352 H   0  0  0  0  0  0  0  0  0  0  0  0
  1  2  1  0
  2 35  2  0
  2  3  1  0
  3  4  2  0
  3 36  1  0
  4  5  1  0
  4 37  1  0
  5  6  1  0
  5 34  2  0
  6 32  1  0
  6  7  2  0
  7  8  1  0
  7 38  1  0
  8  9  1  0
  8 10  1  0
 10 11  1  0
 10 32  2  0
 11 12  1  0
 11 39  1  0
 12 13  1  1
 12 14  1  0
 12 22  1  0
 14 15  1  0
 14 40  1  0
 14 41  1  0
 15 16  1  0
 15 42  1  0
 15 43  1  0
 16 21  1  0
 16 17  2  0
 17 18  1  0
 17 44  1  0
 18 19  2  0
 18 45  1  0
 19 20  1  0
 19 46  1  0
 20 21  2  0
 20 47  1  0
 21 48  1  0
 22 31  1  0
 22 23  2  0
 23 24  1  0
 23 49  1  0
 24 25  2  0
 24 50  1  0
 25 26  1  0
 25 51  1  0
 26 31  2  0
 26 27  1  0
 27 28  2  0
 27 52  1  0
 28 29  1  0
 28 53  1  0
 29 30  1  0
 29 31  1  0
 32 33  1  0
 34 35  1  0
 34 54  1  0
 35 55  1  0
M  CHG  1  32   1
M  END
>  <DOCK_score>  (1) 
-60.273098

>  <SMILES>  (1) 
Fc1ccc(-c2c[nH]c(N[C@@H](CCc3ccccc3)c3cccc4cc[nH]c34)[nH+]2)cc1

$$$$
