Cc1ccc([C@H](CSCc2ccccc2F)Nc2[nH]cc(-c3ccc(N)cc3)[nH+]2)n1C
     RDKit          3D

 58 61  0  0  1  0  0  0  0  0999 V2000
  124.9323  134.7025  161.9443 C   0  0  0  0  0  0  0  0  0  0  0  0
  126.1695  135.0737  161.1679 C   0  0  0  0  0  0  0  0  0  0  0  0
  126.2017  135.5018  159.8896 C   0  0  0  0  0  0  0  0  0  0  0  0
  127.5503  135.7416  159.5591 C   0  0  0  0  0  0  0  0  0  0  0  0
  128.2914  135.4429  160.6453 C   0  0  0  0  0  0  0  0  0  0  0  0
  129.7912  135.5478  160.7475 C   0  0  2  0  0  0  0  0  0  0  0  0
  130.1606  134.8001  161.4495 H   0  0  0  0  0  0  0  0  0  0  0  0
  130.1724  136.9444  161.2426 C   0  0  0  0  0  0  0  0  0  0  0  0
  131.9778  137.0704  161.3656 S   0  0  0  0  0  0  0  0  0  0  0  0
  132.3380  136.2459  162.9407 C   0  0  0  0  0  0  0  0  0  0  0  0
  133.7858  135.8287  162.9696 C   0  0  0  0  0  0  0  0  0  0  0  0
  134.7434  136.6891  163.4727 C   0  0  0  0  0  0  0  0  0  0  0  0
  136.0707  136.3045  163.5046 C   0  0  0  0  0  0  0  0  0  0  0  0
  136.4421  135.0589  163.0330 C   0  0  0  0  0  0  0  0  0  0  0  0
  135.4865  134.1971  162.5292 C   0  0  0  0  0  0  0  0  0  0  0  0
  134.1564  134.5812  162.4975 C   0  0  0  0  0  0  0  0  0  0  0  0
  133.2213  133.7391  162.0060 F   0  0  0  0  0  0  0  0  0  0  0  0
  130.3878  135.3171  159.4296 N   0  0  0  0  0  0  0  0  0  0  0  0
  130.1803  134.1140  158.7767 C   0  0  0  0  0  0  0  0  0  0  0  0
  129.4410  133.0735  159.2484 N   0  0  0  0  0  0  0  0  0  0  0  0
  128.9688  133.0414  160.0951 H   0  0  0  0  0  0  0  0  0  0  0  0
  129.4874  132.0762  158.3033 C   0  0  0  0  0  0  0  0  0  0  0  0
  130.2530  132.5364  157.2833 C   0  0  0  0  0  0  0  0  0  0  0  0
  130.5835  131.7998  156.0387 C   0  0  0  0  0  0  0  0  0  0  0  0
  130.2067  132.3173  154.8004 C   0  0  0  0  0  0  0  0  0  0  0  0
  130.5197  131.6336  153.6445 C   0  0  0  0  0  0  0  0  0  0  0  0
  131.2001  130.4237  153.7141 C   0  0  0  0  0  0  0  0  0  0  0  0
  131.5109  129.7304  152.5418 N   0  0  0  0  0  0  0  0  0  0  0  0
  131.5720  129.9033  154.9479 C   0  0  0  0  0  0  0  0  0  0  0  0
  131.2663  130.5864  156.1061 C   0  0  0  0  0  0  0  0  0  0  0  0
  130.6592  133.7914  157.6000 N   0  0  0  0  0  0  0  0  0  0  0  0
  131.2169  134.3587  157.0451 H   0  0  0  0  0  0  0  0  0  0  0  0
  127.4491  135.0355  161.6371 N   0  0  0  0  0  0  0  0  0  0  0  0
  127.8523  134.6253  162.9843 C   0  0  0  0  0  0  0  0  0  0  0  0
  124.5448  135.5845  162.4538 H   0  0  0  0  0  0  0  0  0  0  0  0
  124.1765  134.3164  161.2604 H   0  0  0  0  0  0  0  0  0  0  0  0
  125.1811  133.9376  162.6801 H   0  0  0  0  0  0  0  0  0  0  0  0
  125.3501  135.6396  159.2398 H   0  0  0  0  0  0  0  0  0  0  0  0
  127.9222  136.0970  158.6094 H   0  0  0  0  0  0  0  0  0  0  0  0
  129.7284  137.1160  162.2232 H   0  0  0  0  0  0  0  0  0  0  0  0
  129.8029  137.6920  160.5406 H   0  0  0  0  0  0  0  0  0  0  0  0
  131.7039  135.3653  163.0432 H   0  0  0  0  0  0  0  0  0  0  0  0
  132.1414  136.9329  163.7637 H   0  0  0  0  0  0  0  0  0  0  0  0
  134.4544  137.6623  163.8412 H   0  0  0  0  0  0  0  0  0  0  0  0
  136.8181  136.9774  163.8979 H   0  0  0  0  0  0  0  0  0  0  0  0
  137.4794  134.7595  163.0581 H   0  0  0  0  0  0  0  0  0  0  0  0
  135.7770  133.2246  162.1603 H   0  0  0  0  0  0  0  0  0  0  0  0
  130.9282  136.0073  159.0143 H   0  0  0  0  0  0  0  0  0  0  0  0
  129.0062  131.1111  158.3622 H   0  0  0  0  0  0  0  0  0  0  0  0
  129.6738  133.2551  154.7460 H   0  0  0  0  0  0  0  0  0  0  0  0
  130.2319  132.0364  152.6847 H   0  0  0  0  0  0  0  0  0  0  0  0
  131.9861  128.8856  152.5898 H   0  0  0  0  0  0  0  0  0  0  0  0
  131.2517  130.0925  151.6806 H   0  0  0  0  0  0  0  0  0  0  0  0
  132.1008  128.9629  154.9997 H   0  0  0  0  0  0  0  0  0  0  0  0
  131.5559  130.1817  157.0646 H   0  0  0  0  0  0  0  0  0  0  0  0
  127.8625  135.4951  163.6413 H   0  0  0  0  0  0  0  0  0  0  0  0
  127.1451  133.8893  163.3670 H   0  0  0  0  0  0  0  0  0  0  0  0
  128.8492  134.1862  162.9474 H   0  0  0  0  0  0  0  0  0  0  0  0
  1  2  1  0
  1 35  1  0
  1 36  1  0
  1 37  1  0
  2 33  1  0
  2  3  2  0
  3  4  1  0
  3 38  1  0
  4  5  2  0
  4 39  1  0
  5  6  1  0
  5 33  1  0
  6  7  1  1
  6  8  1  0
  6 18  1  0
  8  9  1  0
  8 40  1  0
  8 41  1  0
  9 10  1  0
 10 11  1  0
 10 42  1  0
 10 43  1  0
 11 16  1  0
 11 12  2  0
 12 13  1  0
 12 44  1  0
 13 14  2  0
 13 45  1  0
 14 15  1  0
 14 46  1  0
 15 16  2  0
 15 47  1  0
 16 17  1  0
 18 48  1  0
 19 18  1  0
 19 31  2  0
 19 20  1  0
 20 21  1  0
 20 22  1  0
 22 23  2  0
 22 49  1  0
 23 24  1  0
 23 31  1  0
 24 30  1  0
 24 25  2  0
 25 26  1  0
 25 50  1  0
 26 27  2  0
 26 51  1  0
 27 28  1  0
 27 29  1  0
 28 52  1  0
 28 53  1  0
 29 30  2  0
 29 54  1  0
 30 55  1  0
 31 32  1  0
 33 34  1  0
 34 56  1  0
 34 57  1  0
 34 58  1  0
M  CHG  1  31   1
M  END
>  <DOCK_score>  (1) 
-57.609459

>  <SMILES>  (1) 
Cc1ccc([C@H](CSCc2ccccc2F)Nc2[nH]cc(-c3ccc(N)cc3)[nH+]2)n1C

$$$$
