Clc1ccccc1[C@H](c1ccccc1)[NH+]1CCN(c2cccc3cc[nH]c23)CC1
     RDKit          3D

 54 58  0  0  1  0  0  0  0  0999 V2000
  130.0657  131.2641  160.8516 Cl  0  0  0  0  0  0  0  0  0  0  0  0
  130.5165  131.5446  159.1988 C   0  0  0  0  0  0  0  0  0  0  0  0
  131.0045  130.5039  158.4284 C   0  0  0  0  0  0  0  0  0  0  0  0
  131.3627  130.7275  157.1126 C   0  0  0  0  0  0  0  0  0  0  0  0
  131.2339  131.9910  156.5661 C   0  0  0  0  0  0  0  0  0  0  0  0
  130.7412  133.0298  157.3335 C   0  0  0  0  0  0  0  0  0  0  0  0
  130.3875  132.8083  158.6513 C   0  0  0  0  0  0  0  0  0  0  0  0
  129.8555  133.9420  159.4895 C   0  0  2  0  0  0  0  0  0  0  0  0
  129.6283  133.5777  160.4914 H   0  0  0  0  0  0  0  0  0  0  0  0
  128.6015  134.4887  158.8574 C   0  0  0  0  0  0  0  0  0  0  0  0
  127.3699  133.9599  159.1958 C   0  0  0  0  0  0  0  0  0  0  0  0
  126.2192  134.4644  158.6194 C   0  0  0  0  0  0  0  0  0  0  0  0
  126.3009  135.4913  157.6974 C   0  0  0  0  0  0  0  0  0  0  0  0
  127.5329  136.0169  157.3556 C   0  0  0  0  0  0  0  0  0  0  0  0
  128.6832  135.5154  157.9354 C   0  0  0  0  0  0  0  0  0  0  0  0
  130.8656  135.0054  159.5727 N   0  0  0  0  0  0  0  0  0  0  0  0
  131.0758  135.3426  158.6452 H   0  0  0  0  0  0  0  0  0  0  0  0
  132.0880  134.4721  160.1882 C   0  0  0  0  0  0  0  0  0  0  0  0
  133.1471  135.5745  160.2575 C   0  0  0  0  0  0  0  0  0  0  0  0
  132.6290  136.6982  161.0506 N   0  0  0  0  0  0  0  0  0  0  0  0
  133.5910  137.7045  161.1820 C   0  0  0  0  0  0  0  0  0  0  0  0
  134.0370  138.0810  162.4370 C   0  0  0  0  0  0  0  0  0  0  0  0
  134.9966  139.0735  162.5766 C   0  0  0  0  0  0  0  0  0  0  0  0
  135.5081  139.7055  161.4786 C   0  0  0  0  0  0  0  0  0  0  0  0
  135.0689  139.3472  160.2009 C   0  0  0  0  0  0  0  0  0  0  0  0
  135.3956  139.8038  158.8480 C   0  0  0  0  0  0  0  0  0  0  0  0
  134.6470  139.0825  157.9982 C   0  0  0  0  0  0  0  0  0  0  0  0
  133.8681  138.2017  158.6964 N   0  0  0  0  0  0  0  0  0  0  0  0
  133.2438  137.5740  158.2999 H   0  0  0  0  0  0  0  0  0  0  0  0
  134.1030  138.3387  160.0477 C   0  0  0  0  0  0  0  0  0  0  0  0
  131.3911  137.2267  160.4604 C   0  0  0  0  0  0  0  0  0  0  0  0
  130.3466  136.1106  160.3892 C   0  0  0  0  0  0  0  0  0  0  0  0
  131.1051  129.5169  158.8551 H   0  0  0  0  0  0  0  0  0  0  0  0
  131.7437  129.9155  156.5112 H   0  0  0  0  0  0  0  0  0  0  0  0
  131.5148  132.1656  155.5379 H   0  0  0  0  0  0  0  0  0  0  0  0
  130.6363  134.0154  156.9046 H   0  0  0  0  0  0  0  0  0  0  0  0
  127.3065  133.1550  159.9129 H   0  0  0  0  0  0  0  0  0  0  0  0
  125.2566  134.0540  158.8867 H   0  0  0  0  0  0  0  0  0  0  0  0
  125.4021  135.8831  157.2446 H   0  0  0  0  0  0  0  0  0  0  0  0
  127.5966  136.8191  156.6354 H   0  0  0  0  0  0  0  0  0  0  0  0
  129.6458  135.9257  157.6680 H   0  0  0  0  0  0  0  0  0  0  0  0
  131.8638  134.1196  161.1950 H   0  0  0  0  0  0  0  0  0  0  0  0
  132.4650  133.6436  159.5887 H   0  0  0  0  0  0  0  0  0  0  0  0
  133.3813  135.9180  159.2499 H   0  0  0  0  0  0  0  0  0  0  0  0
  134.0493  135.1830  160.7276 H   0  0  0  0  0  0  0  0  0  0  0  0
  133.6384  137.5945  163.3150 H   0  0  0  0  0  0  0  0  0  0  0  0
  135.3382  139.3525  163.5625 H   0  0  0  0  0  0  0  0  0  0  0  0
  136.2509  140.4803  161.5976 H   0  0  0  0  0  0  0  0  0  0  0  0
  136.1040  140.5751  158.5839 H   0  0  0  0  0  0  0  0  0  0  0  0
  134.6580  139.1835  156.9230 H   0  0  0  0  0  0  0  0  0  0  0  0
  131.5964  137.5974  159.4562 H   0  0  0  0  0  0  0  0  0  0  0  0
  131.0121  138.0406  161.0785 H   0  0  0  0  0  0  0  0  0  0  0  0
  129.4323  136.4969  159.9386 H   0  0  0  0  0  0  0  0  0  0  0  0
  130.1314  135.7495  161.3949 H   0  0  0  0  0  0  0  0  0  0  0  0
  1  2  1  0
  2  7  2  0
  2  3  1  0
  3  4  2  0
  3 33  1  0
  4  5  1  0
  4 34  1  0
  5  6  2  0
  5 35  1  0
  6  7  1  0
  6 36  1  0
  7  8  1  0
  8  9  1  1
  8 10  1  0
  8 16  1  0
 10 15  1  0
 10 11  2  0
 11 12  1  0
 11 37  1  0
 12 13  2  0
 12 38  1  0
 13 14  1  0
 13 39  1  0
 14 15  2  0
 14 40  1  0
 15 41  1  0
 16 17  1  0
 16 32  1  0
 16 18  1  0
 18 19  1  0
 18 42  1  0
 18 43  1  0
 19 20  1  0
 19 44  1  0
 19 45  1  0
 20 21  1  0
 20 31  1  0
 21 30  1  0
 21 22  2  0
 22 23  1  0
 22 46  1  0
 23 24  2  0
 23 47  1  0
 24 25  1  0
 24 48  1  0
 25 30  2  0
 25 26  1  0
 26 27  2  0
 26 49  1  0
 27 28  1  0
 27 50  1  0
 28 29  1  0
 28 30  1  0
 31 32  1  0
 31 51  1  0
 31 52  1  0
 32 53  1  0
 32 54  1  0
M  CHG  1  16   1
M  END
>  <DOCK_score>  (1) 
-62.952049

>  <SMILES>  (1) 
Clc1ccccc1[C@H](c1ccccc1)[NH+]1CCN(c2cccc3cc[nH]c23)CC1

$$$$
