Nc1ccc(-c2c[nH]c(N[C@@H](CCCl)C3=CCCC3)[nH+]2)cc1
     RDKit          3D

 44 46  0  0  1  0  0  0  0  0999 V2000
  131.1505  129.3847  150.8730 N   0  0  0  0  0  0  0  0  0  0  0  0
  131.0188  129.9722  152.1335 C   0  0  0  0  0  0  0  0  0  0  0  0
  130.2568  131.1245  152.2856 C   0  0  0  0  0  0  0  0  0  0  0  0
  130.1251  131.7060  153.5290 C   0  0  0  0  0  0  0  0  0  0  0  0
  130.7570  131.1373  154.6338 C   0  0  0  0  0  0  0  0  0  0  0  0
  130.6171  131.7614  155.9724 C   0  0  0  0  0  0  0  0  0  0  0  0
  130.0898  131.1745  157.0751 C   0  0  0  0  0  0  0  0  0  0  0  0
  130.1542  132.1008  158.0890 N   0  0  0  0  0  0  0  0  0  0  0  0
  129.8493  131.9763  159.0013 H   0  0  0  0  0  0  0  0  0  0  0  0
  130.7194  133.2266  157.5745 C   0  0  0  0  0  0  0  0  0  0  0  0
  130.9633  134.3976  158.2719 N   0  0  0  0  0  0  0  0  0  0  0  0
  130.6041  134.4945  159.6889 C   0  0  1  0  0  0  0  0  0  0  0  0
  130.8419  133.5558  160.1891 H   0  0  0  0  0  0  0  0  0  0  0  0
  131.3936  135.6328  160.3383 C   0  0  0  0  0  0  0  0  0  0  0  0
  132.8922  135.3521  160.2101 C   0  0  0  0  0  0  0  0  0  0  0  0
  133.2857  133.7992  161.0376 Cl  0  0  0  0  0  0  0  0  0  0  0  0
  129.1281  134.7711  159.8151 C   0  0  0  0  0  0  0  0  0  0  0  0
  128.4227  135.4307  158.9369 C   0  0  0  0  0  0  0  0  0  0  0  0
  126.9769  135.5303  159.3644 C   0  0  0  0  0  0  0  0  0  0  0  0
  126.9869  135.1771  160.8700 C   0  0  0  0  0  0  0  0  0  0  0  0
  128.2691  134.3158  160.9718 C   0  0  0  0  0  0  0  0  0  0  0  0
  130.9947  133.0199  156.3097 N   0  0  0  0  0  0  0  0  0  0  0  0
  131.4026  133.6643  155.7103 H   0  0  0  0  0  0  0  0  0  0  0  0
  131.5251  129.9846  154.4778 C   0  0  0  0  0  0  0  0  0  0  0  0
  131.6498  129.4035  153.2335 C   0  0  0  0  0  0  0  0  0  0  0  0
  130.7102  129.7808  150.1048 H   0  0  0  0  0  0  0  0  0  0  0  0
  131.6822  128.5804  150.7659 H   0  0  0  0  0  0  0  0  0  0  0  0
  129.7676  131.5650  151.4295 H   0  0  0  0  0  0  0  0  0  0  0  0
  129.5325  132.6012  153.6469 H   0  0  0  0  0  0  0  0  0  0  0  0
  129.6946  130.1718  157.1438 H   0  0  0  0  0  0  0  0  0  0  0  0
  131.3719  135.1536  157.8223 H   0  0  0  0  0  0  0  0  0  0  0  0
  131.1557  136.5716  159.8382 H   0  0  0  0  0  0  0  0  0  0  0  0
  131.1264  135.7050  161.3926 H   0  0  0  0  0  0  0  0  0  0  0  0
  133.1595  135.2801  159.1559 H   0  0  0  0  0  0  0  0  0  0  0  0
  133.4546  136.1631  160.6730 H   0  0  0  0  0  0  0  0  0  0  0  0
  128.8203  135.8499  158.0245 H   0  0  0  0  0  0  0  0  0  0  0  0
  126.6057  136.5442  159.2147 H   0  0  0  0  0  0  0  0  0  0  0  0
  126.3673  134.8162  158.8110 H   0  0  0  0  0  0  0  0  0  0  0  0
  127.0649  136.0757  161.4820 H   0  0  0  0  0  0  0  0  0  0  0  0
  126.1051  134.5966  161.1415 H   0  0  0  0  0  0  0  0  0  0  0  0
  128.0276  133.2576  160.8719 H   0  0  0  0  0  0  0  0  0  0  0  0
  128.7765  134.5027  161.9183 H   0  0  0  0  0  0  0  0  0  0  0  0
  132.0193  129.5448  155.3316 H   0  0  0  0  0  0  0  0  0  0  0  0
  132.2417  128.5083  153.1128 H   0  0  0  0  0  0  0  0  0  0  0  0
  1  2  1  0
  1 26  1  0
  1 27  1  0
  2 25  2  0
  2  3  1  0
  3  4  2  0
  3 28  1  0
  4  5  1  0
  4 29  1  0
  5  6  1  0
  5 24  2  0
  6 22  1  0
  6  7  2  0
  7  8  1  0
  7 30  1  0
  8  9  1  0
  8 10  1  0
 10 11  1  0
 10 22  2  0
 11 12  1  0
 11 31  1  0
 12 13  1  1
 12 14  1  0
 12 17  1  0
 14 15  1  0
 14 32  1  0
 14 33  1  0
 15 16  1  0
 15 34  1  0
 15 35  1  0
 17 21  1  0
 17 18  2  0
 18 19  1  0
 18 36  1  0
 19 20  1  0
 19 37  1  0
 19 38  1  0
 20 21  1  0
 20 39  1  0
 20 40  1  0
 21 41  1  0
 21 42  1  0
 22 23  1  0
 24 25  1  0
 24 43  1  0
 25 44  1  0
M  CHG  1  22   1
M  END
>  <DOCK_score>  (1) 
-55.911709

>  <SMILES>  (1) 
Nc1ccc(-c2c[nH]c(N[C@@H](CCCl)C3=CCCC3)[nH+]2)cc1

$$$$
