CC=C(CC)C[C@H](Nc1[nH]cc(-c2ccc(CC)cc2)[nH+]1)c1ccc(F)cc1
     RDKit          3D

 57 59  0  0  1  0  0  0  0  0999 V2000
  133.2706  138.3692  159.8294 C   0  0  0  0  0  0  0  0  0  0  0  0
  131.8122  138.0103  159.9542 C   0  0  0  0  0  0  0  0  0  0  0  0
  131.4449  137.0229  160.7327 C   0  0  0  0  0  0  0  0  0  0  0  0
  132.4807  136.2457  161.5035 C   0  0  0  0  0  0  0  0  0  0  0  0
  132.9630  135.0635  160.6605 C   0  0  0  0  0  0  0  0  0  0  0  0
  129.9866  136.6641  160.8575 C   0  0  0  0  0  0  0  0  0  0  0  0
  129.7766  135.2180  160.4042 C   0  0  2  0  0  0  0  0  0  0  0  0
  130.3697  134.5512  161.0303 H   0  0  0  0  0  0  0  0  0  0  0  0
  130.1962  135.0780  159.0076 N   0  0  0  0  0  0  0  0  0  0  0  0
  130.0985  133.8505  158.3751 C   0  0  0  0  0  0  0  0  0  0  0  0
  129.6362  132.7020  158.9404 N   0  0  0  0  0  0  0  0  0  0  0  0
  129.3188  132.5972  159.8510 H   0  0  0  0  0  0  0  0  0  0  0  0
  129.7016  131.7189  157.9832 C   0  0  0  0  0  0  0  0  0  0  0  0
  130.2015  132.2942  156.8616 C   0  0  0  0  0  0  0  0  0  0  0  0
  130.4493  131.6132  155.5673 C   0  0  0  0  0  0  0  0  0  0  0  0
  129.7997  132.0472  154.4130 C   0  0  0  0  0  0  0  0  0  0  0  0
  130.0345  131.4102  153.2114 C   0  0  0  0  0  0  0  0  0  0  0  0
  130.9123  130.3421  153.1518 C   0  0  0  0  0  0  0  0  0  0  0  0
  131.1640  129.6503  151.8368 C   0  0  0  0  0  0  0  0  0  0  0  0
  130.1575  128.5121  151.6585 C   0  0  0  0  0  0  0  0  0  0  0  0
  131.5552  129.9041  154.2949 C   0  0  0  0  0  0  0  0  0  0  0  0
  131.3329  130.5374  155.5008 C   0  0  0  0  0  0  0  0  0  0  0  0
  130.4404  133.6015  157.1345 N   0  0  0  0  0  0  0  0  0  0  0  0
  130.8038  134.2491  156.5104 H   0  0  0  0  0  0  0  0  0  0  0  0
  128.3183  134.8590  160.5290 C   0  0  0  0  0  0  0  0  0  0  0  0
  127.8401  134.3107  161.7046 C   0  0  0  0  0  0  0  0  0  0  0  0
  126.5019  133.9863  161.8221 C   0  0  0  0  0  0  0  0  0  0  0  0
  125.6421  134.2008  160.7583 C   0  0  0  0  0  0  0  0  0  0  0  0
  124.3348  133.8789  160.8702 F   0  0  0  0  0  0  0  0  0  0  0  0
  126.1233  134.7448  159.5795 C   0  0  0  0  0  0  0  0  0  0  0  0
  127.4609  135.0732  159.4660 C   0  0  0  0  0  0  0  0  0  0  0  0
  133.8242  137.5119  159.4464 H   0  0  0  0  0  0  0  0  0  0  0  0
  133.3807  139.2089  159.1432 H   0  0  0  0  0  0  0  0  0  0  0  0
  133.6616  138.6462  160.8084 H   0  0  0  0  0  0  0  0  0  0  0  0
  131.0699  138.5673  159.4017 H   0  0  0  0  0  0  0  0  0  0  0  0
  133.3248  136.8954  161.7347 H   0  0  0  0  0  0  0  0  0  0  0  0
  132.0422  135.8760  162.4304 H   0  0  0  0  0  0  0  0  0  0  0  0
  133.7120  134.5013  161.2180 H   0  0  0  0  0  0  0  0  0  0  0  0
  132.1187  134.4138  160.4293 H   0  0  0  0  0  0  0  0  0  0  0  0
  133.4015  135.4331  159.7335 H   0  0  0  0  0  0  0  0  0  0  0  0
  129.3936  137.3308  160.2314 H   0  0  0  0  0  0  0  0  0  0  0  0
  129.6745  136.7682  161.8965 H   0  0  0  0  0  0  0  0  0  0  0  0
  130.5425  135.8456  158.5260 H   0  0  0  0  0  0  0  0  0  0  0  0
  129.4105  130.6856  158.1014 H   0  0  0  0  0  0  0  0  0  0  0  0
  129.1139  132.8802  154.4588 H   0  0  0  0  0  0  0  0  0  0  0  0
  129.5317  131.7456  152.3164 H   0  0  0  0  0  0  0  0  0  0  0  0
  132.1758  129.2462  151.8267 H   0  0  0  0  0  0  0  0  0  0  0  0
  131.0506  130.3663  151.0220 H   0  0  0  0  0  0  0  0  0  0  0  0
  129.1455  128.9167  151.6683 H   0  0  0  0  0  0  0  0  0  0  0  0
  130.3396  128.0117  150.7074 H   0  0  0  0  0  0  0  0  0  0  0  0
  130.2706  127.7966  152.4730 H   0  0  0  0  0  0  0  0  0  0  0  0
  132.2358  129.0671  154.2432 H   0  0  0  0  0  0  0  0  0  0  0  0
  131.8391  130.1972  156.3921 H   0  0  0  0  0  0  0  0  0  0  0  0
  128.5119  134.1394  162.5327 H   0  0  0  0  0  0  0  0  0  0  0  0
  126.1277  133.5625  162.7422 H   0  0  0  0  0  0  0  0  0  0  0  0
  125.4536  134.9121  158.7488 H   0  0  0  0  0  0  0  0  0  0  0  0
  127.8363  135.4974  158.5465 H   0  0  0  0  0  0  0  0  0  0  0  0
  1  2  1  0
  1 32  1  0
  1 33  1  0
  1 34  1  0
  2  3  2  0
  2 35  1  0
  3  4  1  0
  3  6  1  0
  4  5  1  0
  4 36  1  0
  4 37  1  0
  5 38  1  0
  5 39  1  0
  5 40  1  0
  6  7  1  0
  6 41  1  0
  6 42  1  0
  7  8  1  1
  7  9  1  0
  7 25  1  0
  9 43  1  0
 10  9  1  0
 10 23  2  0
 10 11  1  0
 11 12  1  0
 11 13  1  0
 13 14  2  0
 13 44  1  0
 14 15  1  0
 14 23  1  0
 15 22  1  0
 15 16  2  0
 16 17  1  0
 16 45  1  0
 17 18  2  0
 17 46  1  0
 18 19  1  0
 18 21  1  0
 19 20  1  0
 19 47  1  0
 19 48  1  0
 20 49  1  0
 20 50  1  0
 20 51  1  0
 21 22  2  0
 21 52  1  0
 22 53  1  0
 23 24  1  0
 25 31  1  0
 25 26  2  0
 26 27  1  0
 26 54  1  0
 27 28  2  0
 27 55  1  0
 28 29  1  0
 28 30  1  0
 30 31  2  0
 30 56  1  0
 31 57  1  0
M  CHG  1  23   1
M  END
>  <DOCK_score>  (1) 
-61.496918

>  <SMILES>  (1) 
CC=C(CC)C[C@H](Nc1[nH]cc(-c2ccc(CC)cc2)[nH+]1)c1ccc(F)cc1

$$$$
