Oc1ccc(Nc2[nH]cc(C(F)F)[nH+]2)cc1
     RDKit          3D

 26 27  0  0  1  0  0  0  0  0999 V2000
  126.1963  136.7918  162.2678 O   0  0  0  0  0  0  0  0  0  0  0  0
  127.0497  136.4715  161.2587 C   0  0  0  0  0  0  0  0  0  0  0  0
  126.5501  136.0347  160.0406 C   0  0  0  0  0  0  0  0  0  0  0  0
  127.4161  135.7087  159.0156 C   0  0  0  0  0  0  0  0  0  0  0  0
  128.7876  135.8186  159.2044 C   0  0  0  0  0  0  0  0  0  0  0  0
  129.6663  135.4878  158.1659 N   0  0  0  0  0  0  0  0  0  0  0  0
  129.6663  134.2057  157.6404 C   0  0  0  0  0  0  0  0  0  0  0  0
  128.8624  133.1825  158.0382 N   0  0  0  0  0  0  0  0  0  0  0  0
  128.1890  133.2156  158.7355 H   0  0  0  0  0  0  0  0  0  0  0  0
  129.1852  132.0921  157.2631 C   0  0  0  0  0  0  0  0  0  0  0  0
  130.1638  132.4811  156.4278 C   0  0  0  0  0  0  0  0  0  0  0  0
  130.8347  131.6167  155.3915 C   0  0  0  0  0  0  0  0  0  0  0  0
  131.4447  130.5251  156.0187 F   0  0  0  0  0  0  0  0  0  0  0  0
  129.8795  131.1564  154.4789 F   0  0  0  0  0  0  0  0  0  0  0  0
  130.4377  133.7737  156.6708 N   0  0  0  0  0  0  0  0  0  0  0  0
  131.1029  134.3037  156.2045 H   0  0  0  0  0  0  0  0  0  0  0  0
  129.2871  136.2514  160.4258 C   0  0  0  0  0  0  0  0  0  0  0  0
  128.4196  136.5811  161.4483 C   0  0  0  0  0  0  0  0  0  0  0  0
  125.2623  136.6839  162.0422 H   0  0  0  0  0  0  0  0  0  0  0  0
  125.4835  135.9492  159.8939 H   0  0  0  0  0  0  0  0  0  0  0  0
  127.0270  135.3679  158.0674 H   0  0  0  0  0  0  0  0  0  0  0  0
  130.2751  136.1561  157.8144 H   0  0  0  0  0  0  0  0  0  0  0  0
  128.7377  131.1107  157.3161 H   0  0  0  0  0  0  0  0  0  0  0  0
  131.5891  132.2008  154.8643 H   0  0  0  0  0  0  0  0  0  0  0  0
  130.3536  136.3328  160.5750 H   0  0  0  0  0  0  0  0  0  0  0  0
  128.8077  136.9210  162.3971 H   0  0  0  0  0  0  0  0  0  0  0  0
  1  2  1  0
  1 19  1  0
  2 18  2  0
  2  3  1  0
  3  4  2  0
  3 20  1  0
  4  5  1  0
  4 21  1  0
  5  6  1  0
  5 17  2  0
  6 22  1  0
  7  6  1  0
  7 15  2  0
  7  8  1  0
  8  9  1  0
  8 10  1  0
 10 11  2  0
 10 23  1  0
 11 12  1  0
 11 15  1  0
 12 13  1  0
 12 14  1  0
 12 24  1  0
 15 16  1  0
 17 18  1  0
 17 25  1  0
 18 26  1  0
M  CHG  1  15   1
M  END
>  <DOCK_score>  (1) 
-42.808056

>  <SMILES>  (1) 
Oc1ccc(Nc2[nH]cc(C(F)F)[nH+]2)cc1

$$$$
