O=C1NCC(NC(NC2COC2)=[NH+][C@H]2COc3ccc(-c4ccccc4)cc3C2)CN1
     RDKit          3D

 59 63  0  0  1  0  0  0  0  0999 V2000
  124.0903  133.6316  161.7852 O   0  0  0  0  0  0  0  0  0  0  0  0
  125.2575  133.9282  161.6173 C   0  0  0  0  0  0  0  0  0  0  0  0
  125.6067  135.2223  161.6667 N   0  0  0  0  0  0  0  0  0  0  0  0
  126.9968  135.6432  161.4845 C   0  0  0  0  0  0  0  0  0  0  0  0
  127.7127  134.6352  160.5792 C   0  0  0  0  0  0  0  0  0  0  0  0
  129.1326  134.9830  160.4821 N   0  0  0  0  0  0  0  0  0  0  0  0
  129.8379  134.6812  159.3413 C   0  0  0  0  0  0  0  0  0  0  0  0
  129.2108  134.0531  158.2914 N   0  0  0  0  0  0  0  0  0  0  0  0
  129.9718  133.1655  157.4086 C   0  0  0  0  0  0  0  0  0  0  0  0
  129.1057  132.1207  156.6800 C   0  0  0  0  0  0  0  0  0  0  0  0
  130.1581  131.1880  157.0098 O   0  0  0  0  0  0  0  0  0  0  0  0
  130.6134  131.9676  158.1340 C   0  0  0  0  0  0  0  0  0  0  0  0
  131.1011  134.9908  159.2549 N   0  0  0  0  0  0  0  0  0  0  0  0
  131.4923  135.1954  158.3912 H   0  0  0  0  0  0  0  0  0  0  0  0
  131.9299  135.0296  160.4623 C   0  0  1  0  0  0  0  0  0  0  0  0
  131.3246  134.7737  161.3318 H   0  0  0  0  0  0  0  0  0  0  0  0
  133.0880  134.0329  160.3267 C   0  0  0  0  0  0  0  0  0  0  0  0
  133.8150  134.0175  161.5560 O   0  0  0  0  0  0  0  0  0  0  0  0
  134.1847  135.2107  162.0903 C   0  0  0  0  0  0  0  0  0  0  0  0
  135.1828  135.2199  163.0617 C   0  0  0  0  0  0  0  0  0  0  0  0
  135.5868  136.4054  163.6340 C   0  0  0  0  0  0  0  0  0  0  0  0
  134.9933  137.6036  163.2395 C   0  0  0  0  0  0  0  0  0  0  0  0
  135.4217  138.8845  163.8532 C   0  0  0  0  0  0  0  0  0  0  0  0
  135.3582  140.0674  163.1193 C   0  0  0  0  0  0  0  0  0  0  0  0
  135.7522  141.2572  163.6974 C   0  0  0  0  0  0  0  0  0  0  0  0
  136.2210  141.2749  164.9988 C   0  0  0  0  0  0  0  0  0  0  0  0
  136.2914  140.1029  165.7299 C   0  0  0  0  0  0  0  0  0  0  0  0
  135.8944  138.9084  165.1639 C   0  0  0  0  0  0  0  0  0  0  0  0
  133.9968  137.5930  162.2675 C   0  0  0  0  0  0  0  0  0  0  0  0
  133.5960  136.4002  161.6943 C   0  0  0  0  0  0  0  0  0  0  0  0
  132.5204  136.4309  160.6379 C   0  0  0  0  0  0  0  0  0  0  0  0
  127.5657  133.2385  161.1922 C   0  0  0  0  0  0  0  0  0  0  0  0
  126.1448  132.9482  161.3903 N   0  0  0  0  0  0  0  0  0  0  0  0
  124.9242  135.8929  161.8262 H   0  0  0  0  0  0  0  0  0  0  0  0
  127.4957  135.6817  162.4529 H   0  0  0  0  0  0  0  0  0  0  0  0
  127.0219  136.6300  161.0224 H   0  0  0  0  0  0  0  0  0  0  0  0
  127.2612  134.6490  159.5872 H   0  0  0  0  0  0  0  0  0  0  0  0
  129.5752  135.4262  161.2229 H   0  0  0  0  0  0  0  0  0  0  0  0
  128.2644  134.1977  158.1350 H   0  0  0  0  0  0  0  0  0  0  0  0
  130.6579  133.7024  156.7536 H   0  0  0  0  0  0  0  0  0  0  0  0
  128.1582  131.9100  157.1761 H   0  0  0  0  0  0  0  0  0  0  0  0
  128.9974  132.3057  155.6113 H   0  0  0  0  0  0  0  0  0  0  0  0
  131.6984  132.0314  158.2159 H   0  0  0  0  0  0  0  0  0  0  0  0
  130.1287  131.7115  159.0761 H   0  0  0  0  0  0  0  0  0  0  0  0
  132.6938  133.0377  160.1210 H   0  0  0  0  0  0  0  0  0  0  0  0
  133.7462  134.3426  159.5149 H   0  0  0  0  0  0  0  0  0  0  0  0
  135.6423  134.2918  163.3681 H   0  0  0  0  0  0  0  0  0  0  0  0
  136.3611  136.4070  164.3869 H   0  0  0  0  0  0  0  0  0  0  0  0
  134.9973  140.0538  162.1015 H   0  0  0  0  0  0  0  0  0  0  0  0
  135.6989  142.1752  163.1310 H   0  0  0  0  0  0  0  0  0  0  0  0
  136.5328  142.2074  165.4456 H   0  0  0  0  0  0  0  0  0  0  0  0
  136.6583  140.1226  166.7454 H   0  0  0  0  0  0  0  0  0  0  0  0
  135.9501  137.9939  165.7357 H   0  0  0  0  0  0  0  0  0  0  0  0
  133.5351  138.5197  161.9601 H   0  0  0  0  0  0  0  0  0  0  0  0
  132.9494  136.7647  159.6931 H   0  0  0  0  0  0  0  0  0  0  0  0
  131.7331  137.1207  160.9418 H   0  0  0  0  0  0  0  0  0  0  0  0
  127.9985  132.4980  160.5195 H   0  0  0  0  0  0  0  0  0  0  0  0
  128.0815  133.2058  162.1519 H   0  0  0  0  0  0  0  0  0  0  0  0
  125.8386  132.0284  161.3567 H   0  0  0  0  0  0  0  0  0  0  0  0
  1  2  2  0
  2 33  1  0
  2  3  1  0
  3  4  1  0
  3 34  1  0
  4  5  1  0
  4 35  1  0
  4 36  1  0
  5  6  1  0
  5 32  1  0
  5 37  1  0
  6 38  1  0
  7  6  1  0
  7  8  1  0
  7 13  2  0
  8  9  1  0
  8 39  1  0
  9 12  1  0
  9 10  1  0
  9 40  1  0
 10 11  1  0
 10 41  1  0
 10 42  1  0
 11 12  1  0
 12 43  1  0
 12 44  1  0
 13 14  1  0
 13 15  1  0
 15 16  1  1
 15 31  1  0
 15 17  1  0
 17 18  1  0
 17 45  1  0
 17 46  1  0
 18 19  1  0
 19 30  2  0
 19 20  1  0
 20 21  2  0
 20 47  1  0
 21 22  1  0
 21 48  1  0
 22 23  1  0
 22 29  2  0
 23 28  1  0
 23 24  2  0
 24 25  1  0
 24 49  1  0
 25 26  2  0
 25 50  1  0
 26 27  1  0
 26 51  1  0
 27 28  2  0
 27 52  1  0
 28 53  1  0
 29 30  1  0
 29 54  1  0
 30 31  1  0
 31 55  1  0
 31 56  1  0
 32 33  1  0
 32 57  1  0
 32 58  1  0
 33 59  1  0
M  CHG  1  13   1
M  END
>  <DOCK_score>  (1) 
-48.466068

>  <SMILES>  (1) 
O=C1NCC(NC(NC2COC2)=[NH+][C@H]2COc3ccc(-c4ccccc4)cc3C2)CN1

$$$$
