CC(C)(C)c1ccc(CCc2ccc3c(c2)C[C@H](NC(NC2CC=CC2)=[NH+][C@@H]2C=C[C@@H](O)[C@H]2O)C3)cc1
     RDKit          3D

 79 83  0  0  1  0  0  0  0  0999 V2000
  136.7611  138.9017  170.8842 C   0  0  0  0  0  0  0  0  0  0  0  0
  137.5795  137.8030  170.2032 C   0  0  0  0  0  0  0  0  0  0  0  0
  137.9006  136.7034  171.2175 C   0  0  0  0  0  0  0  0  0  0  0  0
  138.8828  138.3971  169.6653 C   0  0  0  0  0  0  0  0  0  0  0  0
  136.7856  137.2185  169.0633 C   0  0  0  0  0  0  0  0  0  0  0  0
  137.3239  136.2031  168.2953 C   0  0  0  0  0  0  0  0  0  0  0  0
  136.5960  135.6672  167.2494 C   0  0  0  0  0  0  0  0  0  0  0  0
  135.3293  136.1463  166.9722 C   0  0  0  0  0  0  0  0  0  0  0  0
  134.5357  135.5621  165.8321 C   0  0  0  0  0  0  0  0  0  0  0  0
  134.8385  136.3389  164.5492 C   0  0  0  0  0  0  0  0  0  0  0  0
  134.0449  135.7548  163.4091 C   0  0  0  0  0  0  0  0  0  0  0  0
  134.5807  134.7359  162.6435 C   0  0  0  0  0  0  0  0  0  0  0  0
  133.8516  134.2021  161.5991 C   0  0  0  0  0  0  0  0  0  0  0  0
  132.5845  134.6840  161.3156 C   0  0  0  0  0  0  0  0  0  0  0  0
  132.0487  135.7026  162.0810 C   0  0  0  0  0  0  0  0  0  0  0  0
  132.7792  136.2328  163.1314 C   0  0  0  0  0  0  0  0  0  0  0  0
  130.6644  136.0485  161.5757 C   0  0  0  0  0  0  0  0  0  0  0  0
  130.5878  135.4406  160.1592 C   0  0  2  0  0  0  0  0  0  0  0  0
  130.8974  136.1676  159.4083 H   0  0  0  0  0  0  0  0  0  0  0  0
  129.2392  134.9420  159.8786 N   0  0  0  0  0  0  0  0  0  0  0  0
  129.0634  133.8749  159.0297 C   0  0  0  0  0  0  0  0  0  0  0  0
  129.9534  133.6584  158.0043 N   0  0  0  0  0  0  0  0  0  0  0  0
  129.7662  132.5213  157.0998 C   0  0  0  0  0  0  0  0  0  0  0  0
  129.9936  131.1816  157.8378 C   0  0  0  0  0  0  0  0  0  0  0  0
  130.6858  130.2986  156.8247 C   0  0  0  0  0  0  0  0  0  0  0  0
  131.1690  131.0037  155.8383 C   0  0  0  0  0  0  0  0  0  0  0  0
  130.8805  132.4748  156.0287 C   0  0  0  0  0  0  0  0  0  0  0  0
  128.0531  133.0687  159.1969 N   0  0  0  0  0  0  0  0  0  0  0  0
  127.9292  132.3158  158.5979 H   0  0  0  0  0  0  0  0  0  0  0  0
  127.1048  133.2994  160.2895 C   0  0  2  0  0  0  0  0  0  0  0  0
  127.6181  133.2646  161.2504 H   0  0  0  0  0  0  0  0  0  0  0  0
  125.9947  132.2752  160.2481 C   0  0  0  0  0  0  0  0  0  0  0  0
  124.8299  132.8371  160.4249 C   0  0  0  0  0  0  0  0  0  0  0  0
  124.9689  134.3298  160.6136 C   0  0  1  0  0  0  0  0  0  0  0  0
  124.2211  134.8586  160.0226 H   0  0  0  0  0  0  0  0  0  0  0  0
  124.8423  134.6709  161.9955 O   0  0  0  0  0  0  0  0  0  0  0  0
  126.3919  134.6593  160.1057 C   0  0  1  0  0  0  0  0  0  0  0  0
  126.3744  134.9533  159.0562 H   0  0  0  0  0  0  0  0  0  0  0  0
  127.0019  135.6711  160.9095 O   0  0  0  0  0  0  0  0  0  0  0  0
  131.5969  134.2757  160.2437 C   0  0  0  0  0  0  0  0  0  0  0  0
  134.7928  137.1650  167.7372 C   0  0  0  0  0  0  0  0  0  0  0  0
  135.5193  137.6981  168.7855 C   0  0  0  0  0  0  0  0  0  0  0  0
  135.8326  138.4785  171.2674 H   0  0  0  0  0  0  0  0  0  0  0  0
  137.3352  139.3244  171.7087 H   0  0  0  0  0  0  0  0  0  0  0  0
  136.5322  139.6851  170.1616 H   0  0  0  0  0  0  0  0  0  0  0  0
  138.4837  135.9207  170.7323 H   0  0  0  0  0  0  0  0  0  0  0  0
  138.4748  137.1261  172.0420 H   0  0  0  0  0  0  0  0  0  0  0  0
  136.9721  136.2803  171.6008 H   0  0  0  0  0  0  0  0  0  0  0  0
  138.6540  139.1803  168.9427 H   0  0  0  0  0  0  0  0  0  0  0  0
  139.4570  138.8198  170.4897 H   0  0  0  0  0  0  0  0  0  0  0  0
  139.4659  137.6143  169.1802 H   0  0  0  0  0  0  0  0  0  0  0  0
  138.3136  135.8287  168.5122 H   0  0  0  0  0  0  0  0  0  0  0  0
  137.0168  134.8742  166.6492 H   0  0  0  0  0  0  0  0  0  0  0  0
  134.8104  134.5160  165.6967 H   0  0  0  0  0  0  0  0  0  0  0  0
  133.4714  135.6322  166.0567 H   0  0  0  0  0  0  0  0  0  0  0  0
  134.5637  137.3851  164.6844 H   0  0  0  0  0  0  0  0  0  0  0  0
  135.9027  136.2688  164.3246 H   0  0  0  0  0  0  0  0  0  0  0  0
  135.5686  134.3580  162.8617 H   0  0  0  0  0  0  0  0  0  0  0  0
  134.2710  133.4064  161.0013 H   0  0  0  0  0  0  0  0  0  0  0  0
  132.3595  137.0257  163.7328 H   0  0  0  0  0  0  0  0  0  0  0  0
  130.5376  137.1302  161.5305 H   0  0  0  0  0  0  0  0  0  0  0  0
  129.9039  135.6058  162.2190 H   0  0  0  0  0  0  0  0  0  0  0  0
  128.4702  135.3649  160.2918 H   0  0  0  0  0  0  0  0  0  0  0  0
  130.7051  134.2586  157.8799 H   0  0  0  0  0  0  0  0  0  0  0  0
  128.7797  132.5506  156.6370 H   0  0  0  0  0  0  0  0  0  0  0  0
  130.6311  131.3316  158.7091 H   0  0  0  0  0  0  0  0  0  0  0  0
  129.0401  130.7449  158.1346 H   0  0  0  0  0  0  0  0  0  0  0  0
  130.7694  129.2249  156.9065 H   0  0  0  0  0  0  0  0  0  0  0  0
  131.7048  130.5903  154.9967 H   0  0  0  0  0  0  0  0  0  0  0  0
  130.5296  132.9167  155.0961 H   0  0  0  0  0  0  0  0  0  0  0  0
  131.7701  132.9951  156.3835 H   0  0  0  0  0  0  0  0  0  0  0  0
  126.1453  131.2170  160.0931 H   0  0  0  0  0  0  0  0  0  0  0  0
  123.8901  132.3050  160.4346 H   0  0  0  0  0  0  0  0  0  0  0  0
  124.9454  135.6148  162.1786 H   0  0  0  0  0  0  0  0  0  0  0  0
  126.9861  135.4828  161.8579 H   0  0  0  0  0  0  0  0  0  0  0  0
  132.1067  134.1469  159.2889 H   0  0  0  0  0  0  0  0  0  0  0  0
  131.0883  133.3548  160.5290 H   0  0  0  0  0  0  0  0  0  0  0  0
  133.8050  137.5423  167.5178 H   0  0  0  0  0  0  0  0  0  0  0  0
  135.0989  138.4918  169.3854 H   0  0  0  0  0  0  0  0  0  0  0  0
  1  2  1  0
  1 43  1  0
  1 44  1  0
  1 45  1  0
  2  3  1  0
  2  4  1  0
  2  5  1  0
  3 46  1  0
  3 47  1  0
  3 48  1  0
  4 49  1  0
  4 50  1  0
  4 51  1  0
  5 42  2  0
  5  6  1  0
  6  7  2  0
  6 52  1  0
  7  8  1  0
  7 53  1  0
  8  9  1  0
  8 41  2  0
  9 10  1  0
  9 54  1  0
  9 55  1  0
 10 11  1  0
 10 56  1  0
 10 57  1  0
 11 16  1  0
 11 12  2  0
 12 13  1  0
 12 58  1  0
 13 14  2  0
 13 59  1  0
 14 40  1  0
 14 15  1  0
 15 16  2  0
 15 17  1  0
 16 60  1  0
 17 18  1  0
 17 61  1  0
 17 62  1  0
 18 19  1  6
 18 20  1  0
 18 40  1  0
 20 63  1  0
 21 20  1  0
 21 22  1  0
 21 28  2  0
 22 23  1  0
 22 64  1  0
 23 27  1  0
 23 24  1  0
 23 65  1  0
 24 25  1  0
 24 66  1  0
 24 67  1  0
 25 26  2  0
 25 68  1  0
 26 27  1  0
 26 69  1  0
 27 70  1  0
 27 71  1  0
 28 29  1  0
 28 30  1  0
 30 31  1  1
 30 37  1  0
 30 32  1  0
 32 33  2  0
 32 72  1  0
 33 34  1  0
 33 73  1  0
 34 35  1  6
 34 36  1  0
 34 37  1  0
 36 74  1  0
 37 38  1  6
 37 39  1  0
 39 75  1  0
 40 76  1  0
 40 77  1  0
 41 42  1  0
 41 78  1  0
 42 79  1  0
M  CHG  1  28   1
M  END
>  <DOCK_score>  (1) 
-48.517185

>  <SMILES>  (1) 
CC(C)(C)c1ccc(CCc2ccc3c(c2)C[C@H](NC(NC2CC=CC2)=[NH+][C@@H]2C=C[C@@H](O)[C@H]2O)C3)cc1

$$$$
