FC1(F)C[C@H]1CNc1cc(Nc2[nH]c3ccccc3[nH+]2)c2[nH]ccc2c1
     RDKit          3D

 44 48  0  0  1  0  0  0  0  0999 V2000
  123.2283  131.6483  160.3973 F   0  0  0  0  0  0  0  0  0  0  0  0
  124.5222  132.0279  160.7701 C   0  0  0  0  0  0  0  0  0  0  0  0
  125.5589  131.2916  160.1868 F   0  0  0  0  0  0  0  0  0  0  0  0
  124.7274  132.5253  162.2031 C   0  0  0  0  0  0  0  0  0  0  0  0
  124.7735  133.5135  161.0360 C   0  0  1  0  0  0  0  0  0  0  0  0
  123.9310  134.1952  160.9200 H   0  0  0  0  0  0  0  0  0  0  0  0
  126.1396  134.0802  160.6437 C   0  0  0  0  0  0  0  0  0  0  0  0
  126.3795  135.3265  161.3754 N   0  0  0  0  0  0  0  0  0  0  0  0
  127.5717  136.0334  161.1812 C   0  0  0  0  0  0  0  0  0  0  0  0
  128.5260  135.5518  160.2872 C   0  0  0  0  0  0  0  0  0  0  0  0
  129.7106  136.2367  160.0884 C   0  0  0  0  0  0  0  0  0  0  0  0
  130.6645  135.7414  159.1921 N   0  0  0  0  0  0  0  0  0  0  0  0
  130.7722  134.3859  158.9813 C   0  0  0  0  0  0  0  0  0  0  0  0
  131.1689  133.8201  157.8433 N   0  0  0  0  0  0  0  0  0  0  0  0
  131.4271  134.2912  157.0356 H   0  0  0  0  0  0  0  0  0  0  0  0
  131.1512  132.4601  158.0061 C   0  0  0  0  0  0  0  0  0  0  0  0
  131.4540  131.3865  157.1735 C   0  0  0  0  0  0  0  0  0  0  0  0
  131.3347  130.0978  157.6468 C   0  0  0  0  0  0  0  0  0  0  0  0
  130.9058  129.8620  158.9448 C   0  0  0  0  0  0  0  0  0  0  0  0
  130.5977  130.9131  159.7808 C   0  0  0  0  0  0  0  0  0  0  0  0
  130.7170  132.2213  159.3204 C   0  0  0  0  0  0  0  0  0  0  0  0
  130.4942  133.4492  159.8856 N   0  0  0  0  0  0  0  0  0  0  0  0
  130.1864  133.6089  160.7914 H   0  0  0  0  0  0  0  0  0  0  0  0
  129.9514  137.4266  160.7797 C   0  0  0  0  0  0  0  0  0  0  0  0
  131.0057  138.3177  160.7926 N   0  0  0  0  0  0  0  0  0  0  0  0
  131.8154  138.2313  160.2655 H   0  0  0  0  0  0  0  0  0  0  0  0
  130.7381  139.3398  161.6603 C   0  0  0  0  0  0  0  0  0  0  0  0
  129.5347  139.1554  162.2268 C   0  0  0  0  0  0  0  0  0  0  0  0
  128.9870  137.9133  161.6765 C   0  0  0  0  0  0  0  0  0  0  0  0
  127.7950  137.2089  161.8730 C   0  0  0  0  0  0  0  0  0  0  0  0
  125.6702  132.2789  162.6915 H   0  0  0  0  0  0  0  0  0  0  0  0
  123.8545  132.5568  162.8550 H   0  0  0  0  0  0  0  0  0  0  0  0
  126.1563  134.2789  159.5720 H   0  0  0  0  0  0  0  0  0  0  0  0
  126.9173  133.3579  160.8916 H   0  0  0  0  0  0  0  0  0  0  0  0
  125.7122  135.6619  161.9942 H   0  0  0  0  0  0  0  0  0  0  0  0
  128.3404  134.6347  159.7479 H   0  0  0  0  0  0  0  0  0  0  0  0
  131.2496  136.3538  158.7192 H   0  0  0  0  0  0  0  0  0  0  0  0
  131.7884  131.5632  156.1619 H   0  0  0  0  0  0  0  0  0  0  0  0
  131.5735  129.2654  157.0015 H   0  0  0  0  0  0  0  0  0  0  0  0
  130.8134  128.8472  159.3028 H   0  0  0  0  0  0  0  0  0  0  0  0
  130.2640  130.7226  160.7902 H   0  0  0  0  0  0  0  0  0  0  0  0
  131.3966  140.1722  161.8600 H   0  0  0  0  0  0  0  0  0  0  0  0
  129.0603  139.8011  162.9510 H   0  0  0  0  0  0  0  0  0  0  0  0
  127.0519  137.5822  162.5622 H   0  0  0  0  0  0  0  0  0  0  0  0
  1  2  1  0
  2  5  1  0
  2  3  1  0
  2  4  1  0
  4  5  1  0
  4 31  1  0
  4 32  1  0
  5  6  1  1
  5  7  1  0
  7  8  1  0
  7 33  1  0
  7 34  1  0
  8  9  1  0
  8 35  1  0
  9 30  1  0
  9 10  2  0
 10 11  1  0
 10 36  1  0
 11 12  1  0
 11 24  2  0
 12 13  1  0
 12 37  1  0
 13 22  1  0
 13 14  2  0
 14 15  1  0
 14 16  1  0
 16 21  2  0
 16 17  1  0
 17 18  2  0
 17 38  1  0
 18 19  1  0
 18 39  1  0
 19 20  2  0
 19 40  1  0
 20 21  1  0
 20 41  1  0
 21 22  1  0
 22 23  1  0
 24 29  1  0
 24 25  1  0
 25 26  1  0
 25 27  1  0
 27 28  2  0
 27 42  1  0
 28 29  1  0
 28 43  1  0
 29 30  2  0
 30 44  1  0
M  CHG  1  14   1
M  END
>  <DOCK_score>  (1) 
-45.445808

>  <SMILES>  (1) 
FC1(F)C[C@H]1CNc1cc(Nc2[nH]c3ccccc3[nH+]2)c2[nH]ccc2c1

$$$$
