CCc1ccc(-c2c[nH]c(N[C@H](CCc3ccnn3C)CSc3ccccc3)[nH+]2)cc1
     RDKit          3D

 61 64  0  0  1  0  0  0  0  0999 V2000
  132.1729  129.6210  152.6590 C   0  0  0  0  0  0  0  0  0  0  0  0
  130.7592  129.7004  153.2384 C   0  0  0  0  0  0  0  0  0  0  0  0
  130.7764  130.5359  154.4924 C   0  0  0  0  0  0  0  0  0  0  0  0
  130.5722  131.9018  154.4133 C   0  0  0  0  0  0  0  0  0  0  0  0
  130.5813  132.6709  155.5591 C   0  0  0  0  0  0  0  0  0  0  0  0
  130.8081  132.0707  156.7964 C   0  0  0  0  0  0  0  0  0  0  0  0
  130.8246  132.8929  158.0309 C   0  0  0  0  0  0  0  0  0  0  0  0
  130.4726  132.4758  159.2723 C   0  0  0  0  0  0  0  0  0  0  0  0
  130.6356  133.5488  160.1145 N   0  0  0  0  0  0  0  0  0  0  0  0
  130.4635  133.5613  161.0690 H   0  0  0  0  0  0  0  0  0  0  0  0
  131.0829  134.5911  159.3624 C   0  0  0  0  0  0  0  0  0  0  0  0
  131.3721  135.8601  159.8340 N   0  0  0  0  0  0  0  0  0  0  0  0
  131.2020  136.1696  161.2558 C   0  0  2  0  0  0  0  0  0  0  0  0
  131.5409  135.3243  161.8546 H   0  0  0  0  0  0  0  0  0  0  0  0
  129.7242  136.4402  161.5456 C   0  0  0  0  0  0  0  0  0  0  0  0
  129.4587  136.2703  163.0427 C   0  0  0  0  0  0  0  0  0  0  0  0
  128.0032  136.5368  163.3282 C   0  0  0  0  0  0  0  0  0  0  0  0
  127.0067  135.6214  163.3136 C   0  0  0  0  0  0  0  0  0  0  0  0
  125.8142  136.2785  163.6336 C   0  0  0  0  0  0  0  0  0  0  0  0
  126.0836  137.5444  163.8255 N   0  0  0  0  0  0  0  0  0  0  0  0
  127.4591  137.7322  163.6382 N   0  0  0  0  0  0  0  0  0  0  0  0
  128.1798  139.0020  163.7586 C   0  0  0  0  0  0  0  0  0  0  0  0
  132.0264  137.4089  161.6101 C   0  0  0  0  0  0  0  0  0  0  0  0
  133.7785  137.0882  161.2664 S   0  0  0  0  0  0  0  0  0  0  0  0
  134.5562  138.6004  161.7281 C   0  0  0  0  0  0  0  0  0  0  0  0
  135.5186  138.6109  162.7305 C   0  0  0  0  0  0  0  0  0  0  0  0
  136.1295  139.7973  163.0863 C   0  0  0  0  0  0  0  0  0  0  0  0
  135.7775  140.9752  162.4533 C   0  0  0  0  0  0  0  0  0  0  0  0
  134.8161  140.9695  161.4588 C   0  0  0  0  0  0  0  0  0  0  0  0
  134.2045  139.7862  161.0945 C   0  0  0  0  0  0  0  0  0  0  0  0
  131.2001  134.1937  158.1189 N   0  0  0  0  0  0  0  0  0  0  0  0
  131.5044  134.7426  157.3793 H   0  0  0  0  0  0  0  0  0  0  0  0
  131.0188  130.6949  156.8695 C   0  0  0  0  0  0  0  0  0  0  0  0
  131.0020  129.9348  155.7178 C   0  0  0  0  0  0  0  0  0  0  0  0
  132.1605  129.0168  151.7518 H   0  0  0  0  0  0  0  0  0  0  0  0
  132.5255  130.6249  152.4220 H   0  0  0  0  0  0  0  0  0  0  0  0
  132.8402  129.1649  153.3902 H   0  0  0  0  0  0  0  0  0  0  0  0
  130.0918  130.1566  152.5070 H   0  0  0  0  0  0  0  0  0  0  0  0
  130.4066  128.6966  153.4753 H   0  0  0  0  0  0  0  0  0  0  0  0
  130.4013  132.3664  153.4535 H   0  0  0  0  0  0  0  0  0  0  0  0
  130.4171  133.7366  155.4968 H   0  0  0  0  0  0  0  0  0  0  0  0
  130.1294  131.4892  159.5463 H   0  0  0  0  0  0  0  0  0  0  0  0
  131.6875  136.5444  159.2230 H   0  0  0  0  0  0  0  0  0  0  0  0
  129.4756  137.4581  161.2455 H   0  0  0  0  0  0  0  0  0  0  0  0
  129.1093  135.7358  160.9852 H   0  0  0  0  0  0  0  0  0  0  0  0
  129.7072  135.2522  163.3426 H   0  0  0  0  0  0  0  0  0  0  0  0
  130.0737  136.9745  163.6030 H   0  0  0  0  0  0  0  0  0  0  0  0
  127.1136  134.5691  163.0957 H   0  0  0  0  0  0  0  0  0  0  0  0
  124.8386  135.8206  163.7060 H   0  0  0  0  0  0  0  0  0  0  0  0
  128.1978  139.5026  162.7905 H   0  0  0  0  0  0  0  0  0  0  0  0
  127.6768  139.6377  164.4871 H   0  0  0  0  0  0  0  0  0  0  0  0
  129.2012  138.8103  164.0875 H   0  0  0  0  0  0  0  0  0  0  0  0
  131.6873  138.2543  161.0114 H   0  0  0  0  0  0  0  0  0  0  0  0
  131.8999  137.6392  162.6681 H   0  0  0  0  0  0  0  0  0  0  0  0
  135.7911  137.6921  163.2281 H   0  0  0  0  0  0  0  0  0  0  0  0
  136.8802  139.8057  163.8626 H   0  0  0  0  0  0  0  0  0  0  0  0
  136.2541  141.9021  162.7366 H   0  0  0  0  0  0  0  0  0  0  0  0
  134.5433  141.8914  160.9667 H   0  0  0  0  0  0  0  0  0  0  0  0
  133.4535  139.7824  160.3183 H   0  0  0  0  0  0  0  0  0  0  0  0
  131.1953  130.2246  157.8256 H   0  0  0  0  0  0  0  0  0  0  0  0
  131.1654  128.8687  155.7732 H   0  0  0  0  0  0  0  0  0  0  0  0
  1  2  1  0
  1 35  1  0
  1 36  1  0
  1 37  1  0
  2  3  1  0
  2 38  1  0
  2 39  1  0
  3 34  2  0
  3  4  1  0
  4  5  2  0
  4 40  1  0
  5  6  1  0
  5 41  1  0
  6  7  1  0
  6 33  2  0
  7 31  1  0
  7  8  2  0
  8  9  1  0
  8 42  1  0
  9 10  1  0
  9 11  1  0
 11 12  1  0
 11 31  2  0
 12 13  1  0
 12 43  1  0
 13 14  1  1
 13 15  1  0
 13 23  1  0
 15 16  1  0
 15 44  1  0
 15 45  1  0
 16 17  1  0
 16 46  1  0
 16 47  1  0
 17 21  1  0
 17 18  2  0
 18 19  1  0
 18 48  1  0
 19 20  2  0
 19 49  1  0
 20 21  1  0
 21 22  1  0
 22 50  1  0
 22 51  1  0
 22 52  1  0
 23 24  1  0
 23 53  1  0
 23 54  1  0
 24 25  1  0
 25 30  1  0
 25 26  2  0
 26 27  1  0
 26 55  1  0
 27 28  2  0
 27 56  1  0
 28 29  1  0
 28 57  1  0
 29 30  2  0
 29 58  1  0
 30 59  1  0
 31 32  1  0
 33 34  1  0
 33 60  1  0
 34 61  1  0
M  CHG  1  31   1
M  END
>  <DOCK_score>  (1) 
-58.215469

>  <SMILES>  (1) 
CCc1ccc(-c2c[nH]c(N[C@H](CCc3ccnn3C)CSc3ccccc3)[nH+]2)cc1

$$$$
