O=C1CC[C@H](NC(NC2CCCCCC2)=[NH+]C2COc3cc(Cl)ccc3C2)CN1
     RDKit          3D

 61 64  0  0  1  0  0  0  0  0999 V2000
  123.6578  133.8282  161.2961 O   0  0  0  0  0  0  0  0  0  0  0  0
  124.8426  134.0478  161.1589 C   0  0  0  0  0  0  0  0  0  0  0  0
  125.7083  132.9544  160.6021 C   0  0  0  0  0  0  0  0  0  0  0  0
  127.1797  133.2459  160.9054 C   0  0  0  0  0  0  0  0  0  0  0  0
  127.4785  134.6968  160.5084 C   0  0  2  0  0  0  0  0  0  0  0  0
  127.1606  134.8673  159.4798 H   0  0  0  0  0  0  0  0  0  0  0  0
  128.9159  134.9529  160.6275 N   0  0  0  0  0  0  0  0  0  0  0  0
  129.7448  134.7320  159.5532 C   0  0  0  0  0  0  0  0  0  0  0  0
  129.2246  134.2709  158.3670 N   0  0  0  0  0  0  0  0  0  0  0  0
  130.0430  133.4366  157.4835 C   0  0  0  0  0  0  0  0  0  0  0  0
  129.2390  133.1249  156.2046 C   0  0  0  0  0  0  0  0  0  0  0  0
  130.2042  132.7346  155.1172 C   0  0  0  0  0  0  0  0  0  0  0  0
  130.3964  131.2089  155.0222 C   0  0  0  0  0  0  0  0  0  0  0  0
  130.5053  130.5333  156.4026 C   0  0  0  0  0  0  0  0  0  0  0  0
  131.3538  131.3210  157.3638 C   0  0  0  0  0  0  0  0  0  0  0  0
  130.4311  132.2307  158.2001 C   0  0  0  0  0  0  0  0  0  0  0  0
  131.0237  134.9600  159.6590 N   0  0  0  0  0  0  0  0  0  0  0  0
  131.5340  135.2321  158.8801 H   0  0  0  0  0  0  0  0  0  0  0  0
  131.6907  134.8056  160.9541 C   0  0  1  0  0  0  0  0  0  0  0  0
  133.1583  134.4154  160.7366 C   0  0  0  0  0  0  0  0  0  0  0  0
  133.7536  134.1723  162.0120 O   0  0  0  0  0  0  0  0  0  0  0  0
  133.5761  135.1047  162.9838 C   0  0  0  0  0  0  0  0  0  0  0  0
  134.4201  135.0798  164.0894 C   0  0  0  0  0  0  0  0  0  0  0  0
  134.2677  136.0075  165.1008 C   0  0  0  0  0  0  0  0  0  0  0  0
  135.3243  135.9733  166.4779 Cl  0  0  0  0  0  0  0  0  0  0  0  0
  133.2714  136.9644  165.0157 C   0  0  0  0  0  0  0  0  0  0  0  0
  132.4328  136.9914  163.9191 C   0  0  0  0  0  0  0  0  0  0  0  0
  132.5829  136.0647  162.9006 C   0  0  0  0  0  0  0  0  0  0  0  0
  131.6541  136.1334  161.7149 C   0  0  0  0  0  0  0  0  0  0  0  0
  126.7114  135.6318  161.4442 C   0  0  0  0  0  0  0  0  0  0  0  0
  125.3071  135.2473  161.5110 N   0  0  0  0  0  0  0  0  0  0  0  0
  125.4264  132.0035  161.0543 H   0  0  0  0  0  0  0  0  0  0  0  0
  125.5697  132.8971  159.5225 H   0  0  0  0  0  0  0  0  0  0  0  0
  127.8154  132.5706  160.3327 H   0  0  0  0  0  0  0  0  0  0  0  0
  127.3662  133.1112  161.9707 H   0  0  0  0  0  0  0  0  0  0  0  0
  129.2829  135.2783  161.4644 H   0  0  0  0  0  0  0  0  0  0  0  0
  128.3159  134.4979  158.1150 H   0  0  0  0  0  0  0  0  0  0  0  0
  130.9417  133.9890  157.2095 H   0  0  0  0  0  0  0  0  0  0  0  0
  128.5493  132.3030  156.3968 H   0  0  0  0  0  0  0  0  0  0  0  0
  128.6816  134.0101  155.8979 H   0  0  0  0  0  0  0  0  0  0  0  0
  131.1694  133.1999  155.3175 H   0  0  0  0  0  0  0  0  0  0  0  0
  129.8271  133.1026  154.1630 H   0  0  0  0  0  0  0  0  0  0  0  0
  131.3060  131.0037  154.4577 H   0  0  0  0  0  0  0  0  0  0  0  0
  129.5490  130.7804  154.4870 H   0  0  0  0  0  0  0  0  0  0  0  0
  130.9418  129.5426  156.2769 H   0  0  0  0  0  0  0  0  0  0  0  0
  129.5046  130.4268  156.8213 H   0  0  0  0  0  0  0  0  0  0  0  0
  132.0650  131.9324  156.8081 H   0  0  0  0  0  0  0  0  0  0  0  0
  131.8929  130.6406  158.0231 H   0  0  0  0  0  0  0  0  0  0  0  0
  130.9510  132.5155  159.1149 H   0  0  0  0  0  0  0  0  0  0  0  0
  129.5328  131.6727  158.4643 H   0  0  0  0  0  0  0  0  0  0  0  0
  131.1878  134.0337  161.5367 H   0  0  0  0  0  0  0  0  0  0  0  0
  133.6838  135.2281  160.2353 H   0  0  0  0  0  0  0  0  0  0  0  0
  133.2124  133.5127  160.1282 H   0  0  0  0  0  0  0  0  0  0  0  0
  135.1973  134.3330  164.1567 H   0  0  0  0  0  0  0  0  0  0  0  0
  133.1496  137.6894  165.8069 H   0  0  0  0  0  0  0  0  0  0  0  0
  131.6530  137.7361  163.8573 H   0  0  0  0  0  0  0  0  0  0  0  0
  131.9697  136.9395  161.0528 H   0  0  0  0  0  0  0  0  0  0  0  0
  130.6385  136.3250  162.0613 H   0  0  0  0  0  0  0  0  0  0  0  0
  127.1470  135.5798  162.4420 H   0  0  0  0  0  0  0  0  0  0  0  0
  126.7846  136.6537  161.0720 H   0  0  0  0  0  0  0  0  0  0  0  0
  124.6703  135.9052  161.8314 H   0  0  0  0  0  0  0  0  0  0  0  0
  1  2  2  0
  2 31  1  0
  2  3  1  0
  3  4  1  0
  3 32  1  0
  3 33  1  0
  4  5  1  0
  4 34  1  0
  4 35  1  0
  5  6  1  6
  5  7  1  0
  5 30  1  0
  7 36  1  0
  8  7  1  0
  8  9  1  0
  8 17  2  0
  9 10  1  0
  9 37  1  0
 10 16  1  0
 10 11  1  0
 10 38  1  0
 11 12  1  0
 11 39  1  0
 11 40  1  0
 12 13  1  0
 12 41  1  0
 12 42  1  0
 13 14  1  0
 13 43  1  0
 13 44  1  0
 14 15  1  0
 14 45  1  0
 14 46  1  0
 15 16  1  0
 15 47  1  0
 15 48  1  0
 16 49  1  0
 16 50  1  0
 17 18  1  0
 17 19  1  0
 19 29  1  0
 19 20  1  0
 19 51  1  1
 20 21  1  0
 20 52  1  0
 20 53  1  0
 21 22  1  0
 22 28  2  0
 22 23  1  0
 23 24  2  0
 23 54  1  0
 24 25  1  0
 24 26  1  0
 26 27  2  0
 26 55  1  0
 27 28  1  0
 27 56  1  0
 28 29  1  0
 29 57  1  0
 29 58  1  0
 30 31  1  0
 30 59  1  0
 30 60  1  0
 31 61  1  0
M  CHG  1  17   1
M  END
>  <DOCK_score>  (1) 
-47.486656

>  <SMILES>  (1) 
O=C1CC[C@H](NC(NC2CCCCCC2)=[NH+]C2COc3cc(Cl)ccc3C2)CN1

$$$$
