Nc1ccc2c(c1)CCC(NC(N[C@@H]1CCc3ccccc3C1)=[NH+]C1Cc3ccc(Cl)cc3C1)C2
     RDKit          3D

 69 74  0  0  1  0  0  0  0  0999 V2000
  127.5996  136.0819  169.3107 N   0  0  0  0  0  0  0  0  0  0  0  0
  128.0728  135.9004  168.0092 C   0  0  0  0  0  0  0  0  0  0  0  0
  129.4390  135.8299  167.7659 C   0  0  0  0  0  0  0  0  0  0  0  0
  129.8945  135.6485  166.4782 C   0  0  0  0  0  0  0  0  0  0  0  0
  129.0007  135.5351  165.4198 C   0  0  0  0  0  0  0  0  0  0  0  0
  127.6460  135.6097  165.6570 C   0  0  0  0  0  0  0  0  0  0  0  0
  127.1825  135.7902  166.9527 C   0  0  0  0  0  0  0  0  0  0  0  0
  126.6231  135.5035  164.5562 C   0  0  0  0  0  0  0  0  0  0  0  0
  127.2428  134.8856  163.3045 C   0  0  0  0  0  0  0  0  0  0  0  0
  128.5295  135.6509  162.9735 C   0  0  2  0  0  0  0  0  0  0  0  0
  129.0251  135.2374  161.6582 N   0  0  0  0  0  0  0  0  0  0  0  0
  130.1747  135.7948  161.1504 C   0  0  0  0  0  0  0  0  0  0  0  0
  130.6397  135.4068  159.9162 N   0  0  0  0  0  0  0  0  0  0  0  0
  130.3841  134.0483  159.4310 C   0  0  2  0  0  0  0  0  0  0  0  0
  129.3095  133.8761  159.3708 H   0  0  0  0  0  0  0  0  0  0  0  0
  131.0176  133.0300  160.3865 C   0  0  0  0  0  0  0  0  0  0  0  0
  130.5339  131.6355  159.9937 C   0  0  0  0  0  0  0  0  0  0  0  0
  130.7420  131.3981  158.5208 C   0  0  0  0  0  0  0  0  0  0  0  0
  130.7097  130.0858  158.0663 C   0  0  0  0  0  0  0  0  0  0  0  0
  130.8884  129.8027  156.7282 C   0  0  0  0  0  0  0  0  0  0  0  0
  131.1017  130.8329  155.8311 C   0  0  0  0  0  0  0  0  0  0  0  0
  131.1361  132.1364  156.2807 C   0  0  0  0  0  0  0  0  0  0  0  0
  130.9578  132.4236  157.6281 C   0  0  0  0  0  0  0  0  0  0  0  0
  131.0121  133.8684  158.0504 C   0  0  0  0  0  0  0  0  0  0  0  0
  130.8237  136.6910  161.8392 N   0  0  0  0  0  0  0  0  0  0  0  0
  130.3449  137.2763  162.4467 H   0  0  0  0  0  0  0  0  0  0  0  0
  132.2765  136.8145  161.6958 C   0  0  1  0  0  0  0  0  0  0  0  0
  132.6478  137.3143  160.2835 C   0  0  0  0  0  0  0  0  0  0  0  0
  133.8561  138.2041  160.4832 C   0  0  0  0  0  0  0  0  0  0  0  0
  134.7927  138.6633  159.5719 C   0  0  0  0  0  0  0  0  0  0  0  0
  135.8270  139.4776  159.9885 C   0  0  0  0  0  0  0  0  0  0  0  0
  135.9286  139.8373  161.3208 C   0  0  0  0  0  0  0  0  0  0  0  0
  137.2278  140.8609  161.8482 Cl  0  0  0  0  0  0  0  0  0  0  0  0
  134.9945  139.3801  162.2311 C   0  0  0  0  0  0  0  0  0  0  0  0
  133.9571  138.5632  161.8141 C   0  0  0  0  0  0  0  0  0  0  0  0
  132.8241  137.9359  162.6038 C   0  0  0  0  0  0  0  0  0  0  0  0
  129.5719  135.3262  164.0414 C   0  0  0  0  0  0  0  0  0  0  0  0
  128.2253  136.1591  170.0479 H   0  0  0  0  0  0  0  0  0  0  0  0
  126.6452  136.1309  169.4773 H   0  0  0  0  0  0  0  0  0  0  0  0
  130.1406  135.9172  168.5822 H   0  0  0  0  0  0  0  0  0  0  0  0
  130.9564  135.5942  166.2894 H   0  0  0  0  0  0  0  0  0  0  0  0
  126.1201  135.8454  167.1391 H   0  0  0  0  0  0  0  0  0  0  0  0
  126.2475  136.4984  164.3174 H   0  0  0  0  0  0  0  0  0  0  0  0
  125.7958  134.8790  164.8933 H   0  0  0  0  0  0  0  0  0  0  0  0
  126.5440  134.9647  162.4716 H   0  0  0  0  0  0  0  0  0  0  0  0
  127.4765  133.8371  163.4892 H   0  0  0  0  0  0  0  0  0  0  0  0
  128.3288  136.7222  162.9699 H   0  0  0  0  0  0  0  0  0  0  0  0
  128.5422  134.5703  161.1457 H   0  0  0  0  0  0  0  0  0  0  0  0
  131.1370  136.0325  159.3666 H   0  0  0  0  0  0  0  0  0  0  0  0
  132.1036  133.0779  160.3067 H   0  0  0  0  0  0  0  0  0  0  0  0
  130.7148  133.2494  161.4103 H   0  0  0  0  0  0  0  0  0  0  0  0
  131.0907  130.8891  160.5602 H   0  0  0  0  0  0  0  0  0  0  0  0
  129.4727  131.5446  160.2255 H   0  0  0  0  0  0  0  0  0  0  0  0
  130.5429  129.2805  158.7664 H   0  0  0  0  0  0  0  0  0  0  0  0
  130.8617  128.7800  156.3824 H   0  0  0  0  0  0  0  0  0  0  0  0
  131.2402  130.6177  154.7818 H   0  0  0  0  0  0  0  0  0  0  0  0
  131.3033  132.9407  155.5794 H   0  0  0  0  0  0  0  0  0  0  0  0
  130.4684  134.4752  157.3264 H   0  0  0  0  0  0  0  0  0  0  0  0
  132.0517  134.1944  158.0830 H   0  0  0  0  0  0  0  0  0  0  0  0
  132.7676  135.8658  161.9126 H   0  0  0  0  0  0  0  0  0  0  0  0
  132.9004  136.4726  159.6387 H   0  0  0  0  0  0  0  0  0  0  0  0
  131.8233  137.8842  159.8550 H   0  0  0  0  0  0  0  0  0  0  0  0
  134.7142  138.3826  158.5319 H   0  0  0  0  0  0  0  0  0  0  0  0
  136.5561  139.8331  159.2755 H   0  0  0  0  0  0  0  0  0  0  0  0
  135.0737  139.6612  163.2710 H   0  0  0  0  0  0  0  0  0  0  0  0
  132.0479  138.6749  162.8021 H   0  0  0  0  0  0  0  0  0  0  0  0
  133.1967  137.5174  163.5388 H   0  0  0  0  0  0  0  0  0  0  0  0
  129.8832  134.2870  163.9356 H   0  0  0  0  0  0  0  0  0  0  0  0
  130.4374  135.9753  163.9080 H   0  0  0  0  0  0  0  0  0  0  0  0
  1  2  1  0
  1 38  1  0
  1 39  1  0
  2  7  2  0
  2  3  1  0
  3  4  2  0
  3 40  1  0
  4  5  1  0
  4 41  1  0
  5 37  1  0
  5  6  2  0
  6  7  1  0
  6  8  1  0
  7 42  1  0
  8  9  1  0
  8 43  1  0
  8 44  1  0
  9 10  1  0
  9 45  1  0
  9 46  1  0
 10 11  1  0
 10 37  1  0
 10 47  1  6
 11 48  1  0
 12 11  1  0
 12 13  1  0
 12 25  2  0
 13 14  1  0
 13 49  1  0
 14 15  1  6
 14 24  1  0
 14 16  1  0
 16 17  1  0
 16 50  1  0
 16 51  1  0
 17 18  1  0
 17 52  1  0
 17 53  1  0
 18 23  2  0
 18 19  1  0
 19 20  2  0
 19 54  1  0
 20 21  1  0
 20 55  1  0
 21 22  2  0
 21 56  1  0
 22 23  1  0
 22 57  1  0
 23 24  1  0
 24 58  1  0
 24 59  1  0
 25 26  1  0
 25 27  1  0
 27 36  1  0
 27 28  1  0
 27 60  1  1
 28 29  1  0
 28 61  1  0
 28 62  1  0
 29 35  2  0
 29 30  1  0
 30 31  2  0
 30 63  1  0
 31 32  1  0
 31 64  1  0
 32 33  1  0
 32 34  2  0
 34 35  1  0
 34 65  1  0
 35 36  1  0
 36 66  1  0
 36 67  1  0
 37 68  1  0
 37 69  1  0
M  CHG  1  25   1
M  END
>  <DOCK_score>  (1) 
-55.985992

>  <SMILES>  (1) 
Nc1ccc2c(c1)CCC(NC(N[C@@H]1CCc3ccccc3C1)=[NH+]C1Cc3ccc(Cl)cc3C1)C2

$$$$
