Cc1ccc(F)cc1NC(=O)[C@@H](CC1=CCC=CC1)Nc1[nH]c2ccccc2[nH+]1
     RDKit          3D

 53 56  0  0  1  0  0  0  0  0999 V2000
  134.8885  138.7044  158.4571 C   0  0  0  0  0  0  0  0  0  0  0  0
  135.0332  139.0436  159.9184 C   0  0  0  0  0  0  0  0  0  0  0  0
  136.1224  139.7733  160.3537 C   0  0  0  0  0  0  0  0  0  0  0  0
  136.2566  140.0858  161.6935 C   0  0  0  0  0  0  0  0  0  0  0  0
  135.2992  139.6686  162.6037 C   0  0  0  0  0  0  0  0  0  0  0  0
  135.4328  139.9758  163.9126 F   0  0  0  0  0  0  0  0  0  0  0  0
  134.2045  138.9418  162.1723 C   0  0  0  0  0  0  0  0  0  0  0  0
  134.0715  138.6229  160.8275 C   0  0  0  0  0  0  0  0  0  0  0  0
  132.9674  137.8842  160.3882 N   0  0  0  0  0  0  0  0  0  0  0  0
  132.3856  136.9885  161.2103 C   0  0  0  0  0  0  0  0  0  0  0  0
  132.8192  136.8230  162.3310 O   0  0  0  0  0  0  0  0  0  0  0  0
  131.1965  136.1927  160.7373 C   0  0  1  0  0  0  0  0  0  0  0  0
  130.8658  135.5256  161.5335 H   0  0  0  0  0  0  0  0  0  0  0  0
  130.0595  137.1468  160.3661 C   0  0  0  0  0  0  0  0  0  0  0  0
  128.8703  136.3512  159.8931 C   0  0  0  0  0  0  0  0  0  0  0  0
  128.4290  136.5506  158.6884 C   0  0  0  0  0  0  0  0  0  0  0  0
  127.2575  135.8090  158.1189 C   0  0  0  0  0  0  0  0  0  0  0  0
  126.4094  135.2211  159.2062 C   0  0  0  0  0  0  0  0  0  0  0  0
  126.8475  135.0256  160.4127 C   0  0  0  0  0  0  0  0  0  0  0  0
  128.2442  135.3682  160.8358 C   0  0  0  0  0  0  0  0  0  0  0  0
  131.5737  135.4023  159.5630 N   0  0  0  0  0  0  0  0  0  0  0  0
  131.4759  134.0312  159.5968 C   0  0  0  0  0  0  0  0  0  0  0  0
  131.7856  133.2197  158.5879 N   0  0  0  0  0  0  0  0  0  0  0  0
  132.1133  133.4963  157.7178 H   0  0  0  0  0  0  0  0  0  0  0  0
  131.5661  131.9278  158.9877 C   0  0  0  0  0  0  0  0  0  0  0  0
  131.7131  130.6899  158.3686 C   0  0  0  0  0  0  0  0  0  0  0  0
  131.3915  129.5386  159.0542 C   0  0  0  0  0  0  0  0  0  0  0  0
  130.9222  129.6041  160.3579 C   0  0  0  0  0  0  0  0  0  0  0  0
  130.7707  130.8214  160.9857 C   0  0  0  0  0  0  0  0  0  0  0  0
  131.0908  131.9941  160.3076 C   0  0  0  0  0  0  0  0  0  0  0  0
  131.0525  133.3225  160.6410 N   0  0  0  0  0  0  0  0  0  0  0  0
  130.7650  133.6852  161.4935 H   0  0  0  0  0  0  0  0  0  0  0  0
  134.3302  139.4942  157.9544 H   0  0  0  0  0  0  0  0  0  0  0  0
  135.8765  138.6138  158.0056 H   0  0  0  0  0  0  0  0  0  0  0  0
  134.3542  137.7599  158.3545 H   0  0  0  0  0  0  0  0  0  0  0  0
  136.8699  140.1005  159.6462 H   0  0  0  0  0  0  0  0  0  0  0  0
  137.1091  140.6565  162.0311 H   0  0  0  0  0  0  0  0  0  0  0  0
  133.4558  138.6198  162.8810 H   0  0  0  0  0  0  0  0  0  0  0  0
  132.6207  138.0165  159.4920 H   0  0  0  0  0  0  0  0  0  0  0  0
  129.7789  137.7349  161.2399 H   0  0  0  0  0  0  0  0  0  0  0  0
  130.3902  137.8140  159.5702 H   0  0  0  0  0  0  0  0  0  0  0  0
  128.9301  137.2794  158.0687 H   0  0  0  0  0  0  0  0  0  0  0  0
  127.6171  135.0077  157.4735 H   0  0  0  0  0  0  0  0  0  0  0  0
  126.6542  136.4992  157.5290 H   0  0  0  0  0  0  0  0  0  0  0  0
  125.3899  134.9487  158.9763 H   0  0  0  0  0  0  0  0  0  0  0  0
  126.1766  134.5972  161.1428 H   0  0  0  0  0  0  0  0  0  0  0  0
  128.8450  134.4588  160.8548 H   0  0  0  0  0  0  0  0  0  0  0  0
  128.2186  135.7993  161.8367 H   0  0  0  0  0  0  0  0  0  0  0  0
  131.8924  135.8461  158.7615 H   0  0  0  0  0  0  0  0  0  0  0  0
  132.0783  130.6319  157.3538 H   0  0  0  0  0  0  0  0  0  0  0  0
  131.5062  128.5784  158.5733 H   0  0  0  0  0  0  0  0  0  0  0  0
  130.6741  128.6946  160.8848 H   0  0  0  0  0  0  0  0  0  0  0  0
  130.4051  130.8654  162.0010 H   0  0  0  0  0  0  0  0  0  0  0  0
  1  2  1  0
  1 33  1  0
  1 34  1  0
  1 35  1  0
  2  8  2  0
  2  3  1  0
  3  4  2  0
  3 36  1  0
  4  5  1  0
  4 37  1  0
  5  6  1  0
  5  7  2  0
  7  8  1  0
  7 38  1  0
  8  9  1  0
  9 10  1  0
  9 39  1  0
 10 11  2  0
 10 12  1  0
 12 13  1  1
 12 14  1  0
 12 21  1  0
 14 15  1  0
 14 40  1  0
 14 41  1  0
 15 20  1  0
 15 16  2  0
 16 17  1  0
 16 42  1  0
 17 18  1  0
 17 43  1  0
 17 44  1  0
 18 19  2  0
 18 45  1  0
 19 20  1  0
 19 46  1  0
 20 47  1  0
 20 48  1  0
 21 22  1  0
 21 49  1  0
 22 31  1  0
 22 23  2  0
 23 24  1  0
 23 25  1  0
 25 30  2  0
 25 26  1  0
 26 27  2  0
 26 50  1  0
 27 28  1  0
 27 51  1  0
 28 29  2  0
 28 52  1  0
 29 30  1  0
 29 53  1  0
 30 31  1  0
 31 32  1  0
M  CHG  1  23   1
M  END
>  <DOCK_score>  (1) 
-57.053711

>  <SMILES>  (1) 
Cc1ccc(F)cc1NC(=O)[C@@H](CC1=CCC=CC1)Nc1[nH]c2ccccc2[nH+]1

$$$$
