CC1=CCC(NC(NC2CCC2)=[NH+][C@H]2CCC(=O)NC2)CC1
     RDKit          3D

 51 53  0  0  1  0  0  0  0  0999 V2000
  131.5574  130.2004  154.1275 C   0  0  0  0  0  0  0  0  0  0  0  0
  130.9342  131.1358  155.1311 C   0  0  0  0  0  0  0  0  0  0  0  0
  130.7070  130.6838  156.3227 C   0  0  0  0  0  0  0  0  0  0  0  0
  130.0839  131.4911  157.4236 C   0  0  0  0  0  0  0  0  0  0  0  0
  130.1543  132.9826  157.0881 C   0  0  2  0  0  0  0  0  0  0  0  0
  129.3239  133.7386  158.0289 N   0  0  0  0  0  0  0  0  0  0  0  0
  129.8684  134.2132  159.1987 C   0  0  0  0  0  0  0  0  0  0  0  0
  131.1922  133.9782  159.4858 N   0  0  0  0  0  0  0  0  0  0  0  0
  131.7724  134.4839  160.7325 C   0  0  0  0  0  0  0  0  0  0  0  0
  132.2023  135.9586  160.6579 C   0  0  0  0  0  0  0  0  0  0  0  0
  133.4437  135.5544  161.4740 C   0  0  0  0  0  0  0  0  0  0  0  0
  133.2608  134.1378  160.9040 C   0  0  0  0  0  0  0  0  0  0  0  0
  129.1294  134.8857  160.0357 N   0  0  0  0  0  0  0  0  0  0  0  0
  129.5307  135.5664  160.5983 H   0  0  0  0  0  0  0  0  0  0  0  0
  127.6928  134.6134  160.1269 C   0  0  1  0  0  0  0  0  0  0  0  0
  127.2242  134.7948  159.1596 H   0  0  0  0  0  0  0  0  0  0  0  0
  127.4711  133.1535  160.5404 C   0  0  0  0  0  0  0  0  0  0  0  0
  125.9741  132.8472  160.4504 C   0  0  0  0  0  0  0  0  0  0  0  0
  125.1901  133.9200  161.1502 C   0  0  0  0  0  0  0  0  0  0  0  0
  124.0409  133.6833  161.4575 O   0  0  0  0  0  0  0  0  0  0  0  0
  125.6896  135.1192  161.4514 N   0  0  0  0  0  0  0  0  0  0  0  0
  127.0628  135.5246  161.1784 C   0  0  0  0  0  0  0  0  0  0  0  0
  129.6304  133.1841  155.6607 C   0  0  0  0  0  0  0  0  0  0  0  0
  130.6159  132.5336  154.6872 C   0  0  0  0  0  0  0  0  0  0  0  0
  131.7291  129.2298  154.5931 H   0  0  0  0  0  0  0  0  0  0  0  0
  130.8869  130.0814  153.2764 H   0  0  0  0  0  0  0  0  0  0  0  0
  132.5070  130.6130  153.7870 H   0  0  0  0  0  0  0  0  0  0  0  0
  130.9826  129.6621  156.5377 H   0  0  0  0  0  0  0  0  0  0  0  0
  130.6183  131.3048  158.3552 H   0  0  0  0  0  0  0  0  0  0  0  0
  129.0414  131.1964  157.5422 H   0  0  0  0  0  0  0  0  0  0  0  0
  131.1872  133.3246  157.1544 H   0  0  0  0  0  0  0  0  0  0  0  0
  128.3899  133.9043  157.8264 H   0  0  0  0  0  0  0  0  0  0  0  0
  131.7421  133.4776  158.8630 H   0  0  0  0  0  0  0  0  0  0  0  0
  131.1658  134.2496  161.6072 H   0  0  0  0  0  0  0  0  0  0  0  0
  132.4346  136.2953  159.6476 H   0  0  0  0  0  0  0  0  0  0  0  0
  131.5322  136.6360  161.1874 H   0  0  0  0  0  0  0  0  0  0  0  0
  133.2943  135.6140  162.5520 H   0  0  0  0  0  0  0  0  0  0  0  0
  134.3620  136.0417  161.1464 H   0  0  0  0  0  0  0  0  0  0  0  0
  133.4440  133.3473  161.6318 H   0  0  0  0  0  0  0  0  0  0  0  0
  133.7826  133.9743  159.9612 H   0  0  0  0  0  0  0  0  0  0  0  0
  127.8150  133.0059  161.5641 H   0  0  0  0  0  0  0  0  0  0  0  0
  128.0216  132.4943  159.8692 H   0  0  0  0  0  0  0  0  0  0  0  0
  125.7723  131.8853  160.9218 H   0  0  0  0  0  0  0  0  0  0  0  0
  125.6755  132.8054  159.4030 H   0  0  0  0  0  0  0  0  0  0  0  0
  125.1012  135.7634  161.8751 H   0  0  0  0  0  0  0  0  0  0  0  0
  127.0698  136.5530  160.8174 H   0  0  0  0  0  0  0  0  0  0  0  0
  127.6456  135.4647  162.0976 H   0  0  0  0  0  0  0  0  0  0  0  0
  128.6517  132.7148  155.5600 H   0  0  0  0  0  0  0  0  0  0  0  0
  129.5528  134.2498  155.4459 H   0  0  0  0  0  0  0  0  0  0  0  0
  131.5338  133.1205  154.6560 H   0  0  0  0  0  0  0  0  0  0  0  0
  130.1740  132.5045  153.6913 H   0  0  0  0  0  0  0  0  0  0  0  0
  1  2  1  0
  1 25  1  0
  1 26  1  0
  1 27  1  0
  2 24  1  0
  2  3  2  0
  3  4  1  0
  3 28  1  0
  4  5  1  0
  4 29  1  0
  4 30  1  0
  5  6  1  0
  5 23  1  0
  5 31  1  6
  6 32  1  0
  7  6  1  0
  7  8  1  0
  7 13  2  0
  8  9  1  0
  8 33  1  0
  9 12  1  0
  9 10  1  0
  9 34  1  0
 10 11  1  0
 10 35  1  0
 10 36  1  0
 11 12  1  0
 11 37  1  0
 11 38  1  0
 12 39  1  0
 12 40  1  0
 13 14  1  0
 13 15  1  0
 15 16  1  6
 15 22  1  0
 15 17  1  0
 17 18  1  0
 17 41  1  0
 17 42  1  0
 18 19  1  0
 18 43  1  0
 18 44  1  0
 19 20  2  0
 19 21  1  0
 21 22  1  0
 21 45  1  0
 22 46  1  0
 22 47  1  0
 23 24  1  0
 23 48  1  0
 23 49  1  0
 24 50  1  0
 24 51  1  0
M  CHG  1  13   1
M  END
>  <DOCK_score>  (1) 
-40.925972

>  <SMILES>  (1) 
CC1=CCC(NC(NC2CCC2)=[NH+][C@H]2CCC(=O)NC2)CC1

$$$$
