CCCCOc1cc(O)cc(C[NH+]=C(NCc2cncs2)NC2CC=CC2)c1
     RDKit          3D

 57 59  0  0  1  0  0  0  0  0999 V2000
  128.7945  136.5331  171.5750 C   0  0  0  0  0  0  0  0  0  0  0  0
  129.1880  136.4538  170.0986 C   0  0  0  0  0  0  0  0  0  0  0  0
  128.0595  135.7924  169.3048 C   0  0  0  0  0  0  0  0  0  0  0  0
  128.4530  135.7132  167.8284 C   0  0  0  0  0  0  0  0  0  0  0  0
  127.3991  135.0954  167.0870 O   0  0  0  0  0  0  0  0  0  0  0  0
  127.2530  135.4742  165.7900 C   0  0  0  0  0  0  0  0  0  0  0  0
  126.0006  135.4465  165.1959 C   0  0  0  0  0  0  0  0  0  0  0  0
  125.8550  135.8331  163.8728 C   0  0  0  0  0  0  0  0  0  0  0  0
  124.6287  135.8075  163.2878 O   0  0  0  0  0  0  0  0  0  0  0  0
  126.9628  136.2468  163.1459 C   0  0  0  0  0  0  0  0  0  0  0  0
  128.2096  136.2733  163.7402 C   0  0  0  0  0  0  0  0  0  0  0  0
  129.4107  136.7229  162.9487 C   0  0  0  0  0  0  0  0  0  0  0  0
  129.3870  136.0940  161.6258 N   0  0  0  0  0  0  0  0  0  0  0  0
  128.6643  135.4926  161.3876 H   0  0  0  0  0  0  0  0  0  0  0  0
  130.3342  136.3470  160.7669 C   0  0  0  0  0  0  0  0  0  0  0  0
  131.3555  137.2041  161.1022 N   0  0  0  0  0  0  0  0  0  0  0  0
  132.4200  137.4884  160.1368 C   0  0  0  0  0  0  0  0  0  0  0  0
  133.4077  138.4494  160.7465 C   0  0  0  0  0  0  0  0  0  0  0  0
  133.3545  139.7827  160.6744 C   0  0  0  0  0  0  0  0  0  0  0  0
  134.3370  140.4034  161.2957 N   0  0  0  0  0  0  0  0  0  0  0  0
  135.2218  139.6675  161.8792 C   0  0  0  0  0  0  0  0  0  0  0  0
  134.8409  138.0133  161.6740 S   0  0  0  0  0  0  0  0  0  0  0  0
  130.3118  135.7569  159.5253 N   0  0  0  0  0  0  0  0  0  0  0  0
  129.2233  134.8438  159.1679 C   0  0  0  0  0  0  0  0  0  0  0  0
  129.2968  133.5410  159.9975 C   0  0  0  0  0  0  0  0  0  0  0  0
  128.8816  132.4504  159.0375 C   0  0  0  0  0  0  0  0  0  0  0  0
  128.9395  132.8653  157.8013 C   0  0  0  0  0  0  0  0  0  0  0  0
  129.4029  134.3018  157.7307 C   0  0  0  0  0  0  0  0  0  0  0  0
  128.3583  135.8832  165.0575 C   0  0  0  0  0  0  0  0  0  0  0  0
  128.6208  135.5279  171.9591 H   0  0  0  0  0  0  0  0  0  0  0  0
  129.5984  137.0042  172.1405 H   0  0  0  0  0  0  0  0  0  0  0  0
  127.8839  137.1235  171.6772 H   0  0  0  0  0  0  0  0  0  0  0  0
  130.0985  135.8634  169.9964 H   0  0  0  0  0  0  0  0  0  0  0  0
  129.3617  137.4590  169.7144 H   0  0  0  0  0  0  0  0  0  0  0  0
  127.1490  136.3829  169.4070 H   0  0  0  0  0  0  0  0  0  0  0  0
  127.8858  134.7872  169.6889 H   0  0  0  0  0  0  0  0  0  0  0  0
  129.3635  135.1227  167.7262 H   0  0  0  0  0  0  0  0  0  0  0  0
  128.6268  136.7184  167.4443 H   0  0  0  0  0  0  0  0  0  0  0  0
  125.1397  135.1242  165.7629 H   0  0  0  0  0  0  0  0  0  0  0  0
  124.6274  136.0942  162.3642 H   0  0  0  0  0  0  0  0  0  0  0  0
  126.8498  136.5483  162.1151 H   0  0  0  0  0  0  0  0  0  0  0  0
  130.3209  136.4321  163.4730 H   0  0  0  0  0  0  0  0  0  0  0  0
  129.3866  137.8069  162.8362 H   0  0  0  0  0  0  0  0  0  0  0  0
  131.3712  137.6205  161.9781 H   0  0  0  0  0  0  0  0  0  0  0  0
  132.9297  136.5612  159.8744 H   0  0  0  0  0  0  0  0  0  0  0  0
  131.9879  137.9318  159.2397 H   0  0  0  0  0  0  0  0  0  0  0  0
  132.5688  140.3086  160.1523 H   0  0  0  0  0  0  0  0  0  0  0  0
  136.0792  140.0422  162.4184 H   0  0  0  0  0  0  0  0  0  0  0  0
  131.0166  135.9452  158.8860 H   0  0  0  0  0  0  0  0  0  0  0  0
  128.2542  135.3289  159.2849 H   0  0  0  0  0  0  0  0  0  0  0  0
  130.3147  133.3709  160.3481 H   0  0  0  0  0  0  0  0  0  0  0  0
  128.6069  133.5880  160.8401 H   0  0  0  0  0  0  0  0  0  0  0  0
  128.5767  131.4580  159.3351 H   0  0  0  0  0  0  0  0  0  0  0  0
  128.6887  132.2614  156.9418 H   0  0  0  0  0  0  0  0  0  0  0  0
  128.7852  134.8662  157.0322 H   0  0  0  0  0  0  0  0  0  0  0  0
  130.4508  134.3505  157.4347 H   0  0  0  0  0  0  0  0  0  0  0  0
  129.3347  135.9004  165.5184 H   0  0  0  0  0  0  0  0  0  0  0  0
  1  2  1  0
  1 30  1  0
  1 31  1  0
  1 32  1  0
  2  3  1  0
  2 33  1  0
  2 34  1  0
  3  4  1  0
  3 35  1  0
  3 36  1  0
  4  5  1  0
  4 37  1  0
  4 38  1  0
  5  6  1  0
  6 29  2  0
  6  7  1  0
  7  8  2  0
  7 39  1  0
  8  9  1  0
  8 10  1  0
  9 40  1  0
 10 11  2  0
 10 41  1  0
 11 12  1  0
 11 29  1  0
 12 13  1  0
 12 42  1  0
 12 43  1  0
 13 14  1  0
 15 13  2  0
 15 16  1  0
 15 23  1  0
 16 17  1  0
 16 44  1  0
 17 18  1  0
 17 45  1  0
 17 46  1  0
 18 22  1  0
 18 19  2  0
 19 20  1  0
 19 47  1  0
 20 21  2  0
 21 22  1  0
 21 48  1  0
 23 24  1  0
 23 49  1  0
 24 28  1  0
 24 25  1  0
 24 50  1  0
 25 26  1  0
 25 51  1  0
 25 52  1  0
 26 27  2  0
 26 53  1  0
 27 28  1  0
 27 54  1  0
 28 55  1  0
 28 56  1  0
 29 57  1  0
M  CHG  1  13   1
M  END
>  <DOCK_score>  (1) 
-41.164463

>  <SMILES>  (1) 
CCCCOc1cc(O)cc(C[NH+]=C(NCc2cncs2)NC2CC=CC2)c1

$$$$
