C[C@@H](Cc1ccc(-c2ccccc2)cc1)Nc1[nH]cc(C2=CCC=CC2)[nH+]1
     RDKit          3D

 53 56  0  0  1  0  0  0  0  0999 V2000
  130.1841  134.9147  161.6222 C   0  0  0  0  0  0  0  0  0  0  0  0
  129.2125  135.4019  160.5453 C   0  0  1  0  0  0  0  0  0  0  0  0
  128.2974  134.8114  160.5877 H   0  0  0  0  0  0  0  0  0  0  0  0
  128.8802  136.8757  160.7874 C   0  0  0  0  0  0  0  0  0  0  0  0
  130.1455  137.6921  160.7288 C   0  0  0  0  0  0  0  0  0  0  0  0
  130.5674  138.2237  159.5235 C   0  0  0  0  0  0  0  0  0  0  0  0
  131.7258  138.9718  159.4641 C   0  0  0  0  0  0  0  0  0  0  0  0
  132.4704  139.1913  160.6211 C   0  0  0  0  0  0  0  0  0  0  0  0
  133.7169  139.9944  160.5633 C   0  0  0  0  0  0  0  0  0  0  0  0
  134.1229  140.7361  161.6709 C   0  0  0  0  0  0  0  0  0  0  0  0
  135.2828  141.4816  161.6114 C   0  0  0  0  0  0  0  0  0  0  0  0
  136.0419  141.4934  160.4551 C   0  0  0  0  0  0  0  0  0  0  0  0
  135.6408  140.7632  159.3509 C   0  0  0  0  0  0  0  0  0  0  0  0
  134.4853  140.0099  159.4011 C   0  0  0  0  0  0  0  0  0  0  0  0
  132.0435  138.6491  161.8317 C   0  0  0  0  0  0  0  0  0  0  0  0
  130.8809  137.9069  161.8805 C   0  0  0  0  0  0  0  0  0  0  0  0
  129.8304  135.2511  159.2256 N   0  0  0  0  0  0  0  0  0  0  0  0
  129.6655  134.0750  158.5145 C   0  0  0  0  0  0  0  0  0  0  0  0
  128.9606  132.9883  158.9330 N   0  0  0  0  0  0  0  0  0  0  0  0
  128.4882  132.9000  159.7755 H   0  0  0  0  0  0  0  0  0  0  0  0
  129.0387  132.0415  157.9416 C   0  0  0  0  0  0  0  0  0  0  0  0
  129.7974  132.5733  156.9481 C   0  0  0  0  0  0  0  0  0  0  0  0
  130.1568  131.9099  155.6780 C   0  0  0  0  0  0  0  0  0  0  0  0
  129.7892  132.4711  154.5463 C   0  0  0  0  0  0  0  0  0  0  0  0
  130.1067  131.8748  153.2079 C   0  0  0  0  0  0  0  0  0  0  0  0
  131.2370  130.8953  153.3052 C   0  0  0  0  0  0  0  0  0  0  0  0
  131.5999  130.3421  154.4213 C   0  0  0  0  0  0  0  0  0  0  0  0
  130.9312  130.6271  155.7299 C   0  0  0  0  0  0  0  0  0  0  0  0
  130.1669  133.8229  157.3304 N   0  0  0  0  0  0  0  0  0  0  0  0
  130.7140  134.4317  156.8098 H   0  0  0  0  0  0  0  0  0  0  0  0
  131.0994  135.5052  161.5798 H   0  0  0  0  0  0  0  0  0  0  0  0
  129.7244  135.0269  162.6041 H   0  0  0  0  0  0  0  0  0  0  0  0
  130.4208  133.8647  161.4497 H   0  0  0  0  0  0  0  0  0  0  0  0
  128.4204  136.9879  161.7693 H   0  0  0  0  0  0  0  0  0  0  0  0
  128.1879  137.2228  160.0202 H   0  0  0  0  0  0  0  0  0  0  0  0
  129.9893  138.0532  158.6274 H   0  0  0  0  0  0  0  0  0  0  0  0
  132.0541  139.3866  158.5225 H   0  0  0  0  0  0  0  0  0  0  0  0
  133.5306  140.7278  162.5740 H   0  0  0  0  0  0  0  0  0  0  0  0
  135.5986  142.0567  162.4693 H   0  0  0  0  0  0  0  0  0  0  0  0
  136.9487  142.0785  160.4128 H   0  0  0  0  0  0  0  0  0  0  0  0
  136.2351  140.7791  158.4493 H   0  0  0  0  0  0  0  0  0  0  0  0
  134.1752  139.4371  158.5397 H   0  0  0  0  0  0  0  0  0  0  0  0
  132.6192  138.8127  162.7307 H   0  0  0  0  0  0  0  0  0  0  0  0
  130.5468  137.4896  162.8190 H   0  0  0  0  0  0  0  0  0  0  0  0
  130.3553  135.9753  158.8502 H   0  0  0  0  0  0  0  0  0  0  0  0
  128.5871  131.0605  157.9517 H   0  0  0  0  0  0  0  0  0  0  0  0
  129.2369  133.3985  154.5829 H   0  0  0  0  0  0  0  0  0  0  0  0
  129.2230  131.3635  152.8258 H   0  0  0  0  0  0  0  0  0  0  0  0
  130.3841  132.6719  152.5183 H   0  0  0  0  0  0  0  0  0  0  0  0
  131.7747  130.6384  152.4043 H   0  0  0  0  0  0  0  0  0  0  0  0
  132.4256  129.6462  154.4066 H   0  0  0  0  0  0  0  0  0  0  0  0
  131.6876  130.6978  156.5116 H   0  0  0  0  0  0  0  0  0  0  0  0
  130.2511  129.8085  155.9653 H   0  0  0  0  0  0  0  0  0  0  0  0
  1  2  1  0
  1 31  1  0
  1 32  1  0
  1 33  1  0
  2  3  1  6
  2  4  1  0
  2 17  1  0
  4  5  1  0
  4 34  1  0
  4 35  1  0
  5 16  1  0
  5  6  2  0
  6  7  1  0
  6 36  1  0
  7  8  2  0
  7 37  1  0
  8  9  1  0
  8 15  1  0
  9 14  1  0
  9 10  2  0
 10 11  1  0
 10 38  1  0
 11 12  2  0
 11 39  1  0
 12 13  1  0
 12 40  1  0
 13 14  2  0
 13 41  1  0
 14 42  1  0
 15 16  2  0
 15 43  1  0
 16 44  1  0
 17 45  1  0
 18 17  1  0
 18 29  2  0
 18 19  1  0
 19 20  1  0
 19 21  1  0
 21 22  2  0
 21 46  1  0
 22 23  1  0
 22 29  1  0
 23 28  1  0
 23 24  2  0
 24 25  1  0
 24 47  1  0
 25 26  1  0
 25 48  1  0
 25 49  1  0
 26 27  2  0
 26 50  1  0
 27 28  1  0
 27 51  1  0
 28 52  1  0
 28 53  1  0
 29 30  1  0
M  CHG  1  29   1
M  END
>  <DOCK_score>  (1) 
-56.772945

>  <SMILES>  (1) 
C[C@@H](Cc1ccc(-c2ccccc2)cc1)Nc1[nH]cc(C2=CCC=CC2)[nH+]1

$$$$
