CCc1ccc(-c2c[nH]c(N[C@H](c3ccnn3C)C(F)F)[nH+]2)cc1
     RDKit          3D

 44 46  0  0  1  0  0  0  0  0999 V2000
  130.2086  128.6224  151.4672 C   0  0  0  0  0  0  0  0  0  0  0  0
  131.3346  129.6178  151.7530 C   0  0  0  0  0  0  0  0  0  0  0  0
  131.0592  130.3280  153.0533 C   0  0  0  0  0  0  0  0  0  0  0  0
  131.5358  129.8020  154.2401 C   0  0  0  0  0  0  0  0  0  0  0  0
  131.2908  130.4507  155.4332 C   0  0  0  0  0  0  0  0  0  0  0  0
  130.5523  131.6328  155.4420 C   0  0  0  0  0  0  0  0  0  0  0  0
  130.2813  132.3318  156.7218 C   0  0  0  0  0  0  0  0  0  0  0  0
  129.6183  131.8176  157.7872 C   0  0  0  0  0  0  0  0  0  0  0  0
  129.5949  132.7953  158.7520 N   0  0  0  0  0  0  0  0  0  0  0  0
  129.1897  132.7258  159.6305 H   0  0  0  0  0  0  0  0  0  0  0  0
  130.2450  133.8793  158.2475 C   0  0  0  0  0  0  0  0  0  0  0  0
  130.4416  135.0806  158.9068 N   0  0  0  0  0  0  0  0  0  0  0  0
  129.9290  135.2619  160.2672 C   0  0  2  0  0  0  0  0  0  0  0  0
  130.0836  134.3466  160.8386 H   0  0  0  0  0  0  0  0  0  0  0  0
  128.4563  135.5766  160.2113 C   0  0  0  0  0  0  0  0  0  0  0  0
  127.7047  135.6806  159.0909 C   0  0  0  0  0  0  0  0  0  0  0  0
  126.3948  135.9823  159.4778 C   0  0  0  0  0  0  0  0  0  0  0  0
  126.3612  136.0569  160.7837 N   0  0  0  0  0  0  0  0  0  0  0  0
  127.6497  135.7996  161.2699 N   0  0  0  0  0  0  0  0  0  0  0  0
  128.0510  135.7792  162.6787 C   0  0  0  0  0  0  0  0  0  0  0  0
  130.6720  136.4164  160.9425 C   0  0  0  0  0  0  0  0  0  0  0  0
  130.1326  137.6333  160.5121 F   0  0  0  0  0  0  0  0  0  0  0  0
  130.5350  136.3106  162.3308 F   0  0  0  0  0  0  0  0  0  0  0  0
  130.6581  133.5967  157.0361 N   0  0  0  0  0  0  0  0  0  0  0  0
  131.1526  134.1968  156.4562 H   0  0  0  0  0  0  0  0  0  0  0  0
  130.0700  132.1557  154.2436 C   0  0  0  0  0  0  0  0  0  0  0  0
  130.3256  131.5013  153.0557 C   0  0  0  0  0  0  0  0  0  0  0  0
  130.1551  127.8929  152.2753 H   0  0  0  0  0  0  0  0  0  0  0  0
  129.2609  129.1560  151.3961 H   0  0  0  0  0  0  0  0  0  0  0  0
  130.4079  128.1086  150.5266 H   0  0  0  0  0  0  0  0  0  0  0  0
  132.2823  129.0847  151.8238 H   0  0  0  0  0  0  0  0  0  0  0  0
  131.3879  130.3478  150.9445 H   0  0  0  0  0  0  0  0  0  0  0  0
  132.1042  128.8837  154.2326 H   0  0  0  0  0  0  0  0  0  0  0  0
  131.6674  130.0412  156.3590 H   0  0  0  0  0  0  0  0  0  0  0  0
  129.1902  130.8290  157.8626 H   0  0  0  0  0  0  0  0  0  0  0  0
  130.9185  135.8022  158.4681 H   0  0  0  0  0  0  0  0  0  0  0  0
  128.0544  135.5534  158.0771 H   0  0  0  0  0  0  0  0  0  0  0  0
  125.5561  136.1291  158.8134 H   0  0  0  0  0  0  0  0  0  0  0  0
  128.3663  136.7778  162.9811 H   0  0  0  0  0  0  0  0  0  0  0  0
  127.2074  135.4632  163.2923 H   0  0  0  0  0  0  0  0  0  0  0  0
  128.8780  135.0815  162.8109 H   0  0  0  0  0  0  0  0  0  0  0  0
  131.7283  136.3732  160.6773 H   0  0  0  0  0  0  0  0  0  0  0  0
  129.4969  133.0712  154.2444 H   0  0  0  0  0  0  0  0  0  0  0  0
  129.9519  131.9054  152.1264 H   0  0  0  0  0  0  0  0  0  0  0  0
  1  2  1  0
  1 28  1  0
  1 29  1  0
  1 30  1  0
  2  3  1  0
  2 31  1  0
  2 32  1  0
  3 27  2  0
  3  4  1  0
  4  5  2  0
  4 33  1  0
  5  6  1  0
  5 34  1  0
  6  7  1  0
  6 26  2  0
  7 24  1  0
  7  8  2  0
  8  9  1  0
  8 35  1  0
  9 10  1  0
  9 11  1  0
 11 12  1  0
 11 24  2  0
 12 13  1  0
 12 36  1  0
 13 14  1  1
 13 15  1  0
 13 21  1  0
 15 19  1  0
 15 16  2  0
 16 17  1  0
 16 37  1  0
 17 18  2  0
 17 38  1  0
 18 19  1  0
 19 20  1  0
 20 39  1  0
 20 40  1  0
 20 41  1  0
 21 22  1  0
 21 23  1  0
 21 42  1  0
 24 25  1  0
 26 27  1  0
 26 43  1  0
 27 44  1  0
M  CHG  1  24   1
M  END
>  <DOCK_score>  (1) 
-53.271313

>  <SMILES>  (1) 
CCc1ccc(-c2c[nH]c(N[C@H](c3ccnn3C)C(F)F)[nH+]2)cc1

$$$$
