Nc1ccccc1[C@H](Nc1[nH]cc(-c2ccc(Br)cc2)[nH+]1)c1ccccc1
     RDKit          3D

 47 50  0  0  1  0  0  0  0  0999 V2000
  132.5821  136.9655  160.4144 N   0  0  0  0  0  0  0  0  0  0  0  0
  131.5499  137.8403  160.7608 C   0  0  0  0  0  0  0  0  0  0  0  0
  131.8362  139.1599  161.0882 C   0  0  0  0  0  0  0  0  0  0  0  0
  130.8137  140.0210  161.4351 C   0  0  0  0  0  0  0  0  0  0  0  0
  129.5058  139.5720  161.4528 C   0  0  0  0  0  0  0  0  0  0  0  0
  129.2168  138.2611  161.1215 C   0  0  0  0  0  0  0  0  0  0  0  0
  130.2346  137.3947  160.7734 C   0  0  0  0  0  0  0  0  0  0  0  0
  129.9186  135.9659  160.4136 C   0  0  2  0  0  0  0  0  0  0  0  0
  130.4299  135.2956  161.1045 H   0  0  0  0  0  0  0  0  0  0  0  0
  130.3702  135.6951  159.0465 N   0  0  0  0  0  0  0  0  0  0  0  0
  130.1863  134.4397  158.4925 C   0  0  0  0  0  0  0  0  0  0  0  0
  129.5971  133.3796  159.1097 N   0  0  0  0  0  0  0  0  0  0  0  0
  129.2337  133.3675  160.0090 H   0  0  0  0  0  0  0  0  0  0  0  0
  129.6121  132.3294  158.2240 C   0  0  0  0  0  0  0  0  0  0  0  0
  130.2095  132.7778  157.0922 C   0  0  0  0  0  0  0  0  0  0  0  0
  130.4483  131.9881  155.8595 C   0  0  0  0  0  0  0  0  0  0  0  0
  130.4655  132.6193  154.6169 C   0  0  0  0  0  0  0  0  0  0  0  0
  130.6939  131.8809  153.4738 C   0  0  0  0  0  0  0  0  0  0  0  0
  130.8937  130.5138  153.5585 C   0  0  0  0  0  0  0  0  0  0  0  0
  131.1976  129.5070  151.9868 Br  0  0  0  0  0  0  0  0  0  0  0  0
  130.8723  129.8813  154.7894 C   0  0  0  0  0  0  0  0  0  0  0  0
  130.6505  130.6113  155.9393 C   0  0  0  0  0  0  0  0  0  0  0  0
  130.5458  134.0780  157.2852 N   0  0  0  0  0  0  0  0  0  0  0  0
  130.9846  134.6480  156.6344 H   0  0  0  0  0  0  0  0  0  0  0  0
  128.4311  135.7419  160.5049 C   0  0  0  0  0  0  0  0  0  0  0  0
  127.8676  135.3187  161.6941 C   0  0  0  0  0  0  0  0  0  0  0  0
  126.5027  135.1172  161.7789 C   0  0  0  0  0  0  0  0  0  0  0  0
  125.7023  135.3307  160.6723 C   0  0  0  0  0  0  0  0  0  0  0  0
  126.2665  135.7494  159.4818 C   0  0  0  0  0  0  0  0  0  0  0  0
  127.6308  135.9547  159.3979 C   0  0  0  0  0  0  0  0  0  0  0  0
  132.3806  136.0455  160.1821 H   0  0  0  0  0  0  0  0  0  0  0  0
  133.5003  137.2779  160.4059 H   0  0  0  0  0  0  0  0  0  0  0  0
  132.8575  139.5108  161.0751 H   0  0  0  0  0  0  0  0  0  0  0  0
  131.0362  141.0455  161.6943 H   0  0  0  0  0  0  0  0  0  0  0  0
  128.7081  140.2474  161.7251 H   0  0  0  0  0  0  0  0  0  0  0  0
  128.1941  137.9141  161.1355 H   0  0  0  0  0  0  0  0  0  0  0  0
  130.7944  136.3967  158.5280 H   0  0  0  0  0  0  0  0  0  0  0  0
  129.2223  131.3371  158.3959 H   0  0  0  0  0  0  0  0  0  0  0  0
  130.3051  133.6852  154.5494 H   0  0  0  0  0  0  0  0  0  0  0  0
  130.7116  132.3696  152.5109 H   0  0  0  0  0  0  0  0  0  0  0  0
  131.0291  128.8144  154.8501 H   0  0  0  0  0  0  0  0  0  0  0  0
  130.6340  130.1169  156.8991 H   0  0  0  0  0  0  0  0  0  0  0  0
  128.4933  135.1483  162.5576 H   0  0  0  0  0  0  0  0  0  0  0  0
  126.0619  134.7897  162.7090 H   0  0  0  0  0  0  0  0  0  0  0  0
  124.6363  135.1701  160.7376 H   0  0  0  0  0  0  0  0  0  0  0  0
  125.6412  135.9158  158.6170 H   0  0  0  0  0  0  0  0  0  0  0  0
  128.0717  136.2813  158.4677 H   0  0  0  0  0  0  0  0  0  0  0  0
  1  2  1  0
  1 31  1  0
  1 32  1  0
  2  7  2  0
  2  3  1  0
  3  4  2  0
  3 33  1  0
  4  5  1  0
  4 34  1  0
  5  6  2  0
  5 35  1  0
  6  7  1  0
  6 36  1  0
  7  8  1  0
  8  9  1  1
  8 10  1  0
  8 25  1  0
 10 37  1  0
 11 10  1  0
 11 23  2  0
 11 12  1  0
 12 13  1  0
 12 14  1  0
 14 15  2  0
 14 38  1  0
 15 16  1  0
 15 23  1  0
 16 22  1  0
 16 17  2  0
 17 18  1  0
 17 39  1  0
 18 19  2  0
 18 40  1  0
 19 20  1  0
 19 21  1  0
 21 22  2  0
 21 41  1  0
 22 42  1  0
 23 24  1  0
 25 30  1  0
 25 26  2  0
 26 27  1  0
 26 43  1  0
 27 28  2  0
 27 44  1  0
 28 29  1  0
 28 45  1  0
 29 30  2  0
 29 46  1  0
 30 47  1  0
M  CHG  1  23   1
M  END
>  <DOCK_score>  (1) 
-57.80545

>  <SMILES>  (1) 
Nc1ccccc1[C@H](Nc1[nH]cc(-c2ccc(Br)cc2)[nH+]1)c1ccccc1

$$$$
