CN(c1c(N2CC[NH+](C(c3ccccc3)c3ccccc3)CC2)ccc2c1CCC2)[C@H]1CC(O)C1(C)C
     RDKit          3D

 79 84  0  0  1  0  0  0  0  0999 V2000
  135.0617  137.7961  163.9638 C   0  0  0  0  0  0  0  0  0  0  0  0
  133.9258  138.3694  163.2298 N   0  0  0  0  0  0  0  0  0  0  0  0
  134.3303  138.8587  161.9818 C   0  0  0  0  0  0  0  0  0  0  0  0
  133.7702  138.3400  160.8152 C   0  0  0  0  0  0  0  0  0  0  0  0
  132.8038  137.3295  160.8884 N   0  0  0  0  0  0  0  0  0  0  0  0
  133.2881  136.0912  160.2622 C   0  0  0  0  0  0  0  0  0  0  0  0
  132.2289  134.9974  160.4157 C   0  0  0  0  0  0  0  0  0  0  0  0
  130.9794  135.4325  159.7780 N   0  0  0  0  0  0  0  0  0  0  0  0
  131.1474  135.6168  158.8003 H   0  0  0  0  0  0  0  0  0  0  0  0
  129.9687  134.3749  159.9102 C   0  0  0  0  0  0  0  0  0  0  0  0
  128.6864  134.8208  159.2561 C   0  0  0  0  0  0  0  0  0  0  0  0
  127.4723  134.3589  159.7288 C   0  0  0  0  0  0  0  0  0  0  0  0
  126.2958  134.7712  159.1312 C   0  0  0  0  0  0  0  0  0  0  0  0
  126.3340  135.6389  158.0556 C   0  0  0  0  0  0  0  0  0  0  0  0
  127.5484  136.0966  157.5797 C   0  0  0  0  0  0  0  0  0  0  0  0
  128.7245  135.6874  158.1798 C   0  0  0  0  0  0  0  0  0  0  0  0
  130.4645  133.1197  159.2397 C   0  0  0  0  0  0  0  0  0  0  0  0
  130.1851  132.8924  157.9051 C   0  0  0  0  0  0  0  0  0  0  0  0
  130.6433  131.7429  157.2890 C   0  0  0  0  0  0  0  0  0  0  0  0
  131.3738  130.8167  158.0097 C   0  0  0  0  0  0  0  0  0  0  0  0
  131.6488  131.0415  159.3456 C   0  0  0  0  0  0  0  0  0  0  0  0
  131.1939  132.1928  159.9608 C   0  0  0  0  0  0  0  0  0  0  0  0
  130.4953  136.6563  160.4303 C   0  0  0  0  0  0  0  0  0  0  0  0
  131.5400  137.7639  160.2769 C   0  0  0  0  0  0  0  0  0  0  0  0
  134.1744  138.8284  159.5826 C   0  0  0  0  0  0  0  0  0  0  0  0
  135.1289  139.8253  159.5149 C   0  0  0  0  0  0  0  0  0  0  0  0
  135.6869  140.3419  160.6723 C   0  0  0  0  0  0  0  0  0  0  0  0
  135.2889  139.8605  161.9065 C   0  0  0  0  0  0  0  0  0  0  0  0
  136.0404  140.5826  163.0042 C   0  0  0  0  0  0  0  0  0  0  0  0
  136.6128  141.8503  162.3354 C   0  0  0  0  0  0  0  0  0  0  0  0
  136.7379  141.4159  160.8579 C   0  0  0  0  0  0  0  0  0  0  0  0
  133.2655  139.4189  164.0177 C   0  0  1  0  0  0  0  0  0  0  0  0
  133.9619  139.9856  164.6357 H   0  0  0  0  0  0  0  0  0  0  0  0
  132.3145  140.3022  163.1929 C   0  0  0  0  0  0  0  0  0  0  0  0
  131.3589  140.2613  164.3971 C   0  0  2  0  0  0  0  0  0  0  0  0
  131.5873  141.3063  165.3447 O   0  0  0  0  0  0  0  0  0  0  0  0
  132.0227  138.9277  164.7787 C   0  0  0  0  0  0  0  0  0  0  0  0
  131.3564  137.7069  164.1412 C   0  0  0  0  0  0  0  0  0  0  0  0
  132.2500  138.7647  166.2830 C   0  0  0  0  0  0  0  0  0  0  0  0
  135.7578  138.5902  164.2339 H   0  0  0  0  0  0  0  0  0  0  0  0
  134.7002  137.3068  164.8682 H   0  0  0  0  0  0  0  0  0  0  0  0
  135.5700  137.0660  163.3340 H   0  0  0  0  0  0  0  0  0  0  0  0
  133.4768  136.2687  159.2034 H   0  0  0  0  0  0  0  0  0  0  0  0
  134.2109  135.7746  160.7483 H   0  0  0  0  0  0  0  0  0  0  0  0
  132.0506  134.8105  161.4747 H   0  0  0  0  0  0  0  0  0  0  0  0
  132.5804  134.0820  159.9393 H   0  0  0  0  0  0  0  0  0  0  0  0
  129.7876  134.1754  160.9664 H   0  0  0  0  0  0  0  0  0  0  0  0
  127.4426  133.6784  160.5668 H   0  0  0  0  0  0  0  0  0  0  0  0
  125.3471  134.4133  159.5028 H   0  0  0  0  0  0  0  0  0  0  0  0
  125.4150  135.9588  157.5872 H   0  0  0  0  0  0  0  0  0  0  0  0
  127.5782  136.7743  156.7392 H   0  0  0  0  0  0  0  0  0  0  0  0
  129.6734  136.0452  157.8078 H   0  0  0  0  0  0  0  0  0  0  0  0
  129.6114  133.6144  157.3430 H   0  0  0  0  0  0  0  0  0  0  0  0
  130.4281  131.5671  156.2454 H   0  0  0  0  0  0  0  0  0  0  0  0
  131.7295  129.9174  157.5291 H   0  0  0  0  0  0  0  0  0  0  0  0
  132.2193  130.3177  159.9087 H   0  0  0  0  0  0  0  0  0  0  0  0
  131.4087  132.3684  161.0045 H   0  0  0  0  0  0  0  0  0  0  0  0
  130.3257  136.4610  161.4892 H   0  0  0  0  0  0  0  0  0  0  0  0
  129.5612  136.9710  159.9648 H   0  0  0  0  0  0  0  0  0  0  0  0
  131.1875  138.6678  160.7737 H   0  0  0  0  0  0  0  0  0  0  0  0
  131.6998  137.9691  159.2184 H   0  0  0  0  0  0  0  0  0  0  0  0
  133.7434  138.4305  158.6758 H   0  0  0  0  0  0  0  0  0  0  0  0
  135.4421  140.2039  158.5532 H   0  0  0  0  0  0  0  0  0  0  0  0
  135.3609  140.8549  163.8118 H   0  0  0  0  0  0  0  0  0  0  0  0
  136.8487  139.9574  163.3837 H   0  0  0  0  0  0  0  0  0  0  0  0
  135.9234  142.6882  162.4399 H   0  0  0  0  0  0  0  0  0  0  0  0
  137.5892  142.1000  162.7505 H   0  0  0  0  0  0  0  0  0  0  0  0
  137.7309  141.0108  160.6635 H   0  0  0  0  0  0  0  0  0  0  0  0
  136.5369  142.2598  160.1980 H   0  0  0  0  0  0  0  0  0  0  0  0
  132.7119  141.2954  162.9842 H   0  0  0  0  0  0  0  0  0  0  0  0
  131.9207  139.8086  162.3044 H   0  0  0  0  0  0  0  0  0  0  0  0
  130.3097  140.1643  164.1187 H   0  0  0  0  0  0  0  0  0  0  0  0
  131.2110  142.1593  165.0879 H   0  0  0  0  0  0  0  0  0  0  0  0
  132.0325  136.8536  164.1964 H   0  0  0  0  0  0  0  0  0  0  0  0
  130.4349  137.4756  164.6756 H   0  0  0  0  0  0  0  0  0  0  0  0
  131.1270  137.9217  163.0975 H   0  0  0  0  0  0  0  0  0  0  0  0
  132.4629  139.7375  166.7258 H   0  0  0  0  0  0  0  0  0  0  0  0
  131.3552  138.3444  166.7421 H   0  0  0  0  0  0  0  0  0  0  0  0
  133.0937  138.0957  166.4524 H   0  0  0  0  0  0  0  0  0  0  0  0
  1  2  1  0
  1 40  1  0
  1 41  1  0
  1 42  1  0
  2  3  1  0
  2 32  1  0
  3 28  2  0
  3  4  1  0
  4  5  1  0
  4 25  2  0
  5 24  1  0
  5  6  1  0
  6  7  1  0
  6 43  1  0
  6 44  1  0
  7  8  1  0
  7 45  1  0
  7 46  1  0
  8  9  1  0
  8 10  1  0
  8 23  1  0
 10 11  1  0
 10 17  1  0
 10 47  1  0
 11 16  1  0
 11 12  2  0
 12 13  1  0
 12 48  1  0
 13 14  2  0
 13 49  1  0
 14 15  1  0
 14 50  1  0
 15 16  2  0
 15 51  1  0
 16 52  1  0
 17 22  1  0
 17 18  2  0
 18 19  1  0
 18 53  1  0
 19 20  2  0
 19 54  1  0
 20 21  1  0
 20 55  1  0
 21 22  2  0
 21 56  1  0
 22 57  1  0
 23 24  1  0
 23 58  1  0
 23 59  1  0
 24 60  1  0
 24 61  1  0
 25 26  1  0
 25 62  1  0
 26 27  2  0
 26 63  1  0
 27 31  1  0
 27 28  1  0
 28 29  1  0
 29 30  1  0
 29 64  1  0
 29 65  1  0
 30 31  1  0
 30 66  1  0
 30 67  1  0
 31 68  1  0
 31 69  1  0
 32 33  1  1
 32 37  1  0
 32 34  1  0
 34 35  1  0
 34 70  1  0
 34 71  1  0
 35 36  1  0
 35 37  1  0
 35 72  1  6
 36 73  1  0
 37 38  1  0
 37 39  1  0
 38 74  1  0
 38 75  1  0
 38 76  1  0
 39 77  1  0
 39 78  1  0
 39 79  1  0
M  CHG  1   8   1
M  END
>  <DOCK_score>  (1) 
-57.795555

>  <SMILES>  (1) 
CN(c1c(N2CC[NH+](C(c3ccccc3)c3ccccc3)CC2)ccc2c1CCC2)[C@H]1CC(O)C1(C)C

$$$$
