Cc1c[nH]c(Nc2ccc(Nc3ccc(SCc4cccc5cnccc45)cc3)cc2)[nH+]1
     RDKit          3D

 56 60  0  0  1  0  0  0  0  0999 V2000
  130.5224  131.5987  154.4801 C   0  0  0  0  0  0  0  0  0  0  0  0
  130.1785  132.2817  155.7786 C   0  0  0  0  0  0  0  0  0  0  0  0
  129.7710  131.6716  156.9048 C   0  0  0  0  0  0  0  0  0  0  0  0
  129.5669  132.6571  157.8437 N   0  0  0  0  0  0  0  0  0  0  0  0
  129.2691  132.5300  158.7580 H   0  0  0  0  0  0  0  0  0  0  0  0
  129.8615  133.8434  157.2459 C   0  0  0  0  0  0  0  0  0  0  0  0
  129.7875  135.0918  157.8425 N   0  0  0  0  0  0  0  0  0  0  0  0
  128.8529  135.3282  158.8582 C   0  0  0  0  0  0  0  0  0  0  0  0
  129.1299  136.2552  159.8546 C   0  0  0  0  0  0  0  0  0  0  0  0
  128.2087  136.4880  160.8563 C   0  0  0  0  0  0  0  0  0  0  0  0
  127.0048  135.7953  160.8672 C   0  0  0  0  0  0  0  0  0  0  0  0
  126.0733  136.0270  161.8857 N   0  0  0  0  0  0  0  0  0  0  0  0
  126.4229  135.7914  163.2207 C   0  0  0  0  0  0  0  0  0  0  0  0
  125.8446  136.5458  164.2334 C   0  0  0  0  0  0  0  0  0  0  0  0
  126.1855  136.3103  165.5504 C   0  0  0  0  0  0  0  0  0  0  0  0
  127.1152  135.3259  165.8618 C   0  0  0  0  0  0  0  0  0  0  0  0
  127.5558  135.0302  167.5419 S   0  0  0  0  0  0  0  0  0  0  0  0
  128.2305  136.6278  168.0742 C   0  0  0  0  0  0  0  0  0  0  0  0
  129.0887  136.4284  169.2968 C   0  0  0  0  0  0  0  0  0  0  0  0
  128.5405  136.5113  170.5414 C   0  0  0  0  0  0  0  0  0  0  0  0
  129.3184  136.3250  171.6824 C   0  0  0  0  0  0  0  0  0  0  0  0
  130.6521  136.0648  171.5895 C   0  0  0  0  0  0  0  0  0  0  0  0
  131.2530  135.9772  170.3244 C   0  0  0  0  0  0  0  0  0  0  0  0
  132.6229  135.7119  170.1658 C   0  0  0  0  0  0  0  0  0  0  0  0
  133.1399  135.6399  168.9617 N   0  0  0  0  0  0  0  0  0  0  0  0
  132.4208  135.8085  167.8603 C   0  0  0  0  0  0  0  0  0  0  0  0
  131.0854  136.0700  167.9063 C   0  0  0  0  0  0  0  0  0  0  0  0
  130.4584  136.1621  169.1626 C   0  0  0  0  0  0  0  0  0  0  0  0
  127.6975  134.5750  164.8483 C   0  0  0  0  0  0  0  0  0  0  0  0
  127.3523  134.8073  163.5319 C   0  0  0  0  0  0  0  0  0  0  0  0
  126.7277  134.8685  159.8703 C   0  0  0  0  0  0  0  0  0  0  0  0
  127.6489  134.6358  158.8688 C   0  0  0  0  0  0  0  0  0  0  0  0
  130.2219  133.6050  156.0070 N   0  0  0  0  0  0  0  0  0  0  0  0
  130.4814  134.2781  155.3586 H   0  0  0  0  0  0  0  0  0  0  0  0
  129.6282  131.5223  153.8616 H   0  0  0  0  0  0  0  0  0  0  0  0
  131.2798  132.1795  153.9535 H   0  0  0  0  0  0  0  0  0  0  0  0
  130.9083  130.6002  154.6859 H   0  0  0  0  0  0  0  0  0  0  0  0
  129.6310  130.6101  157.0462 H   0  0  0  0  0  0  0  0  0  0  0  0
  130.3831  135.8019  157.5567 H   0  0  0  0  0  0  0  0  0  0  0  0
  130.0660  136.7938  159.8461 H   0  0  0  0  0  0  0  0  0  0  0  0
  128.4241  137.2089  161.6310 H   0  0  0  0  0  0  0  0  0  0  0  0
  125.1856  136.3508  161.6667 H   0  0  0  0  0  0  0  0  0  0  0  0
  125.1253  137.3140  163.9910 H   0  0  0  0  0  0  0  0  0  0  0  0
  125.7330  136.8943  166.3380 H   0  0  0  0  0  0  0  0  0  0  0  0
  128.8338  137.0529  167.2721 H   0  0  0  0  0  0  0  0  0  0  0  0
  127.4116  137.3069  168.3119 H   0  0  0  0  0  0  0  0  0  0  0  0
  127.4861  136.7206  170.6451 H   0  0  0  0  0  0  0  0  0  0  0  0
  128.8570  136.3924  172.6566 H   0  0  0  0  0  0  0  0  0  0  0  0
  131.2429  135.9269  172.4829 H   0  0  0  0  0  0  0  0  0  0  0  0
  133.2497  135.5668  171.0333 H   0  0  0  0  0  0  0  0  0  0  0  0
  132.9084  135.7361  166.8993 H   0  0  0  0  0  0  0  0  0  0  0  0
  130.5185  136.2034  166.9967 H   0  0  0  0  0  0  0  0  0  0  0  0
  128.4204  133.8100  165.0901 H   0  0  0  0  0  0  0  0  0  0  0  0
  127.8053  134.2237  162.7439 H   0  0  0  0  0  0  0  0  0  0  0  0
  125.7917  134.3297  159.8789 H   0  0  0  0  0  0  0  0  0  0  0  0
  127.4337  133.9149  158.0939 H   0  0  0  0  0  0  0  0  0  0  0  0
  1  2  1  0
  1 35  1  0
  1 36  1  0
  1 37  1  0
  2 33  1  0
  2  3  2  0
  3  4  1  0
  3 38  1  0
  4  5  1  0
  4  6  1  0
  6  7  1  0
  6 33  2  0
  7  8  1  0
  7 39  1  0
  8 32  1  0
  8  9  2  0
  9 10  1  0
  9 40  1  0
 10 11  2  0
 10 41  1  0
 11 12  1  0
 11 31  1  0
 12 13  1  0
 12 42  1  0
 13 30  1  0
 13 14  2  0
 14 15  1  0
 14 43  1  0
 15 16  2  0
 15 44  1  0
 16 17  1  0
 16 29  1  0
 17 18  1  0
 18 19  1  0
 18 45  1  0
 18 46  1  0
 19 28  1  0
 19 20  2  0
 20 21  1  0
 20 47  1  0
 21 22  2  0
 21 48  1  0
 22 23  1  0
 22 49  1  0
 23 28  2  0
 23 24  1  0
 24 25  2  0
 24 50  1  0
 25 26  1  0
 26 27  2  0
 26 51  1  0
 27 28  1  0
 27 52  1  0
 29 30  2  0
 29 53  1  0
 30 54  1  0
 31 32  2  0
 31 55  1  0
 32 56  1  0
 33 34  1  0
M  CHG  1  33   1
M  END
>  <DOCK_score>  (1) 
-55.946236

>  <SMILES>  (1) 
Cc1c[nH]c(Nc2ccc(Nc3ccc(SCc4cccc5cnccc45)cc3)cc2)[nH+]1

$$$$
