Cn1nncc1C[C@H](CCc1ccccc1)Nc1[nH]cc(-c2ccc(N)cc2)[nH+]1
     RDKit          3D

 55 58  0  0  1  0  0  0  0  0999 V2000
  126.2146  134.7107  161.4430 C   0  0  0  0  0  0  0  0  0  0  0  0
  126.4000  135.1765  160.0666 N   0  0  0  0  0  0  0  0  0  0  0  0
  125.6101  134.9412  159.0778 N   0  0  0  0  0  0  0  0  0  0  0  0
  126.0619  135.4940  158.0077 N   0  0  0  0  0  0  0  0  0  0  0  0
  127.2048  136.1263  158.2963 C   0  0  0  0  0  0  0  0  0  0  0  0
  127.4309  135.9285  159.6161 C   0  0  0  0  0  0  0  0  0  0  0  0
  128.5965  136.4418  160.4216 C   0  0  0  0  0  0  0  0  0  0  0  0
  129.7314  135.4163  160.3868 C   0  0  2  0  0  0  0  0  0  0  0  0
  129.3833  134.4745  160.8110 H   0  0  0  0  0  0  0  0  0  0  0  0
  130.9150  135.9373  161.2044 C   0  0  0  0  0  0  0  0  0  0  0  0
  132.0498  134.9119  161.1696 C   0  0  0  0  0  0  0  0  0  0  0  0
  133.2156  135.4251  161.9750 C   0  0  0  0  0  0  0  0  0  0  0  0
  134.1982  136.1816  161.3640 C   0  0  0  0  0  0  0  0  0  0  0  0
  135.2650  136.6565  162.1038 C   0  0  0  0  0  0  0  0  0  0  0  0
  135.3547  136.3662  163.4523 C   0  0  0  0  0  0  0  0  0  0  0  0
  134.3749  135.6054  164.0622 C   0  0  0  0  0  0  0  0  0  0  0  0
  133.3054  135.1348  163.3235 C   0  0  0  0  0  0  0  0  0  0  0  0
  130.1528  135.2010  159.0002 N   0  0  0  0  0  0  0  0  0  0  0  0
  130.0676  133.9384  158.4389 C   0  0  0  0  0  0  0  0  0  0  0  0
  129.6068  132.8219  159.0656 N   0  0  0  0  0  0  0  0  0  0  0  0
  129.2819  132.7677  159.9780 H   0  0  0  0  0  0  0  0  0  0  0  0
  129.6872  131.7847  158.1668 C   0  0  0  0  0  0  0  0  0  0  0  0
  130.1943  132.2978  157.0187 C   0  0  0  0  0  0  0  0  0  0  0  0
  130.4588  131.5450  155.7681 C   0  0  0  0  0  0  0  0  0  0  0  0
  129.8121  131.9047  154.5867 C   0  0  0  0  0  0  0  0  0  0  0  0
  130.0635  131.2067  153.4243 C   0  0  0  0  0  0  0  0  0  0  0  0
  130.9522  130.1382  153.4323 C   0  0  0  0  0  0  0  0  0  0  0  0
  131.2009  129.4291  152.2548 N   0  0  0  0  0  0  0  0  0  0  0  0
  131.5942  129.7746  154.6102 C   0  0  0  0  0  0  0  0  0  0  0  0
  131.3502  130.4733  155.7738 C   0  0  0  0  0  0  0  0  0  0  0  0
  130.4124  133.6225  157.2144 N   0  0  0  0  0  0  0  0  0  0  0  0
  130.7688  134.2372  156.5542 H   0  0  0  0  0  0  0  0  0  0  0  0
  125.6408  135.4494  162.0025 H   0  0  0  0  0  0  0  0  0  0  0  0
  125.6774  133.7622  161.4364 H   0  0  0  0  0  0  0  0  0  0  0  0
  127.1879  134.5736  161.9144 H   0  0  0  0  0  0  0  0  0  0  0  0
  127.8232  136.6880  157.6118 H   0  0  0  0  0  0  0  0  0  0  0  0
  128.9447  137.3836  159.9975 H   0  0  0  0  0  0  0  0  0  0  0  0
  128.2830  136.6018  161.4532 H   0  0  0  0  0  0  0  0  0  0  0  0
  131.2631  136.8791  160.7802 H   0  0  0  0  0  0  0  0  0  0  0  0
  130.6014  136.0975  162.2361 H   0  0  0  0  0  0  0  0  0  0  0  0
  131.7017  133.9702  161.5939 H   0  0  0  0  0  0  0  0  0  0  0  0
  132.3634  134.7517  160.1380 H   0  0  0  0  0  0  0  0  0  0  0  0
  134.1303  136.4047  160.3094 H   0  0  0  0  0  0  0  0  0  0  0  0
  136.0306  137.2507  161.6273 H   0  0  0  0  0  0  0  0  0  0  0  0
  136.1906  136.7335  164.0293 H   0  0  0  0  0  0  0  0  0  0  0  0
  134.4451  135.3782  165.1156 H   0  0  0  0  0  0  0  0  0  0  0  0
  132.5400  134.5401  163.7999 H   0  0  0  0  0  0  0  0  0  0  0  0
  130.4914  135.9433  158.4755 H   0  0  0  0  0  0  0  0  0  0  0  0
  129.4012  130.7581  158.3416 H   0  0  0  0  0  0  0  0  0  0  0  0
  129.1176  132.7318  154.5809 H   0  0  0  0  0  0  0  0  0  0  0  0
  129.5659  131.4880  152.5079 H   0  0  0  0  0  0  0  0  0  0  0  0
  131.8213  128.6834  152.2596 H   0  0  0  0  0  0  0  0  0  0  0  0
  130.7533  129.6822  151.4324 H   0  0  0  0  0  0  0  0  0  0  0  0
  132.2844  128.9440  154.6142 H   0  0  0  0  0  0  0  0  0  0  0  0
  131.8495  130.1905  156.6886 H   0  0  0  0  0  0  0  0  0  0  0  0
  1  2  1  0
  1 33  1  0
  1 34  1  0
  1 35  1  0
  2  6  1  0
  2  3  1  0
  3  4  2  0
  4  5  1  0
  5  6  2  0
  5 36  1  0
  6  7  1  0
  7  8  1  0
  7 37  1  0
  7 38  1  0
  8  9  1  1
  8 10  1  0
  8 18  1  0
 10 11  1  0
 10 39  1  0
 10 40  1  0
 11 12  1  0
 11 41  1  0
 11 42  1  0
 12 17  1  0
 12 13  2  0
 13 14  1  0
 13 43  1  0
 14 15  2  0
 14 44  1  0
 15 16  1  0
 15 45  1  0
 16 17  2  0
 16 46  1  0
 17 47  1  0
 18 48  1  0
 19 18  1  0
 19 31  2  0
 19 20  1  0
 20 21  1  0
 20 22  1  0
 22 23  2  0
 22 49  1  0
 23 24  1  0
 23 31  1  0
 24 30  1  0
 24 25  2  0
 25 26  1  0
 25 50  1  0
 26 27  2  0
 26 51  1  0
 27 28  1  0
 27 29  1  0
 28 52  1  0
 28 53  1  0
 29 30  2  0
 29 54  1  0
 30 55  1  0
 31 32  1  0
M  CHG  1  31   1
M  END
>  <DOCK_score>  (1) 
-56.520844

>  <SMILES>  (1) 
Cn1nncc1C[C@H](CCc1ccccc1)Nc1[nH]cc(-c2ccc(N)cc2)[nH+]1

$$$$
