O=C1CC[C@H](NC(NC2CCCC2)=[NH+][C@H]2COc3cc(NCCCl)ccc3C2)CN1
     RDKit          3D

 63 66  0  0  1  0  0  0  0  0999 V2000
  123.9235  134.0425  162.1680 O   0  0  0  0  0  0  0  0  0  0  0  0
  125.0846  134.2619  161.8950 C   0  0  0  0  0  0  0  0  0  0  0  0
  125.9250  133.1217  161.3960 C   0  0  0  0  0  0  0  0  0  0  0  0
  127.4093  133.4727  161.5264 C   0  0  0  0  0  0  0  0  0  0  0  0
  127.6321  134.8665  160.9274 C   0  0  2  0  0  0  0  0  0  0  0  0
  127.2184  134.9018  159.9195 H   0  0  0  0  0  0  0  0  0  0  0  0
  129.0672  135.1574  160.8800 N   0  0  0  0  0  0  0  0  0  0  0  0
  129.8015  134.8163  159.7689 C   0  0  0  0  0  0  0  0  0  0  0  0
  129.1890  134.2020  158.7022 N   0  0  0  0  0  0  0  0  0  0  0  0
  129.9714  133.8385  157.5183 C   0  0  0  0  0  0  0  0  0  0  0  0
  129.0763  133.1051  156.4980 C   0  0  0  0  0  0  0  0  0  0  0  0
  130.0032  132.0222  155.8900 C   0  0  0  0  0  0  0  0  0  0  0  0
  130.8379  131.5610  157.1106 C   0  0  0  0  0  0  0  0  0  0  0  0
  131.0912  132.8574  157.9073 C   0  0  0  0  0  0  0  0  0  0  0  0
  131.0782  135.0752  159.7267 N   0  0  0  0  0  0  0  0  0  0  0  0
  131.5088  135.2552  158.8764 H   0  0  0  0  0  0  0  0  0  0  0  0
  131.8629  135.0945  160.9637 C   0  0  1  0  0  0  0  0  0  0  0  0
  131.2163  134.8717  161.8125 H   0  0  0  0  0  0  0  0  0  0  0  0
  132.9854  134.0522  160.8802 C   0  0  0  0  0  0  0  0  0  0  0  0
  133.6655  134.0217  162.1359 O   0  0  0  0  0  0  0  0  0  0  0  0
  134.0605  135.2054  162.6728 C   0  0  0  0  0  0  0  0  0  0  0  0
  135.0211  135.1886  163.6775 C   0  0  0  0  0  0  0  0  0  0  0  0
  135.4427  136.3749  164.2582 C   0  0  0  0  0  0  0  0  0  0  0  0
  136.4044  136.3563  165.2708 N   0  0  0  0  0  0  0  0  0  0  0  0
  137.1657  137.5690  165.5803 C   0  0  0  0  0  0  0  0  0  0  0  0
  138.1449  137.2794  166.7198 C   0  0  0  0  0  0  0  0  0  0  0  0
  139.2783  135.9693  166.2198 Cl  0  0  0  0  0  0  0  0  0  0  0  0
  134.9094  137.5833  163.8255 C   0  0  0  0  0  0  0  0  0  0  0  0
  133.9610  137.5971  162.8236 C   0  0  0  0  0  0  0  0  0  0  0  0
  133.5348  136.4125  162.2445 C   0  0  0  0  0  0  0  0  0  0  0  0
  132.5005  136.4736  161.1488 C   0  0  0  0  0  0  0  0  0  0  0  0
  126.9280  135.8999  161.8076 C   0  0  0  0  0  0  0  0  0  0  0  0
  125.5468  135.5025  162.0544 N   0  0  0  0  0  0  0  0  0  0  0  0
  125.6892  132.9291  160.3493 H   0  0  0  0  0  0  0  0  0  0  0  0
  125.7106  132.2303  161.9854 H   0  0  0  0  0  0  0  0  0  0  0  0
  128.0084  132.7405  160.9851 H   0  0  0  0  0  0  0  0  0  0  0  0
  127.6951  133.4753  162.5782 H   0  0  0  0  0  0  0  0  0  0  0  0
  129.4993  135.5907  161.6326 H   0  0  0  0  0  0  0  0  0  0  0  0
  128.2389  134.0095  158.7335 H   0  0  0  0  0  0  0  0  0  0  0  0
  130.3992  134.7326  157.0647 H   0  0  0  0  0  0  0  0  0  0  0  0
  128.2268  132.6417  156.9997 H   0  0  0  0  0  0  0  0  0  0  0  0
  128.7351  133.7939  155.7253 H   0  0  0  0  0  0  0  0  0  0  0  0
  130.6467  132.4523  155.1223 H   0  0  0  0  0  0  0  0  0  0  0  0
  129.4213  131.1945  155.4849 H   0  0  0  0  0  0  0  0  0  0  0  0
  131.7813  131.1233  156.7842 H   0  0  0  0  0  0  0  0  0  0  0  0
  130.2752  130.8474  157.7123 H   0  0  0  0  0  0  0  0  0  0  0  0
  132.0625  133.2752  157.6418 H   0  0  0  0  0  0  0  0  0  0  0  0
  131.0525  132.6520  158.9770 H   0  0  0  0  0  0  0  0  0  0  0  0
  132.5604  133.0710  160.6690 H   0  0  0  0  0  0  0  0  0  0  0  0
  133.6841  134.3276  160.0902 H   0  0  0  0  0  0  0  0  0  0  0  0
  135.4377  134.2489  164.0091 H   0  0  0  0  0  0  0  0  0  0  0  0
  136.5682  135.5403  165.7691 H   0  0  0  0  0  0  0  0  0  0  0  0
  136.4805  138.3609  165.8826 H   0  0  0  0  0  0  0  0  0  0  0  0
  137.7199  137.8856  164.6967 H   0  0  0  0  0  0  0  0  0  0  0  0
  137.5908  136.9628  167.6034 H   0  0  0  0  0  0  0  0  0  0  0  0
  138.7115  138.1817  166.9501 H   0  0  0  0  0  0  0  0  0  0  0  0
  135.2373  138.5099  164.2727 H   0  0  0  0  0  0  0  0  0  0  0  0
  133.5484  138.5372  162.4883 H   0  0  0  0  0  0  0  0  0  0  0  0
  131.7299  137.1964  161.4174 H   0  0  0  0  0  0  0  0  0  0  0  0
  132.9765  136.7811  160.2176 H   0  0  0  0  0  0  0  0  0  0  0  0
  127.4530  135.9800  162.7594 H   0  0  0  0  0  0  0  0  0  0  0  0
  126.9434  136.8688  161.3085 H   0  0  0  0  0  0  0  0  0  0  0  0
  124.9245  136.1849  162.3510 H   0  0  0  0  0  0  0  0  0  0  0  0
  1  2  2  0
  2 33  1  0
  2  3  1  0
  3  4  1  0
  3 34  1  0
  3 35  1  0
  4  5  1  0
  4 36  1  0
  4 37  1  0
  5  6  1  6
  5  7  1  0
  5 32  1  0
  7 38  1  0
  8  7  1  0
  8  9  1  0
  8 15  2  0
  9 10  1  0
  9 39  1  0
 10 14  1  0
 10 11  1  0
 10 40  1  0
 11 12  1  0
 11 41  1  0
 11 42  1  0
 12 13  1  0
 12 43  1  0
 12 44  1  0
 13 14  1  0
 13 45  1  0
 13 46  1  0
 14 47  1  0
 14 48  1  0
 15 16  1  0
 15 17  1  0
 17 18  1  1
 17 31  1  0
 17 19  1  0
 19 20  1  0
 19 49  1  0
 19 50  1  0
 20 21  1  0
 21 30  2  0
 21 22  1  0
 22 23  2  0
 22 51  1  0
 23 24  1  0
 23 28  1  0
 24 25  1  0
 24 52  1  0
 25 26  1  0
 25 53  1  0
 25 54  1  0
 26 27  1  0
 26 55  1  0
 26 56  1  0
 28 29  2  0
 28 57  1  0
 29 30  1  0
 29 58  1  0
 30 31  1  0
 31 59  1  0
 31 60  1  0
 32 33  1  0
 32 61  1  0
 32 62  1  0
 33 63  1  0
M  CHG  1  15   1
M  END
>  <DOCK_score>  (1) 
-49.438519

>  <SMILES>  (1) 
O=C1CC[C@H](NC(NC2CCCC2)=[NH+][C@H]2COc3cc(NCCCl)ccc3C2)CN1

$$$$
