C=CC=CSc1cccc(N2CC[NH+](C(c3ccccc3)c3ccccc3)CC2)c1C
     RDKit          3D

 62 65  0  0  1  0  0  0  0  0999 V2000
  137.2534  137.6836  167.4434 C   0  0  0  0  0  0  0  0  0  0  0  0
  137.1506  137.8875  166.1312 C   0  0  0  0  0  0  0  0  0  0  0  0
  136.4744  139.0871  165.6263 C   0  0  0  0  0  0  0  0  0  0  0  0
  136.3707  139.2926  164.3041 C   0  0  0  0  0  0  0  0  0  0  0  0
  135.5582  140.7336  163.6977 S   0  0  0  0  0  0  0  0  0  0  0  0
  134.9288  140.1116  162.1740 C   0  0  0  0  0  0  0  0  0  0  0  0
  135.3134  140.6950  160.9719 C   0  0  0  0  0  0  0  0  0  0  0  0
  134.8208  140.2075  159.7773 C   0  0  0  0  0  0  0  0  0  0  0  0
  133.9443  139.1391  159.7722 C   0  0  0  0  0  0  0  0  0  0  0  0
  133.5556  138.5511  160.9698 C   0  0  0  0  0  0  0  0  0  0  0  0
  132.6701  137.4710  160.9635 N   0  0  0  0  0  0  0  0  0  0  0  0
  133.2596  136.3108  160.2803 C   0  0  0  0  0  0  0  0  0  0  0  0
  132.2843  135.1335  160.3472 C   0  0  0  0  0  0  0  0  0  0  0  0
  131.0177  135.5097  159.7057 N   0  0  0  0  0  0  0  0  0  0  0  0
  131.1899  135.7621  158.7440 H   0  0  0  0  0  0  0  0  0  0  0  0
  130.0880  134.3733  159.7540 C   0  0  0  0  0  0  0  0  0  0  0  0
  128.7884  134.7590  159.0959 C   0  0  0  0  0  0  0  0  0  0  0  0
  127.6041  134.1807  159.5130 C   0  0  0  0  0  0  0  0  0  0  0  0
  126.4113  134.5381  158.9126 C   0  0  0  0  0  0  0  0  0  0  0  0
  126.4037  135.4661  157.8888 C   0  0  0  0  0  0  0  0  0  0  0  0
  127.5890  136.0406  157.4674 C   0  0  0  0  0  0  0  0  0  0  0  0
  128.7811  135.6869  158.0714 C   0  0  0  0  0  0  0  0  0  0  0  0
  130.6909  133.1997  159.0260 C   0  0  0  0  0  0  0  0  0  0  0  0
  130.4556  133.0299  157.6743 C   0  0  0  0  0  0  0  0  0  0  0  0
  131.0127  131.9560  157.0055 C   0  0  0  0  0  0  0  0  0  0  0  0
  131.7964  131.0462  157.6904 C   0  0  0  0  0  0  0  0  0  0  0  0
  132.0273  131.2132  159.0430 C   0  0  0  0  0  0  0  0  0  0  0  0
  131.4746  132.2899  159.7108 C   0  0  0  0  0  0  0  0  0  0  0  0
  130.4289  136.6540  160.4139 C   0  0  0  0  0  0  0  0  0  0  0  0
  131.3888  137.8439  160.3476 C   0  0  0  0  0  0  0  0  0  0  0  0
  134.0486  139.0381  162.1721 C   0  0  0  0  0  0  0  0  0  0  0  0
  133.6288  138.4034  163.4730 C   0  0  0  0  0  0  0  0  0  0  0  0
  137.7514  136.8004  167.8150 H   0  0  0  0  0  0  0  0  0  0  0  0
  136.8389  138.4016  168.1355 H   0  0  0  0  0  0  0  0  0  0  0  0
  137.5652  137.1696  165.4390 H   0  0  0  0  0  0  0  0  0  0  0  0
  136.0597  139.8050  166.3185 H   0  0  0  0  0  0  0  0  0  0  0  0
  136.7853  138.5747  163.6120 H   0  0  0  0  0  0  0  0  0  0  0  0
  135.9981  141.5302  160.9723 H   0  0  0  0  0  0  0  0  0  0  0  0
  135.1247  140.6595  158.8447 H   0  0  0  0  0  0  0  0  0  0  0  0
  133.5614  138.7601  158.8361 H   0  0  0  0  0  0  0  0  0  0  0  0
  133.4544  136.5628  159.2379 H   0  0  0  0  0  0  0  0  0  0  0  0
  134.1943  136.0369  160.7695 H   0  0  0  0  0  0  0  0  0  0  0  0
  132.1003  134.8729  161.3895 H   0  0  0  0  0  0  0  0  0  0  0  0
  132.7135  134.2762  159.8287 H   0  0  0  0  0  0  0  0  0  0  0  0
  129.9022  134.1000  160.7928 H   0  0  0  0  0  0  0  0  0  0  0  0
  127.6102  133.4524  160.3105 H   0  0  0  0  0  0  0  0  0  0  0  0
  125.4856  134.0889  159.2410 H   0  0  0  0  0  0  0  0  0  0  0  0
  125.4727  135.7420  157.4161 H   0  0  0  0  0  0  0  0  0  0  0  0
  127.5834  136.7652  156.6668 H   0  0  0  0  0  0  0  0  0  0  0  0
  129.7069  136.1355  157.7425 H   0  0  0  0  0  0  0  0  0  0  0  0
  129.8397  133.7382  157.1403 H   0  0  0  0  0  0  0  0  0  0  0  0
  130.8319  131.8253  155.9487 H   0  0  0  0  0  0  0  0  0  0  0  0
  132.2279  130.2048  157.1687 H   0  0  0  0  0  0  0  0  0  0  0  0
  132.6393  130.5022  159.5781 H   0  0  0  0  0  0  0  0  0  0  0  0
  131.6548  132.4202  160.7676 H   0  0  0  0  0  0  0  0  0  0  0  0
  130.2545  136.3857  161.4559 H   0  0  0  0  0  0  0  0  0  0  0  0
  129.4828  136.9239  159.9449 H   0  0  0  0  0  0  0  0  0  0  0  0
  130.9588  138.6886  160.8858 H   0  0  0  0  0  0  0  0  0  0  0  0
  131.5529  138.1212  159.3063 H   0  0  0  0  0  0  0  0  0  0  0  0
  134.3208  137.5997  163.7250 H   0  0  0  0  0  0  0  0  0  0  0  0
  133.6399  139.1537  164.2637 H   0  0  0  0  0  0  0  0  0  0  0  0
  132.6223  137.9978  163.3712 H   0  0  0  0  0  0  0  0  0  0  0  0
  1  2  2  0
  1 33  1  0
  1 34  1  0
  2  3  1  0
  2 35  1  0
  3  4  2  0
  3 36  1  0
  4  5  1  0
  4 37  1  0
  5  6  1  0
  6 31  2  0
  6  7  1  0
  7  8  2  0
  7 38  1  0
  8  9  1  0
  8 39  1  0
  9 10  2  0
  9 40  1  0
 10 11  1  0
 10 31  1  0
 11 30  1  0
 11 12  1  0
 12 13  1  0
 12 41  1  0
 12 42  1  0
 13 14  1  0
 13 43  1  0
 13 44  1  0
 14 15  1  0
 14 16  1  0
 14 29  1  0
 16 17  1  0
 16 23  1  0
 16 45  1  0
 17 22  1  0
 17 18  2  0
 18 19  1  0
 18 46  1  0
 19 20  2  0
 19 47  1  0
 20 21  1  0
 20 48  1  0
 21 22  2  0
 21 49  1  0
 22 50  1  0
 23 28  1  0
 23 24  2  0
 24 25  1  0
 24 51  1  0
 25 26  2  0
 25 52  1  0
 26 27  1  0
 26 53  1  0
 27 28  2  0
 27 54  1  0
 28 55  1  0
 29 30  1  0
 29 56  1  0
 29 57  1  0
 30 58  1  0
 30 59  1  0
 31 32  1  0
 32 60  1  0
 32 61  1  0
 32 62  1  0
M  CHG  1  14   1
M  END
>  <DOCK_score>  (1) 
-56.376507

>  <SMILES>  (1) 
C=CC=CSc1cccc(N2CC[NH+](C(c3ccccc3)c3ccccc3)CC2)c1C

$$$$
