Nc1ccc(-c2c[nH]c(Nc3cc(SC4CC4)c(N)cc3F)[nH+]2)cc1
     RDKit          3D

 44 47  0  0  1  0  0  0  0  0999 V2000
  131.2632  129.2666  151.8463 N   0  0  0  0  0  0  0  0  0  0  0  0
  131.0041  130.0074  153.0019 C   0  0  0  0  0  0  0  0  0  0  0  0
  130.1257  131.0842  152.9526 C   0  0  0  0  0  0  0  0  0  0  0  0
  129.8683  131.8175  154.0918 C   0  0  0  0  0  0  0  0  0  0  0  0
  130.4891  131.4784  155.2928 C   0  0  0  0  0  0  0  0  0  0  0  0
  130.2142  132.2662  156.5196 C   0  0  0  0  0  0  0  0  0  0  0  0
  129.6873  131.7874  157.6738 C   0  0  0  0  0  0  0  0  0  0  0  0
  129.5967  132.8496  158.5414 N   0  0  0  0  0  0  0  0  0  0  0  0
  129.2542  132.8231  159.4486 H   0  0  0  0  0  0  0  0  0  0  0  0
  130.0769  133.9454  157.8926 C   0  0  0  0  0  0  0  0  0  0  0  0
  130.1595  135.2234  158.4197 N   0  0  0  0  0  0  0  0  0  0  0  0
  129.2324  135.6456  159.3827 C   0  0  0  0  0  0  0  0  0  0  0  0
  127.9421  135.1334  159.3749 C   0  0  0  0  0  0  0  0  0  0  0  0
  127.0270  135.5481  160.3308 C   0  0  0  0  0  0  0  0  0  0  0  0
  125.3908  134.8943  160.3278 S   0  0  0  0  0  0  0  0  0  0  0  0
  125.6171  133.2311  159.6401 C   0  0  0  0  0  0  0  0  0  0  0  0
  125.4623  132.0451  160.5942 C   0  0  0  0  0  0  0  0  0  0  0  0
  126.8506  132.4437  160.0870 C   0  0  0  0  0  0  0  0  0  0  0  0
  127.4022  136.4869  161.2918 C   0  0  0  0  0  0  0  0  0  0  0  0
  126.4766  136.9122  162.2562 N   0  0  0  0  0  0  0  0  0  0  0  0
  128.6901  136.9998  161.2929 C   0  0  0  0  0  0  0  0  0  0  0  0
  129.6037  136.5810  160.3413 C   0  0  0  0  0  0  0  0  0  0  0  0
  130.8582  137.0825  160.3439 F   0  0  0  0  0  0  0  0  0  0  0  0
  130.4481  133.5916  156.6859 N   0  0  0  0  0  0  0  0  0  0  0  0
  130.8258  134.1842  156.0173 H   0  0  0  0  0  0  0  0  0  0  0  0
  131.3732  130.4016  155.3383 C   0  0  0  0  0  0  0  0  0  0  0  0
  131.6240  129.6681  154.1979 C   0  0  0  0  0  0  0  0  0  0  0  0
  130.8305  129.5030  151.0108 H   0  0  0  0  0  0  0  0  0  0  0  0
  131.8759  128.5153  151.8795 H   0  0  0  0  0  0  0  0  0  0  0  0
  129.6450  131.3466  152.0219 H   0  0  0  0  0  0  0  0  0  0  0  0
  129.1859  132.6538  154.0534 H   0  0  0  0  0  0  0  0  0  0  0  0
  129.3913  130.7679  157.8718 H   0  0  0  0  0  0  0  0  0  0  0  0
  130.8587  135.8264  158.1225 H   0  0  0  0  0  0  0  0  0  0  0  0
  127.6524  134.4097  158.6275 H   0  0  0  0  0  0  0  0  0  0  0  0
  125.2799  133.0974  158.6122 H   0  0  0  0  0  0  0  0  0  0  0  0
  125.2245  132.2642  161.6351 H   0  0  0  0  0  0  0  0  0  0  0  0
  125.0237  131.1310  160.1939 H   0  0  0  0  0  0  0  0  0  0  0  0
  127.3245  131.7918  159.3531 H   0  0  0  0  0  0  0  0  0  0  0  0
  127.5258  132.9251  160.7941 H   0  0  0  0  0  0  0  0  0  0  0  0
  126.7378  137.5653  162.9241 H   0  0  0  0  0  0  0  0  0  0  0  0
  125.5756  136.5531  162.2552 H   0  0  0  0  0  0  0  0  0  0  0  0
  128.9808  137.7265  162.0370 H   0  0  0  0  0  0  0  0  0  0  0  0
  131.8585  130.1396  156.2669 H   0  0  0  0  0  0  0  0  0  0  0  0
  132.3060  128.8314  154.2336 H   0  0  0  0  0  0  0  0  0  0  0  0
  1  2  1  0
  1 28  1  0
  1 29  1  0
  2 27  2  0
  2  3  1  0
  3  4  2  0
  3 30  1  0
  4  5  1  0
  4 31  1  0
  5  6  1  0
  5 26  2  0
  6 24  1  0
  6  7  2  0
  7  8  1  0
  7 32  1  0
  8  9  1  0
  8 10  1  0
 10 11  1  0
 10 24  2  0
 11 12  1  0
 11 33  1  0
 12 22  1  0
 12 13  2  0
 13 14  1  0
 13 34  1  0
 14 15  1  0
 14 19  2  0
 15 16  1  0
 16 18  1  0
 16 17  1  0
 16 35  1  0
 17 18  1  0
 17 36  1  0
 17 37  1  0
 18 38  1  0
 18 39  1  0
 19 20  1  0
 19 21  1  0
 20 40  1  0
 20 41  1  0
 21 22  2  0
 21 42  1  0
 22 23  1  0
 24 25  1  0
 26 27  1  0
 26 43  1  0
 27 44  1  0
M  CHG  1  24   1
M  END
>  <DOCK_score>  (1) 
-56.480606

>  <SMILES>  (1) 
Nc1ccc(-c2c[nH]c(Nc3cc(SC4CC4)c(N)cc3F)[nH+]2)cc1

$$$$
