Nc1ccc(-c2c[nH]c(Nc3cccc(N)c3-c3ccncc3)[nH+]2)cc1
     RDKit          3D

 45 48  0  0  1  0  0  0  0  0999 V2000
  131.0406  129.1141  150.8649 N   0  0  0  0  0  0  0  0  0  0  0  0
  130.9892  129.7193  152.1228 C   0  0  0  0  0  0  0  0  0  0  0  0
  130.2857  130.9057  152.2939 C   0  0  0  0  0  0  0  0  0  0  0  0
  130.2336  131.5048  153.5348 C   0  0  0  0  0  0  0  0  0  0  0  0
  130.8874  130.9198  154.6181 C   0  0  0  0  0  0  0  0  0  0  0  0
  130.8328  131.5625  155.9541 C   0  0  0  0  0  0  0  0  0  0  0  0
  130.3274  131.0106  157.0852 C   0  0  0  0  0  0  0  0  0  0  0  0
  130.4799  131.9408  158.0851 N   0  0  0  0  0  0  0  0  0  0  0  0
  130.2160  131.8360  159.0127 H   0  0  0  0  0  0  0  0  0  0  0  0
  131.0666  133.0377  157.5328 C   0  0  0  0  0  0  0  0  0  0  0  0
  131.3916  134.2041  158.2059 N   0  0  0  0  0  0  0  0  0  0  0  0
  131.7211  134.1590  159.5605 C   0  0  0  0  0  0  0  0  0  0  0  0
  133.0411  133.9789  159.9503 C   0  0  0  0  0  0  0  0  0  0  0  0
  133.3700  133.9340  161.2917 C   0  0  0  0  0  0  0  0  0  0  0  0
  132.3900  134.0668  162.2576 C   0  0  0  0  0  0  0  0  0  0  0  0
  131.0648  134.2471  161.8875 C   0  0  0  0  0  0  0  0  0  0  0  0
  130.0785  134.3812  162.8632 N   0  0  0  0  0  0  0  0  0  0  0  0
  130.7218  134.2944  160.5310 C   0  0  0  0  0  0  0  0  0  0  0  0
  129.3097  134.4804  160.1256 C   0  0  0  0  0  0  0  0  0  0  0  0
  128.3260  133.5606  160.5044 C   0  0  0  0  0  0  0  0  0  0  0  0
  127.0222  133.7755  160.1102 C   0  0  0  0  0  0  0  0  0  0  0  0
  126.7003  134.8244  159.3769 N   0  0  0  0  0  0  0  0  0  0  0  0
  127.5980  135.7125  158.9934 C   0  0  0  0  0  0  0  0  0  0  0  0
  128.9236  135.5779  159.3485 C   0  0  0  0  0  0  0  0  0  0  0  0
  131.2787  132.8061  156.2600 N   0  0  0  0  0  0  0  0  0  0  0  0
  131.6891  133.4255  155.6365 H   0  0  0  0  0  0  0  0  0  0  0  0
  131.5971  129.7329  154.4429 C   0  0  0  0  0  0  0  0  0  0  0  0
  131.6413  129.1339  153.2017 C   0  0  0  0  0  0  0  0  0  0  0  0
  130.5854  129.5218  150.1116 H   0  0  0  0  0  0  0  0  0  0  0  0
  131.5313  128.2861  150.7448 H   0  0  0  0  0  0  0  0  0  0  0  0
  129.7797  131.3588  151.4542 H   0  0  0  0  0  0  0  0  0  0  0  0
  129.6865  132.4265  153.6673 H   0  0  0  0  0  0  0  0  0  0  0  0
  129.8927  130.0267  157.1825 H   0  0  0  0  0  0  0  0  0  0  0  0
  131.3900  135.0523  157.7352 H   0  0  0  0  0  0  0  0  0  0  0  0
  133.8136  133.8739  159.2028 H   0  0  0  0  0  0  0  0  0  0  0  0
  134.3993  133.7940  161.5873 H   0  0  0  0  0  0  0  0  0  0  0  0
  132.6566  134.0303  163.3035 H   0  0  0  0  0  0  0  0  0  0  0  0
  129.1526  134.5074  162.6027 H   0  0  0  0  0  0  0  0  0  0  0  0
  130.3180  134.3481  163.8026 H   0  0  0  0  0  0  0  0  0  0  0  0
  128.5830  132.6974  161.1005 H   0  0  0  0  0  0  0  0  0  0  0  0
  126.2549  133.0736  160.4017 H   0  0  0  0  0  0  0  0  0  0  0  0
  127.2903  136.5563  158.3937 H   0  0  0  0  0  0  0  0  0  0  0  0
  129.6529  136.3085  159.0311 H   0  0  0  0  0  0  0  0  0  0  0  0
  132.1084  129.2804  155.2798 H   0  0  0  0  0  0  0  0  0  0  0  0
  132.1874  128.2121  153.0665 H   0  0  0  0  0  0  0  0  0  0  0  0
  1  2  1  0
  1 29  1  0
  1 30  1  0
  2 28  2  0
  2  3  1  0
  3  4  2  0
  3 31  1  0
  4  5  1  0
  4 32  1  0
  5  6  1  0
  5 27  2  0
  6 25  1  0
  6  7  2  0
  7  8  1  0
  7 33  1  0
  8  9  1  0
  8 10  1  0
 10 11  1  0
 10 25  2  0
 11 12  1  0
 11 34  1  0
 12 18  1  0
 12 13  2  0
 13 14  1  0
 13 35  1  0
 14 15  2  0
 14 36  1  0
 15 16  1  0
 15 37  1  0
 16 17  1  0
 16 18  2  0
 17 38  1  0
 17 39  1  0
 18 19  1  0
 19 24  1  0
 19 20  2  0
 20 21  1  0
 20 40  1  0
 21 22  2  0
 21 41  1  0
 22 23  1  0
 23 24  2  0
 23 42  1  0
 24 43  1  0
 25 26  1  0
 27 28  1  0
 27 44  1  0
 28 45  1  0
M  CHG  1  25   1
M  END
>  <DOCK_score>  (1) 
-58.486366

>  <SMILES>  (1) 
Nc1ccc(-c2c[nH]c(Nc3cccc(N)c3-c3ccncc3)[nH+]2)cc1

$$$$
