Fc1cccc(N2CC[NH+]([C@@H](c3ccccc3)c3ccccc3Cl)CC2)c1CC1=CCC=CC1
     RDKit          3D

 65 69  0  0  1  0  0  0  0  0999 V2000
  135.9758  141.2168  162.4442 F   0  0  0  0  0  0  0  0  0  0  0  0
  135.3989  140.6008  161.3893 C   0  0  0  0  0  0  0  0  0  0  0  0
  135.7101  140.9994  160.0996 C   0  0  0  0  0  0  0  0  0  0  0  0
  135.1210  140.3714  159.0182 C   0  0  0  0  0  0  0  0  0  0  0  0
  134.2197  139.3443  159.2202 C   0  0  0  0  0  0  0  0  0  0  0  0
  133.9051  138.9409  160.5116 C   0  0  0  0  0  0  0  0  0  0  0  0
  132.9947  137.9019  160.7179 N   0  0  0  0  0  0  0  0  0  0  0  0
  133.5031  136.6387  160.1649 C   0  0  0  0  0  0  0  0  0  0  0  0
  132.5061  135.5168  160.4635 C   0  0  0  0  0  0  0  0  0  0  0  0
  131.2056  135.8451  159.8646 N   0  0  0  0  0  0  0  0  0  0  0  0
  131.3134  135.9563  158.8676 H   0  0  0  0  0  0  0  0  0  0  0  0
  130.2539  134.7595  160.1360 C   0  0  1  0  0  0  0  0  0  0  0  0
  130.1379  134.6388  161.2131 H   0  0  0  0  0  0  0  0  0  0  0  0
  128.9196  135.0962  159.5217 C   0  0  0  0  0  0  0  0  0  0  0  0
  127.7548  134.6230  160.0965 C   0  0  0  0  0  0  0  0  0  0  0  0
  126.5307  134.9355  159.5356 C   0  0  0  0  0  0  0  0  0  0  0  0
  126.4718  135.7132  158.3942 C   0  0  0  0  0  0  0  0  0  0  0  0
  127.6367  136.1824  157.8167 C   0  0  0  0  0  0  0  0  0  0  0  0
  128.8607  135.8735  158.3801 C   0  0  0  0  0  0  0  0  0  0  0  0
  130.7721  133.4763  159.5395 C   0  0  0  0  0  0  0  0  0  0  0  0
  130.9993  133.3887  158.1788 C   0  0  0  0  0  0  0  0  0  0  0  0
  131.4796  132.2134  157.6323 C   0  0  0  0  0  0  0  0  0  0  0  0
  131.7223  131.1213  158.4445 C   0  0  0  0  0  0  0  0  0  0  0  0
  131.4906  131.2060  159.8043 C   0  0  0  0  0  0  0  0  0  0  0  0
  131.0151  132.3840  160.3528 C   0  0  0  0  0  0  0  0  0  0  0  0
  130.7233  132.4911  162.0607 Cl  0  0  0  0  0  0  0  0  0  0  0  0
  130.6994  137.0961  160.4446 C   0  0  0  0  0  0  0  0  0  0  0  0
  131.6814  138.2311  160.1459 C   0  0  0  0  0  0  0  0  0  0  0  0
  134.4975  139.5727  161.5974 C   0  0  0  0  0  0  0  0  0  0  0  0
  134.1633  139.1344  163.0000 C   0  0  0  0  0  0  0  0  0  0  0  0
  135.1156  138.0475  163.4272 C   0  0  0  0  0  0  0  0  0  0  0  0
  134.6299  136.8873  163.7489 C   0  0  0  0  0  0  0  0  0  0  0  0
  135.4893  135.7380  164.1818 C   0  0  0  0  0  0  0  0  0  0  0  0
  136.8318  136.2133  164.6500 C   0  0  0  0  0  0  0  0  0  0  0  0
  137.3170  137.3751  164.3334 C   0  0  0  0  0  0  0  0  0  0  0  0
  136.5825  138.3545  163.4682 C   0  0  0  0  0  0  0  0  0  0  0  0
  136.4138  141.8027  159.9387 H   0  0  0  0  0  0  0  0  0  0  0  0
  135.3657  140.6844  158.0140 H   0  0  0  0  0  0  0  0  0  0  0  0
  133.7601  138.8547  158.3743 H   0  0  0  0  0  0  0  0  0  0  0  0
  133.6273  136.7375  159.0866 H   0  0  0  0  0  0  0  0  0  0  0  0
  134.4641  136.4023  160.6218 H   0  0  0  0  0  0  0  0  0  0  0  0
  132.3926  135.4091  161.5422 H   0  0  0  0  0  0  0  0  0  0  0  0
  132.8745  134.5816  160.0417 H   0  0  0  0  0  0  0  0  0  0  0  0
  127.8011  134.0120  160.9858 H   0  0  0  0  0  0  0  0  0  0  0  0
  125.6205  134.5692  159.9870 H   0  0  0  0  0  0  0  0  0  0  0  0
  125.5156  135.9546  157.9541 H   0  0  0  0  0  0  0  0  0  0  0  0
  127.5907  136.7901  156.9250 H   0  0  0  0  0  0  0  0  0  0  0  0
  129.7709  136.2399  157.9287 H   0  0  0  0  0  0  0  0  0  0  0  0
  130.8054  134.2400  157.5431 H   0  0  0  0  0  0  0  0  0  0  0  0
  131.6615  132.1470  156.5698 H   0  0  0  0  0  0  0  0  0  0  0  0
  132.0933  130.2018  158.0164 H   0  0  0  0  0  0  0  0  0  0  0  0
  131.6802  130.3527  160.4387 H   0  0  0  0  0  0  0  0  0  0  0  0
  130.5952  136.9803  161.5234 H   0  0  0  0  0  0  0  0  0  0  0  0
  129.7285  137.3317  160.0090 H   0  0  0  0  0  0  0  0  0  0  0  0
  131.3135  139.1564  160.5891 H   0  0  0  0  0  0  0  0  0  0  0  0
  131.7757  138.3566  159.0673 H   0  0  0  0  0  0  0  0  0  0  0  0
  134.2538  139.9837  163.6773 H   0  0  0  0  0  0  0  0  0  0  0  0
  133.1420  138.7545  163.0283 H   0  0  0  0  0  0  0  0  0  0  0  0
  133.5609  136.7428  163.6987 H   0  0  0  0  0  0  0  0  0  0  0  0
  135.6248  135.0535  163.3444 H   0  0  0  0  0  0  0  0  0  0  0  0
  134.9926  135.2114  164.9967 H   0  0  0  0  0  0  0  0  0  0  0  0
  137.4207  135.5612  165.2781 H   0  0  0  0  0  0  0  0  0  0  0  0
  138.2919  137.6479  164.7097 H   0  0  0  0  0  0  0  0  0  0  0  0
  136.9852  138.3098  162.4564 H   0  0  0  0  0  0  0  0  0  0  0  0
  136.7262  139.3591  163.8659 H   0  0  0  0  0  0  0  0  0  0  0  0
  1  2  1  0
  2 29  2  0
  2  3  1  0
  3  4  2  0
  3 37  1  0
  4  5  1  0
  4 38  1  0
  5  6  2  0
  5 39  1  0
  6  7  1  0
  6 29  1  0
  7 28  1  0
  7  8  1  0
  8  9  1  0
  8 40  1  0
  8 41  1  0
  9 10  1  0
  9 42  1  0
  9 43  1  0
 10 11  1  0
 10 12  1  0
 10 27  1  0
 12 13  1  1
 12 14  1  0
 12 20  1  0
 14 19  1  0
 14 15  2  0
 15 16  1  0
 15 44  1  0
 16 17  2  0
 16 45  1  0
 17 18  1  0
 17 46  1  0
 18 19  2  0
 18 47  1  0
 19 48  1  0
 20 25  1  0
 20 21  2  0
 21 22  1  0
 21 49  1  0
 22 23  2  0
 22 50  1  0
 23 24  1  0
 23 51  1  0
 24 25  2  0
 24 52  1  0
 25 26  1  0
 27 28  1  0
 27 53  1  0
 27 54  1  0
 28 55  1  0
 28 56  1  0
 29 30  1  0
 30 31  1  0
 30 57  1  0
 30 58  1  0
 31 36  1  0
 31 32  2  0
 32 33  1  0
 32 59  1  0
 33 34  1  0
 33 60  1  0
 33 61  1  0
 34 35  2  0
 34 62  1  0
 35 36  1  0
 35 63  1  0
 36 64  1  0
 36 65  1  0
M  CHG  1  10   1
M  END
>  <DOCK_score>  (1) 
-59.948574

>  <SMILES>  (1) 
Fc1cccc(N2CC[NH+]([C@@H](c3ccccc3)c3ccccc3Cl)CC2)c1CC1=CCC=CC1

$$$$
