Cc1ccc2c(c1)C[C@H]([NH+]=C(NC1CCC(=O)NC1)NC1COc3cc(Cl)ccc3C1)CO2
     RDKit          3D

 63 67  0  0  1  0  0  0  0  0999 V2000
  137.6753  135.8999  163.9295 C   0  0  0  0  0  0  0  0  0  0  0  0
  136.5862  136.5937  163.1529 C   0  0  0  0  0  0  0  0  0  0  0  0
  136.6023  137.9699  163.0179 C   0  0  0  0  0  0  0  0  0  0  0  0
  135.6035  138.6044  162.3083 C   0  0  0  0  0  0  0  0  0  0  0  0
  134.5786  137.8641  161.7274 C   0  0  0  0  0  0  0  0  0  0  0  0
  134.5674  136.4867  161.8609 C   0  0  0  0  0  0  0  0  0  0  0  0
  135.5748  135.8550  162.5708 C   0  0  0  0  0  0  0  0  0  0  0  0
  133.4815  135.6460  161.2383 C   0  0  0  0  0  0  0  0  0  0  0  0
  132.2775  136.5284  160.8990 C   0  0  2  0  0  0  0  0  0  0  0  0
  131.7732  136.8305  161.8169 H   0  0  0  0  0  0  0  0  0  0  0  0
  131.3469  135.7864  160.0446 N   0  0  0  0  0  0  0  0  0  0  0  0
  131.6407  135.4533  159.1824 H   0  0  0  0  0  0  0  0  0  0  0  0
  130.1243  135.5741  160.4432 C   0  0  0  0  0  0  0  0  0  0  0  0
  129.5056  136.4776  161.2746 N   0  0  0  0  0  0  0  0  0  0  0  0
  128.4906  136.0206  162.2272 C   0  0  1  0  0  0  0  0  0  0  0  0
  128.9300  136.3703  163.6541 C   0  0  0  0  0  0  0  0  0  0  0  0
  127.9480  135.7244  164.6346 C   0  0  0  0  0  0  0  0  0  0  0  0
  126.5371  136.0304  164.2210 C   0  0  0  0  0  0  0  0  0  0  0  0
  125.6543  135.8828  165.0393 O   0  0  0  0  0  0  0  0  0  0  0  0
  126.2031  136.4563  163.0023 N   0  0  0  0  0  0  0  0  0  0  0  0
  127.1619  136.7188  161.9353 C   0  0  0  0  0  0  0  0  0  0  0  0
  129.4533  134.4466  160.0323 N   0  0  0  0  0  0  0  0  0  0  0  0
  130.1126  133.4840  159.1464 C   0  0  1  0  0  0  0  0  0  0  0  0
  129.5444  132.0806  159.3936 C   0  0  0  0  0  0  0  0  0  0  0  0
  130.2755  131.1509  158.5928 O   0  0  0  0  0  0  0  0  0  0  0  0
  130.4500  131.4449  157.2780 C   0  0  0  0  0  0  0  0  0  0  0  0
  130.8267  130.4220  156.4135 C   0  0  0  0  0  0  0  0  0  0  0  0
  131.0179  130.6822  155.0710 C   0  0  0  0  0  0  0  0  0  0  0  0
  131.4875  129.4023  153.9962 Cl  0  0  0  0  0  0  0  0  0  0  0  0
  130.8353  131.9645  154.5831 C   0  0  0  0  0  0  0  0  0  0  0  0
  130.4603  132.9811  155.4390 C   0  0  0  0  0  0  0  0  0  0  0  0
  130.2648  132.7251  156.7861 C   0  0  0  0  0  0  0  0  0  0  0  0
  129.8464  133.8598  157.6866 C   0  0  0  0  0  0  0  0  0  0  0  0
  132.7848  137.7701  160.1549 C   0  0  0  0  0  0  0  0  0  0  0  0
  133.6072  138.5250  161.0456 O   0  0  0  0  0  0  0  0  0  0  0  0
  137.3826  135.8233  164.9767 H   0  0  0  0  0  0  0  0  0  0  0  0
  138.5991  136.4732  163.8513 H   0  0  0  0  0  0  0  0  0  0  0  0
  137.8322  134.9011  163.5222 H   0  0  0  0  0  0  0  0  0  0  0  0
  137.3960  138.5478  163.4680 H   0  0  0  0  0  0  0  0  0  0  0  0
  135.6175  139.6792  162.2030 H   0  0  0  0  0  0  0  0  0  0  0  0
  135.5672  134.7800  162.6735 H   0  0  0  0  0  0  0  0  0  0  0  0
  133.8595  135.1821  160.3273 H   0  0  0  0  0  0  0  0  0  0  0  0
  133.1763  134.8701  161.9402 H   0  0  0  0  0  0  0  0  0  0  0  0
  129.7410  137.4175  161.2304 H   0  0  0  0  0  0  0  0  0  0  0  0
  128.3644  134.9416  162.1375 H   0  0  0  0  0  0  0  0  0  0  0  0
  129.9341  135.9861  163.8336 H   0  0  0  0  0  0  0  0  0  0  0  0
  128.9216  137.4523  163.7858 H   0  0  0  0  0  0  0  0  0  0  0  0
  128.0980  134.6448  164.6388 H   0  0  0  0  0  0  0  0  0  0  0  0
  128.1251  136.1170  165.6359 H   0  0  0  0  0  0  0  0  0  0  0  0
  125.2627  136.5981  162.8121 H   0  0  0  0  0  0  0  0  0  0  0  0
  127.3283  137.7933  161.8599 H   0  0  0  0  0  0  0  0  0  0  0  0
  126.7622  136.3520  160.9898 H   0  0  0  0  0  0  0  0  0  0  0  0
  128.5434  134.2886  160.3289 H   0  0  0  0  0  0  0  0  0  0  0  0
  131.1859  133.4846  159.3368 H   0  0  0  0  0  0  0  0  0  0  0  0
  129.6516  131.8213  160.4469 H   0  0  0  0  0  0  0  0  0  0  0  0
  128.4909  132.0567  159.1151 H   0  0  0  0  0  0  0  0  0  0  0  0
  130.9699  129.4213  156.7937 H   0  0  0  0  0  0  0  0  0  0  0  0
  130.9858  132.1698  153.5336 H   0  0  0  0  0  0  0  0  0  0  0  0
  130.3184  133.9809  155.0560 H   0  0  0  0  0  0  0  0  0  0  0  0
  128.7831  134.0574  157.5510 H   0  0  0  0  0  0  0  0  0  0  0  0
  130.4162  134.7535  157.4324 H   0  0  0  0  0  0  0  0  0  0  0  0
  133.3686  137.4647  159.2864 H   0  0  0  0  0  0  0  0  0  0  0  0
  131.9382  138.3765  159.8330 H   0  0  0  0  0  0  0  0  0  0  0  0
  1  2  1  0
  1 36  1  0
  1 37  1  0
  1 38  1  0
  2  7  2  0
  2  3  1  0
  3  4  2  0
  3 39  1  0
  4  5  1  0
  4 40  1  0
  5 35  1  0
  5  6  2  0
  6  7  1  0
  6  8  1  0
  7 41  1  0
  8  9  1  0
  8 42  1  0
  8 43  1  0
  9 10  1  1
  9 11  1  0
  9 34  1  0
 11 12  1  0
 13 11  2  0
 13 14  1  0
 13 22  1  0
 14 15  1  0
 14 44  1  0
 15 21  1  0
 15 16  1  0
 15 45  1  1
 16 17  1  0
 16 46  1  0
 16 47  1  0
 17 18  1  0
 17 48  1  0
 17 49  1  0
 18 19  2  0
 18 20  1  0
 20 21  1  0
 20 50  1  0
 21 51  1  0
 21 52  1  0
 22 23  1  0
 22 53  1  0
 23 33  1  0
 23 24  1  0
 23 54  1  6
 24 25  1  0
 24 55  1  0
 24 56  1  0
 25 26  1  0
 26 32  2  0
 26 27  1  0
 27 28  2  0
 27 57  1  0
 28 29  1  0
 28 30  1  0
 30 31  2  0
 30 58  1  0
 31 32  1  0
 31 59  1  0
 32 33  1  0
 33 60  1  0
 33 61  1  0
 34 35  1  0
 34 62  1  0
 34 63  1  0
M  CHG  1  11   1
M  END
>  <DOCK_score>  (1) 
-50.077301

>  <SMILES>  (1) 
Cc1ccc2c(c1)C[C@H]([NH+]=C(NC1CCC(=O)NC1)NC1COc3cc(Cl)ccc3C1)CO2

$$$$
