C[C@H](Nc1cc(Nc2[nH]cc(-c3cccnc3)[nH+]2)ccn1)c1ccccc1
     RDKit          3D

 48 51  0  0  1  0  0  0  0  0999 V2000
  127.4658  137.4427  164.2801 C   0  0  0  0  0  0  0  0  0  0  0  0
  127.5527  138.3947  163.0854 C   0  0  2  0  0  0  0  0  0  0  0  0
  126.6044  138.3908  162.5481 H   0  0  0  0  0  0  0  0  0  0  0  0
  128.6243  137.9557  162.1881 N   0  0  0  0  0  0  0  0  0  0  0  0
  128.3471  137.0624  161.1594 C   0  0  0  0  0  0  0  0  0  0  0  0
  129.3689  136.6464  160.3165 C   0  0  0  0  0  0  0  0  0  0  0  0
  129.0773  135.7477  159.2954 C   0  0  0  0  0  0  0  0  0  0  0  0
  130.0736  135.3054  158.4274 N   0  0  0  0  0  0  0  0  0  0  0  0
  129.9903  134.0425  157.8629 C   0  0  0  0  0  0  0  0  0  0  0  0
  129.4035  132.9555  158.4348 N   0  0  0  0  0  0  0  0  0  0  0  0
  128.9723  132.9258  159.3032 H   0  0  0  0  0  0  0  0  0  0  0  0
  129.5323  131.9098  157.5545 C   0  0  0  0  0  0  0  0  0  0  0  0
  130.2013  132.3846  156.4742 C   0  0  0  0  0  0  0  0  0  0  0  0
  130.5740  131.6072  155.2671 C   0  0  0  0  0  0  0  0  0  0  0  0
  130.0992  131.9814  154.0065 C   0  0  0  0  0  0  0  0  0  0  0  0
  130.4796  131.2259  152.9111 C   0  0  0  0  0  0  0  0  0  0  0  0
  131.3016  130.1293  153.0980 C   0  0  0  0  0  0  0  0  0  0  0  0
  131.7300  129.7975  154.3004 N   0  0  0  0  0  0  0  0  0  0  0  0
  131.3983  130.4887  155.3718 C   0  0  0  0  0  0  0  0  0  0  0  0
  130.4686  133.6962  156.6929 N   0  0  0  0  0  0  0  0  0  0  0  0
  130.9389  134.2839  156.0811 H   0  0  0  0  0  0  0  0  0  0  0  0
  127.7610  135.3000  159.1615 C   0  0  0  0  0  0  0  0  0  0  0  0
  126.8020  135.7588  160.0374 C   0  0  0  0  0  0  0  0  0  0  0  0
  127.1114  136.6124  160.9968 N   0  0  0  0  0  0  0  0  0  0  0  0
  127.8470  139.7893  163.5748 C   0  0  0  0  0  0  0  0  0  0  0  0
  128.5647  140.6636  162.7801 C   0  0  0  0  0  0  0  0  0  0  0  0
  128.8310  141.9442  163.2270 C   0  0  0  0  0  0  0  0  0  0  0  0
  128.3873  142.3479  164.4722 C   0  0  0  0  0  0  0  0  0  0  0  0
  127.6742  141.4718  165.2694 C   0  0  0  0  0  0  0  0  0  0  0  0
  127.4043  140.1925  164.8206 C   0  0  0  0  0  0  0  0  0  0  0  0
  127.2529  136.4341  163.9261 H   0  0  0  0  0  0  0  0  0  0  0  0
  128.4142  137.4467  164.8175 H   0  0  0  0  0  0  0  0  0  0  0  0
  126.6686  137.7694  164.9478 H   0  0  0  0  0  0  0  0  0  0  0  0
  129.5270  138.2882  162.3116 H   0  0  0  0  0  0  0  0  0  0  0  0
  130.3750  137.0151  160.4513 H   0  0  0  0  0  0  0  0  0  0  0  0
  130.8254  135.8814  158.2182 H   0  0  0  0  0  0  0  0  0  0  0  0
  129.1741  130.9009  157.6970 H   0  0  0  0  0  0  0  0  0  0  0  0
  129.4551  132.8405  153.8901 H   0  0  0  0  0  0  0  0  0  0  0  0
  130.1349  131.4874  151.9215 H   0  0  0  0  0  0  0  0  0  0  0  0
  131.5975  129.5354  152.2457 H   0  0  0  0  0  0  0  0  0  0  0  0
  131.7690  130.1859  156.3400 H   0  0  0  0  0  0  0  0  0  0  0  0
  127.4979  134.6024  158.3800 H   0  0  0  0  0  0  0  0  0  0  0  0
  125.7828  135.4156  159.9384 H   0  0  0  0  0  0  0  0  0  0  0  0
  128.9146  140.3470  161.8085 H   0  0  0  0  0  0  0  0  0  0  0  0
  129.3880  142.6286  162.6043 H   0  0  0  0  0  0  0  0  0  0  0  0
  128.5976  143.3473  164.8232 H   0  0  0  0  0  0  0  0  0  0  0  0
  127.3276  141.7872  166.2425 H   0  0  0  0  0  0  0  0  0  0  0  0
  126.8470  139.5083  165.4433 H   0  0  0  0  0  0  0  0  0  0  0  0
  1  2  1  0
  1 31  1  0
  1 32  1  0
  1 33  1  0
  2  3  1  6
  2  4  1  0
  2 25  1  0
  4  5  1  0
  4 34  1  0
  5 24  1  0
  5  6  2  0
  6  7  1  0
  6 35  1  0
  7  8  1  0
  7 22  2  0
  8 36  1  0
  9  8  1  0
  9 20  2  0
  9 10  1  0
 10 11  1  0
 10 12  1  0
 12 13  2  0
 12 37  1  0
 13 14  1  0
 13 20  1  0
 14 19  1  0
 14 15  2  0
 15 16  1  0
 15 38  1  0
 16 17  2  0
 16 39  1  0
 17 18  1  0
 17 40  1  0
 18 19  2  0
 19 41  1  0
 20 21  1  0
 22 23  1  0
 22 42  1  0
 23 24  2  0
 23 43  1  0
 25 30  1  0
 25 26  2  0
 26 27  1  0
 26 44  1  0
 27 28  2  0
 27 45  1  0
 28 29  1  0
 28 46  1  0
 29 30  2  0
 29 47  1  0
 30 48  1  0
M  CHG  1  20   1
M  END
>  <DOCK_score>  (1) 
-51.912762

>  <SMILES>  (1) 
C[C@H](Nc1cc(Nc2[nH]cc(-c3cccnc3)[nH+]2)ccn1)c1ccccc1

$$$$
