C/C=C/C(C)[NH2+]C1=CCC[C@@H]1Nc1cccc(O)c1
     RDKit          3D

 42 43  0  0  1  0  0  0  0  0999 V2000
  130.9221  131.8514  154.3670 C   0  0  0  0  0  0  0  0  0  0  0  0
  130.9929  132.4000  155.7688 C   0  0  0  0  0  0  0  0  0  0  0  0
  130.0391  132.1325  156.6259 C   0  0  0  0  0  0  0  0  0  0  0  0
  130.1099  132.6811  158.0276 C   0  0  1  0  0  0  0  0  0  0  0  0
  131.3775  132.1670  158.7130 C   0  0  0  0  0  0  0  0  0  0  0  0
  130.1409  134.1489  157.9781 N   0  0  0  0  0  0  0  0  0  0  0  0
  129.5063  134.4749  157.2646 H   0  0  0  0  0  0  0  0  0  0  0  0
  131.0768  134.4585  157.7629 H   0  0  0  0  0  0  0  0  0  0  0  0
  129.7531  134.6653  159.2181 C   0  0  0  0  0  0  0  0  0  0  0  0
  128.5222  134.9487  159.5474 C   0  0  0  0  0  0  0  0  0  0  0  0
  128.4467  135.4888  160.9566 C   0  0  0  0  0  0  0  0  0  0  0  0
  129.9018  135.8855  161.3060 C   0  0  0  0  0  0  0  0  0  0  0  0
  130.7036  134.9692  160.3526 C   0  0  2  0  0  0  0  0  0  0  0  0
  130.9920  134.0501  160.8628 H   0  0  0  0  0  0  0  0  0  0  0  0
  131.8898  135.6675  159.8513 N   0  0  0  0  0  0  0  0  0  0  0  0
  132.9031  136.0456  160.7353 C   0  0  0  0  0  0  0  0  0  0  0  0
  133.1440  135.2952  161.8797 C   0  0  0  0  0  0  0  0  0  0  0  0
  134.1426  135.6721  162.7562 C   0  0  0  0  0  0  0  0  0  0  0  0
  134.9122  136.7896  162.4920 C   0  0  0  0  0  0  0  0  0  0  0  0
  134.6761  137.5428  161.3507 C   0  0  0  0  0  0  0  0  0  0  0  0
  135.4296  138.6446  161.0955 O   0  0  0  0  0  0  0  0  0  0  0  0
  133.6712  137.1711  160.4713 C   0  0  0  0  0  0  0  0  0  0  0  0
  130.0189  132.2177  153.8787 H   0  0  0  0  0  0  0  0  0  0  0  0
  131.7970  132.1775  153.8045 H   0  0  0  0  0  0  0  0  0  0  0  0
  130.8990  130.7623  154.4037 H   0  0  0  0  0  0  0  0  0  0  0  0
  131.8301  133.0138  156.0668 H   0  0  0  0  0  0  0  0  0  0  0  0
  129.2019  131.5188  156.3280 H   0  0  0  0  0  0  0  0  0  0  0  0
  129.2350  132.3550  158.5901 H   0  0  0  0  0  0  0  0  0  0  0  0
  131.3622  132.4507  159.7654 H   0  0  0  0  0  0  0  0  0  0  0  0
  131.4204  131.0810  158.6302 H   0  0  0  0  0  0  0  0  0  0  0  0
  132.2531  132.6030  158.2319 H   0  0  0  0  0  0  0  0  0  0  0  0
  127.6697  134.8150  158.8979 H   0  0  0  0  0  0  0  0  0  0  0  0
  127.7948  136.3615  160.9944 H   0  0  0  0  0  0  0  0  0  0  0  0
  128.0886  134.7186  161.6397 H   0  0  0  0  0  0  0  0  0  0  0  0
  130.1307  135.6621  162.3479 H   0  0  0  0  0  0  0  0  0  0  0  0
  130.0844  136.9369  161.0836 H   0  0  0  0  0  0  0  0  0  0  0  0
  131.9717  135.8673  158.9057 H   0  0  0  0  0  0  0  0  0  0  0  0
  132.5470  134.4191  162.0862 H   0  0  0  0  0  0  0  0  0  0  0  0
  134.3252  135.0905  163.6477 H   0  0  0  0  0  0  0  0  0  0  0  0
  135.6951  137.0793  163.1771 H   0  0  0  0  0  0  0  0  0  0  0  0
  135.1912  139.1035  160.2784 H   0  0  0  0  0  0  0  0  0  0  0  0
  133.4859  137.7564  159.5827 H   0  0  0  0  0  0  0  0  0  0  0  0
  1  2  1  0
  1 23  1  0
  1 24  1  0
  1 25  1  0
  2  3  2  0
  2 26  1  0
  3  4  1  0
  3 27  1  0
  4  5  1  0
  4  6  1  0
  4 28  1  1
  5 29  1  0
  5 30  1  0
  5 31  1  0
  6  7  1  0
  6  8  1  0
  6  9  1  0
  9 13  1  0
  9 10  2  0
 10 11  1  0
 10 32  1  0
 11 12  1  0
 11 33  1  0
 11 34  1  0
 12 13  1  0
 12 35  1  0
 12 36  1  0
 13 14  1  1
 13 15  1  0
 15 16  1  0
 15 37  1  0
 16 22  1  0
 16 17  2  0
 17 18  1  0
 17 38  1  0
 18 19  2  0
 18 39  1  0
 19 20  1  0
 19 40  1  0
 20 21  1  0
 20 22  2  0
 21 41  1  0
 22 42  1  0
M  CHG  1   6   1
M  END
>  <DOCK_score>  (1) 
-42.304855

>  <SMILES>  (1) 
C/C=C/C(C)[NH2+]C1=CCC[C@@H]1Nc1cccc(O)c1

$$$$
