Cc1n[nH]cc1C[NH2+]Cc1c[nH]nc1-c1ccc(Nc2ccc(-c3n[nH]cc3Br)cc2)o1
     RDKit          3D

 54 58  0  0  0  0  0  0  0  0999 V2000
  133.9493  139.3806  158.8371 C   0  0  0  0  0  0  0  0  0  0  0  0
  133.9365  138.8000  160.2277 C   0  0  0  0  0  0  0  0  0  0  0  0
  134.9708  138.6852  161.0208 N   0  0  0  0  0  0  0  0  0  0  0  0
  134.5415  138.0980  162.2178 N   0  0  0  0  0  0  0  0  0  0  0  0
  135.0982  137.8944  162.9855 H   0  0  0  0  0  0  0  0  0  0  0  0
  133.2151  137.8702  162.1163 C   0  0  0  0  0  0  0  0  0  0  0  0
  132.8169  138.2902  160.8933 C   0  0  0  0  0  0  0  0  0  0  0  0
  131.4138  138.2259  160.3471 C   0  0  0  0  0  0  0  0  0  0  0  0
  131.2188  136.9494  159.6468 N   0  0  0  0  0  0  0  0  0  0  0  0
  131.8790  136.8782  158.8872 H   0  0  0  0  0  0  0  0  0  0  0  0
  130.2795  136.9064  159.2812 H   0  0  0  0  0  0  0  0  0  0  0  0
  131.4304  135.8391  160.5851 C   0  0  0  0  0  0  0  0  0  0  0  0
  131.2303  134.5295  159.8669 C   0  0  0  0  0  0  0  0  0  0  0  0
  132.1847  133.8185  159.2290 C   0  0  0  0  0  0  0  0  0  0  0  0
  131.6069  132.7129  158.7111 N   0  0  0  0  0  0  0  0  0  0  0  0
  132.0563  132.0234  158.1978 H   0  0  0  0  0  0  0  0  0  0  0  0
  130.2462  132.7343  159.0430 N   0  0  0  0  0  0  0  0  0  0  0  0
  130.0132  133.8268  159.7434 C   0  0  0  0  0  0  0  0  0  0  0  0
  128.7079  134.2442  160.2955 C   0  0  0  0  0  0  0  0  0  0  0  0
  127.5362  133.5669  160.1687 C   0  0  0  0  0  0  0  0  0  0  0  0
  126.5546  134.3191  160.8427 C   0  0  0  0  0  0  0  0  0  0  0  0
  127.1734  135.4161  161.3468 C   0  0  0  0  0  0  0  0  0  0  0  0
  126.5648  136.4245  162.0851 N   0  0  0  0  0  0  0  0  0  0  0  0
  127.2967  137.1258  163.0451 C   0  0  0  0  0  0  0  0  0  0  0  0
  126.9793  138.4491  163.3303 C   0  0  0  0  0  0  0  0  0  0  0  0
  127.7047  139.1449  164.2739 C   0  0  0  0  0  0  0  0  0  0  0  0
  128.7504  138.5179  164.9494 C   0  0  0  0  0  0  0  0  0  0  0  0
  129.5291  139.2635  165.9688 C   0  0  0  0  0  0  0  0  0  0  0  0
  129.6421  138.9463  167.2415 N   0  0  0  0  0  0  0  0  0  0  0  0
  130.4624  139.9004  167.8571 N   0  0  0  0  0  0  0  0  0  0  0  0
  130.7177  139.9128  168.7927 H   0  0  0  0  0  0  0  0  0  0  0  0
  130.8319  140.8033  166.9225 C   0  0  0  0  0  0  0  0  0  0  0  0
  130.2731  140.4393  165.7471 C   0  0  0  0  0  0  0  0  0  0  0  0
  130.4570  141.3464  164.0982 Br  0  0  0  0  0  0  0  0  0  0  0  0
  129.0671  137.1912  164.6620 C   0  0  0  0  0  0  0  0  0  0  0  0
  128.3426  136.5002  163.7144 C   0  0  0  0  0  0  0  0  0  0  0  0
  128.4730  135.3667  161.0070 O   0  0  0  0  0  0  0  0  0  0  0  0
  133.7584  140.4525  158.8892 H   0  0  0  0  0  0  0  0  0  0  0  0
  134.9234  139.2069  158.3799 H   0  0  0  0  0  0  0  0  0  0  0  0
  133.1755  138.9025  158.2365 H   0  0  0  0  0  0  0  0  0  0  0  0
  132.5850  137.4292  162.8746 H   0  0  0  0  0  0  0  0  0  0  0  0
  131.2569  139.0499  159.6509 H   0  0  0  0  0  0  0  0  0  0  0  0
  130.7006  138.3029  161.1677 H   0  0  0  0  0  0  0  0  0  0  0  0
  130.7172  135.9160  161.4059 H   0  0  0  0  0  0  0  0  0  0  0  0
  132.4454  135.8854  160.9801 H   0  0  0  0  0  0  0  0  0  0  0  0
  133.2269  134.0887  159.1441 H   0  0  0  0  0  0  0  0  0  0  0  0
  127.3867  132.6311  159.6504 H   0  0  0  0  0  0  0  0  0  0  0  0
  125.5082  134.0703  160.9394 H   0  0  0  0  0  0  0  0  0  0  0  0
  125.6314  136.6409  161.9333 H   0  0  0  0  0  0  0  0  0  0  0  0
  126.1669  138.9335  162.8091 H   0  0  0  0  0  0  0  0  0  0  0  0
  127.4607  140.1741  164.4918 H   0  0  0  0  0  0  0  0  0  0  0  0
  131.4628  141.6645  167.0858 H   0  0  0  0  0  0  0  0  0  0  0  0
  129.8799  136.7050  165.1812 H   0  0  0  0  0  0  0  0  0  0  0  0
  128.5877  135.4722  163.4915 H   0  0  0  0  0  0  0  0  0  0  0  0
  1  2  1  0
  1 38  1  0
  1 39  1  0
  1 40  1  0
  2  7  1  0
  2  3  2  0
  3  4  1  0
  4  5  1  0
  4  6  1  0
  6  7  2  0
  6 41  1  0
  7  8  1  0
  8  9  1  0
  8 42  1  0
  8 43  1  0
  9 10  1  0
  9 11  1  0
  9 12  1  0
 12 13  1  0
 12 44  1  0
 12 45  1  0
 13 18  1  0
 13 14  2  0
 14 15  1  0
 14 46  1  0
 15 16  1  0
 15 17  1  0
 17 18  2  0
 18 19  1  0
 19 37  1  0
 19 20  2  0
 20 21  1  0
 20 47  1  0
 21 22  2  0
 21 48  1  0
 22 23  1  0
 22 37  1  0
 23 24  1  0
 23 49  1  0
 24 36  1  0
 24 25  2  0
 25 26  1  0
 25 50  1  0
 26 27  2  0
 26 51  1  0
 27 28  1  0
 27 35  1  0
 28 33  1  0
 28 29  2  0
 29 30  1  0
 30 31  1  0
 30 32  1  0
 32 33  2  0
 32 52  1  0
 33 34  1  0
 35 36  2  0
 35 53  1  0
 36 54  1  0
M  CHG  1   9   1
M  END
>  <DOCK_score>  (1) 
-42.872536

>  <SMILES>  (1) 
Cc1n[nH]cc1C[NH2+]Cc1c[nH]nc1-c1ccc(Nc2ccc(-c3n[nH]cc3Br)cc2)o1

$$$$
