Cc1cc(N)ccc1Nc1[nH]cc(N[C@H]2COc3cc(O)ccc3C2)[nH+]1
     RDKit          3D

 48 51  0  0  1  0  0  0  0  0999 V2000
  135.7858  138.8520  160.6907 C   0  0  0  0  0  0  0  0  0  0  0  0
  135.0376  139.5488  161.7977 C   0  0  0  0  0  0  0  0  0  0  0  0
  135.7042  139.9391  162.9425 C   0  0  0  0  0  0  0  0  0  0  0  0
  135.0136  140.5761  163.9649 C   0  0  0  0  0  0  0  0  0  0  0  0
  135.6880  140.9664  165.1276 N   0  0  0  0  0  0  0  0  0  0  0  0
  133.6535  140.8256  163.8342 C   0  0  0  0  0  0  0  0  0  0  0  0
  132.9884  140.4406  162.6873 C   0  0  0  0  0  0  0  0  0  0  0  0
  133.6791  139.8034  161.6646 C   0  0  0  0  0  0  0  0  0  0  0  0
  133.0042  139.4124  160.5014 N   0  0  0  0  0  0  0  0  0  0  0  0
  131.9448  138.5234  160.5809 C   0  0  0  0  0  0  0  0  0  0  0  0
  131.0974  138.3907  161.6360 N   0  0  0  0  0  0  0  0  0  0  0  0
  131.1231  138.8958  162.4638 H   0  0  0  0  0  0  0  0  0  0  0  0
  130.1888  137.4032  161.3028 C   0  0  0  0  0  0  0  0  0  0  0  0
  130.5206  136.9683  160.0692 C   0  0  0  0  0  0  0  0  0  0  0  0
  129.8595  135.9631  159.3452 N   0  0  0  0  0  0  0  0  0  0  0  0
  128.6973  135.2861  159.9259 C   0  0  1  0  0  0  0  0  0  0  0  0
  128.8708  135.1028  160.9863 H   0  0  0  0  0  0  0  0  0  0  0  0
  127.4486  136.1597  159.7497 C   0  0  0  0  0  0  0  0  0  0  0  0
  126.3563  135.5229  160.4136 O   0  0  0  0  0  0  0  0  0  0  0  0
  126.1400  134.2056  160.1615 C   0  0  0  0  0  0  0  0  0  0  0  0
  124.9058  133.6606  160.4987 C   0  0  0  0  0  0  0  0  0  0  0  0
  124.6500  132.3200  160.2659 C   0  0  0  0  0  0  0  0  0  0  0  0
  123.4431  131.7895  160.5959 O   0  0  0  0  0  0  0  0  0  0  0  0
  125.6290  131.5193  159.6942 C   0  0  0  0  0  0  0  0  0  0  0  0
  126.8528  132.0618  159.3585 C   0  0  0  0  0  0  0  0  0  0  0  0
  127.1120  133.4032  159.5892 C   0  0  0  0  0  0  0  0  0  0  0  0
  128.4607  133.9569  159.2045 C   0  0  0  0  0  0  0  0  0  0  0  0
  131.5905  137.6682  159.6499 N   0  0  0  0  0  0  0  0  0  0  0  0
  132.0319  137.5575  158.7933 H   0  0  0  0  0  0  0  0  0  0  0  0
  136.1786  139.5933  159.9950 H   0  0  0  0  0  0  0  0  0  0  0  0
  136.6102  138.2785  161.1143 H   0  0  0  0  0  0  0  0  0  0  0  0
  135.1096  138.1799  160.1622 H   0  0  0  0  0  0  0  0  0  0  0  0
  136.7616  139.7447  163.0445 H   0  0  0  0  0  0  0  0  0  0  0  0
  135.2056  141.4112  165.8420 H   0  0  0  0  0  0  0  0  0  0  0  0
  136.6379  140.7921  165.2191 H   0  0  0  0  0  0  0  0  0  0  0  0
  133.1165  141.3212  164.6294 H   0  0  0  0  0  0  0  0  0  0  0  0
  131.9309  140.6353  162.5854 H   0  0  0  0  0  0  0  0  0  0  0  0
  133.2785  139.7642  159.6400 H   0  0  0  0  0  0  0  0  0  0  0  0
  129.3721  137.0470  161.9133 H   0  0  0  0  0  0  0  0  0  0  0  0
  130.1748  135.7140  158.4623 H   0  0  0  0  0  0  0  0  0  0  0  0
  127.6231  137.1422  160.1881 H   0  0  0  0  0  0  0  0  0  0  0  0
  127.2212  136.2654  158.6889 H   0  0  0  0  0  0  0  0  0  0  0  0
  124.1448  134.2849  160.9433 H   0  0  0  0  0  0  0  0  0  0  0  0
  123.3597  130.8472  160.3954 H   0  0  0  0  0  0  0  0  0  0  0  0
  125.4334  130.4729  159.5125 H   0  0  0  0  0  0  0  0  0  0  0  0
  127.6129  131.4371  158.9131 H   0  0  0  0  0  0  0  0  0  0  0  0
  128.4926  134.1184  158.1270 H   0  0  0  0  0  0  0  0  0  0  0  0
  129.2382  133.2473  159.4875 H   0  0  0  0  0  0  0  0  0  0  0  0
  1  2  1  0
  1 30  1  0
  1 31  1  0
  1 32  1  0
  2  8  2  0
  2  3  1  0
  3  4  2  0
  3 33  1  0
  4  5  1  0
  4  6  1  0
  5 34  1  0
  5 35  1  0
  6  7  2  0
  6 36  1  0
  7  8  1  0
  7 37  1  0
  8  9  1  0
  9 38  1  0
 10  9  1  0
 10 28  2  0
 10 11  1  0
 11 12  1  0
 11 13  1  0
 13 14  2  0
 13 39  1  0
 14 15  1  0
 14 28  1  0
 15 16  1  0
 15 40  1  0
 16 17  1  1
 16 27  1  0
 16 18  1  0
 18 19  1  0
 18 41  1  0
 18 42  1  0
 19 20  1  0
 20 26  2  0
 20 21  1  0
 21 22  2  0
 21 43  1  0
 22 23  1  0
 22 24  1  0
 23 44  1  0
 24 25  2  0
 24 45  1  0
 25 26  1  0
 25 46  1  0
 26 27  1  0
 27 47  1  0
 27 48  1  0
 28 29  1  0
M  CHG  1  28   1
M  END
>  <DOCK_score>  (1) 
-43.177074

>  <SMILES>  (1) 
Cc1cc(N)ccc1Nc1[nH]cc(N[C@H]2COc3cc(O)ccc3C2)[nH+]1

$$$$
