[NH3+][C@H](Cc1ccccc1)c1ccc([C@H](NCc2cc(C3=CC4CCC3C4)no2)c2cccnc2)cc1
     RDKit          3D

 69 74  0  0  1  0  0  0  0  0999 V2000
  130.9659  134.3767  158.0720 N   0  0  0  0  0  0  0  0  0  0  0  0
  131.5846  135.1386  158.3062 H   0  0  0  0  0  0  0  0  0  0  0  0
  131.4041  133.7882  157.3794 H   0  0  0  0  0  0  0  0  0  0  0  0
  130.1027  134.7459  157.7021 H   0  0  0  0  0  0  0  0  0  0  0  0
  130.6836  133.5868  159.2780 C   0  0  2  0  0  0  0  0  0  0  0  0
  131.6161  133.1880  159.6775 H   0  0  0  0  0  0  0  0  0  0  0  0
  129.7453  132.4315  158.9230 C   0  0  0  0  0  0  0  0  0  0  0  0
  130.3999  131.5526  157.8885 C   0  0  0  0  0  0  0  0  0  0  0  0
  130.2092  131.8085  156.5435 C   0  0  0  0  0  0  0  0  0  0  0  0
  130.8135  131.0052  155.5946 C   0  0  0  0  0  0  0  0  0  0  0  0
  131.6000  129.9396  155.9907 C   0  0  0  0  0  0  0  0  0  0  0  0
  131.7864  129.6806  157.3357 C   0  0  0  0  0  0  0  0  0  0  0  0
  131.1864  130.4870  158.2846 C   0  0  0  0  0  0  0  0  0  0  0  0
  130.0291  134.4658  160.3123 C   0  0  0  0  0  0  0  0  0  0  0  0
  128.8266  135.0866  160.0307 C   0  0  0  0  0  0  0  0  0  0  0  0
  128.2261  135.8930  160.9795 C   0  0  0  0  0  0  0  0  0  0  0  0
  128.8279  136.0778  162.2103 C   0  0  0  0  0  0  0  0  0  0  0  0
  128.1732  136.9568  163.2447 C   0  0  2  0  0  0  0  0  0  0  0  0
  128.4322  136.5997  164.2414 H   0  0  0  0  0  0  0  0  0  0  0  0
  126.7151  136.9131  163.0723 N   0  0  0  0  0  0  0  0  0  0  0  0
  126.1499  135.6985  163.6752 C   0  0  0  0  0  0  0  0  0  0  0  0
  126.4631  135.6769  165.1491 C   0  0  0  0  0  0  0  0  0  0  0  0
  126.3526  136.7112  166.0126 C   0  0  0  0  0  0  0  0  0  0  0  0
  126.7640  136.1615  167.2606 C   0  0  0  0  0  0  0  0  0  0  0  0
  126.8345  136.8622  168.5607 C   0  0  0  0  0  0  0  0  0  0  0  0
  126.5258  138.1416  168.7779 C   0  0  0  0  0  0  0  0  0  0  0  0
  126.7747  138.4486  170.2599 C   0  0  2  0  0  0  0  0  0  0  0  0
  128.3273  138.3939  170.4180 C   0  0  0  0  0  0  0  0  0  0  0  0
  128.6702  136.9048  170.1693 C   0  0  0  0  0  0  0  0  0  0  0  0
  127.2818  136.2456  169.8919 C   0  0  1  0  0  0  0  0  0  0  0  0
  126.3593  137.0455  170.8825 C   0  0  0  0  0  0  0  0  0  0  0  0
  127.0732  134.9095  167.0217 N   0  0  0  0  0  0  0  0  0  0  0  0
  126.9107  134.6298  165.8568 O   0  0  0  0  0  0  0  0  0  0  0  0
  128.6565  138.3744  163.0775 C   0  0  0  0  0  0  0  0  0  0  0  0
  129.3187  139.0172  164.1127 C   0  0  0  0  0  0  0  0  0  0  0  0
  129.7493  140.3195  163.9125 C   0  0  0  0  0  0  0  0  0  0  0  0
  129.4975  140.9333  162.6998 C   0  0  0  0  0  0  0  0  0  0  0  0
  128.8603  140.2929  161.7392 N   0  0  0  0  0  0  0  0  0  0  0  0
  128.4404  139.0523  161.8929 C   0  0  0  0  0  0  0  0  0  0  0  0
  130.0328  135.4608  162.4901 C   0  0  0  0  0  0  0  0  0  0  0  0
  130.6310  134.6509  161.5429 C   0  0  0  0  0  0  0  0  0  0  0  0
  129.5360  131.8454  159.8178 H   0  0  0  0  0  0  0  0  0  0  0  0
  128.8130  132.8304  158.5234 H   0  0  0  0  0  0  0  0  0  0  0  0
  129.5912  132.6383  156.2341 H   0  0  0  0  0  0  0  0  0  0  0  0
  130.6676  131.2074  154.5438 H   0  0  0  0  0  0  0  0  0  0  0  0
  132.0685  129.3092  155.2494 H   0  0  0  0  0  0  0  0  0  0  0  0
  132.4006  128.8477  157.6452 H   0  0  0  0  0  0  0  0  0  0  0  0
  131.3317  130.2844  159.3354 H   0  0  0  0  0  0  0  0  0  0  0  0
  128.3562  134.9420  159.0693 H   0  0  0  0  0  0  0  0  0  0  0  0
  127.2868  136.3784  160.7593 H   0  0  0  0  0  0  0  0  0  0  0  0
  126.2810  137.7410  163.4521 H   0  0  0  0  0  0  0  0  0  0  0  0
  125.0693  135.6914  163.5332 H   0  0  0  0  0  0  0  0  0  0  0  0
  126.5849  134.8201  163.1985 H   0  0  0  0  0  0  0  0  0  0  0  0
  126.0264  137.7196  165.8048 H   0  0  0  0  0  0  0  0  0  0  0  0
  126.1804  138.8448  168.0345 H   0  0  0  0  0  0  0  0  0  0  0  0
  126.2788  139.3290  170.6688 H   0  0  0  0  0  0  0  0  0  0  0  0
  128.6205  138.6916  171.4248 H   0  0  0  0  0  0  0  0  0  0  0  0
  128.8106  139.0276  169.6743 H   0  0  0  0  0  0  0  0  0  0  0  0
  129.1330  136.4655  171.0531 H   0  0  0  0  0  0  0  0  0  0  0  0
  129.3231  136.8017  169.3026 H   0  0  0  0  0  0  0  0  0  0  0  0
  127.2422  135.1583  169.9581 H   0  0  0  0  0  0  0  0  0  0  0  0
  125.3034  136.8087  170.7523 H   0  0  0  0  0  0  0  0  0  0  0  0
  126.6771  136.9465  171.9205 H   0  0  0  0  0  0  0  0  0  0  0  0
  129.4979  138.5137  165.0512 H   0  0  0  0  0  0  0  0  0  0  0  0
  130.2714  140.8494  164.6955 H   0  0  0  0  0  0  0  0  0  0  0  0
  129.8268  141.9489  162.5371 H   0  0  0  0  0  0  0  0  0  0  0  0
  127.9219  138.5602  161.0834 H   0  0  0  0  0  0  0  0  0  0  0  0
  130.5050  135.6087  163.4501 H   0  0  0  0  0  0  0  0  0  0  0  0
  131.5704  134.1656  161.7631 H   0  0  0  0  0  0  0  0  0  0  0  0
  1  2  1  0
  1  3  1  0
  1  4  1  0
  1  5  1  0
  5  6  1  1
  5  7  1  0
  5 14  1  0
  7  8  1  0
  7 42  1  0
  7 43  1  0
  8 13  1  0
  8  9  2  0
  9 10  1  0
  9 44  1  0
 10 11  2  0
 10 45  1  0
 11 12  1  0
 11 46  1  0
 12 13  2  0
 12 47  1  0
 13 48  1  0
 14 41  1  0
 14 15  2  0
 15 16  1  0
 15 49  1  0
 16 17  2  0
 16 50  1  0
 17 18  1  0
 17 40  1  0
 18 19  1  1
 18 20  1  0
 18 34  1  0
 20 21  1  0
 20 51  1  0
 21 22  1  0
 21 52  1  0
 21 53  1  0
 22 33  1  0
 22 23  2  0
 23 24  1  0
 23 54  1  0
 24 25  1  0
 24 32  2  0
 25 30  1  0
 25 26  2  0
 26 27  1  0
 26 55  1  0
 27 31  1  0
 27 28  1  0
 27 56  1  1
 28 29  1  0
 28 57  1  0
 28 58  1  0
 29 30  1  0
 29 59  1  0
 29 60  1  0
 30 31  1  0
 30 61  1  6
 31 62  1  0
 31 63  1  0
 32 33  1  0
 34 39  1  0
 34 35  2  0
 35 36  1  0
 35 64  1  0
 36 37  2  0
 36 65  1  0
 37 38  1  0
 37 66  1  0
 38 39  2  0
 39 67  1  0
 40 41  2  0
 40 68  1  0
 41 69  1  0
M  CHG  1   1   1
M  END
>  <DOCK_score>  (1) 
-46.598267

>  <SMILES>  (1) 
[NH3+][C@H](Cc1ccccc1)c1ccc([C@H](NCc2cc(C3=CC4CCC3C4)no2)c2cccnc2)cc1

$$$$
