O=C1CCC([NH+]=C(NC2CC2)N[C@@H]2Cc3ccc(Cl)cc3C2)CN1
     RDKit          3D

 48 51  0  0  1  0  0  0  0  0999 V2000
  124.2287  133.9680  161.5739 O   0  0  0  0  0  0  0  0  0  0  0  0
  125.3925  134.2516  161.3845 C   0  0  0  0  0  0  0  0  0  0  0  0
  126.2676  133.2419  160.6989 C   0  0  0  0  0  0  0  0  0  0  0  0
  127.7408  133.5806  160.9396 C   0  0  0  0  0  0  0  0  0  0  0  0
  127.9533  135.0673  160.6301 C   0  0  2  0  0  0  0  0  0  0  0  0
  129.3833  135.3810  160.6834 N   0  0  0  0  0  0  0  0  0  0  0  0
  129.7119  136.0411  161.3135 H   0  0  0  0  0  0  0  0  0  0  0  0
  130.2148  134.7691  159.8878 C   0  0  0  0  0  0  0  0  0  0  0  0
  129.7499  133.8293  158.9985 N   0  0  0  0  0  0  0  0  0  0  0  0
  130.6094  132.7130  158.5963 C   0  0  0  0  0  0  0  0  0  0  0  0
  130.0322  131.3007  158.7095 C   0  0  0  0  0  0  0  0  0  0  0  0
  131.1044  131.7710  159.6955 C   0  0  0  0  0  0  0  0  0  0  0  0
  131.5569  135.0635  159.9377 N   0  0  0  0  0  0  0  0  0  0  0  0
  132.0522  136.0650  160.8853 C   0  0  2  0  0  0  0  0  0  0  0  0
  131.8236  135.7729  161.9102 H   0  0  0  0  0  0  0  0  0  0  0  0
  131.4667  137.4574  160.5680 C   0  0  0  0  0  0  0  0  0  0  0  0
  132.5748  138.4365  160.8920 C   0  0  0  0  0  0  0  0  0  0  0  0
  132.5298  139.8044  161.1040 C   0  0  0  0  0  0  0  0  0  0  0  0
  133.6864  140.5019  161.3909 C   0  0  0  0  0  0  0  0  0  0  0  0
  134.8951  139.8327  161.4671 C   0  0  0  0  0  0  0  0  0  0  0  0
  136.3514  140.7065  161.8271 Cl  0  0  0  0  0  0  0  0  0  0  0  0
  134.9415  138.4675  161.2559 C   0  0  0  0  0  0  0  0  0  0  0  0
  133.7819  137.7673  160.9682 C   0  0  0  0  0  0  0  0  0  0  0  0
  133.5685  136.2890  160.7039 C   0  0  0  0  0  0  0  0  0  0  0  0
  127.2067  135.8967  161.6756 C   0  0  0  0  0  0  0  0  0  0  0  0
  125.8267  135.4435  161.7959 N   0  0  0  0  0  0  0  0  0  0  0  0
  126.0637  133.2539  159.6282 H   0  0  0  0  0  0  0  0  0  0  0  0
  126.0543  132.2500  161.0970 H   0  0  0  0  0  0  0  0  0  0  0  0
  128.3681  132.9760  160.2847 H   0  0  0  0  0  0  0  0  0  0  0  0
  127.9982  133.3819  161.9800 H   0  0  0  0  0  0  0  0  0  0  0  0
  127.5662  135.2929  159.6364 H   0  0  0  0  0  0  0  0  0  0  0  0
  128.8529  133.9052  158.6374 H   0  0  0  0  0  0  0  0  0  0  0  0
  131.2849  132.9157  157.7652 H   0  0  0  0  0  0  0  0  0  0  0  0
  129.0130  131.2018  159.0830 H   0  0  0  0  0  0  0  0  0  0  0  0
  130.3282  130.5739  157.9530 H   0  0  0  0  0  0  0  0  0  0  0  0
  132.1055  131.3535  159.5874 H   0  0  0  0  0  0  0  0  0  0  0  0
  130.7910  131.9818  160.7179 H   0  0  0  0  0  0  0  0  0  0  0  0
  132.1756  134.6081  159.3456 H   0  0  0  0  0  0  0  0  0  0  0  0
  131.1996  137.5240  159.5133 H   0  0  0  0  0  0  0  0  0  0  0  0
  130.5950  137.6524  161.1927 H   0  0  0  0  0  0  0  0  0  0  0  0
  131.5867  140.3273  161.0449 H   0  0  0  0  0  0  0  0  0  0  0  0
  133.6477  141.5686  161.5559 H   0  0  0  0  0  0  0  0  0  0  0  0
  135.8848  137.9453  161.3155 H   0  0  0  0  0  0  0  0  0  0  0  0
  134.1280  135.6886  161.4213 H   0  0  0  0  0  0  0  0  0  0  0  0
  133.8686  136.0404  159.6860 H   0  0  0  0  0  0  0  0  0  0  0  0
  127.7050  135.7942  162.6397 H   0  0  0  0  0  0  0  0  0  0  0  0
  127.2169  136.9453  161.3779 H   0  0  0  0  0  0  0  0  0  0  0  0
  125.1838  136.0466  162.2006 H   0  0  0  0  0  0  0  0  0  0  0  0
  1  2  2  0
  2 26  1  0
  2  3  1  0
  3  4  1  0
  3 27  1  0
  3 28  1  0
  4  5  1  0
  4 29  1  0
  4 30  1  0
  5  6  1  0
  5 25  1  0
  5 31  1  6
  6  7  1  0
  8  6  2  0
  8  9  1  0
  8 13  1  0
  9 10  1  0
  9 32  1  0
 10 12  1  0
 10 11  1  0
 10 33  1  0
 11 12  1  0
 11 34  1  0
 11 35  1  0
 12 36  1  0
 12 37  1  0
 13 14  1  0
 13 38  1  0
 14 15  1  1
 14 24  1  0
 14 16  1  0
 16 17  1  0
 16 39  1  0
 16 40  1  0
 17 23  2  0
 17 18  1  0
 18 19  2  0
 18 41  1  0
 19 20  1  0
 19 42  1  0
 20 21  1  0
 20 22  2  0
 22 23  1  0
 22 43  1  0
 23 24  1  0
 24 44  1  0
 24 45  1  0
 25 26  1  0
 25 46  1  0
 25 47  1  0
 26 48  1  0
M  CHG  1   6   1
M  END
>  <DOCK_score>  (1) 
-41.391289

>  <SMILES>  (1) 
O=C1CCC([NH+]=C(NC2CC2)N[C@@H]2Cc3ccc(Cl)cc3C2)CN1

$$$$
