C/C=C/CNc1ccc(C[N@H+](CC)C2c3ccccc3-c3ccc(O)cc32)cc1
     RDKit          3D

 58 61  0  0  1  0  0  0  0  0999 V2000
  136.1481  136.6956  166.8071 C   0  0  0  0  0  0  0  0  0  0  0  0
  135.5321  136.5623  165.4383 C   0  0  0  0  0  0  0  0  0  0  0  0
  134.4324  135.8683  165.2797 C   0  0  0  0  0  0  0  0  0  0  0  0
  133.8165  135.7351  163.9107 C   0  0  0  0  0  0  0  0  0  0  0  0
  132.4604  136.2903  163.9295 N   0  0  0  0  0  0  0  0  0  0  0  0
  131.6852  136.2784  162.7676 C   0  0  0  0  0  0  0  0  0  0  0  0
  130.3995  136.8032  162.7836 C   0  0  0  0  0  0  0  0  0  0  0  0
  129.6357  136.7903  161.6328 C   0  0  0  0  0  0  0  0  0  0  0  0
  130.1498  136.2559  160.4658 C   0  0  0  0  0  0  0  0  0  0  0  0
  129.3134  136.2436  159.2122 C   0  0  0  0  0  0  0  0  0  0  0  0
  129.4191  134.9286  158.5660 N   0  0  2  0  0  0  0  0  0  0  0  0
  130.2811  134.8787  158.0438 H   0  0  0  0  0  0  0  0  0  0  0  0
  128.2828  134.7383  157.6545 C   0  0  0  0  0  0  0  0  0  0  0  0
  128.2965  135.8339  156.5867 C   0  0  0  0  0  0  0  0  0  0  0  0
  129.4060  133.8766  159.5911 C   0  0  2  0  0  0  0  0  0  0  0  0
  129.9128  132.5792  159.0105 C   0  0  0  0  0  0  0  0  0  0  0  0
  131.1220  132.2255  158.4498 C   0  0  0  0  0  0  0  0  0  0  0  0
  131.3207  130.9366  157.9878 C   0  0  0  0  0  0  0  0  0  0  0  0
  130.3071  130.0003  158.0866 C   0  0  0  0  0  0  0  0  0  0  0  0
  129.0944  130.3452  158.6457 C   0  0  0  0  0  0  0  0  0  0  0  0
  128.8869  131.6440  159.1143 C   0  0  0  0  0  0  0  0  0  0  0  0
  127.7039  132.2764  159.7488 C   0  0  0  0  0  0  0  0  0  0  0  0
  126.4455  131.7597  160.0657 C   0  0  0  0  0  0  0  0  0  0  0  0
  125.4998  132.5645  160.6630 C   0  0  0  0  0  0  0  0  0  0  0  0
  125.7931  133.8906  160.9518 C   0  0  0  0  0  0  0  0  0  0  0  0
  124.8579  134.6807  161.5410 O   0  0  0  0  0  0  0  0  0  0  0  0
  127.0429  134.4086  160.6391 C   0  0  0  0  0  0  0  0  0  0  0  0
  127.9909  133.6072  160.0414 C   0  0  0  0  0  0  0  0  0  0  0  0
  131.4277  135.7276  160.4477 C   0  0  0  0  0  0  0  0  0  0  0  0
  132.1988  135.7422  161.5933 C   0  0  0  0  0  0  0  0  0  0  0  0
  136.4034  135.7070  167.1885 H   0  0  0  0  0  0  0  0  0  0  0  0
  137.0502  137.3039  166.7421 H   0  0  0  0  0  0  0  0  0  0  0  0
  135.4363  137.1723  167.4811 H   0  0  0  0  0  0  0  0  0  0  0  0
  135.9973  137.0390  164.5881 H   0  0  0  0  0  0  0  0  0  0  0  0
  133.9673  135.3916  166.1298 H   0  0  0  0  0  0  0  0  0  0  0  0
  133.7747  134.6821  163.6320 H   0  0  0  0  0  0  0  0  0  0  0  0
  134.4214  136.2792  163.1854 H   0  0  0  0  0  0  0  0  0  0  0  0
  132.1009  136.6642  164.7487 H   0  0  0  0  0  0  0  0  0  0  0  0
  129.9972  137.2205  163.6948 H   0  0  0  0  0  0  0  0  0  0  0  0
  128.6356  137.1980  161.6449 H   0  0  0  0  0  0  0  0  0  0  0  0
  129.6714  137.0138  158.5292 H   0  0  0  0  0  0  0  0  0  0  0  0
  128.2723  136.4400  159.4681 H   0  0  0  0  0  0  0  0  0  0  0  0
  127.3516  134.7921  158.2184 H   0  0  0  0  0  0  0  0  0  0  0  0
  128.3612  133.7626  157.1750 H   0  0  0  0  0  0  0  0  0  0  0  0
  127.4907  135.6571  155.8744 H   0  0  0  0  0  0  0  0  0  0  0  0
  128.1555  136.8052  157.0609 H   0  0  0  0  0  0  0  0  0  0  0  0
  129.2530  135.8201  156.0642 H   0  0  0  0  0  0  0  0  0  0  0  0
  130.0201  134.1738  160.4411 H   0  0  0  0  0  0  0  0  0  0  0  0
  131.9144  132.9551  158.3713 H   0  0  0  0  0  0  0  0  0  0  0  0
  132.2684  130.6611  157.5492 H   0  0  0  0  0  0  0  0  0  0  0  0
  130.4662  128.9952  157.7249 H   0  0  0  0  0  0  0  0  0  0  0  0
  128.3059  129.6110  158.7212 H   0  0  0  0  0  0  0  0  0  0  0  0
  126.2135  130.7288  159.8423 H   0  0  0  0  0  0  0  0  0  0  0  0
  124.5274  132.1628  160.9068 H   0  0  0  0  0  0  0  0  0  0  0  0
  125.1538  135.5871  161.7025 H   0  0  0  0  0  0  0  0  0  0  0  0
  127.2716  135.4400  160.8639 H   0  0  0  0  0  0  0  0  0  0  0  0
  131.8244  135.3065  159.5357 H   0  0  0  0  0  0  0  0  0  0  0  0
  133.1984  135.3336  161.5774 H   0  0  0  0  0  0  0  0  0  0  0  0
  1  2  1  0
  1 31  1  0
  1 32  1  0
  1 33  1  0
  2  3  2  0
  2 34  1  0
  3  4  1  0
  3 35  1  0
  4  5  1  0
  4 36  1  0
  4 37  1  0
  5  6  1  0
  5 38  1  0
  6 30  2  0
  6  7  1  0
  7  8  2  0
  7 39  1  0
  8  9  1  0
  8 40  1  0
  9 10  1  0
  9 29  2  0
 10 11  1  0
 10 41  1  0
 10 42  1  0
 11 12  1  6
 11 13  1  0
 11 15  1  0
 13 14  1  0
 13 43  1  0
 13 44  1  0
 14 45  1  0
 14 46  1  0
 14 47  1  0
 15 28  1  0
 15 16  1  0
 15 48  1  1
 16 21  1  0
 16 17  2  0
 17 18  1  0
 17 49  1  0
 18 19  2  0
 18 50  1  0
 19 20  1  0
 19 51  1  0
 20 21  2  0
 20 52  1  0
 21 22  1  0
 22 28  2  0
 22 23  1  0
 23 24  2  0
 23 53  1  0
 24 25  1  0
 24 54  1  0
 25 26  1  0
 25 27  2  0
 26 55  1  0
 27 28  1  0
 27 56  1  0
 29 30  1  0
 29 57  1  0
 30 58  1  0
M  CHG  1  11   1
M  END
>  <DOCK_score>  (1) 
-43.540268

>  <SMILES>  (1) 
C/C=C/CNc1ccc(C[N@H+](CC)C2c3ccccc3-c3ccc(O)cc32)cc1

$$$$
