Nc1ccc(-c2c[nH]c(N[C@@H](CC=O)c3ccccc3)[nH+]2)cc1
     RDKit          3D

 42 44  0  0  1  0  0  0  0  0999 V2000
  131.3232  129.6085  151.0182 N   0  0  0  0  0  0  0  0  0  0  0  0
  131.0706  130.2199  152.2487 C   0  0  0  0  0  0  0  0  0  0  0  0
  130.3152  131.3860  152.3011 C   0  0  0  0  0  0  0  0  0  0  0  0
  130.0648  131.9921  153.5140 C   0  0  0  0  0  0  0  0  0  0  0  0
  130.5693  131.4349  154.6879 C   0  0  0  0  0  0  0  0  0  0  0  0
  130.3016  132.0854  155.9941 C   0  0  0  0  0  0  0  0  0  0  0  0
  129.6479  131.5290  157.0436 C   0  0  0  0  0  0  0  0  0  0  0  0
  129.6237  132.4720  158.0436 N   0  0  0  0  0  0  0  0  0  0  0  0
  129.2241  132.3686  158.9214 H   0  0  0  0  0  0  0  0  0  0  0  0
  130.2639  133.5772  157.5745 C   0  0  0  0  0  0  0  0  0  0  0  0
  130.4572  134.7555  158.2753 N   0  0  0  0  0  0  0  0  0  0  0  0
  129.4835  135.1744  159.2866 C   0  0  1  0  0  0  0  0  0  0  0  0
  129.4171  134.4134  160.0641 H   0  0  0  0  0  0  0  0  0  0  0  0
  129.9307  136.4996  159.9069 C   0  0  0  0  0  0  0  0  0  0  0  0
  130.9923  136.2361  160.9436 C   0  0  0  0  0  0  0  0  0  0  0  0
  131.7321  135.2894  160.8231 O   0  0  0  0  0  0  0  0  0  0  0  0
  128.1335  135.3522  158.6409 C   0  0  0  0  0  0  0  0  0  0  0  0
  126.9825  135.1288  159.3731 C   0  0  0  0  0  0  0  0  0  0  0  0
  125.7441  135.2916  158.7807 C   0  0  0  0  0  0  0  0  0  0  0  0
  125.6568  135.6762  157.4558 C   0  0  0  0  0  0  0  0  0  0  0  0
  126.8079  135.8982  156.7233 C   0  0  0  0  0  0  0  0  0  0  0  0
  128.0462  135.7359  157.3158 C   0  0  0  0  0  0  0  0  0  0  0  0
  130.6625  133.3445  156.3476 N   0  0  0  0  0  0  0  0  0  0  0  0
  131.1410  133.9717  155.7833 H   0  0  0  0  0  0  0  0  0  0  0  0
  131.3306  130.2684  154.6321 C   0  0  0  0  0  0  0  0  0  0  0  0
  131.5742  129.6628  153.4174 C   0  0  0  0  0  0  0  0  0  0  0  0
  130.9718  129.9969  150.2019 H   0  0  0  0  0  0  0  0  0  0  0  0
  131.8503  128.7950  150.9806 H   0  0  0  0  0  0  0  0  0  0  0  0
  129.9244  131.8175  151.3914 H   0  0  0  0  0  0  0  0  0  0  0  0
  129.4778  132.8978  153.5546 H   0  0  0  0  0  0  0  0  0  0  0  0
  129.2265  130.5354  157.0855 H   0  0  0  0  0  0  0  0  0  0  0  0
  131.2373  135.3036  158.0967 H   0  0  0  0  0  0  0  0  0  0  0  0
  130.3354  137.1468  159.1287 H   0  0  0  0  0  0  0  0  0  0  0  0
  129.0766  136.9871  160.3771 H   0  0  0  0  0  0  0  0  0  0  0  0
  131.0912  136.8939  161.7943 H   0  0  0  0  0  0  0  0  0  0  0  0
  127.0506  134.8287  160.4082 H   0  0  0  0  0  0  0  0  0  0  0  0
  124.8448  135.1224  159.3542 H   0  0  0  0  0  0  0  0  0  0  0  0
  124.6893  135.8029  156.9930 H   0  0  0  0  0  0  0  0  0  0  0  0
  126.7398  136.1980  155.6880 H   0  0  0  0  0  0  0  0  0  0  0  0
  128.9456  135.9087  156.7433 H   0  0  0  0  0  0  0  0  0  0  0  0
  131.7260  129.8372  155.5398 H   0  0  0  0  0  0  0  0  0  0  0  0
  132.1605  128.7569  153.3741 H   0  0  0  0  0  0  0  0  0  0  0  0
  1  2  1  0
  1 27  1  0
  1 28  1  0
  2 26  2  0
  2  3  1  0
  3  4  2  0
  3 29  1  0
  4  5  1  0
  4 30  1  0
  5  6  1  0
  5 25  2  0
  6 23  1  0
  6  7  2  0
  7  8  1  0
  7 31  1  0
  8  9  1  0
  8 10  1  0
 10 11  1  0
 10 23  2  0
 11 12  1  0
 11 32  1  0
 12 13  1  1
 12 14  1  0
 12 17  1  0
 14 15  1  0
 14 33  1  0
 14 34  1  0
 15 16  2  0
 15 35  1  0
 17 22  1  0
 17 18  2  0
 18 19  1  0
 18 36  1  0
 19 20  2  0
 19 37  1  0
 20 21  1  0
 20 38  1  0
 21 22  2  0
 21 39  1  0
 22 40  1  0
 23 24  1  0
 25 26  1  0
 25 41  1  0
 26 42  1  0
M  CHG  1  23   1
M  END
>  <DOCK_score>  (1) 
-59.516514

>  <SMILES>  (1) 
Nc1ccc(-c2c[nH]c(N[C@@H](CC=O)c3ccccc3)[nH+]2)cc1

$$$$
