Nc1ccc(-c2c[nH]c(N[C@@H](CCc3cc4ccccc4[nH]3)c3ccccc3)[nH+]2)cc1
     RDKit          3D

 57 61  0  0  1  0  0  0  0  0999 V2000
  131.4197  129.8218  151.8703 N   0  0  0  0  0  0  0  0  0  0  0  0
  131.0824  130.4706  153.0605 C   0  0  0  0  0  0  0  0  0  0  0  0
  130.4823  131.7234  153.0219 C   0  0  0  0  0  0  0  0  0  0  0  0
  130.1486  132.3658  154.1955 C   0  0  0  0  0  0  0  0  0  0  0  0
  130.4134  131.7575  155.4215 C   0  0  0  0  0  0  0  0  0  0  0  0
  130.0552  132.4465  156.6855 C   0  0  0  0  0  0  0  0  0  0  0  0
  129.1998  131.9852  157.6309 C   0  0  0  0  0  0  0  0  0  0  0  0
  129.1600  132.9308  158.6281 N   0  0  0  0  0  0  0  0  0  0  0  0
  128.6353  132.8852  159.4426 H   0  0  0  0  0  0  0  0  0  0  0  0
  129.9932  133.9422  158.2614 C   0  0  0  0  0  0  0  0  0  0  0  0
  130.2377  135.0912  158.9939 N   0  0  0  0  0  0  0  0  0  0  0  0
  130.1599  135.0579  160.4565 C   0  0  1  0  0  0  0  0  0  0  0  0
  130.5971  134.1290  160.8226 H   0  0  0  0  0  0  0  0  0  0  0  0
  130.9296  136.2467  161.0354 C   0  0  0  0  0  0  0  0  0  0  0  0
  132.3943  136.1664  160.6006 C   0  0  0  0  0  0  0  0  0  0  0  0
  133.1526  137.3374  161.1707 C   0  0  0  0  0  0  0  0  0  0  0  0
  132.8597  137.9564  162.3252 C   0  0  0  0  0  0  0  0  0  0  0  0
  133.8409  139.0307  162.4960 C   0  0  0  0  0  0  0  0  0  0  0  0
  134.0560  140.0020  163.4758 C   0  0  0  0  0  0  0  0  0  0  0  0
  135.0882  140.8866  163.3390 C   0  0  0  0  0  0  0  0  0  0  0  0
  135.9254  140.8276  162.2331 C   0  0  0  0  0  0  0  0  0  0  0  0
  135.7311  139.8777  161.2546 C   0  0  0  0  0  0  0  0  0  0  0  0
  134.6863  138.9668  161.3736 C   0  0  0  0  0  0  0  0  0  0  0  0
  134.2410  137.9274  160.5881 N   0  0  0  0  0  0  0  0  0  0  0  0
  134.6395  137.6540  159.7471 H   0  0  0  0  0  0  0  0  0  0  0  0
  128.7172  135.1370  160.8848 C   0  0  0  0  0  0  0  0  0  0  0  0
  128.3095  134.5271  162.0564 C   0  0  0  0  0  0  0  0  0  0  0  0
  126.9869  134.6032  162.4512 C   0  0  0  0  0  0  0  0  0  0  0  0
  126.0704  135.2821  161.6702 C   0  0  0  0  0  0  0  0  0  0  0  0
  126.4770  135.8875  160.4960 C   0  0  0  0  0  0  0  0  0  0  0  0
  127.8004  135.8149  160.1031 C   0  0  0  0  0  0  0  0  0  0  0  0
  130.5218  133.6519  157.0976 N   0  0  0  0  0  0  0  0  0  0  0  0
  131.1485  134.2089  156.6099 H   0  0  0  0  0  0  0  0  0  0  0  0
  131.0208  130.5031  155.4580 C   0  0  0  0  0  0  0  0  0  0  0  0
  131.3471  129.8618  154.2817 C   0  0  0  0  0  0  0  0  0  0  0  0
  131.2350  130.2456  151.0176 H   0  0  0  0  0  0  0  0  0  0  0  0
  131.8385  128.9471  151.8964 H   0  0  0  0  0  0  0  0  0  0  0  0
  130.2776  132.1945  152.0718 H   0  0  0  0  0  0  0  0  0  0  0  0
  129.6819  133.3393  154.1649 H   0  0  0  0  0  0  0  0  0  0  0  0
  128.6539  131.0536  157.6053 H   0  0  0  0  0  0  0  0  0  0  0  0
  130.4605  135.9184  158.5388 H   0  0  0  0  0  0  0  0  0  0  0  0
  130.8717  136.2220  162.1235 H   0  0  0  0  0  0  0  0  0  0  0  0
  130.4925  137.1757  160.6693 H   0  0  0  0  0  0  0  0  0  0  0  0
  132.4522  136.1911  159.5124 H   0  0  0  0  0  0  0  0  0  0  0  0
  132.8316  135.2375  160.9668 H   0  0  0  0  0  0  0  0  0  0  0  0
  132.0533  137.7096  163.0001 H   0  0  0  0  0  0  0  0  0  0  0  0
  133.4090  140.0534  164.3390 H   0  0  0  0  0  0  0  0  0  0  0  0
  135.2541  141.6375  164.0972 H   0  0  0  0  0  0  0  0  0  0  0  0
  136.7370  141.5338  162.1389 H   0  0  0  0  0  0  0  0  0  0  0  0
  136.3906  139.8373  160.4003 H   0  0  0  0  0  0  0  0  0  0  0  0
  129.0250  133.9940  162.6649 H   0  0  0  0  0  0  0  0  0  0  0  0
  126.6691  134.1300  163.3686 H   0  0  0  0  0  0  0  0  0  0  0  0
  125.0365  135.3393  161.9773 H   0  0  0  0  0  0  0  0  0  0  0  0
  125.7609  136.4176  159.8855 H   0  0  0  0  0  0  0  0  0  0  0  0
  128.1181  136.2879  159.1856 H   0  0  0  0  0  0  0  0  0  0  0  0
  131.2308  130.0320  156.4068 H   0  0  0  0  0  0  0  0  0  0  0  0
  131.8135  128.8880  154.3094 H   0  0  0  0  0  0  0  0  0  0  0  0
  1  2  1  0
  1 36  1  0
  1 37  1  0
  2 35  2  0
  2  3  1  0
  3  4  2  0
  3 38  1  0
  4  5  1  0
  4 39  1  0
  5  6  1  0
  5 34  2  0
  6 32  1  0
  6  7  2  0
  7  8  1  0
  7 40  1  0
  8  9  1  0
  8 10  1  0
 10 11  1  0
 10 32  2  0
 11 12  1  0
 11 41  1  0
 12 13  1  1
 12 14  1  0
 12 26  1  0
 14 15  1  0
 14 42  1  0
 14 43  1  0
 15 16  1  0
 15 44  1  0
 15 45  1  0
 16 24  1  0
 16 17  2  0
 17 18  1  0
 17 46  1  0
 18 23  2  0
 18 19  1  0
 19 20  2  0
 19 47  1  0
 20 21  1  0
 20 48  1  0
 21 22  2  0
 21 49  1  0
 22 23  1  0
 22 50  1  0
 23 24  1  0
 24 25  1  0
 26 31  1  0
 26 27  2  0
 27 28  1  0
 27 51  1  0
 28 29  2  0
 28 52  1  0
 29 30  1  0
 29 53  1  0
 30 31  2  0
 30 54  1  0
 31 55  1  0
 32 33  1  0
 34 35  1  0
 34 56  1  0
 35 57  1  0
M  CHG  1  32   1
M  END
>  <DOCK_score>  (1) 
-62.651642

>  <SMILES>  (1) 
Nc1ccc(-c2c[nH]c(N[C@@H](CCc3cc4ccccc4[nH]3)c3ccccc3)[nH+]2)cc1

$$$$
