CCc1ccc(-c2c[nH]c(Nc3ccc(N)c(-c4ccc(Cl)cc4)c3)[nH+]2)cc1
     RDKit          3D

 50 53  0  0  1  0  0  0  0  0999 V2000
  130.2874  128.2509  151.6897 C   0  0  0  0  0  0  0  0  0  0  0  0
  131.2819  129.4072  151.8100 C   0  0  0  0  0  0  0  0  0  0  0  0
  131.0056  130.1776  153.0753 C   0  0  0  0  0  0  0  0  0  0  0  0
  131.6346  129.8183  154.2530 C   0  0  0  0  0  0  0  0  0  0  0  0
  131.3887  130.5238  155.4133 C   0  0  0  0  0  0  0  0  0  0  0  0
  130.4965  131.5945  155.3988 C   0  0  0  0  0  0  0  0  0  0  0  0
  130.2245  132.3538  156.6437 C   0  0  0  0  0  0  0  0  0  0  0  0
  129.7175  131.8451  157.7943 C   0  0  0  0  0  0  0  0  0  0  0  0
  129.6280  132.8864  158.6852 N   0  0  0  0  0  0  0  0  0  0  0  0
  129.3004  132.8359  159.5969 H   0  0  0  0  0  0  0  0  0  0  0  0
  130.0834  134.0024  158.0526 C   0  0  0  0  0  0  0  0  0  0  0  0
  130.1593  135.2695  158.6066 N   0  0  0  0  0  0  0  0  0  0  0  0
  129.2448  135.6583  159.5937 C   0  0  0  0  0  0  0  0  0  0  0  0
  127.8833  135.6671  159.3132 C   0  0  0  0  0  0  0  0  0  0  0  0
  126.9760  136.0492  160.2815 C   0  0  0  0  0  0  0  0  0  0  0  0
  127.4193  136.4273  161.5406 C   0  0  0  0  0  0  0  0  0  0  0  0
  126.5000  136.8139  162.5196 N   0  0  0  0  0  0  0  0  0  0  0  0
  128.7887  136.4205  161.8286 C   0  0  0  0  0  0  0  0  0  0  0  0
  129.2687  136.8233  163.1727 C   0  0  0  0  0  0  0  0  0  0  0  0
  129.5845  138.1558  163.4323 C   0  0  0  0  0  0  0  0  0  0  0  0
  130.0261  138.5261  164.6860 C   0  0  0  0  0  0  0  0  0  0  0  0
  130.1663  137.5749  165.6821 C   0  0  0  0  0  0  0  0  0  0  0  0
  130.7292  138.0460  167.2552 Cl  0  0  0  0  0  0  0  0  0  0  0  0
  129.8585  136.2492  165.4279 C   0  0  0  0  0  0  0  0  0  0  0  0
  129.4109  135.8695  164.1791 C   0  0  0  0  0  0  0  0  0  0  0  0
  129.6986  136.0283  160.8499 C   0  0  0  0  0  0  0  0  0  0  0  0
  130.4443  133.6785  156.8347 N   0  0  0  0  0  0  0  0  0  0  0  0
  130.8083  134.2892  156.1749 H   0  0  0  0  0  0  0  0  0  0  0  0
  129.8612  131.9494  154.2101 C   0  0  0  0  0  0  0  0  0  0  0  0
  130.1184  131.2397  153.0548 C   0  0  0  0  0  0  0  0  0  0  0  0
  130.4875  127.6932  150.7748 H   0  0  0  0  0  0  0  0  0  0  0  0
  130.3940  127.5890  152.5492 H   0  0  0  0  0  0  0  0  0  0  0  0
  129.2720  128.6464  151.6594 H   0  0  0  0  0  0  0  0  0  0  0  0
  132.2971  129.0117  151.8404 H   0  0  0  0  0  0  0  0  0  0  0  0
  131.1754  130.0690  150.9505 H   0  0  0  0  0  0  0  0  0  0  0  0
  132.3230  128.9861  154.2639 H   0  0  0  0  0  0  0  0  0  0  0  0
  131.8837  130.2445  156.3316 H   0  0  0  0  0  0  0  0  0  0  0  0
  129.4377  130.8177  157.9751 H   0  0  0  0  0  0  0  0  0  0  0  0
  130.8459  135.8877  158.3111 H   0  0  0  0  0  0  0  0  0  0  0  0
  127.5339  135.3733  158.3344 H   0  0  0  0  0  0  0  0  0  0  0  0
  125.9193  136.0541  160.0581 H   0  0  0  0  0  0  0  0  0  0  0  0
  125.5510  136.8180  162.3191 H   0  0  0  0  0  0  0  0  0  0  0  0
  126.8110  137.0781  163.3996 H   0  0  0  0  0  0  0  0  0  0  0  0
  129.4797  138.8979  162.6546 H   0  0  0  0  0  0  0  0  0  0  0  0
  130.2675  139.5590  164.8891 H   0  0  0  0  0  0  0  0  0  0  0  0
  129.9690  135.5110  166.2085 H   0  0  0  0  0  0  0  0  0  0  0  0
  129.1712  134.8350  163.9819 H   0  0  0  0  0  0  0  0  0  0  0  0
  130.7562  136.0169  161.0681 H   0  0  0  0  0  0  0  0  0  0  0  0
  129.1687  132.7780  154.1932 H   0  0  0  0  0  0  0  0  0  0  0  0
  129.6267  131.5138  152.1332 H   0  0  0  0  0  0  0  0  0  0  0  0
  1  2  1  0
  1 31  1  0
  1 32  1  0
  1 33  1  0
  2  3  1  0
  2 34  1  0
  2 35  1  0
  3 30  2  0
  3  4  1  0
  4  5  2  0
  4 36  1  0
  5  6  1  0
  5 37  1  0
  6  7  1  0
  6 29  2  0
  7 27  1  0
  7  8  2  0
  8  9  1  0
  8 38  1  0
  9 10  1  0
  9 11  1  0
 11 12  1  0
 11 27  2  0
 12 13  1  0
 12 39  1  0
 13 26  1  0
 13 14  2  0
 14 15  1  0
 14 40  1  0
 15 16  2  0
 15 41  1  0
 16 17  1  0
 16 18  1  0
 17 42  1  0
 17 43  1  0
 18 19  1  0
 18 26  2  0
 19 25  1  0
 19 20  2  0
 20 21  1  0
 20 44  1  0
 21 22  2  0
 21 45  1  0
 22 23  1  0
 22 24  1  0
 24 25  2  0
 24 46  1  0
 25 47  1  0
 26 48  1  0
 27 28  1  0
 29 30  1  0
 29 49  1  0
 30 50  1  0
M  CHG  1  27   1
M  END
>  <DOCK_score>  (1) 
-55.802525

>  <SMILES>  (1) 
CCc1ccc(-c2c[nH]c(Nc3ccc(N)c(-c4ccc(Cl)cc4)c3)[nH+]2)cc1

$$$$
