CCCNc1ccc(Nc2[nH]cc(-c3ccc(N)cc3)[nH+]2)cc1
     RDKit          3D

 45 47  0  0  1  0  0  0  0  0999 V2000
  127.5686  139.8581  164.7226 C   0  0  0  0  0  0  0  0  0  0  0  0
  127.0661  139.2007  163.4356 C   0  0  0  0  0  0  0  0  0  0  0  0
  126.9556  137.6891  163.6445 C   0  0  0  0  0  0  0  0  0  0  0  0
  126.4745  137.0596  162.4122 N   0  0  0  0  0  0  0  0  0  0  0  0
  127.3885  136.6231  161.4463 C   0  0  0  0  0  0  0  0  0  0  0  0
  127.0036  135.6805  160.5020 C   0  0  0  0  0  0  0  0  0  0  0  0
  127.9054  135.2495  159.5493 C   0  0  0  0  0  0  0  0  0  0  0  0
  129.1974  135.7589  159.5356 C   0  0  0  0  0  0  0  0  0  0  0  0
  130.1122  135.3218  158.5693 N   0  0  0  0  0  0  0  0  0  0  0  0
  130.0176  134.0387  158.0566 C   0  0  0  0  0  0  0  0  0  0  0  0
  129.5432  132.9512  158.7236 N   0  0  0  0  0  0  0  0  0  0  0  0
  129.2133  132.9353  159.6357 H   0  0  0  0  0  0  0  0  0  0  0  0
  129.6147  131.8805  157.8648 C   0  0  0  0  0  0  0  0  0  0  0  0
  130.1388  132.3428  156.7026 C   0  0  0  0  0  0  0  0  0  0  0  0
  130.4052  131.5390  155.4844 C   0  0  0  0  0  0  0  0  0  0  0  0
  129.7737  131.8606  154.2840 C   0  0  0  0  0  0  0  0  0  0  0  0
  130.0269  131.1154  153.1517 C   0  0  0  0  0  0  0  0  0  0  0  0
  130.9025  130.0380  153.2090 C   0  0  0  0  0  0  0  0  0  0  0  0
  131.1532  129.2811  152.0620 N   0  0  0  0  0  0  0  0  0  0  0  0
  131.5290  129.7116  154.4065 C   0  0  0  0  0  0  0  0  0  0  0  0
  131.2828  130.4573  155.5400 C   0  0  0  0  0  0  0  0  0  0  0  0
  130.3757  133.6699  156.8505 N   0  0  0  0  0  0  0  0  0  0  0  0
  130.7503  134.2533  156.1720 H   0  0  0  0  0  0  0  0  0  0  0  0
  129.5840  136.6973  160.4835 C   0  0  0  0  0  0  0  0  0  0  0  0
  128.6805  137.1325  161.4327 C   0  0  0  0  0  0  0  0  0  0  0  0
  128.5480  139.4542  164.9785 H   0  0  0  0  0  0  0  0  0  0  0  0
  127.6472  140.9351  164.5738 H   0  0  0  0  0  0  0  0  0  0  0  0
  126.8682  139.6536  165.5324 H   0  0  0  0  0  0  0  0  0  0  0  0
  127.7664  139.4055  162.6258 H   0  0  0  0  0  0  0  0  0  0  0  0
  126.0866  139.6047  163.1796 H   0  0  0  0  0  0  0  0  0  0  0  0
  126.2553  137.4845  164.4544 H   0  0  0  0  0  0  0  0  0  0  0  0
  127.9350  137.2851  163.9005 H   0  0  0  0  0  0  0  0  0  0  0  0
  125.5225  136.9453  162.2658 H   0  0  0  0  0  0  0  0  0  0  0  0
  125.9989  135.2847  160.5125 H   0  0  0  0  0  0  0  0  0  0  0  0
  127.6063  134.5161  158.8152 H   0  0  0  0  0  0  0  0  0  0  0  0
  130.8093  135.9191  158.2561 H   0  0  0  0  0  0  0  0  0  0  0  0
  129.3157  130.8646  158.0767 H   0  0  0  0  0  0  0  0  0  0  0  0
  129.0897  132.6953  154.2398 H   0  0  0  0  0  0  0  0  0  0  0  0
  129.5411  131.3667  152.2205 H   0  0  0  0  0  0  0  0  0  0  0  0
  131.7643  128.5283  152.1017 H   0  0  0  0  0  0  0  0  0  0  0  0
  130.7163  129.5072  151.2266 H   0  0  0  0  0  0  0  0  0  0  0  0
  132.2089  128.8737  154.4491 H   0  0  0  0  0  0  0  0  0  0  0  0
  131.7700  130.2039  156.4700 H   0  0  0  0  0  0  0  0  0  0  0  0
  130.5900  137.0898  160.4758 H   0  0  0  0  0  0  0  0  0  0  0  0
  128.9798  137.8654  162.1673 H   0  0  0  0  0  0  0  0  0  0  0  0
  1  2  1  0
  1 26  1  0
  1 27  1  0
  1 28  1  0
  2  3  1  0
  2 29  1  0
  2 30  1  0
  3  4  1  0
  3 31  1  0
  3 32  1  0
  4  5  1  0
  4 33  1  0
  5 25  2  0
  5  6  1  0
  6  7  2  0
  6 34  1  0
  7  8  1  0
  7 35  1  0
  8  9  1  0
  8 24  2  0
  9 36  1  0
 10  9  1  0
 10 22  2  0
 10 11  1  0
 11 12  1  0
 11 13  1  0
 13 14  2  0
 13 37  1  0
 14 15  1  0
 14 22  1  0
 15 21  1  0
 15 16  2  0
 16 17  1  0
 16 38  1  0
 17 18  2  0
 17 39  1  0
 18 19  1  0
 18 20  1  0
 19 40  1  0
 19 41  1  0
 20 21  2  0
 20 42  1  0
 21 43  1  0
 22 23  1  0
 24 25  1  0
 24 44  1  0
 25 45  1  0
M  CHG  1  22   1
M  END
>  <DOCK_score>  (1) 
-52.959358

>  <SMILES>  (1) 
CCCNc1ccc(Nc2[nH]cc(-c3ccc(N)cc3)[nH+]2)cc1

$$$$
