O=C(NC[C@H]1CCCc2[nH+]ccn21)Nc1ccsc1C(=O)C(c1ccccc1)c1ccccc1
     RDKit          3D

 61 65  0  0  1  0  0  0  0  0999 V2000
  132.5318  133.1717  160.0989 O   0  0  0  0  0  0  0  0  0  0  0  0
  132.3154  134.1450  159.4033 C   0  0  0  0  0  0  0  0  0  0  0  0
  131.7266  133.9960  158.2001 N   0  0  0  0  0  0  0  0  0  0  0  0
  131.3475  132.6610  157.7304 C   0  0  0  0  0  0  0  0  0  0  0  0
  129.9197  132.3481  158.1823 C   0  0  1  0  0  0  0  0  0  0  0  0
  129.5075  131.5504  157.5643 H   0  0  0  0  0  0  0  0  0  0  0  0
  129.9303  131.9073  159.6501 C   0  0  0  0  0  0  0  0  0  0  0  0
  128.4924  131.8311  160.1716 C   0  0  0  0  0  0  0  0  0  0  0  0
  127.9175  133.2493  160.2782 C   0  0  0  0  0  0  0  0  0  0  0  0
  128.1926  133.9689  158.9789 C   0  0  0  0  0  0  0  0  0  0  0  0
  127.6369  135.0641  158.5495 N   0  0  0  0  0  0  0  0  0  0  0  0
  126.9579  135.5718  159.0208 H   0  0  0  0  0  0  0  0  0  0  0  0
  128.1520  135.3801  157.3503 C   0  0  0  0  0  0  0  0  0  0  0  0
  129.0642  134.4412  157.0261 C   0  0  0  0  0  0  0  0  0  0  0  0
  129.0904  133.5490  158.0563 N   0  0  0  0  0  0  0  0  0  0  0  0
  132.6642  135.3731  159.8354 N   0  0  0  0  0  0  0  0  0  0  0  0
  133.2728  135.5272  161.0789 C   0  0  0  0  0  0  0  0  0  0  0  0
  134.0784  134.5681  161.6576 C   0  0  0  0  0  0  0  0  0  0  0  0
  134.5706  134.8891  162.8583 C   0  0  0  0  0  0  0  0  0  0  0  0
  134.0533  136.4400  163.3445 S   0  0  0  0  0  0  0  0  0  0  0  0
  133.1358  136.6566  161.8605 C   0  0  0  0  0  0  0  0  0  0  0  0
  132.3807  137.7926  161.5270 C   0  0  0  0  0  0  0  0  0  0  0  0
  131.3936  137.6820  160.8267 O   0  0  0  0  0  0  0  0  0  0  0  0
  132.7945  139.1488  162.0374 C   0  0  0  0  0  0  0  0  0  0  0  0
  133.7325  139.7928  161.0492 C   0  0  0  0  0  0  0  0  0  0  0  0
  134.7032  140.6727  161.4900 C   0  0  0  0  0  0  0  0  0  0  0  0
  135.5636  141.2634  160.5835 C   0  0  0  0  0  0  0  0  0  0  0  0
  135.4539  140.9734  159.2364 C   0  0  0  0  0  0  0  0  0  0  0  0
  134.4801  140.0971  158.7951 C   0  0  0  0  0  0  0  0  0  0  0  0
  133.6225  139.5031  159.7020 C   0  0  0  0  0  0  0  0  0  0  0  0
  131.5732  140.0152  162.2085 C   0  0  0  0  0  0  0  0  0  0  0  0
  131.1339  140.8049  161.1625 C   0  0  0  0  0  0  0  0  0  0  0  0
  130.0109  141.5959  161.3179 C   0  0  0  0  0  0  0  0  0  0  0  0
  129.3333  141.6050  162.5228 C   0  0  0  0  0  0  0  0  0  0  0  0
  129.7758  140.8192  163.5704 C   0  0  0  0  0  0  0  0  0  0  0  0
  130.8957  140.0244  163.4134 C   0  0  0  0  0  0  0  0  0  0  0  0
  131.5540  134.7726  157.6451 H   0  0  0  0  0  0  0  0  0  0  0  0
  131.3991  132.6305  156.6422 H   0  0  0  0  0  0  0  0  0  0  0  0
  132.0310  131.9215  158.1477 H   0  0  0  0  0  0  0  0  0  0  0  0
  130.3988  130.9264  159.7314 H   0  0  0  0  0  0  0  0  0  0  0  0
  130.4937  132.6287  160.2420 H   0  0  0  0  0  0  0  0  0  0  0  0
  127.8860  131.2433  159.4824 H   0  0  0  0  0  0  0  0  0  0  0  0
  128.4861  131.3602  161.1545 H   0  0  0  0  0  0  0  0  0  0  0  0
  126.8424  133.1983  160.4497 H   0  0  0  0  0  0  0  0  0  0  0  0
  128.3970  133.7796  161.1009 H   0  0  0  0  0  0  0  0  0  0  0  0
  127.8825  136.2365  156.7499 H   0  0  0  0  0  0  0  0  0  0  0  0
  129.6581  134.4031  156.1249 H   0  0  0  0  0  0  0  0  0  0  0  0
  132.4916  136.1496  159.2804 H   0  0  0  0  0  0  0  0  0  0  0  0
  134.2925  133.6248  161.1772 H   0  0  0  0  0  0  0  0  0  0  0  0
  135.2129  134.2489  163.4449 H   0  0  0  0  0  0  0  0  0  0  0  0
  133.2983  139.0376  162.9975 H   0  0  0  0  0  0  0  0  0  0  0  0
  134.7891  140.8990  162.5425 H   0  0  0  0  0  0  0  0  0  0  0  0
  136.3217  141.9512  160.9278 H   0  0  0  0  0  0  0  0  0  0  0  0
  136.1262  141.4348  158.5282 H   0  0  0  0  0  0  0  0  0  0  0  0
  134.3915  139.8740  157.7421 H   0  0  0  0  0  0  0  0  0  0  0  0
  132.8643  138.8154  159.3577 H   0  0  0  0  0  0  0  0  0  0  0  0
  131.6658  140.8010  160.2225 H   0  0  0  0  0  0  0  0  0  0  0  0
  129.6655  142.2100  160.4994 H   0  0  0  0  0  0  0  0  0  0  0  0
  128.4585  142.2264  162.6457 H   0  0  0  0  0  0  0  0  0  0  0  0
  129.2466  140.8267  164.5119 H   0  0  0  0  0  0  0  0  0  0  0  0
  131.2415  139.4108  164.2321 H   0  0  0  0  0  0  0  0  0  0  0  0
  1  2  2  0
  2  3  1  0
  2 16  1  0
  3  4  1  0
  3 37  1  0
  4  5  1  0
  4 38  1  0
  4 39  1  0
  5  6  1  6
  5 15  1  0
  5  7  1  0
  7  8  1  0
  7 40  1  0
  7 41  1  0
  8  9  1  0
  8 42  1  0
  8 43  1  0
  9 44  1  0
  9 45  1  0
 10  9  1  0
 10 15  1  0
 10 11  2  0
 11 12  1  0
 11 13  1  0
 13 14  2  0
 13 46  1  0
 14 15  1  0
 14 47  1  0
 16 17  1  0
 16 48  1  0
 17 21  2  0
 17 18  1  0
 18 19  2  0
 18 49  1  0
 19 20  1  0
 19 50  1  0
 20 21  1  0
 21 22  1  0
 22 23  2  0
 22 24  1  0
 24 25  1  0
 24 31  1  0
 24 51  1  0
 25 30  1  0
 25 26  2  0
 26 27  1  0
 26 52  1  0
 27 28  2  0
 27 53  1  0
 28 29  1  0
 28 54  1  0
 29 30  2  0
 29 55  1  0
 30 56  1  0
 31 36  1  0
 31 32  2  0
 32 33  1  0
 32 57  1  0
 33 34  2  0
 33 58  1  0
 34 35  1  0
 34 59  1  0
 35 36  2  0
 35 60  1  0
 36 61  1  0
M  CHG  1  11   1
M  END
>  <DOCK_score>  (1) 
-57.754509

>  <SMILES>  (1) 
O=C(NC[C@H]1CCCc2[nH+]ccn21)Nc1ccsc1C(=O)C(c1ccccc1)c1ccccc1

$$$$
