CC=CSc1ccccc1N1CC[NH+]([C@@H](c2ccccc2)c2ccc(C)cc2)CC1
     RDKit          3D

 61 64  0  0  1  0  0  0  0  0999 V2000
  130.5356  135.5555  165.4608 C   0  0  0  0  0  0  0  0  0  0  0  0
  131.6154  134.9507  164.6008 C   0  0  0  0  0  0  0  0  0  0  0  0
  132.8151  135.5029  164.5610 C   0  0  0  0  0  0  0  0  0  0  0  0
  134.0775  134.7959  163.5555 S   0  0  0  0  0  0  0  0  0  0  0  0
  134.4762  136.1024  162.4426 C   0  0  0  0  0  0  0  0  0  0  0  0
  135.4672  137.0169  162.7695 C   0  0  0  0  0  0  0  0  0  0  0  0
  135.7784  138.0406  161.8945 C   0  0  0  0  0  0  0  0  0  0  0  0
  135.1047  138.1574  160.6924 C   0  0  0  0  0  0  0  0  0  0  0  0
  134.1156  137.2507  160.3584 C   0  0  0  0  0  0  0  0  0  0  0  0
  133.7966  136.2204  161.2298 C   0  0  0  0  0  0  0  0  0  0  0  0
  132.7962  135.3013  160.8935 N   0  0  0  0  0  0  0  0  0  0  0  0
  133.1700  134.5290  159.7001 C   0  0  0  0  0  0  0  0  0  0  0  0
  132.0799  133.4974  159.4016 C   0  0  0  0  0  0  0  0  0  0  0  0
  130.8014  134.1858  159.1799 N   0  0  0  0  0  0  0  0  0  0  0  0
  130.8941  134.8253  158.4051 H   0  0  0  0  0  0  0  0  0  0  0  0
  129.7590  133.1964  158.8758 C   0  0  1  0  0  0  0  0  0  0  0  0
  129.6592  132.5050  159.7125 H   0  0  0  0  0  0  0  0  0  0  0  0
  128.4473  133.9026  158.6482 C   0  0  0  0  0  0  0  0  0  0  0  0
  127.2581  133.2655  158.9495 C   0  0  0  0  0  0  0  0  0  0  0  0
  126.0550  133.9148  158.7448 C   0  0  0  0  0  0  0  0  0  0  0  0
  126.0408  135.1978  158.2304 C   0  0  0  0  0  0  0  0  0  0  0  0
  127.2299  135.8328  157.9242 C   0  0  0  0  0  0  0  0  0  0  0  0
  128.4331  135.1852  158.1329 C   0  0  0  0  0  0  0  0  0  0  0  0
  130.1397  132.4313  157.6345 C   0  0  0  0  0  0  0  0  0  0  0  0
  130.3237  133.1008  156.4392 C   0  0  0  0  0  0  0  0  0  0  0  0
  130.6780  132.3996  155.3018 C   0  0  0  0  0  0  0  0  0  0  0  0
  130.8376  131.0275  155.3572 C   0  0  0  0  0  0  0  0  0  0  0  0
  131.2186  130.2625  154.1160 C   0  0  0  0  0  0  0  0  0  0  0  0
  130.6479  130.3574  156.5513 C   0  0  0  0  0  0  0  0  0  0  0  0
  130.2992  131.0593  157.6901 C   0  0  0  0  0  0  0  0  0  0  0  0
  130.4294  134.9326  160.3889 C   0  0  0  0  0  0  0  0  0  0  0  0
  131.5057  135.9763  160.6954 C   0  0  0  0  0  0  0  0  0  0  0  0
  130.8591  135.5580  166.5017 H   0  0  0  0  0  0  0  0  0  0  0  0
  130.3439  136.5786  165.1373 H   0  0  0  0  0  0  0  0  0  0  0  0
  129.6231  134.9671  165.3654 H   0  0  0  0  0  0  0  0  0  0  0  0
  131.4086  134.0658  164.0172 H   0  0  0  0  0  0  0  0  0  0  0  0
  133.0219  136.3878  165.1447 H   0  0  0  0  0  0  0  0  0  0  0  0
  135.9950  136.9289  163.7076 H   0  0  0  0  0  0  0  0  0  0  0  0
  136.5469  138.7543  162.1524 H   0  0  0  0  0  0  0  0  0  0  0  0
  135.3517  138.9595  160.0127 H   0  0  0  0  0  0  0  0  0  0  0  0
  133.5917  137.3449  159.4187 H   0  0  0  0  0  0  0  0  0  0  0  0
  133.2759  135.2026  158.8496 H   0  0  0  0  0  0  0  0  0  0  0  0
  134.1155  134.0175  159.8793 H   0  0  0  0  0  0  0  0  0  0  0  0
  131.9836  132.8157  160.2468 H   0  0  0  0  0  0  0  0  0  0  0  0
  132.3483  132.9332  158.5085 H   0  0  0  0  0  0  0  0  0  0  0  0
  127.2690  132.2617  159.3479 H   0  0  0  0  0  0  0  0  0  0  0  0
  125.1260  133.4187  158.9843 H   0  0  0  0  0  0  0  0  0  0  0  0
  125.1007  135.7041  158.0679 H   0  0  0  0  0  0  0  0  0  0  0  0
  127.2187  136.8353  157.5221 H   0  0  0  0  0  0  0  0  0  0  0  0
  129.3620  135.6813  157.8936 H   0  0  0  0  0  0  0  0  0  0  0  0
  130.1947  134.1721  156.3948 H   0  0  0  0  0  0  0  0  0  0  0  0
  130.8264  132.9231  154.3688 H   0  0  0  0  0  0  0  0  0  0  0  0
  130.3164  129.9529  153.5887 H   0  0  0  0  0  0  0  0  0  0  0  0
  131.8186  130.8997  153.4664 H   0  0  0  0  0  0  0  0  0  0  0  0
  131.7966  129.3815  154.3954 H   0  0  0  0  0  0  0  0  0  0  0  0
  130.7726  129.2855  156.5946 H   0  0  0  0  0  0  0  0  0  0  0  0
  130.1511  130.5357  158.6229 H   0  0  0  0  0  0  0  0  0  0  0  0
  130.3415  134.2436  161.2289 H   0  0  0  0  0  0  0  0  0  0  0  0
  129.4742  135.4324  160.2277 H   0  0  0  0  0  0  0  0  0  0  0  0
  131.2373  136.5204  161.6010 H   0  0  0  0  0  0  0  0  0  0  0  0
  131.5842  136.6736  159.8614 H   0  0  0  0  0  0  0  0  0  0  0  0
  1  2  1  0
  1 33  1  0
  1 34  1  0
  1 35  1  0
  2  3  2  0
  2 36  1  0
  3  4  1  0
  3 37  1  0
  4  5  1  0
  5 10  2  0
  5  6  1  0
  6  7  2  0
  6 38  1  0
  7  8  1  0
  7 39  1  0
  8  9  2  0
  8 40  1  0
  9 10  1  0
  9 41  1  0
 10 11  1  0
 11 32  1  0
 11 12  1  0
 12 13  1  0
 12 42  1  0
 12 43  1  0
 13 14  1  0
 13 44  1  0
 13 45  1  0
 14 15  1  0
 14 16  1  0
 14 31  1  0
 16 17  1  1
 16 18  1  0
 16 24  1  0
 18 23  1  0
 18 19  2  0
 19 20  1  0
 19 46  1  0
 20 21  2  0
 20 47  1  0
 21 22  1  0
 21 48  1  0
 22 23  2  0
 22 49  1  0
 23 50  1  0
 24 30  1  0
 24 25  2  0
 25 26  1  0
 25 51  1  0
 26 27  2  0
 26 52  1  0
 27 28  1  0
 27 29  1  0
 28 53  1  0
 28 54  1  0
 28 55  1  0
 29 30  2  0
 29 56  1  0
 30 57  1  0
 31 32  1  0
 31 58  1  0
 31 59  1  0
 32 60  1  0
 32 61  1  0
M  CHG  1  14   1
M  END
>  <DOCK_score>  (1) 
-56.211418

>  <SMILES>  (1) 
CC=CSc1ccccc1N1CC[NH+]([C@@H](c2ccccc2)c2ccc(C)cc2)CC1

$$$$
