OC(C[C@H]1CC1(F)F)C(Nc1[nH]cc(-c2ccc(Br)cc2)[nH+]1)c1ccccc1
     RDKit          3D

 49 52  0  0  1  0  0  0  0  0999 V2000
  127.6172  136.3366  158.7459 O   0  0  0  0  0  0  0  0  0  0  0  0
  127.7722  135.4406  159.8481 C   0  0  2  0  0  0  0  0  0  0  0  0
  126.7129  135.7484  160.9084 C   0  0  0  0  0  0  0  0  0  0  0  0
  125.3811  135.1174  160.4970 C   0  0  1  0  0  0  0  0  0  0  0  0
  124.9724  135.4599  159.5464 H   0  0  0  0  0  0  0  0  0  0  0  0
  125.1423  133.6565  160.8839 C   0  0  0  0  0  0  0  0  0  0  0  0
  124.3889  134.7731  161.6096 C   0  0  0  0  0  0  0  0  0  0  0  0
  124.7688  135.0595  162.9252 F   0  0  0  0  0  0  0  0  0  0  0  0
  123.0265  134.9216  161.3288 F   0  0  0  0  0  0  0  0  0  0  0  0
  129.1661  135.6144  160.4545 C   0  0  1  0  0  0  0  0  0  0  0  0
  130.1804  135.3196  159.4393 N   0  0  0  0  0  0  0  0  0  0  0  0
  130.2259  134.0681  158.8492 C   0  0  0  0  0  0  0  0  0  0  0  0
  129.8552  132.8993  159.4397 N   0  0  0  0  0  0  0  0  0  0  0  0
  129.5150  132.7942  160.3420 H   0  0  0  0  0  0  0  0  0  0  0  0
  130.0491  131.8965  158.5211 C   0  0  0  0  0  0  0  0  0  0  0  0
  130.5411  132.4795  157.3999 C   0  0  0  0  0  0  0  0  0  0  0  0
  130.9074  131.7829  156.1426 C   0  0  0  0  0  0  0  0  0  0  0  0
  130.7943  132.4418  154.9197 C   0  0  0  0  0  0  0  0  0  0  0  0
  131.1414  131.7911  153.7533 C   0  0  0  0  0  0  0  0  0  0  0  0
  131.5912  130.4827  153.7955 C   0  0  0  0  0  0  0  0  0  0  0  0
  132.0582  129.5949  152.1926 Br  0  0  0  0  0  0  0  0  0  0  0  0
  131.7000  129.8220  155.0069 C   0  0  0  0  0  0  0  0  0  0  0  0
  131.3605  130.4653  156.1794 C   0  0  0  0  0  0  0  0  0  0  0  0
  130.6385  133.8127  157.6317 N   0  0  0  0  0  0  0  0  0  0  0  0
  130.9613  134.4717  156.9973 H   0  0  0  0  0  0  0  0  0  0  0  0
  129.3323  137.0336  160.9333 C   0  0  0  0  0  0  0  0  0  0  0  0
  129.8419  137.9954  160.0812 C   0  0  0  0  0  0  0  0  0  0  0  0
  129.9898  139.2981  160.5191 C   0  0  0  0  0  0  0  0  0  0  0  0
  129.6379  139.6369  161.8122 C   0  0  0  0  0  0  0  0  0  0  0  0
  129.1332  138.6740  162.6659 C   0  0  0  0  0  0  0  0  0  0  0  0
  128.9804  137.3723  162.2265 C   0  0  0  0  0  0  0  0  0  0  0  0
  128.2571  136.1990  158.0340 H   0  0  0  0  0  0  0  0  0  0  0  0
  127.6520  134.4142  159.5018 H   0  0  0  0  0  0  0  0  0  0  0  0
  127.0287  135.3378  161.8675 H   0  0  0  0  0  0  0  0  0  0  0  0
  126.5912  136.8280  160.9977 H   0  0  0  0  0  0  0  0  0  0  0  0
  124.5764  133.0375  160.1877 H   0  0  0  0  0  0  0  0  0  0  0  0
  125.9338  133.1450  161.4315 H   0  0  0  0  0  0  0  0  0  0  0  0
  129.2844  134.9309  161.2953 H   0  0  0  0  0  0  0  0  0  0  0  0
  130.8175  136.0026  159.1777 H   0  0  0  0  0  0  0  0  0  0  0  0
  129.8524  130.8444  158.6658 H   0  0  0  0  0  0  0  0  0  0  0  0
  130.4391  133.4613  154.8852 H   0  0  0  0  0  0  0  0  0  0  0  0
  131.0581  132.3022  152.8055 H   0  0  0  0  0  0  0  0  0  0  0  0
  132.0507  128.8008  155.0344 H   0  0  0  0  0  0  0  0  0  0  0  0
  131.4459  129.9490  157.1241 H   0  0  0  0  0  0  0  0  0  0  0  0
  130.1210  137.7298  159.0724 H   0  0  0  0  0  0  0  0  0  0  0  0
  130.3845  140.0505  159.8521 H   0  0  0  0  0  0  0  0  0  0  0  0
  129.7577  140.6539  162.1557 H   0  0  0  0  0  0  0  0  0  0  0  0
  128.8586  138.9386  163.6764 H   0  0  0  0  0  0  0  0  0  0  0  0
  128.5864  136.6199  162.8937 H   0  0  0  0  0  0  0  0  0  0  0  0
  1  2  1  0
  1 32  1  0
  2  3  1  0
  2 10  1  0
  2 33  1  6
  3  4  1  0
  3 34  1  0
  3 35  1  0
  4  5  1  6
  4  7  1  0
  4  6  1  0
  6  7  1  0
  6 36  1  0
  6 37  1  0
  7  8  1  0
  7  9  1  0
 10 11  1  0
 10 26  1  0
 10 38  1  1
 11 39  1  0
 12 11  1  0
 12 24  2  0
 12 13  1  0
 13 14  1  0
 13 15  1  0
 15 16  2  0
 15 40  1  0
 16 17  1  0
 16 24  1  0
 17 23  1  0
 17 18  2  0
 18 19  1  0
 18 41  1  0
 19 20  2  0
 19 42  1  0
 20 21  1  0
 20 22  1  0
 22 23  2  0
 22 43  1  0
 23 44  1  0
 24 25  1  0
 26 31  1  0
 26 27  2  0
 27 28  1  0
 27 45  1  0
 28 29  2  0
 28 46  1  0
 29 30  1  0
 29 47  1  0
 30 31  2  0
 30 48  1  0
 31 49  1  0
M  CHG  1  24   1
M  END
>  <DOCK_score>  (1) 
-57.078892

>  <SMILES>  (1) 
OC(C[C@H]1CC1(F)F)C(Nc1[nH]cc(-c2ccc(Br)cc2)[nH+]1)c1ccccc1

$$$$
