Cc1cccc(-c2ccc(-c3n[nH]cc3C[NH2+]CCc3ccccn3)cc2)c1
     RDKit          3D

 53 56  0  0  0  0  0  0  0  0999 V2000
  130.0436  131.3157  152.0170 C   0  0  0  0  0  0  0  0  0  0  0  0
  130.3699  131.1087  153.4737 C   0  0  0  0  0  0  0  0  0  0  0  0
  131.1610  130.0411  153.8592 C   0  0  0  0  0  0  0  0  0  0  0  0
  131.4648  129.8453  155.1941 C   0  0  0  0  0  0  0  0  0  0  0  0
  130.9790  130.7146  156.1499 C   0  0  0  0  0  0  0  0  0  0  0  0
  130.1814  131.7914  155.7675 C   0  0  0  0  0  0  0  0  0  0  0  0
  129.6566  132.7289  156.7899 C   0  0  0  0  0  0  0  0  0  0  0  0
  129.4249  134.0636  156.4588 C   0  0  0  0  0  0  0  0  0  0  0  0
  128.9370  134.9341  157.4084 C   0  0  0  0  0  0  0  0  0  0  0  0
  128.6745  134.4807  158.7006 C   0  0  0  0  0  0  0  0  0  0  0  0
  128.1487  135.4181  159.7230 C   0  0  0  0  0  0  0  0  0  0  0  0
  127.0031  135.3048  160.3618 N   0  0  0  0  0  0  0  0  0  0  0  0
  126.8837  136.3913  161.2376 N   0  0  0  0  0  0  0  0  0  0  0  0
  126.1381  136.5625  161.8340 H   0  0  0  0  0  0  0  0  0  0  0  0
  127.9871  137.1593  161.1079 C   0  0  0  0  0  0  0  0  0  0  0  0
  128.7846  136.5900  160.1783 C   0  0  0  0  0  0  0  0  0  0  0  0
  130.1191  137.1133  159.7132 C   0  0  0  0  0  0  0  0  0  0  0  0
  130.9149  137.5278  160.8764 N   0  0  0  0  0  0  0  0  0  0  0  0
  130.4250  138.2537  161.3775 H   0  0  0  0  0  0  0  0  0  0  0  0
  131.0578  136.7362  161.4855 H   0  0  0  0  0  0  0  0  0  0  0  0
  132.2157  138.0379  160.4231 C   0  0  0  0  0  0  0  0  0  0  0  0
  133.0445  138.4695  161.6345 C   0  0  0  0  0  0  0  0  0  0  0  0
  134.3790  138.9929  161.1694 C   0  0  0  0  0  0  0  0  0  0  0  0
  135.3004  139.4368  162.0992 C   0  0  0  0  0  0  0  0  0  0  0  0
  136.5253  139.9158  161.6609 C   0  0  0  0  0  0  0  0  0  0  0  0
  136.7787  139.9305  160.2977 C   0  0  0  0  0  0  0  0  0  0  0  0
  135.8089  139.4704  159.4275 C   0  0  0  0  0  0  0  0  0  0  0  0
  134.6563  139.0168  159.8805 N   0  0  0  0  0  0  0  0  0  0  0  0
  128.9114  133.1475  159.0333 C   0  0  0  0  0  0  0  0  0  0  0  0
  129.3943  132.2756  158.0823 C   0  0  0  0  0  0  0  0  0  0  0  0
  129.8740  131.9809  154.4211 C   0  0  0  0  0  0  0  0  0  0  0  0
  129.1258  130.7818  151.7709 H   0  0  0  0  0  0  0  0  0  0  0  0
  129.9083  132.3795  151.8226 H   0  0  0  0  0  0  0  0  0  0  0  0
  130.8607  130.9354  151.4042 H   0  0  0  0  0  0  0  0  0  0  0  0
  131.5428  129.3582  153.1148 H   0  0  0  0  0  0  0  0  0  0  0  0
  132.0830  129.0104  155.4892 H   0  0  0  0  0  0  0  0  0  0  0  0
  131.2163  130.5603  157.1922 H   0  0  0  0  0  0  0  0  0  0  0  0
  129.6277  134.4145  155.4578 H   0  0  0  0  0  0  0  0  0  0  0  0
  128.7577  135.9678  157.1520 H   0  0  0  0  0  0  0  0  0  0  0  0
  128.1933  138.0709  161.6490 H   0  0  0  0  0  0  0  0  0  0  0  0
  130.6481  136.3290  159.1719 H   0  0  0  0  0  0  0  0  0  0  0  0
  129.9648  137.9684  159.0552 H   0  0  0  0  0  0  0  0  0  0  0  0
  132.7449  137.2537  159.8816 H   0  0  0  0  0  0  0  0  0  0  0  0
  132.0614  138.8930  159.7651 H   0  0  0  0  0  0  0  0  0  0  0  0
  132.5154  139.2538  162.1758 H   0  0  0  0  0  0  0  0  0  0  0  0
  133.1989  137.6145  162.2925 H   0  0  0  0  0  0  0  0  0  0  0  0
  135.0690  139.4111  163.1538 H   0  0  0  0  0  0  0  0  0  0  0  0
  137.2647  140.2689  162.3646 H   0  0  0  0  0  0  0  0  0  0  0  0
  137.7223  140.2966  159.9208 H   0  0  0  0  0  0  0  0  0  0  0  0
  135.9985  139.4785  158.3643 H   0  0  0  0  0  0  0  0  0  0  0  0
  128.7125  132.7975  160.0355 H   0  0  0  0  0  0  0  0  0  0  0  0
  129.5737  131.2420  158.3389 H   0  0  0  0  0  0  0  0  0  0  0  0
  129.2524  132.8110  154.1196 H   0  0  0  0  0  0  0  0  0  0  0  0
  1  2  1  0
  1 32  1  0
  1 33  1  0
  1 34  1  0
  2 31  2  0
  2  3  1  0
  3  4  2  0
  3 35  1  0
  4  5  1  0
  4 36  1  0
  5  6  2  0
  5 37  1  0
  6  7  1  0
  6 31  1  0
  7 30  1  0
  7  8  2  0
  8  9  1  0
  8 38  1  0
  9 10  2  0
  9 39  1  0
 10 11  1  0
 10 29  1  0
 11 16  1  0
 11 12  2  0
 12 13  1  0
 13 14  1  0
 13 15  1  0
 15 16  2  0
 15 40  1  0
 16 17  1  0
 17 18  1  0
 17 41  1  0
 17 42  1  0
 18 19  1  0
 18 20  1  0
 18 21  1  0
 21 22  1  0
 21 43  1  0
 21 44  1  0
 22 23  1  0
 22 45  1  0
 22 46  1  0
 23 28  1  0
 23 24  2  0
 24 25  1  0
 24 47  1  0
 25 26  2  0
 25 48  1  0
 26 27  1  0
 26 49  1  0
 27 28  2  0
 27 50  1  0
 29 30  2  0
 29 51  1  0
 30 52  1  0
 31 53  1  0
M  CHG  1  18   1
M  END
>  <DOCK_score>  (1) 
-45.447353

>  <SMILES>  (1) 
Cc1cccc(-c2ccc(-c3n[nH]cc3C[NH2+]CCc3ccccn3)cc2)c1

$$$$
