Nc1ccc(-c2ccc(Nc3ccc(-c4n[nH]cc4C[NH2+][C@@H]4C=CCC4)o3)cc2)cc1
     RDKit          3D

 57 61  0  0  1  0  0  0  0  0999 V2000
  131.3090  140.2714  169.2050 N   0  0  0  0  0  0  0  0  0  0  0  0
  130.5620  139.7191  168.1627 C   0  0  0  0  0  0  0  0  0  0  0  0
  129.2311  140.0828  167.9942 C   0  0  0  0  0  0  0  0  0  0  0  0
  128.4916  139.5386  166.9656 C   0  0  0  0  0  0  0  0  0  0  0  0
  129.0799  138.6232  166.0940 C   0  0  0  0  0  0  0  0  0  0  0  0
  128.2865  138.0361  164.9870 C   0  0  0  0  0  0  0  0  0  0  0  0
  128.5733  136.7512  164.5275 C   0  0  0  0  0  0  0  0  0  0  0  0
  127.8375  136.2090  163.4957 C   0  0  0  0  0  0  0  0  0  0  0  0
  126.8032  136.9384  162.9198 C   0  0  0  0  0  0  0  0  0  0  0  0
  126.0555  136.3851  161.8788 N   0  0  0  0  0  0  0  0  0  0  0  0
  126.6424  135.4715  161.0107 C   0  0  0  0  0  0  0  0  0  0  0  0
  125.9995  134.4671  160.3640 C   0  0  0  0  0  0  0  0  0  0  0  0
  126.9650  133.7899  159.5938 C   0  0  0  0  0  0  0  0  0  0  0  0
  128.1516  134.4169  159.8097 C   0  0  0  0  0  0  0  0  0  0  0  0
  129.4483  134.0472  159.2054 C   0  0  0  0  0  0  0  0  0  0  0  0
  129.6566  133.0574  158.3597 N   0  0  0  0  0  0  0  0  0  0  0  0
  131.0178  133.0473  158.0293 N   0  0  0  0  0  0  0  0  0  0  0  0
  131.4519  132.4244  157.4257 H   0  0  0  0  0  0  0  0  0  0  0  0
  131.6212  134.0544  158.6970 C   0  0  0  0  0  0  0  0  0  0  0  0
  130.6824  134.6944  159.4262 C   0  0  0  0  0  0  0  0  0  0  0  0
  130.9123  135.8861  160.3196 C   0  0  0  0  0  0  0  0  0  0  0  0
  132.3319  136.2614  160.2796 N   0  0  0  0  0  0  0  0  0  0  0  0
  132.8936  135.4871  160.6005 H   0  0  0  0  0  0  0  0  0  0  0  0
  132.5914  136.4956  159.3331 H   0  0  0  0  0  0  0  0  0  0  0  0
  132.5560  137.4231  161.1506 C   0  0  2  0  0  0  0  0  0  0  0  0
  131.9740  137.3273  162.0672 H   0  0  0  0  0  0  0  0  0  0  0  0
  132.1943  138.7000  160.4283 C   0  0  0  0  0  0  0  0  0  0  0  0
  133.2672  139.3216  160.0118 C   0  0  0  0  0  0  0  0  0  0  0  0
  134.5181  138.5625  160.3888 C   0  0  0  0  0  0  0  0  0  0  0  0
  134.0600  137.5671  161.4799 C   0  0  0  0  0  0  0  0  0  0  0  0
  127.9413  135.4382  160.6662 O   0  0  0  0  0  0  0  0  0  0  0  0
  126.5124  138.2179  163.3797 C   0  0  0  0  0  0  0  0  0  0  0  0
  127.2489  138.7657  164.4082 C   0  0  0  0  0  0  0  0  0  0  0  0
  130.4137  138.2562  166.2679 C   0  0  0  0  0  0  0  0  0  0  0  0
  131.1507  138.8065  167.2948 C   0  0  0  0  0  0  0  0  0  0  0  0
  130.8990  140.9084  169.8109 H   0  0  0  0  0  0  0  0  0  0  0  0
  132.2378  140.0181  169.3234 H   0  0  0  0  0  0  0  0  0  0  0  0
  128.7758  140.7918  168.6696 H   0  0  0  0  0  0  0  0  0  0  0  0
  127.4573  139.8208  166.8355 H   0  0  0  0  0  0  0  0  0  0  0  0
  129.3737  136.1827  164.9774 H   0  0  0  0  0  0  0  0  0  0  0  0
  128.0617  135.2152  163.1372 H   0  0  0  0  0  0  0  0  0  0  0  0
  125.1266  136.6381  161.7612 H   0  0  0  0  0  0  0  0  0  0  0  0
  124.9475  134.2314  160.4276 H   0  0  0  0  0  0  0  0  0  0  0  0
  126.7952  132.9361  158.9546 H   0  0  0  0  0  0  0  0  0  0  0  0
  132.6704  134.3067  158.6517 H   0  0  0  0  0  0  0  0  0  0  0  0
  130.3054  136.7226  159.9731 H   0  0  0  0  0  0  0  0  0  0  0  0
  130.6320  135.6331  161.3421 H   0  0  0  0  0  0  0  0  0  0  0  0
  131.1844  139.0512  160.2769 H   0  0  0  0  0  0  0  0  0  0  0  0
  133.2595  140.2558  159.4700 H   0  0  0  0  0  0  0  0  0  0  0  0
  135.2699  139.2435  160.7874 H   0  0  0  0  0  0  0  0  0  0  0  0
  134.9127  138.0253  159.5262 H   0  0  0  0  0  0  0  0  0  0  0  0
  134.2041  137.9852  162.4762 H   0  0  0  0  0  0  0  0  0  0  0  0
  134.5758  136.6121  161.3798 H   0  0  0  0  0  0  0  0  0  0  0  0
  125.7086  138.7829  162.9312 H   0  0  0  0  0  0  0  0  0  0  0  0
  127.0227  139.7597  164.7651 H   0  0  0  0  0  0  0  0  0  0  0  0
  130.8701  137.5439  165.5966 H   0  0  0  0  0  0  0  0  0  0  0  0
  132.1850  138.5255  167.4277 H   0  0  0  0  0  0  0  0  0  0  0  0
  1  2  1  0
  1 36  1  0
  1 37  1  0
  2 35  2  0
  2  3  1  0
  3  4  2  0
  3 38  1  0
  4  5  1  0
  4 39  1  0
  5  6  1  0
  5 34  2  0
  6 33  1  0
  6  7  2  0
  7  8  1  0
  7 40  1  0
  8  9  2  0
  8 41  1  0
  9 10  1  0
  9 32  1  0
 10 11  1  0
 10 42  1  0
 11 31  1  0
 11 12  2  0
 12 13  1  0
 12 43  1  0
 13 14  2  0
 13 44  1  0
 14 15  1  0
 14 31  1  0
 15 20  1  0
 15 16  2  0
 16 17  1  0
 17 18  1  0
 17 19  1  0
 19 20  2  0
 19 45  1  0
 20 21  1  0
 21 22  1  0
 21 46  1  0
 21 47  1  0
 22 23  1  0
 22 24  1  0
 22 25  1  0
 25 26  1  1
 25 30  1  0
 25 27  1  0
 27 28  2  0
 27 48  1  0
 28 29  1  0
 28 49  1  0
 29 30  1  0
 29 50  1  0
 29 51  1  0
 30 52  1  0
 30 53  1  0
 32 33  2  0
 32 54  1  0
 33 55  1  0
 34 35  1  0
 34 56  1  0
 35 57  1  0
M  CHG  1  22   1
M  END
>  <DOCK_score>  (1) 
-44.08633

>  <SMILES>  (1) 
Nc1ccc(-c2ccc(Nc3ccc(-c4n[nH]cc4C[NH2+][C@@H]4C=CCC4)o3)cc2)cc1

$$$$
