c1ccc(C[C@H](Nc2[nH]cc(NCc3coc4ccccc34)[nH+]2)c2ccccc2)cc1
     RDKit          3D

 56 60  0  0  1  0  0  0  0  0999 V2000
  133.9060  137.8798  161.2826 C   0  0  0  0  0  0  0  0  0  0  0  0
  133.1875  137.6187  162.4343 C   0  0  0  0  0  0  0  0  0  0  0  0
  131.8170  137.4499  162.3706 C   0  0  0  0  0  0  0  0  0  0  0  0
  131.1636  137.5531  161.1568 C   0  0  0  0  0  0  0  0  0  0  0  0
  129.6686  137.3754  161.0881 C   0  0  0  0  0  0  0  0  0  0  0  0
  129.3410  135.9003  160.8483 C   0  0  2  0  0  0  0  0  0  0  0  0
  129.7408  135.3016  161.6666 H   0  0  0  0  0  0  0  0  0  0  0  0
  129.9428  135.4653  159.5854 N   0  0  0  0  0  0  0  0  0  0  0  0
  129.7805  134.1593  159.1548 C   0  0  0  0  0  0  0  0  0  0  0  0
  129.0847  133.1899  159.8059 N   0  0  0  0  0  0  0  0  0  0  0  0
  128.6147  133.2843  160.6492 H   0  0  0  0  0  0  0  0  0  0  0  0
  129.1732  132.0432  159.0373 C   0  0  0  0  0  0  0  0  0  0  0  0
  129.9151  132.3564  157.9546 C   0  0  0  0  0  0  0  0  0  0  0  0
  130.2547  131.4831  156.9086 N   0  0  0  0  0  0  0  0  0  0  0  0
  131.3922  131.7903  156.0381 C   0  0  0  0  0  0  0  0  0  0  0  0
  130.9151  131.9170  154.6142 C   0  0  0  0  0  0  0  0  0  0  0  0
  130.4977  133.0333  154.0018 C   0  0  0  0  0  0  0  0  0  0  0  0
  130.1496  132.7623  152.7317 O   0  0  0  0  0  0  0  0  0  0  0  0
  130.3233  131.4546  152.4542 C   0  0  0  0  0  0  0  0  0  0  0  0
  130.1177  130.6826  151.3174 C   0  0  0  0  0  0  0  0  0  0  0  0
  130.3967  129.3330  151.3456 C   0  0  0  0  0  0  0  0  0  0  0  0
  130.8822  128.7343  152.4993 C   0  0  0  0  0  0  0  0  0  0  0  0
  131.0919  129.4762  153.6285 C   0  0  0  0  0  0  0  0  0  0  0  0
  130.8206  130.8436  153.6175 C   0  0  0  0  0  0  0  0  0  0  0  0
  130.2684  133.6516  158.0470 N   0  0  0  0  0  0  0  0  0  0  0  0
  130.8022  134.1347  157.3968 H   0  0  0  0  0  0  0  0  0  0  0  0
  127.8459  135.7225  160.7798 C   0  0  0  0  0  0  0  0  0  0  0  0
  127.1289  135.4502  161.9300 C   0  0  0  0  0  0  0  0  0  0  0  0
  125.7572  135.2916  161.8678 C   0  0  0  0  0  0  0  0  0  0  0  0
  125.1035  135.3960  160.6544 C   0  0  0  0  0  0  0  0  0  0  0  0
  125.8212  135.6630  159.5034 C   0  0  0  0  0  0  0  0  0  0  0  0
  127.1925  135.8260  159.5663 C   0  0  0  0  0  0  0  0  0  0  0  0
  131.8814  137.8197  160.0058 C   0  0  0  0  0  0  0  0  0  0  0  0
  133.2526  137.9830  160.0688 C   0  0  0  0  0  0  0  0  0  0  0  0
  134.9772  138.0078  161.3319 H   0  0  0  0  0  0  0  0  0  0  0  0
  133.6974  137.5424  163.3833 H   0  0  0  0  0  0  0  0  0  0  0  0
  131.2560  137.2421  163.2697 H   0  0  0  0  0  0  0  0  0  0  0  0
  129.2207  137.6991  162.0275 H   0  0  0  0  0  0  0  0  0  0  0  0
  129.2688  137.9741  160.2697 H   0  0  0  0  0  0  0  0  0  0  0  0
  130.4548  136.0922  159.0509 H   0  0  0  0  0  0  0  0  0  0  0  0
  128.7337  131.0824  159.2608 H   0  0  0  0  0  0  0  0  0  0  0  0
  129.7361  130.6765  156.7627 H   0  0  0  0  0  0  0  0  0  0  0  0
  131.8481  132.7288  156.3534 H   0  0  0  0  0  0  0  0  0  0  0  0
  132.1277  130.9886  156.1048 H   0  0  0  0  0  0  0  0  0  0  0  0
  130.4478  134.0092  154.4617 H   0  0  0  0  0  0  0  0  0  0  0  0
  129.7398  131.1387  150.4143 H   0  0  0  0  0  0  0  0  0  0  0  0
  130.2355  128.7354  150.4606 H   0  0  0  0  0  0  0  0  0  0  0  0
  131.0959  127.6757  152.5053 H   0  0  0  0  0  0  0  0  0  0  0  0
  131.4706  129.0058  154.5239 H   0  0  0  0  0  0  0  0  0  0  0  0
  127.6401  135.3650  162.8775 H   0  0  0  0  0  0  0  0  0  0  0  0
  125.1965  135.0833  162.7671 H   0  0  0  0  0  0  0  0  0  0  0  0
  124.0321  135.2693  160.6054 H   0  0  0  0  0  0  0  0  0  0  0  0
  125.3106  135.7446  158.5553 H   0  0  0  0  0  0  0  0  0  0  0  0
  127.7532  136.0345  158.6671 H   0  0  0  0  0  0  0  0  0  0  0  0
  131.3710  137.9005  159.0575 H   0  0  0  0  0  0  0  0  0  0  0  0
  133.8134  138.1916  159.1697 H   0  0  0  0  0  0  0  0  0  0  0  0
  1 34  2  0
  1  2  1  0
  1 35  1  0
  2  3  2  0
  2 36  1  0
  3  4  1  0
  3 37  1  0
  4  5  1  0
  4 33  2  0
  5  6  1  0
  5 38  1  0
  5 39  1  0
  6  7  1  1
  6  8  1  0
  6 27  1  0
  8 40  1  0
  9  8  1  0
  9 25  2  0
  9 10  1  0
 10 11  1  0
 10 12  1  0
 12 13  2  0
 12 41  1  0
 13 14  1  0
 13 25  1  0
 14 15  1  0
 14 42  1  0
 15 16  1  0
 15 43  1  0
 15 44  1  0
 16 24  1  0
 16 17  2  0
 17 18  1  0
 17 45  1  0
 18 19  1  0
 19 24  2  0
 19 20  1  0
 20 21  2  0
 20 46  1  0
 21 22  1  0
 21 47  1  0
 22 23  2  0
 22 48  1  0
 23 24  1  0
 23 49  1  0
 25 26  1  0
 27 32  1  0
 27 28  2  0
 28 29  1  0
 28 50  1  0
 29 30  2  0
 29 51  1  0
 30 31  1  0
 30 52  1  0
 31 32  2  0
 31 53  1  0
 32 54  1  0
 33 34  1  0
 33 55  1  0
 34 56  1  0
M  CHG  1  25   1
M  END
>  <DOCK_score>  (1) 
-63.12384

>  <SMILES>  (1) 
c1ccc(C[C@H](Nc2[nH]cc(NCc3coc4ccccc34)[nH+]2)c2ccccc2)cc1

$$$$
