O[C@@H]1C=C[C@@H]([NH+]=C(N[C@H]2[C@@H]3CC=CC[C@@H]32)N[C@@H]2C=CCC2)[C@@H]1Cl
     RDKit          3D

 48 51  0  0  1  0  0  0  0  0999 V2000
  124.2150  135.0054  161.8725 O   0  0  0  0  0  0  0  0  0  0  0  0
  125.3367  134.3872  161.2386 C   0  0  2  0  0  0  0  0  0  0  0  0
  125.1654  134.3009  160.1655 H   0  0  0  0  0  0  0  0  0  0  0  0
  125.5996  133.0275  161.8430 C   0  0  0  0  0  0  0  0  0  0  0  0
  126.8753  132.8514  162.0717 C   0  0  0  0  0  0  0  0  0  0  0  0
  127.6715  134.0661  161.6553 C   0  0  1  0  0  0  0  0  0  0  0  0
  128.4046  134.3203  162.4208 H   0  0  0  0  0  0  0  0  0  0  0  0
  128.3371  133.8250  160.3727 N   0  0  0  0  0  0  0  0  0  0  0  0
  128.2270  132.9734  159.9217 H   0  0  0  0  0  0  0  0  0  0  0  0
  129.0771  134.7549  159.8375 C   0  0  0  0  0  0  0  0  0  0  0  0
  129.7017  134.5288  158.6338 N   0  0  0  0  0  0  0  0  0  0  0  0
  129.5356  133.2424  157.9527 C   0  0  1  0  0  0  0  0  0  0  0  0
  128.5112  132.9796  157.6887 H   0  0  0  0  0  0  0  0  0  0  0  0
  130.6457  132.8022  156.9962 C   0  0  2  0  0  0  0  0  0  0  0  0
  131.5008  133.4641  156.8600 H   0  0  0  0  0  0  0  0  0  0  0  0
  130.2274  131.9634  155.7780 C   0  0  0  0  0  0  0  0  0  0  0  0
  130.7153  130.5496  155.9789 C   0  0  0  0  0  0  0  0  0  0  0  0
  130.5686  129.9551  157.1368 C   0  0  0  0  0  0  0  0  0  0  0  0
  129.9042  130.6773  158.3098 C   0  0  0  0  0  0  0  0  0  0  0  0
  130.4744  132.1039  158.3567 C   0  0  2  0  0  0  0  0  0  0  0  0
  131.2146  132.2975  159.1330 H   0  0  0  0  0  0  0  0  0  0  0  0
  129.2331  135.9622  160.4767 N   0  0  0  0  0  0  0  0  0  0  0  0
  130.0649  137.0075  159.8752 C   0  0  2  0  0  0  0  0  0  0  0  0
  130.0468  136.9296  158.7881 H   0  0  0  0  0  0  0  0  0  0  0  0
  131.4835  136.9106  160.3863 C   0  0  0  0  0  0  0  0  0  0  0  0
  131.7188  137.8181  161.2944 C   0  0  0  0  0  0  0  0  0  0  0  0
  130.4965  138.6716  161.5404 C   0  0  0  0  0  0  0  0  0  0  0  0
  129.5803  138.4058  160.3233 C   0  0  0  0  0  0  0  0  0  0  0  0
  126.6251  135.1961  161.5152 C   0  0  2  0  0  0  0  0  0  0  0  0
  126.8647  135.8493  160.6761 H   0  0  0  0  0  0  0  0  0  0  0  0
  126.4824  136.1395  163.0450 Cl  0  0  0  0  0  0  0  0  0  0  0  0
  124.0440  135.9094  161.5747 H   0  0  0  0  0  0  0  0  0  0  0  0
  124.8343  132.2964  162.0586 H   0  0  0  0  0  0  0  0  0  0  0  0
  127.3038  131.9576  162.5004 H   0  0  0  0  0  0  0  0  0  0  0  0
  130.2526  135.2208  158.2356 H   0  0  0  0  0  0  0  0  0  0  0  0
  129.1412  131.9664  155.6870 H   0  0  0  0  0  0  0  0  0  0  0  0
  130.6716  132.3824  154.8751 H   0  0  0  0  0  0  0  0  0  0  0  0
  131.1884  130.0243  155.1624 H   0  0  0  0  0  0  0  0  0  0  0  0
  130.9214  128.9429  157.2686 H   0  0  0  0  0  0  0  0  0  0  0  0
  130.1299  130.1619  159.2433 H   0  0  0  0  0  0  0  0  0  0  0  0
  128.8249  130.7190  158.1631 H   0  0  0  0  0  0  0  0  0  0  0  0
  128.7923  136.1218  161.3260 H   0  0  0  0  0  0  0  0  0  0  0  0
  132.2074  136.1853  160.0453 H   0  0  0  0  0  0  0  0  0  0  0  0
  132.6632  137.9425  161.8034 H   0  0  0  0  0  0  0  0  0  0  0  0
  130.7720  139.7253  161.5854 H   0  0  0  0  0  0  0  0  0  0  0  0
  129.9999  138.3699  162.4625 H   0  0  0  0  0  0  0  0  0  0  0  0
  128.5321  138.3799  160.6210 H   0  0  0  0  0  0  0  0  0  0  0  0
  129.7447  139.1463  159.5406 H   0  0  0  0  0  0  0  0  0  0  0  0
  1  2  1  0
  1 32  1  0
  2  3  1  6
  2 29  1  0
  2  4  1  0
  4  5  2  0
  4 33  1  0
  5  6  1  0
  5 34  1  0
  6  7  1  1
  6  8  1  0
  6 29  1  0
  8  9  1  0
 10  8  2  0
 10 11  1  0
 10 22  1  0
 11 12  1  0
 11 35  1  0
 12 13  1  6
 12 20  1  0
 12 14  1  0
 14 15  1  6
 14 20  1  0
 14 16  1  0
 16 17  1  0
 16 36  1  0
 16 37  1  0
 17 18  2  0
 17 38  1  0
 18 19  1  0
 18 39  1  0
 19 20  1  0
 19 40  1  0
 19 41  1  0
 20 21  1  1
 22 23  1  0
 22 42  1  0
 23 24  1  6
 23 28  1  0
 23 25  1  0
 25 26  2  0
 25 43  1  0
 26 27  1  0
 26 44  1  0
 27 28  1  0
 27 45  1  0
 27 46  1  0
 28 47  1  0
 28 48  1  0
 29 30  1  6
 29 31  1  0
M  CHG  1   8   1
M  END
>  <DOCK_score>  (1) 
-44.725986

>  <SMILES>  (1) 
O[C@@H]1C=C[C@@H]([NH+]=C(N[C@H]2[C@@H]3CC=CC[C@@H]32)N[C@@H]2C=CCC2)[C@@H]1Cl

$$$$
