Cc1ccc([C@H](CSc2cccc(C)c2C)Nc2[nH]cc(-c3ccc(Br)cc3)[nH+]2)[nH]1
     RDKit          3D

 56 59  0  0  1  0  0  0  0  0999 V2000
  124.4185  134.3932  161.4136 C   0  0  0  0  0  0  0  0  0  0  0  0
  125.6530  134.8143  160.6589 C   0  0  0  0  0  0  0  0  0  0  0  0
  125.6885  135.2571  159.3857 C   0  0  0  0  0  0  0  0  0  0  0  0
  127.0333  135.5403  159.0750 C   0  0  0  0  0  0  0  0  0  0  0  0
  127.7682  135.2596  160.1703 C   0  0  0  0  0  0  0  0  0  0  0  0
  129.2624  135.4125  160.2947 C   0  0  2  0  0  0  0  0  0  0  0  0
  129.6459  134.6733  160.9977 H   0  0  0  0  0  0  0  0  0  0  0  0
  129.5906  136.8179  160.8026 C   0  0  0  0  0  0  0  0  0  0  0  0
  131.3890  137.0020  160.9524 S   0  0  0  0  0  0  0  0  0  0  0  0
  131.5708  138.6534  161.5396 C   0  0  0  0  0  0  0  0  0  0  0  0
  131.0918  139.7177  160.7849 C   0  0  0  0  0  0  0  0  0  0  0  0
  131.2361  141.0103  161.2481 C   0  0  0  0  0  0  0  0  0  0  0  0
  131.8563  141.2467  162.4617 C   0  0  0  0  0  0  0  0  0  0  0  0
  132.3337  140.1902  163.2154 C   0  0  0  0  0  0  0  0  0  0  0  0
  133.0080  140.4529  164.5373 C   0  0  0  0  0  0  0  0  0  0  0  0
  132.1885  138.8942  162.7607 C   0  0  0  0  0  0  0  0  0  0  0  0
  132.7041  137.7431  163.5855 C   0  0  0  0  0  0  0  0  0  0  0  0
  129.8848  135.2092  158.9841 N   0  0  0  0  0  0  0  0  0  0  0  0
  129.7259  134.0039  158.3218 C   0  0  0  0  0  0  0  0  0  0  0  0
  129.0190  132.9350  158.7798 N   0  0  0  0  0  0  0  0  0  0  0  0
  128.5402  132.8809  159.6217 H   0  0  0  0  0  0  0  0  0  0  0  0
  129.1090  131.9466  157.8299 C   0  0  0  0  0  0  0  0  0  0  0  0
  129.8627  132.4416  156.8172 C   0  0  0  0  0  0  0  0  0  0  0  0
  130.2229  131.7281  155.5675 C   0  0  0  0  0  0  0  0  0  0  0  0
  129.8347  132.2427  154.3318 C   0  0  0  0  0  0  0  0  0  0  0  0
  130.1760  131.5773  153.1720 C   0  0  0  0  0  0  0  0  0  0  0  0
  130.8940  130.3961  153.2348 C   0  0  0  0  0  0  0  0  0  0  0  0
  131.3528  129.4857  151.6421 Br  0  0  0  0  0  0  0  0  0  0  0  0
  131.2780  129.8778  154.4601 C   0  0  0  0  0  0  0  0  0  0  0  0
  130.9459  130.5379  155.6254 C   0  0  0  0  0  0  0  0  0  0  0  0
  130.2315  133.7040  157.1504 N   0  0  0  0  0  0  0  0  0  0  0  0
  130.7785  134.2923  156.6066 H   0  0  0  0  0  0  0  0  0  0  0  0
  126.9272  134.8080  161.1437 N   0  0  0  0  0  0  0  0  0  0  0  0
  127.1916  134.5306  162.0349 H   0  0  0  0  0  0  0  0  0  0  0  0
  124.2471  133.3273  161.2641 H   0  0  0  0  0  0  0  0  0  0  0  0
  124.5563  134.5935  162.4762 H   0  0  0  0  0  0  0  0  0  0  0  0
  123.5591  134.9544  161.0466 H   0  0  0  0  0  0  0  0  0  0  0  0
  124.8419  135.3731  158.7253 H   0  0  0  0  0  0  0  0  0  0  0  0
  127.4068  135.9138  158.1330 H   0  0  0  0  0  0  0  0  0  0  0  0
  129.2069  137.5573  160.0995 H   0  0  0  0  0  0  0  0  0  0  0  0
  129.1273  136.9692  161.7776 H   0  0  0  0  0  0  0  0  0  0  0  0
  130.6075  139.5339  159.8373 H   0  0  0  0  0  0  0  0  0  0  0  0
  130.8641  141.8380  160.6622 H   0  0  0  0  0  0  0  0  0  0  0  0
  131.9675  142.2588  162.8217 H   0  0  0  0  0  0  0  0  0  0  0  0
  132.2631  140.4462  165.3329 H   0  0  0  0  0  0  0  0  0  0  0  0
  133.7495  139.6769  164.7273 H   0  0  0  0  0  0  0  0  0  0  0  0
  133.4994  141.4254  164.5075 H   0  0  0  0  0  0  0  0  0  0  0  0
  133.7379  137.5337  163.3108 H   0  0  0  0  0  0  0  0  0  0  0  0
  132.6545  138.0030  164.6429 H   0  0  0  0  0  0  0  0  0  0  0  0
  132.0926  136.8602  163.3993 H   0  0  0  0  0  0  0  0  0  0  0  0
  130.4082  135.9190  158.5804 H   0  0  0  0  0  0  0  0  0  0  0  0
  128.6612  130.9649  157.8783 H   0  0  0  0  0  0  0  0  0  0  0  0
  129.2709  133.1625  154.2818 H   0  0  0  0  0  0  0  0  0  0  0  0
  129.8787  131.9769  152.2139 H   0  0  0  0  0  0  0  0  0  0  0  0
  131.8382  128.9556  154.5037 H   0  0  0  0  0  0  0  0  0  0  0  0
  131.2459  130.1330  156.5807 H   0  0  0  0  0  0  0  0  0  0  0  0
  1  2  1  0
  1 35  1  0
  1 36  1  0
  1 37  1  0
  2 33  1  0
  2  3  2  0
  3  4  1  0
  3 38  1  0
  4  5  2  0
  4 39  1  0
  5  6  1  0
  5 33  1  0
  6  7  1  1
  6  8  1  0
  6 18  1  0
  8  9  1  0
  8 40  1  0
  8 41  1  0
  9 10  1  0
 10 16  1  0
 10 11  2  0
 11 12  1  0
 11 42  1  0
 12 13  2  0
 12 43  1  0
 13 14  1  0
 13 44  1  0
 14 15  1  0
 14 16  2  0
 15 45  1  0
 15 46  1  0
 15 47  1  0
 16 17  1  0
 17 48  1  0
 17 49  1  0
 17 50  1  0
 18 51  1  0
 19 18  1  0
 19 31  2  0
 19 20  1  0
 20 21  1  0
 20 22  1  0
 22 23  2  0
 22 52  1  0
 23 24  1  0
 23 31  1  0
 24 30  1  0
 24 25  2  0
 25 26  1  0
 25 53  1  0
 26 27  2  0
 26 54  1  0
 27 28  1  0
 27 29  1  0
 29 30  2  0
 29 55  1  0
 30 56  1  0
 31 32  1  0
 33 34  1  0
M  CHG  1  31   1
M  END
>  <DOCK_score>  (1) 
-58.700672

>  <SMILES>  (1) 
Cc1ccc([C@H](CSc2cccc(C)c2C)Nc2[nH]cc(-c3ccc(Br)cc3)[nH+]2)[nH]1

$$$$
