Oc1cc(F)cc(C[NH+]=C(NCC2Cc3ccccc3C2)NC2CC=CC2)c1
     RDKit          3D

 55 58  0  0  1  0  0  0  0  0999 V2000
  124.6209  135.7953  163.2384 O   0  0  0  0  0  0  0  0  0  0  0  0
  125.8484  135.7928  163.8217 C   0  0  0  0  0  0  0  0  0  0  0  0
  125.9922  135.3718  165.1355 C   0  0  0  0  0  0  0  0  0  0  0  0
  127.2429  135.3707  165.7269 C   0  0  0  0  0  0  0  0  0  0  0  0
  127.3846  134.9615  167.0065 F   0  0  0  0  0  0  0  0  0  0  0  0
  128.3506  135.7845  165.0052 C   0  0  0  0  0  0  0  0  0  0  0  0
  128.2068  136.2094  163.6980 C   0  0  0  0  0  0  0  0  0  0  0  0
  129.4128  136.6647  162.9176 C   0  0  0  0  0  0  0  0  0  0  0  0
  129.3784  136.0745  161.5771 N   0  0  0  0  0  0  0  0  0  0  0  0
  128.6469  135.4903  161.3231 H   0  0  0  0  0  0  0  0  0  0  0  0
  130.3307  136.3345  160.7260 C   0  0  0  0  0  0  0  0  0  0  0  0
  131.3674  137.1625  161.0863 N   0  0  0  0  0  0  0  0  0  0  0  0
  132.4378  137.4546  160.1297 C   0  0  0  0  0  0  0  0  0  0  0  0
  133.4580  138.3934  160.7770 C   0  0  0  0  0  0  0  0  0  0  0  0
  134.4153  138.9781  159.7169 C   0  0  0  0  0  0  0  0  0  0  0  0
  135.7571  139.0876  160.4091 C   0  0  0  0  0  0  0  0  0  0  0  0
  136.8853  139.8138  160.0737 C   0  0  0  0  0  0  0  0  0  0  0  0
  138.0126  139.7565  160.8697 C   0  0  0  0  0  0  0  0  0  0  0  0
  138.0149  138.9700  162.0066 C   0  0  0  0  0  0  0  0  0  0  0  0
  136.8902  138.2432  162.3441 C   0  0  0  0  0  0  0  0  0  0  0  0
  135.7589  138.2993  161.5472 C   0  0  0  0  0  0  0  0  0  0  0  0
  134.4196  137.6096  161.6953 C   0  0  0  0  0  0  0  0  0  0  0  0
  130.2985  135.7807  159.4681 N   0  0  0  0  0  0  0  0  0  0  0  0
  129.1937  134.8984  159.0843 C   0  0  0  0  0  0  0  0  0  0  0  0
  129.2425  133.5711  159.8762 C   0  0  0  0  0  0  0  0  0  0  0  0
  128.8081  132.5164  158.8853 C   0  0  0  0  0  0  0  0  0  0  0  0
  128.8746  132.9655  157.6615 C   0  0  0  0  0  0  0  0  0  0  0  0
  129.3643  134.3947  157.6323 C   0  0  0  0  0  0  0  0  0  0  0  0
  126.9592  136.2118  163.1039 C   0  0  0  0  0  0  0  0  0  0  0  0
  124.6215  136.1052  162.3224 H   0  0  0  0  0  0  0  0  0  0  0  0
  125.1288  135.0455  165.6963 H   0  0  0  0  0  0  0  0  0  0  0  0
  129.3273  135.7792  165.4663 H   0  0  0  0  0  0  0  0  0  0  0  0
  130.3197  136.3462  163.4317 H   0  0  0  0  0  0  0  0  0  0  0  0
  129.4040  137.7516  162.8363 H   0  0  0  0  0  0  0  0  0  0  0  0
  131.3901  137.5532  161.9738 H   0  0  0  0  0  0  0  0  0  0  0  0
  132.0149  137.9317  159.2456 H   0  0  0  0  0  0  0  0  0  0  0  0
  132.9306  136.5263  159.8410 H   0  0  0  0  0  0  0  0  0  0  0  0
  132.9581  139.1895  161.3288 H   0  0  0  0  0  0  0  0  0  0  0  0
  134.4854  138.3082  158.8600 H   0  0  0  0  0  0  0  0  0  0  0  0
  134.0721  139.9628  159.3995 H   0  0  0  0  0  0  0  0  0  0  0  0
  136.8842  140.4284  159.1857 H   0  0  0  0  0  0  0  0  0  0  0  0
  138.8913  140.3254  160.6040 H   0  0  0  0  0  0  0  0  0  0  0  0
  138.8954  138.9244  162.6304 H   0  0  0  0  0  0  0  0  0  0  0  0
  136.8928  137.6292  163.2328 H   0  0  0  0  0  0  0  0  0  0  0  0
  134.0802  137.6606  162.7299 H   0  0  0  0  0  0  0  0  0  0  0  0
  134.4894  136.5713  161.3715 H   0  0  0  0  0  0  0  0  0  0  0  0
  131.0071  135.9742  158.8348 H   0  0  0  0  0  0  0  0  0  0  0  0
  128.2336  135.3976  159.2150 H   0  0  0  0  0  0  0  0  0  0  0  0
  130.2569  133.3724  160.2221 H   0  0  0  0  0  0  0  0  0  0  0  0
  128.5530  133.6067  160.7196 H   0  0  0  0  0  0  0  0  0  0  0  0
  128.4848  131.5216  159.1542 H   0  0  0  0  0  0  0  0  0  0  0  0
  128.6134  132.3912  156.7849 H   0  0  0  0  0  0  0  0  0  0  0  0
  128.7576  134.9901  156.9500 H   0  0  0  0  0  0  0  0  0  0  0  0
  130.4132  134.4325  157.3380 H   0  0  0  0  0  0  0  0  0  0  0  0
  126.8488  136.5403  162.0810 H   0  0  0  0  0  0  0  0  0  0  0  0
  1  2  1  0
  1 30  1  0
  2 29  2  0
  2  3  1  0
  3  4  2  0
  3 31  1  0
  4  5  1  0
  4  6  1  0
  6  7  2  0
  6 32  1  0
  7  8  1  0
  7 29  1  0
  8  9  1  0
  8 33  1  0
  8 34  1  0
  9 10  1  0
 11  9  2  0
 11 12  1  0
 11 23  1  0
 12 13  1  0
 12 35  1  0
 13 14  1  0
 13 36  1  0
 13 37  1  0
 14 22  1  0
 14 15  1  0
 14 38  1  0
 15 16  1  0
 15 39  1  0
 15 40  1  0
 16 21  2  0
 16 17  1  0
 17 18  2  0
 17 41  1  0
 18 19  1  0
 18 42  1  0
 19 20  2  0
 19 43  1  0
 20 21  1  0
 20 44  1  0
 21 22  1  0
 22 45  1  0
 22 46  1  0
 23 24  1  0
 23 47  1  0
 24 28  1  0
 24 25  1  0
 24 48  1  0
 25 26  1  0
 25 49  1  0
 25 50  1  0
 26 27  2  0
 26 51  1  0
 27 28  1  0
 27 52  1  0
 28 53  1  0
 28 54  1  0
 29 55  1  0
M  CHG  1   9   1
M  END
>  <DOCK_score>  (1) 
-46.806053

>  <SMILES>  (1) 
Oc1cc(F)cc(C[NH+]=C(NCC2Cc3ccccc3C2)NC2CC=CC2)c1

$$$$
