O=C1CC[C@@H](Cc2c[nH+]c(NC(c3ccccc3)c3ccccc3)[nH]2)CN1
     RDKit          3D

 52 55  0  0  1  0  0  0  0  0999 V2000
  123.8861  134.1066  162.3520 O   0  0  0  0  0  0  0  0  0  0  0  0
  124.7005  133.6186  161.5975 C   0  0  0  0  0  0  0  0  0  0  0  0
  124.8743  132.1269  161.6077 C   0  0  0  0  0  0  0  0  0  0  0  0
  125.5886  131.6771  160.3306 C   0  0  0  0  0  0  0  0  0  0  0  0
  126.8268  132.5596  160.1314 C   0  0  1  0  0  0  0  0  0  0  0  0
  127.4268  132.5586  161.0414 H   0  0  0  0  0  0  0  0  0  0  0  0
  127.6596  132.0200  158.9668 C   0  0  0  0  0  0  0  0  0  0  0  0
  128.8713  132.8938  158.7686 C   0  0  0  0  0  0  0  0  0  0  0  0
  129.5087  133.1260  157.6087 C   0  0  0  0  0  0  0  0  0  0  0  0
  130.5335  133.9613  157.8498 N   0  0  0  0  0  0  0  0  0  0  0  0
  131.1549  134.2942  157.1835 H   0  0  0  0  0  0  0  0  0  0  0  0
  130.5637  134.2530  159.1286 C   0  0  0  0  0  0  0  0  0  0  0  0
  131.4829  135.0829  159.7486 N   0  0  0  0  0  0  0  0  0  0  0  0
  131.3979  135.3215  161.1916 C   0  0  0  0  0  0  0  0  0  0  0  0
  132.7774  135.5813  161.7399 C   0  0  0  0  0  0  0  0  0  0  0  0
  133.5483  134.5295  162.1985 C   0  0  0  0  0  0  0  0  0  0  0  0
  134.8157  134.7673  162.6965 C   0  0  0  0  0  0  0  0  0  0  0  0
  135.3077  136.0581  162.7465 C   0  0  0  0  0  0  0  0  0  0  0  0
  134.5348  137.1105  162.2928 C   0  0  0  0  0  0  0  0  0  0  0  0
  133.2696  136.8721  161.7895 C   0  0  0  0  0  0  0  0  0  0  0  0
  130.5201  136.5182  161.4520 C   0  0  0  0  0  0  0  0  0  0  0  0
  129.7840  136.5945  162.6197 C   0  0  0  0  0  0  0  0  0  0  0  0
  128.9828  137.6948  162.8610 C   0  0  0  0  0  0  0  0  0  0  0  0
  128.9088  138.7136  161.9296 C   0  0  0  0  0  0  0  0  0  0  0  0
  129.6408  138.6348  160.7596 C   0  0  0  0  0  0  0  0  0  0  0  0
  130.4464  137.5372  160.5208 C   0  0  0  0  0  0  0  0  0  0  0  0
  129.5355  133.6066  159.7411 N   0  0  0  0  0  0  0  0  0  0  0  0
  129.3127  133.6412  160.6846 H   0  0  0  0  0  0  0  0  0  0  0  0
  126.3675  133.9839  159.8170 C   0  0  0  0  0  0  0  0  0  0  0  0
  125.3935  134.4352  160.8030 N   0  0  0  0  0  0  0  0  0  0  0  0
  123.8965  131.6488  161.6630 H   0  0  0  0  0  0  0  0  0  0  0  0
  125.4674  131.8374  162.4752 H   0  0  0  0  0  0  0  0  0  0  0  0
  124.9189  131.7867  159.4777 H   0  0  0  0  0  0  0  0  0  0  0  0
  125.8924  130.6349  160.4272 H   0  0  0  0  0  0  0  0  0  0  0  0
  127.0576  132.0218  158.0581 H   0  0  0  0  0  0  0  0  0  0  0  0
  127.9785  131.0017  159.1894 H   0  0  0  0  0  0  0  0  0  0  0  0
  129.2405  132.7155  156.6464 H   0  0  0  0  0  0  0  0  0  0  0  0
  132.1831  135.5062  159.2275 H   0  0  0  0  0  0  0  0  0  0  0  0
  130.9719  134.4451  161.6803 H   0  0  0  0  0  0  0  0  0  0  0  0
  133.1620  133.5215  162.1638 H   0  0  0  0  0  0  0  0  0  0  0  0
  135.4197  133.9451  163.0506 H   0  0  0  0  0  0  0  0  0  0  0  0
  136.2963  136.2444  163.1398 H   0  0  0  0  0  0  0  0  0  0  0  0
  134.9191  138.1190  162.3319 H   0  0  0  0  0  0  0  0  0  0  0  0
  132.6655  137.6943  161.4354 H   0  0  0  0  0  0  0  0  0  0  0  0
  129.8381  135.7963  163.3453 H   0  0  0  0  0  0  0  0  0  0  0  0
  128.4111  137.7565  163.7753 H   0  0  0  0  0  0  0  0  0  0  0  0
  128.2793  139.5711  162.1161 H   0  0  0  0  0  0  0  0  0  0  0  0
  129.5830  139.4309  160.0319 H   0  0  0  0  0  0  0  0  0  0  0  0
  131.0179  137.4756  159.6065 H   0  0  0  0  0  0  0  0  0  0  0  0
  127.2292  134.6514  159.8302 H   0  0  0  0  0  0  0  0  0  0  0  0
  125.9139  134.0058  158.8262 H   0  0  0  0  0  0  0  0  0  0  0  0
  125.2397  135.3893  160.8864 H   0  0  0  0  0  0  0  0  0  0  0  0
  1  2  2  0
  2 30  1  0
  2  3  1  0
  3  4  1  0
  3 31  1  0
  3 32  1  0
  4  5  1  0
  4 33  1  0
  4 34  1  0
  5  6  1  1
  5  7  1  0
  5 29  1  0
  7  8  1  0
  7 35  1  0
  7 36  1  0
  8 27  1  0
  8  9  2  0
  9 10  1  0
  9 37  1  0
 10 11  1  0
 10 12  2  0
 12 13  1  0
 12 27  1  0
 13 14  1  0
 13 38  1  0
 14 15  1  0
 14 21  1  0
 14 39  1  0
 15 20  1  0
 15 16  2  0
 16 17  1  0
 16 40  1  0
 17 18  2  0
 17 41  1  0
 18 19  1  0
 18 42  1  0
 19 20  2  0
 19 43  1  0
 20 44  1  0
 21 26  1  0
 21 22  2  0
 22 23  1  0
 22 45  1  0
 23 24  2  0
 23 46  1  0
 24 25  1  0
 24 47  1  0
 25 26  2  0
 25 48  1  0
 26 49  1  0
 27 28  1  0
 29 30  1  0
 29 50  1  0
 29 51  1  0
 30 52  1  0
M  CHG  1  10   1
M  END
>  <DOCK_score>  (1) 
-48.601734

>  <SMILES>  (1) 
O=C1CC[C@@H](Cc2c[nH+]c(NC(c3ccccc3)c3ccccc3)[nH]2)CN1

$$$$
