c1ccc(Nc2ccc(CC[N@H+]3CCC(c4c[nH]c5ccccc45)C3)cc2)cc1
     RDKit          3D

 57 61  0  0  1  0  0  0  0  0999 V2000
  138.6621  135.8369  166.6056 C   0  0  0  0  0  0  0  0  0  0  0  0
  138.7839  135.8086  165.2283 C   0  0  0  0  0  0  0  0  0  0  0  0
  138.1284  136.7474  164.4562 C   0  0  0  0  0  0  0  0  0  0  0  0
  137.3461  137.7209  165.0646 C   0  0  0  0  0  0  0  0  0  0  0  0
  136.6819  138.6725  164.2865 N   0  0  0  0  0  0  0  0  0  0  0  0
  135.7434  138.2652  163.3351 C   0  0  0  0  0  0  0  0  0  0  0  0
  135.5422  139.0214  162.1872 C   0  0  0  0  0  0  0  0  0  0  0  0
  134.6133  138.6160  161.2490 C   0  0  0  0  0  0  0  0  0  0  0  0
  133.8834  137.4590  161.4516 C   0  0  0  0  0  0  0  0  0  0  0  0
  132.8700  137.0203  160.4261 C   0  0  0  0  0  0  0  0  0  0  0  0
  132.7542  135.4948  160.4437 C   0  0  0  0  0  0  0  0  0  0  0  0
  131.7662  135.0673  159.4441 N   0  0  1  0  0  0  0  0  0  0  0  0
  132.0575  135.3699  158.5267 H   0  0  0  0  0  0  0  0  0  0  0  0
  131.6422  133.5983  159.4659 C   0  0  0  0  0  0  0  0  0  0  0  0
  130.1701  133.2685  159.7913 C   0  0  0  0  0  0  0  0  0  0  0  0
  129.4219  134.5624  159.3753 C   0  0  1  0  0  0  0  0  0  0  0  0
  128.1428  134.7209  160.1560 C   0  0  0  0  0  0  0  0  0  0  0  0
  127.8225  135.7429  160.9652 C   0  0  0  0  0  0  0  0  0  0  0  0
  126.5787  135.5430  161.4992 N   0  0  0  0  0  0  0  0  0  0  0  0
  126.1313  136.1478  162.1116 H   0  0  0  0  0  0  0  0  0  0  0  0
  126.0587  134.3529  161.0421 C   0  0  0  0  0  0  0  0  0  0  0  0
  124.8615  133.6810  161.2675 C   0  0  0  0  0  0  0  0  0  0  0  0
  124.6274  132.4734  160.6477 C   0  0  0  0  0  0  0  0  0  0  0  0
  125.5749  131.9179  159.7984 C   0  0  0  0  0  0  0  0  0  0  0  0
  126.7571  132.5606  159.5626 C   0  0  0  0  0  0  0  0  0  0  0  0
  127.0154  133.7857  160.1807 C   0  0  0  0  0  0  0  0  0  0  0  0
  130.4474  135.6530  159.7657 C   0  0  0  0  0  0  0  0  0  0  0  0
  134.0774  136.7067  162.5956 C   0  0  0  0  0  0  0  0  0  0  0  0
  135.0087  137.1031  163.5351 C   0  0  0  0  0  0  0  0  0  0  0  0
  137.2301  137.7498  166.4487 C   0  0  0  0  0  0  0  0  0  0  0  0
  137.8841  136.8046  167.2144 C   0  0  0  0  0  0  0  0  0  0  0  0
  139.1756  135.1014  167.2070 H   0  0  0  0  0  0  0  0  0  0  0  0
  139.3925  135.0518  164.7562 H   0  0  0  0  0  0  0  0  0  0  0  0
  138.2242  136.7249  163.3807 H   0  0  0  0  0  0  0  0  0  0  0  0
  136.8723  139.6160  164.4068 H   0  0  0  0  0  0  0  0  0  0  0  0
  136.1114  139.9254  162.0288 H   0  0  0  0  0  0  0  0  0  0  0  0
  134.4565  139.2034  160.3565 H   0  0  0  0  0  0  0  0  0  0  0  0
  133.1885  137.3491  159.4369 H   0  0  0  0  0  0  0  0  0  0  0  0
  131.9012  137.4611  160.6610 H   0  0  0  0  0  0  0  0  0  0  0  0
  132.4356  135.1661  161.4329 H   0  0  0  0  0  0  0  0  0  0  0  0
  133.7229  135.0541  160.2088 H   0  0  0  0  0  0  0  0  0  0  0  0
  131.9070  133.1892  158.4908 H   0  0  0  0  0  0  0  0  0  0  0  0
  132.2939  133.1824  160.2343 H   0  0  0  0  0  0  0  0  0  0  0  0
  129.8263  132.4182  159.2023 H   0  0  0  0  0  0  0  0  0  0  0  0
  130.0453  133.0734  160.8565 H   0  0  0  0  0  0  0  0  0  0  0  0
  129.2265  134.5728  158.3031 H   0  0  0  0  0  0  0  0  0  0  0  0
  128.4524  136.5975  161.1637 H   0  0  0  0  0  0  0  0  0  0  0  0
  124.1183  134.1047  161.9267 H   0  0  0  0  0  0  0  0  0  0  0  0
  123.6976  131.9533  160.8243 H   0  0  0  0  0  0  0  0  0  0  0  0
  125.3754  130.9704  159.3200 H   0  0  0  0  0  0  0  0  0  0  0  0
  127.4895  132.1227  158.9005 H   0  0  0  0  0  0  0  0  0  0  0  0
  130.3800  135.8741  160.8308 H   0  0  0  0  0  0  0  0  0  0  0  0
  130.2798  136.5559  159.1785 H   0  0  0  0  0  0  0  0  0  0  0  0
  133.5028  135.8057  162.7525 H   0  0  0  0  0  0  0  0  0  0  0  0
  135.1628  136.5127  164.4261 H   0  0  0  0  0  0  0  0  0  0  0  0
  136.6261  138.5077  166.9250 H   0  0  0  0  0  0  0  0  0  0  0  0
  137.7912  136.8239  168.2903 H   0  0  0  0  0  0  0  0  0  0  0  0
  1 31  2  0
  1  2  1  0
  1 32  1  0
  2  3  2  0
  2 33  1  0
  3  4  1  0
  3 34  1  0
  4  5  1  0
  4 30  2  0
  5  6  1  0
  5 35  1  0
  6 29  1  0
  6  7  2  0
  7  8  1  0
  7 36  1  0
  8  9  2  0
  8 37  1  0
  9 10  1  0
  9 28  1  0
 10 11  1  0
 10 38  1  0
 10 39  1  0
 11 12  1  0
 11 40  1  0
 11 41  1  0
 12 13  1  6
 12 27  1  0
 12 14  1  0
 14 15  1  0
 14 42  1  0
 14 43  1  0
 15 16  1  0
 15 44  1  0
 15 45  1  0
 16 17  1  0
 16 27  1  0
 16 46  1  6
 17 26  1  0
 17 18  2  0
 18 19  1  0
 18 47  1  0
 19 20  1  0
 19 21  1  0
 21 26  2  0
 21 22  1  0
 22 23  2  0
 22 48  1  0
 23 24  1  0
 23 49  1  0
 24 25  2  0
 24 50  1  0
 25 26  1  0
 25 51  1  0
 27 52  1  0
 27 53  1  0
 28 29  2  0
 28 54  1  0
 29 55  1  0
 30 31  1  0
 30 56  1  0
 31 57  1  0
M  CHG  1  12   1
M  END
>  <DOCK_score>  (1) 
-44.841656

>  <SMILES>  (1) 
c1ccc(Nc2ccc(CC[N@H+]3CCC(c4c[nH]c5ccccc45)C3)cc2)cc1

$$$$
