Fc1ccc(Nc2ccc(-c3n[nH]cc3C[NH2+][C@H]3C[C@@H](F)[C@@H](F)C3)o2)cc1
     RDKit          3D

 47 50  0  0  1  0  0  0  0  0999 V2000
  129.3781  138.0360  165.9983 F   0  0  0  0  0  0  0  0  0  0  0  0
  128.5449  137.6317  165.0148 C   0  0  0  0  0  0  0  0  0  0  0  0
  128.7076  136.3819  164.4411 C   0  0  0  0  0  0  0  0  0  0  0  0
  127.8604  135.9688  163.4317 C   0  0  0  0  0  0  0  0  0  0  0  0
  126.8375  136.8035  162.9998 C   0  0  0  0  0  0  0  0  0  0  0  0
  125.9751  136.3852  161.9817 N   0  0  0  0  0  0  0  0  0  0  0  0
  126.4302  135.5124  161.0001 C   0  0  0  0  0  0  0  0  0  0  0  0
  125.6752  134.5987  160.3402 C   0  0  0  0  0  0  0  0  0  0  0  0
  126.5292  133.9342  159.4383 C   0  0  0  0  0  0  0  0  0  0  0  0
  127.7672  134.4719  159.5992 C   0  0  0  0  0  0  0  0  0  0  0  0
  128.9845  134.0779  158.8604 C   0  0  0  0  0  0  0  0  0  0  0  0
  129.0601  133.1492  157.9275 N   0  0  0  0  0  0  0  0  0  0  0  0
  130.3868  133.0870  157.4826 N   0  0  0  0  0  0  0  0  0  0  0  0
  130.7300  132.4912  156.7984 H   0  0  0  0  0  0  0  0  0  0  0  0
  131.1055  134.0003  158.1708 C   0  0  0  0  0  0  0  0  0  0  0  0
  130.2715  134.6326  159.0237 C   0  0  0  0  0  0  0  0  0  0  0  0
  130.6488  135.7324  159.9825 C   0  0  0  0  0  0  0  0  0  0  0  0
  132.0818  136.0270  159.8503 N   0  0  0  0  0  0  0  0  0  0  0  0
  132.6166  135.1981  160.0620 H   0  0  0  0  0  0  0  0  0  0  0  0
  132.2787  136.3222  158.9056 H   0  0  0  0  0  0  0  0  0  0  0  0
  132.4496  137.0992  160.7848 C   0  0  1  0  0  0  0  0  0  0  0  0
  131.9391  136.9646  161.7384 H   0  0  0  0  0  0  0  0  0  0  0  0
  133.9841  137.1353  160.9916 C   0  0  0  0  0  0  0  0  0  0  0  0
  134.2318  138.5959  161.4484 C   0  0  1  0  0  0  0  0  0  0  0  0
  134.0111  138.7038  162.5105 H   0  0  0  0  0  0  0  0  0  0  0  0
  135.5509  138.9767  161.1802 F   0  0  0  0  0  0  0  0  0  0  0  0
  133.2464  139.4307  160.6046 C   0  0  1  0  0  0  0  0  0  0  0  0
  132.8439  140.2492  161.2017 H   0  0  0  0  0  0  0  0  0  0  0  0
  133.8936  139.9372  159.4724 F   0  0  0  0  0  0  0  0  0  0  0  0
  132.1133  138.4791  160.1827 C   0  0  0  0  0  0  0  0  0  0  0  0
  127.6936  135.4277  160.5491 O   0  0  0  0  0  0  0  0  0  0  0  0
  126.6730  138.0547  163.5804 C   0  0  0  0  0  0  0  0  0  0  0  0
  127.5262  138.4658  164.5854 C   0  0  0  0  0  0  0  0  0  0  0  0
  129.5001  135.7314  164.7804 H   0  0  0  0  0  0  0  0  0  0  0  0
  127.9901  134.9955  162.9817 H   0  0  0  0  0  0  0  0  0  0  0  0
  125.0592  136.7041  161.9605 H   0  0  0  0  0  0  0  0  0  0  0  0
  124.6197  134.4169  160.4785 H   0  0  0  0  0  0  0  0  0  0  0  0
  126.2538  133.1462  158.7532 H   0  0  0  0  0  0  0  0  0  0  0  0
  132.1617  134.1946  158.0552 H   0  0  0  0  0  0  0  0  0  0  0  0
  130.0710  136.6279  159.7537 H   0  0  0  0  0  0  0  0  0  0  0  0
  130.4362  135.4136  161.0029 H   0  0  0  0  0  0  0  0  0  0  0  0
  134.2863  136.4297  161.7655 H   0  0  0  0  0  0  0  0  0  0  0  0
  134.5049  136.9307  160.0562 H   0  0  0  0  0  0  0  0  0  0  0  0
  132.0680  138.4113  159.0957 H   0  0  0  0  0  0  0  0  0  0  0  0
  131.1609  138.8356  160.5750 H   0  0  0  0  0  0  0  0  0  0  0  0
  125.8782  138.7052  163.2463 H   0  0  0  0  0  0  0  0  0  0  0  0
  127.3988  139.4385  165.0371 H   0  0  0  0  0  0  0  0  0  0  0  0
  1  2  1  0
  2 33  2  0
  2  3  1  0
  3  4  2  0
  3 34  1  0
  4  5  1  0
  4 35  1  0
  5  6  1  0
  5 32  2  0
  6  7  1  0
  6 36  1  0
  7 31  1  0
  7  8  2  0
  8  9  1  0
  8 37  1  0
  9 10  2  0
  9 38  1  0
 10 11  1  0
 10 31  1  0
 11 16  1  0
 11 12  2  0
 12 13  1  0
 13 14  1  0
 13 15  1  0
 15 16  2  0
 15 39  1  0
 16 17  1  0
 17 18  1  0
 17 40  1  0
 17 41  1  0
 18 19  1  0
 18 20  1  0
 18 21  1  0
 21 22  1  1
 21 30  1  0
 21 23  1  0
 23 24  1  0
 23 42  1  0
 23 43  1  0
 24 25  1  1
 24 26  1  0
 24 27  1  0
 27 28  1  1
 27 29  1  0
 27 30  1  0
 30 44  1  0
 30 45  1  0
 32 33  1  0
 32 46  1  0
 33 47  1  0
M  CHG  1  18   1
M  END
>  <DOCK_score>  (1) 
-43.751575

>  <SMILES>  (1) 
Fc1ccc(Nc2ccc(-c3n[nH]cc3C[NH2+][C@H]3C[C@@H](F)[C@@H](F)C3)o2)cc1

$$$$
