O[C@@H]1[C@H](O)C=C[C@H]1[NH+]=C(NC1CC=CC1)NC1Cc2cscc2C1
     RDKit          3D

 48 51  0  0  1  0  0  0  0  0999 V2000
  126.5436  135.8641  162.9174 O   0  0  0  0  0  0  0  0  0  0  0  0
  126.4702  135.2094  161.6492 C   0  0  2  0  0  0  0  0  0  0  0  0
  126.5953  135.9231  160.8351 H   0  0  0  0  0  0  0  0  0  0  0  0
  125.1435  134.4283  161.5037 C   0  0  2  0  0  0  0  0  0  0  0  0
  124.8187  134.4221  160.4633 H   0  0  0  0  0  0  0  0  0  0  0  0
  124.1346  135.0011  162.3381 O   0  0  0  0  0  0  0  0  0  0  0  0
  125.4713  133.0260  161.9613 C   0  0  0  0  0  0  0  0  0  0  0  0
  126.7613  132.8296  161.9875 C   0  0  0  0  0  0  0  0  0  0  0  0
  127.5093  134.0682  161.5517 C   0  0  1  0  0  0  0  0  0  0  0  0
  128.3481  134.2604  162.2207 H   0  0  0  0  0  0  0  0  0  0  0  0
  127.9786  133.9219  160.1718 N   0  0  0  0  0  0  0  0  0  0  0  0
  127.5166  133.3244  159.5631 H   0  0  0  0  0  0  0  0  0  0  0  0
  129.0169  134.5949  159.7617 C   0  0  0  0  0  0  0  0  0  0  0  0
  129.6716  135.4420  160.6242 N   0  0  0  0  0  0  0  0  0  0  0  0
  131.1082  135.6815  160.4658 C   0  0  0  0  0  0  0  0  0  0  0  0
  131.9284  134.7957  161.4322 C   0  0  0  0  0  0  0  0  0  0  0  0
  133.0777  135.6714  161.8742 C   0  0  0  0  0  0  0  0  0  0  0  0
  132.8393  136.9276  161.6115 C   0  0  0  0  0  0  0  0  0  0  0  0
  131.4914  137.0989  160.9506 C   0  0  0  0  0  0  0  0  0  0  0  0
  129.4572  134.4576  158.4665 N   0  0  0  0  0  0  0  0  0  0  0  0
  129.2637  133.1902  157.7575 C   0  0  0  0  0  0  0  0  0  0  0  0
  130.1112  132.0726  158.3940 C   0  0  0  0  0  0  0  0  0  0  0  0
  130.5293  131.1776  157.2297 C   0  0  0  0  0  0  0  0  0  0  0  0
  131.0004  129.9225  157.0849 C   0  0  0  0  0  0  0  0  0  0  0  0
  131.2633  129.5671  155.3877 S   0  0  0  0  0  0  0  0  0  0  0  0
  130.7115  131.1692  154.9351 C   0  0  0  0  0  0  0  0  0  0  0  0
  130.3687  131.8708  156.0344 C   0  0  0  0  0  0  0  0  0  0  0  0
  129.8338  133.2703  156.3289 C   0  0  0  0  0  0  0  0  0  0  0  0
  127.3870  136.3072  163.0831 H   0  0  0  0  0  0  0  0  0  0  0  0
  123.9354  135.9255  162.1362 H   0  0  0  0  0  0  0  0  0  0  0  0
  124.7347  132.2836  162.2309 H   0  0  0  0  0  0  0  0  0  0  0  0
  127.2326  131.9034  162.2816 H   0  0  0  0  0  0  0  0  0  0  0  0
  129.1824  135.8811  161.3376 H   0  0  0  0  0  0  0  0  0  0  0  0
  131.4173  135.5245  159.4325 H   0  0  0  0  0  0  0  0  0  0  0  0
  131.3209  134.5051  162.2892 H   0  0  0  0  0  0  0  0  0  0  0  0
  132.3017  133.9126  160.9135 H   0  0  0  0  0  0  0  0  0  0  0  0
  133.9782  135.3059  162.3451 H   0  0  0  0  0  0  0  0  0  0  0  0
  133.5167  137.7379  161.8368 H   0  0  0  0  0  0  0  0  0  0  0  0
  131.5674  137.7819  160.1047 H   0  0  0  0  0  0  0  0  0  0  0  0
  130.7593  137.4649  161.6705 H   0  0  0  0  0  0  0  0  0  0  0  0
  129.8961  135.1998  158.0222 H   0  0  0  0  0  0  0  0  0  0  0  0
  128.2087  132.9166  157.7383 H   0  0  0  0  0  0  0  0  0  0  0  0
  130.9900  132.4951  158.8811 H   0  0  0  0  0  0  0  0  0  0  0  0
  129.5154  131.5075  159.1107 H   0  0  0  0  0  0  0  0  0  0  0  0
  131.1892  129.2356  157.8967 H   0  0  0  0  0  0  0  0  0  0  0  0
  130.6544  131.5401  153.9224 H   0  0  0  0  0  0  0  0  0  0  0  0
  129.0468  133.5311  155.6214 H   0  0  0  0  0  0  0  0  0  0  0  0
  130.6413  134.0011  156.2841 H   0  0  0  0  0  0  0  0  0  0  0  0
  1  2  1  0
  1 29  1  0
  2  3  1  6
  2  9  1  0
  2  4  1  0
  4  5  1  6
  4  6  1  0
  4  7  1  0
  6 30  1  0
  7  8  2  0
  7 31  1  0
  8  9  1  0
  8 32  1  0
  9 10  1  1
  9 11  1  0
 11 12  1  0
 13 11  2  0
 13 14  1  0
 13 20  1  0
 14 15  1  0
 14 33  1  0
 15 19  1  0
 15 16  1  0
 15 34  1  0
 16 17  1  0
 16 35  1  0
 16 36  1  0
 17 18  2  0
 17 37  1  0
 18 19  1  0
 18 38  1  0
 19 39  1  0
 19 40  1  0
 20 21  1  0
 20 41  1  0
 21 28  1  0
 21 22  1  0
 21 42  1  0
 22 23  1  0
 22 43  1  0
 22 44  1  0
 23 27  1  0
 23 24  2  0
 24 25  1  0
 24 45  1  0
 25 26  1  0
 26 27  2  0
 26 46  1  0
 27 28  1  0
 28 47  1  0
 28 48  1  0
M  CHG  1  11   1
M  END
>  <DOCK_score>  (1) 
-43.682213

>  <SMILES>  (1) 
O[C@@H]1[C@H](O)C=C[C@H]1[NH+]=C(NC1CC=CC1)NC1Cc2cscc2C1

$$$$
