Nc1ccc(-c2c[nH]c(Nc3cc(N)ccc3-c3ccc(N)cc3)[nH+]2)cc1
     RDKit          3D

 48 51  0  0  1  0  0  0  0  0999 V2000
  131.3750  129.1743  151.9620 N   0  0  0  0  0  0  0  0  0  0  0  0
  131.0614  129.9383  153.0887 C   0  0  0  0  0  0  0  0  0  0  0  0
  130.1170  130.9542  152.9974 C   0  0  0  0  0  0  0  0  0  0  0  0
  129.8062  131.7098  154.1082 C   0  0  0  0  0  0  0  0  0  0  0  0
  130.4395  131.4539  155.3234 C   0  0  0  0  0  0  0  0  0  0  0  0
  130.1068  132.2654  156.5199 C   0  0  0  0  0  0  0  0  0  0  0  0
  129.5968  131.7962  157.6858 C   0  0  0  0  0  0  0  0  0  0  0  0
  129.4425  132.8791  158.5178 N   0  0  0  0  0  0  0  0  0  0  0  0
  129.0975  132.8628  159.4242 H   0  0  0  0  0  0  0  0  0  0  0  0
  129.8633  133.9786  157.8348 C   0  0  0  0  0  0  0  0  0  0  0  0
  129.8712  135.2760  158.3204 N   0  0  0  0  0  0  0  0  0  0  0  0
  128.9211  135.6746  159.2625 C   0  0  0  0  0  0  0  0  0  0  0  0
  127.5706  135.6136  158.9565 C   0  0  0  0  0  0  0  0  0  0  0  0
  126.6282  136.0101  159.8954 C   0  0  0  0  0  0  0  0  0  0  0  0
  125.2682  135.9482  159.5858 N   0  0  0  0  0  0  0  0  0  0  0  0
  127.0350  136.4694  161.1437 C   0  0  0  0  0  0  0  0  0  0  0  0
  128.3769  136.5384  161.4537 C   0  0  0  0  0  0  0  0  0  0  0  0
  129.3297  136.1367  160.5199 C   0  0  0  0  0  0  0  0  0  0  0  0
  130.7726  136.2047  160.8539 C   0  0  0  0  0  0  0  0  0  0  0  0
  131.3569  137.4277  161.1810 C   0  0  0  0  0  0  0  0  0  0  0  0
  132.6978  137.4875  161.4959 C   0  0  0  0  0  0  0  0  0  0  0  0
  133.4695  136.3318  161.4767 C   0  0  0  0  0  0  0  0  0  0  0  0
  134.8291  136.3959  161.7905 N   0  0  0  0  0  0  0  0  0  0  0  0
  132.8906  135.1122  161.1462 C   0  0  0  0  0  0  0  0  0  0  0  0
  131.5488  135.0463  160.8357 C   0  0  0  0  0  0  0  0  0  0  0  0
  130.2545  133.6081  156.6398 N   0  0  0  0  0  0  0  0  0  0  0  0
  130.5971  134.1997  155.9516 H   0  0  0  0  0  0  0  0  0  0  0  0
  131.3902  130.4381  155.4112 C   0  0  0  0  0  0  0  0  0  0  0  0
  131.6936  129.6814  154.2991 C   0  0  0  0  0  0  0  0  0  0  0  0
  130.9337  129.3533  151.1166 H   0  0  0  0  0  0  0  0  0  0  0  0
  132.0339  128.4656  152.0246 H   0  0  0  0  0  0  0  0  0  0  0  0
  129.6265  131.1521  152.0557 H   0  0  0  0  0  0  0  0  0  0  0  0
  129.0723  132.4989  154.0370 H   0  0  0  0  0  0  0  0  0  0  0  0
  129.3571  130.7686  157.9160 H   0  0  0  0  0  0  0  0  0  0  0  0
  130.5369  135.9075  158.0059 H   0  0  0  0  0  0  0  0  0  0  0  0
  127.2517  135.2574  157.9881 H   0  0  0  0  0  0  0  0  0  0  0  0
  124.6086  136.2253  160.2407 H   0  0  0  0  0  0  0  0  0  0  0  0
  124.9829  135.6280  158.7156 H   0  0  0  0  0  0  0  0  0  0  0  0
  126.2981  136.7772  161.8707 H   0  0  0  0  0  0  0  0  0  0  0  0
  128.6892  136.8999  162.4224 H   0  0  0  0  0  0  0  0  0  0  0  0
  130.7585  138.3268  161.1917 H   0  0  0  0  0  0  0  0  0  0  0  0
  133.1498  138.4341  161.7534 H   0  0  0  0  0  0  0  0  0  0  0  0
  135.3685  135.5897  161.7776 H   0  0  0  0  0  0  0  0  0  0  0  0
  135.2340  137.2467  162.0212 H   0  0  0  0  0  0  0  0  0  0  0  0
  133.4922  134.2155  161.1323 H   0  0  0  0  0  0  0  0  0  0  0  0
  131.0994  134.0986  160.5789 H   0  0  0  0  0  0  0  0  0  0  0  0
  131.8852  130.2412  156.3506 H   0  0  0  0  0  0  0  0  0  0  0  0
  132.4266  128.8911  154.3679 H   0  0  0  0  0  0  0  0  0  0  0  0
  1  2  1  0
  1 30  1  0
  1 31  1  0
  2 29  2  0
  2  3  1  0
  3  4  2  0
  3 32  1  0
  4  5  1  0
  4 33  1  0
  5  6  1  0
  5 28  2  0
  6 26  1  0
  6  7  2  0
  7  8  1  0
  7 34  1  0
  8  9  1  0
  8 10  1  0
 10 11  1  0
 10 26  2  0
 11 12  1  0
 11 35  1  0
 12 18  1  0
 12 13  2  0
 13 14  1  0
 13 36  1  0
 14 15  1  0
 14 16  2  0
 15 37  1  0
 15 38  1  0
 16 17  1  0
 16 39  1  0
 17 18  2  0
 17 40  1  0
 18 19  1  0
 19 25  1  0
 19 20  2  0
 20 21  1  0
 20 41  1  0
 21 22  2  0
 21 42  1  0
 22 23  1  0
 22 24  1  0
 23 43  1  0
 23 44  1  0
 24 25  2  0
 24 45  1  0
 25 46  1  0
 26 27  1  0
 28 29  1  0
 28 47  1  0
 29 48  1  0
M  CHG  1  26   1
M  END
>  <DOCK_score>  (1) 
-55.783936

>  <SMILES>  (1) 
Nc1ccc(-c2c[nH]c(Nc3cc(N)ccc3-c3ccc(N)cc3)[nH+]2)cc1

$$$$
