CC(=O)C1CC([NH2+]Cc2c[nH]nc2-c2ccc(NC[C@@H]3C[C@H]4CC[C@H]4C3)o2)C1
     RDKit          3D

 59 63  0  0  1  0  0  0  0  0999 V2000
  136.2421  141.0121  161.5387 C   0  0  0  0  0  0  0  0  0  0  0  0
  135.6583  139.6767  161.1551 C   0  0  0  0  0  0  0  0  0  0  0  0
  136.3879  138.7639  160.8503 O   0  0  0  0  0  0  0  0  0  0  0  0
  134.1641  139.4804  161.1521 C   0  0  2  0  0  0  0  0  0  0  0  0
  133.7243  138.0921  161.6462 C   0  0  0  0  0  0  0  0  0  0  0  0
  132.6665  138.1167  160.5301 C   0  0  2  0  0  0  0  0  0  0  0  0
  132.4938  136.8239  159.8544 N   0  0  0  0  0  0  0  0  0  0  0  0
  133.3951  136.3890  159.7252 H   0  0  0  0  0  0  0  0  0  0  0  0
  132.0587  136.9696  158.9557 H   0  0  0  0  0  0  0  0  0  0  0  0
  131.6426  135.9523  160.6751 C   0  0  0  0  0  0  0  0  0  0  0  0
  131.4655  134.6259  159.9820 C   0  0  0  0  0  0  0  0  0  0  0  0
  132.4404  133.8982  159.3963 C   0  0  0  0  0  0  0  0  0  0  0  0
  131.8788  132.7811  158.8853 N   0  0  0  0  0  0  0  0  0  0  0  0
  132.3450  132.0783  158.4060 H   0  0  0  0  0  0  0  0  0  0  0  0
  130.5074  132.8127  159.1677 N   0  0  0  0  0  0  0  0  0  0  0  0
  130.2518  133.9223  159.8324 C   0  0  0  0  0  0  0  0  0  0  0  0
  128.9285  134.3551  160.3270 C   0  0  0  0  0  0  0  0  0  0  0  0
  127.7620  133.6732  160.1807 C   0  0  0  0  0  0  0  0  0  0  0  0
  126.7590  134.4421  160.8035 C   0  0  0  0  0  0  0  0  0  0  0  0
  127.3599  135.5561  161.2910 C   0  0  0  0  0  0  0  0  0  0  0  0
  126.7271  136.5850  161.9790 N   0  0  0  0  0  0  0  0  0  0  0  0
  127.5018  137.7351  162.4515 C   0  0  0  0  0  0  0  0  0  0  0  0
  126.5729  138.7145  163.1718 C   0  0  2  0  0  0  0  0  0  0  0  0
  125.7967  139.0598  162.4888 H   0  0  0  0  0  0  0  0  0  0  0  0
  127.3767  139.9118  163.6971 C   0  0  0  0  0  0  0  0  0  0  0  0
  127.2003  139.9489  165.2239 C   0  0  1  0  0  0  0  0  0  0  0  0
  128.1020  139.7552  165.8049 H   0  0  0  0  0  0  0  0  0  0  0  0
  126.3372  141.1325  165.6973 C   0  0  0  0  0  0  0  0  0  0  0  0
  125.1095  140.2963  165.2995 C   0  0  0  0  0  0  0  0  0  0  0  0
  125.9791  139.0531  165.5323 C   0  0  1  0  0  0  0  0  0  0  0  0
  125.9419  138.6201  166.5318 H   0  0  0  0  0  0  0  0  0  0  0  0
  125.9320  138.0289  164.3875 C   0  0  0  0  0  0  0  0  0  0  0  0
  128.6709  135.4950  161.0020 O   0  0  0  0  0  0  0  0  0  0  0  0
  133.5936  139.0861  159.7776 C   0  0  0  0  0  0  0  0  0  0  0  0
  135.4361  141.7053  161.7797 H   0  0  0  0  0  0  0  0  0  0  0  0
  136.8884  140.8900  162.4077 H   0  0  0  0  0  0  0  0  0  0  0  0
  136.8239  141.4070  160.7057 H   0  0  0  0  0  0  0  0  0  0  0  0
  133.6282  140.3026  161.6263 H   0  0  0  0  0  0  0  0  0  0  0  0
  133.2999  138.1002  162.6501 H   0  0  0  0  0  0  0  0  0  0  0  0
  134.4825  137.3206  161.5122 H   0  0  0  0  0  0  0  0  0  0  0  0
  131.7208  138.5649  160.8347 H   0  0  0  0  0  0  0  0  0  0  0  0
  130.6691  136.4222  160.8147 H   0  0  0  0  0  0  0  0  0  0  0  0
  132.1127  135.7950  161.6459 H   0  0  0  0  0  0  0  0  0  0  0  0
  133.4856  134.1647  159.3423 H   0  0  0  0  0  0  0  0  0  0  0  0
  127.6299  132.7223  159.6859 H   0  0  0  0  0  0  0  0  0  0  0  0
  125.7108  134.1928  160.8772 H   0  0  0  0  0  0  0  0  0  0  0  0
  125.7727  136.5414  162.1463 H   0  0  0  0  0  0  0  0  0  0  0  0
  127.9668  138.2339  161.6012 H   0  0  0  0  0  0  0  0  0  0  0  0
  128.2749  137.3943  163.1401 H   0  0  0  0  0  0  0  0  0  0  0  0
  128.4308  139.7878  163.4489 H   0  0  0  0  0  0  0  0  0  0  0  0
  126.9969  140.8343  163.2579 H   0  0  0  0  0  0  0  0  0  0  0  0
  126.4073  141.3231  166.7682 H   0  0  0  0  0  0  0  0  0  0  0  0
  126.4648  142.0334  165.0970 H   0  0  0  0  0  0  0  0  0  0  0  0
  124.8078  140.4302  164.2607 H   0  0  0  0  0  0  0  0  0  0  0  0
  124.2769  140.3837  165.9976 H   0  0  0  0  0  0  0  0  0  0  0  0
  124.8986  137.7622  164.1657 H   0  0  0  0  0  0  0  0  0  0  0  0
  126.4995  137.1384  164.6579 H   0  0  0  0  0  0  0  0  0  0  0  0
  134.3159  138.5868  159.1319 H   0  0  0  0  0  0  0  0  0  0  0  0
  133.0637  139.8954  159.2753 H   0  0  0  0  0  0  0  0  0  0  0  0
  1  2  1  0
  1 35  1  0
  1 36  1  0
  1 37  1  0
  2  3  2  0
  2  4  1  0
  4 34  1  0
  4  5  1  0
  4 38  1  1
  5  6  1  0
  5 39  1  0
  5 40  1  0
  6  7  1  0
  6 34  1  0
  6 41  1  1
  7  8  1  0
  7  9  1  0
  7 10  1  0
 10 11  1  0
 10 42  1  0
 10 43  1  0
 11 16  1  0
 11 12  2  0
 12 13  1  0
 12 44  1  0
 13 14  1  0
 13 15  1  0
 15 16  2  0
 16 17  1  0
 17 33  1  0
 17 18  2  0
 18 19  1  0
 18 45  1  0
 19 20  2  0
 19 46  1  0
 20 21  1  0
 20 33  1  0
 21 22  1  0
 21 47  1  0
 22 23  1  0
 22 48  1  0
 22 49  1  0
 23 24  1  6
 23 32  1  0
 23 25  1  0
 25 26  1  0
 25 50  1  0
 25 51  1  0
 26 27  1  1
 26 30  1  0
 26 28  1  0
 28 29  1  0
 28 52  1  0
 28 53  1  0
 29 30  1  0
 29 54  1  0
 29 55  1  0
 30 31  1  1
 30 32  1  0
 32 56  1  0
 32 57  1  0
 34 58  1  0
 34 59  1  0
M  CHG  1   7   1
M  END
>  <DOCK_score>  (1) 
-44.412994

>  <SMILES>  (1) 
CC(=O)C1CC([NH2+]Cc2c[nH]nc2-c2ccc(NC[C@@H]3C[C@H]4CC[C@H]4C3)o2)C1

$$$$
