O=CCc1ccc(Nc2ccc(NC3=[NH+]CCN3)cc2)cc1
     RDKit          3D

 41 43  0  0  0  0  0  0  0  0999 V2000
  129.4969  136.0343  167.4706 O   0  0  0  0  0  0  0  0  0  0  0  0
  129.0076  136.7727  168.2914 C   0  0  0  0  0  0  0  0  0  0  0  0
  127.7955  137.5944  167.9375 C   0  0  0  0  0  0  0  0  0  0  0  0
  127.3963  137.3127  166.5118 C   0  0  0  0  0  0  0  0  0  0  0  0
  126.5012  136.2956  166.2341 C   0  0  0  0  0  0  0  0  0  0  0  0
  126.1287  136.0385  164.9295 C   0  0  0  0  0  0  0  0  0  0  0  0
  126.6623  136.7953  163.8938 C   0  0  0  0  0  0  0  0  0  0  0  0
  126.2924  136.5342  162.5723 N   0  0  0  0  0  0  0  0  0  0  0  0
  127.2636  136.1702  161.6328 C   0  0  0  0  0  0  0  0  0  0  0  0
  126.8954  135.9052  160.3206 C   0  0  0  0  0  0  0  0  0  0  0  0
  127.8545  135.5510  159.3926 C   0  0  0  0  0  0  0  0  0  0  0  0
  129.1856  135.4493  159.7740 C   0  0  0  0  0  0  0  0  0  0  0  0
  130.1582  135.0849  158.8328 N   0  0  0  0  0  0  0  0  0  0  0  0
  130.0715  133.8786  158.1905 C   0  0  0  0  0  0  0  0  0  0  0  0
  129.5252  132.8099  158.7473 N   0  0  0  0  0  0  0  0  0  0  0  0
  129.1433  132.7740  159.6383 H   0  0  0  0  0  0  0  0  0  0  0  0
  129.5852  131.6855  157.8004 C   0  0  0  0  0  0  0  0  0  0  0  0
  130.2861  132.2915  156.5677 C   0  0  0  0  0  0  0  0  0  0  0  0
  130.5324  133.6865  156.9651 N   0  0  0  0  0  0  0  0  0  0  0  0
  129.5534  135.7088  161.0874 C   0  0  0  0  0  0  0  0  0  0  0  0
  128.5958  136.0686  162.0145 C   0  0  0  0  0  0  0  0  0  0  0  0
  127.5659  137.8133  164.1764 C   0  0  0  0  0  0  0  0  0  0  0  0
  127.9293  138.0689  165.4840 C   0  0  0  0  0  0  0  0  0  0  0  0
  129.4388  136.8438  169.2789 H   0  0  0  0  0  0  0  0  0  0  0  0
  126.9725  137.3342  168.6035 H   0  0  0  0  0  0  0  0  0  0  0  0
  128.0295  138.6535  168.0466 H   0  0  0  0  0  0  0  0  0  0  0  0
  126.0901  135.7044  167.0390 H   0  0  0  0  0  0  0  0  0  0  0  0
  125.4270  135.2465  164.7137 H   0  0  0  0  0  0  0  0  0  0  0  0
  125.3624  136.6053  162.3059 H   0  0  0  0  0  0  0  0  0  0  0  0
  125.8595  135.9803  160.0248 H   0  0  0  0  0  0  0  0  0  0  0  0
  127.5684  135.3490  158.3709 H   0  0  0  0  0  0  0  0  0  0  0  0
  130.8927  135.6872  158.6365 H   0  0  0  0  0  0  0  0  0  0  0  0
  128.5833  131.3425  157.5423 H   0  0  0  0  0  0  0  0  0  0  0  0
  130.1764  130.8694  158.2156 H   0  0  0  0  0  0  0  0  0  0  0  0
  129.6332  132.2503  155.6958 H   0  0  0  0  0  0  0  0  0  0  0  0
  131.2262  131.7780  156.3664 H   0  0  0  0  0  0  0  0  0  0  0  0
  130.9646  134.3591  156.4158 H   0  0  0  0  0  0  0  0  0  0  0  0
  130.5889  135.6295  161.3838 H   0  0  0  0  0  0  0  0  0  0  0  0
  128.8820  136.2710  163.0360 H   0  0  0  0  0  0  0  0  0  0  0  0
  127.9834  138.4035  163.3740 H   0  0  0  0  0  0  0  0  0  0  0  0
  128.6310  138.8598  165.7040 H   0  0  0  0  0  0  0  0  0  0  0  0
  1  2  2  0
  2  3  1  0
  2 24  1  0
  3  4  1  0
  3 25  1  0
  3 26  1  0
  4 23  2  0
  4  5  1  0
  5  6  2  0
  5 27  1  0
  6  7  1  0
  6 28  1  0
  7  8  1  0
  7 22  2  0
  8  9  1  0
  8 29  1  0
  9 21  1  0
  9 10  2  0
 10 11  1  0
 10 30  1  0
 11 12  2  0
 11 31  1  0
 12 13  1  0
 12 20  1  0
 13 14  1  0
 13 32  1  0
 14 19  2  0
 14 15  1  0
 15 16  1  0
 15 17  1  0
 17 18  1  0
 17 33  1  0
 17 34  1  0
 18 19  1  0
 18 35  1  0
 18 36  1  0
 19 37  1  0
 20 21  2  0
 20 38  1  0
 21 39  1  0
 22 23  1  0
 22 40  1  0
 23 41  1  0
M  CHG  1  19   1
M  END
>  <DOCK_score>  (1) 
-41.024807

>  <SMILES>  (1) 
O=CCc1ccc(Nc2ccc(NC3=[NH+]CCN3)cc2)cc1

$$$$
