
     RDKit          2D

 36 40  0  0  0  0  0  0  0  0999 V2000
    3.7500   -1.2990    0.0000 C   0  0  0  0  0  0  0  0  0  0  0  0
    3.0000    0.0000    0.0000 C   0  0  0  0  0  0  0  0  0  0  0  0
    1.5000    0.0000    0.0000 C   0  0  0  0  0  0  0  0  0  0  0  0
    0.7500   -1.2990    0.0000 C   0  0  0  0  0  0  0  0  0  0  0  0
   -0.7500   -1.2990    0.0000 C   0  0  0  0  0  0  0  0  0  0  0  0
   -1.5000    0.0000    0.0000 C   0  0  0  0  0  0  0  0  0  0  0  0
   -3.0000    0.0000    0.0000 C   0  0  0  0  0  0  0  0  0  0  0  0
   -3.8817   -1.2135    0.0000 C   0  0  0  0  0  0  0  0  0  0  0  0
   -5.3083   -0.7500    0.0000 N   0  0  0  0  0  0  0  0  0  0  0  0
   -5.3083    0.7500    0.0000 C   0  0  0  0  0  0  0  0  0  0  0  0
   -6.5218    1.6317    0.0000 N   0  0  0  0  0  0  0  0  0  0  0  0
   -6.3650    3.1235    0.0000 C   0  0  0  0  0  0  0  0  0  0  0  0
   -7.5785    4.0051    0.0000 C   0  0  0  0  0  0  0  0  0  0  0  0
   -8.9488    3.3950    0.0000 C   0  0  0  0  0  0  0  0  0  0  0  0
   -9.1056    1.9033    0.0000 C   0  0  0  0  0  0  0  0  0  0  0  0
  -10.4760    1.2931    0.0000 C   0  0  0  0  0  0  0  0  0  0  0  0
  -11.6895    2.1748    0.0000 C   0  0  0  0  0  0  0  0  0  0  0  0
  -13.0598    1.5647    0.0000 C   0  0  0  0  0  0  0  0  0  0  0  0
  -14.3588    2.3147    0.0000 C   0  0  0  0  0  0  0  0  0  0  0  0
  -15.4735    1.3110    0.0000 C   0  0  0  0  0  0  0  0  0  0  0  0
  -14.8634   -0.0593    0.0000 C   0  0  0  0  0  0  0  0  0  0  0  0
  -15.6134   -1.3583    0.0000 C   0  0  0  0  0  0  0  0  0  0  0  0
  -13.3717    0.0975    0.0000 N   0  0  0  0  0  0  0  0  0  0  0  0
  -11.5327    3.6666    0.0000 C   0  0  0  0  0  0  0  0  0  0  0  0
  -10.1624    4.2767    0.0000 C   0  0  0  0  0  0  0  0  0  0  0  0
   -4.9947    3.7336    0.0000 C   0  0  0  0  0  0  0  0  0  0  0  0
   -4.8379    5.2253    0.0000 C   0  0  0  0  0  0  0  0  0  0  0  0
   -3.4676    5.8355    0.0000 C   0  0  0  0  0  0  0  0  0  0  0  0
   -3.3108    7.3272    0.0000 C   0  0  0  0  0  0  0  0  0  0  0  0
   -4.5243    8.2089    0.0000 C   0  0  0  0  0  0  0  0  0  0  0  0
   -4.3675    9.7007    0.0000 C   0  0  0  0  0  0  0  0  0  0  0  0
   -5.8946    7.5988    0.0000 C   0  0  0  0  0  0  0  0  0  0  0  0
   -6.0514    6.1070    0.0000 N   0  0  0  0  0  0  0  0  0  0  0  0
   -3.8817    1.2135    0.0000 N   0  0  0  0  0  0  0  0  0  0  0  0
   -0.7500    1.2990    0.0000 C   0  0  0  0  0  0  0  0  0  0  0  0
    0.7500    1.2990    0.0000 C   0  0  0  0  0  0  0  0  0  0  0  0
  1  2  1  0
  2  3  1  0
  3  4  2  0
  4  5  1  0
  5  6  2  0
  6  7  1  0
  7  8  2  0
  8  9  1  0
  9 10  1  0
 10 11  1  0
 11 12  1  0
 12 13  1  0
 13 14  1  0
 14 15  2  0
 15 16  1  0
 16 17  2  0
 17 18  1  0
 18 19  2  0
 19 20  1  0
 20 21  2  0
 21 22  1  0
 21 23  1  0
 17 24  1  0
 24 25  2  0
 12 26  1  0
 26 27  1  0
 27 28  2  0
 28 29  1  0
 29 30  2  0
 30 31  1  0
 30 32  1  0
 32 33  2  0
 10 34  2  0
  6 35  1  0
 35 36  2  0
 36  3  1  0
 34  7  1  0
 25 14  1  0
 33 27  1  0
 23 18  1  0
M  END
$$$$
