Fc1ccc(F)c([C@H](Nc2cccc(O[C@@H]3CC[NH2+]C3)c2)c2ccccc2Cl)c1
     RDKit          3D

 51 54  0  0  1  0  0  0  0  0999 V2000
  127.1562  140.6520  163.4239 F   0  0  0  0  0  0  0  0  0  0  0  0
  127.7390  139.6961  162.6677 C   0  0  0  0  0  0  0  0  0  0  0  0
  128.7309  140.0373  161.7639 C   0  0  0  0  0  0  0  0  0  0  0  0
  129.3267  139.0596  160.9903 C   0  0  0  0  0  0  0  0  0  0  0  0
  128.9317  137.7388  161.1189 C   0  0  0  0  0  0  0  0  0  0  0  0
  129.5143  136.7828  160.3625 F   0  0  0  0  0  0  0  0  0  0  0  0
  127.9398  137.3977  162.0222 C   0  0  0  0  0  0  0  0  0  0  0  0
  127.5092  135.9602  162.1615 C   0  0  2  0  0  0  0  0  0  0  0  0
  128.3509  135.3054  161.9357 H   0  0  0  0  0  0  0  0  0  0  0  0
  126.4133  135.6861  161.2287 N   0  0  0  0  0  0  0  0  0  0  0  0
  126.2513  134.4039  160.6992 C   0  0  0  0  0  0  0  0  0  0  0  0
  125.0735  133.7016  160.9248 C   0  0  0  0  0  0  0  0  0  0  0  0
  124.9160  132.4312  160.4063 C   0  0  0  0  0  0  0  0  0  0  0  0
  125.9260  131.8575  159.6571 C   0  0  0  0  0  0  0  0  0  0  0  0
  127.1020  132.5563  159.4236 C   0  0  0  0  0  0  0  0  0  0  0  0
  128.0942  131.9905  158.6874 O   0  0  0  0  0  0  0  0  0  0  0  0
  128.9298  132.8741  157.9370 C   0  0  2  0  0  0  0  0  0  0  0  0
  128.3769  133.7648  157.6382 H   0  0  0  0  0  0  0  0  0  0  0  0
  129.5166  132.1543  156.7011 C   0  0  0  0  0  0  0  0  0  0  0  0
  130.9700  132.6528  156.5978 C   0  0  0  0  0  0  0  0  0  0  0  0
  131.1756  133.6215  157.6962 N   0  0  0  0  0  0  0  0  0  0  0  0
  132.1152  133.5459  158.0557 H   0  0  0  0  0  0  0  0  0  0  0  0
  131.0012  134.5601  157.3694 H   0  0  0  0  0  0  0  0  0  0  0  0
  130.1935  133.2550  158.7485 C   0  0  0  0  0  0  0  0  0  0  0  0
  127.2642  133.8315  159.9423 C   0  0  0  0  0  0  0  0  0  0  0  0
  127.0424  135.7101  163.5724 C   0  0  0  0  0  0  0  0  0  0  0  0
  125.7140  135.8986  163.9046 C   0  0  0  0  0  0  0  0  0  0  0  0
  125.2857  135.6699  165.1988 C   0  0  0  0  0  0  0  0  0  0  0  0
  126.1856  135.2513  166.1615 C   0  0  0  0  0  0  0  0  0  0  0  0
  127.5139  135.0619  165.8304 C   0  0  0  0  0  0  0  0  0  0  0  0
  127.9422  135.2864  164.5338 C   0  0  0  0  0  0  0  0  0  0  0  0
  129.6091  135.0417  164.1154 Cl  0  0  0  0  0  0  0  0  0  0  0  0
  127.3403  138.3763  162.7923 C   0  0  0  0  0  0  0  0  0  0  0  0
  129.0388  141.0675  161.6633 H   0  0  0  0  0  0  0  0  0  0  0  0
  130.1006  139.3257  160.2856 H   0  0  0  0  0  0  0  0  0  0  0  0
  125.8003  136.3950  160.9789 H   0  0  0  0  0  0  0  0  0  0  0  0
  124.2828  134.1476  161.5098 H   0  0  0  0  0  0  0  0  0  0  0  0
  124.0017  131.8852  160.5861 H   0  0  0  0  0  0  0  0  0  0  0  0
  125.7997  130.8641  159.2527 H   0  0  0  0  0  0  0  0  0  0  0  0
  129.4966  131.0743  156.8472 H   0  0  0  0  0  0  0  0  0  0  0  0
  128.9579  132.4246  155.8051 H   0  0  0  0  0  0  0  0  0  0  0  0
  131.6587  131.8150  156.7080 H   0  0  0  0  0  0  0  0  0  0  0  0
  131.1273  133.1421  155.6366 H   0  0  0  0  0  0  0  0  0  0  0  0
  129.9910  134.1059  159.3990 H   0  0  0  0  0  0  0  0  0  0  0  0
  130.5501  132.4031  159.3275 H   0  0  0  0  0  0  0  0  0  0  0  0
  128.1787  134.3768  159.7616 H   0  0  0  0  0  0  0  0  0  0  0  0
  125.0105  136.2253  163.1531 H   0  0  0  0  0  0  0  0  0  0  0  0
  124.2478  135.8176  165.4581 H   0  0  0  0  0  0  0  0  0  0  0  0
  125.8504  135.0726  167.1725 H   0  0  0  0  0  0  0  0  0  0  0  0
  128.2167  134.7354  166.5824 H   0  0  0  0  0  0  0  0  0  0  0  0
  126.5634  138.1107  163.4941 H   0  0  0  0  0  0  0  0  0  0  0  0
  1  2  1  0
  2 33  2  0
  2  3  1  0
  3  4  2  0
  3 34  1  0
  4  5  1  0
  4 35  1  0
  5  6  1  0
  5  7  2  0
  7  8  1  0
  7 33  1  0
  8  9  1  6
  8 10  1  0
  8 26  1  0
 10 11  1  0
 10 36  1  0
 11 25  1  0
 11 12  2  0
 12 13  1  0
 12 37  1  0
 13 14  2  0
 13 38  1  0
 14 15  1  0
 14 39  1  0
 15 16  1  0
 15 25  2  0
 16 17  1  0
 17 18  1  6
 17 24  1  0
 17 19  1  0
 19 20  1  0
 19 40  1  0
 19 41  1  0
 20 21  1  0
 20 42  1  0
 20 43  1  0
 21 22  1  0
 21 23  1  0
 21 24  1  0
 24 44  1  0
 24 45  1  0
 25 46  1  0
 26 31  1  0
 26 27  2  0
 27 28  1  0
 27 47  1  0
 28 29  2  0
 28 48  1  0
 29 30  1  0
 29 49  1  0
 30 31  2  0
 30 50  1  0
 31 32  1  0
 33 51  1  0
M  CHG  1  21   1
M  END
>  <DOCK_score>  (1) 
-42.937206

>  <SMILES>  (1) 
Fc1ccc(F)c([C@H](Nc2cccc(O[C@@H]3CC[NH2+]C3)c2)c2ccccc2Cl)c1

$$$$
