CC1=C(Nc2ccc(-c3ccccc3)cc2)C[C@H]1Nc1[nH]cc(-c2ccc(Br)cc2)[nH+]1
     RDKit          3D

 55 59  0  0  1  0  0  0  0  0999 V2000
  131.8477  134.0260  162.0121 C   0  0  0  0  0  0  0  0  0  0  0  0
  131.1166  135.2784  161.6022 C   0  0  0  0  0  0  0  0  0  0  0  0
  131.1343  136.5420  161.9872 C   0  0  0  0  0  0  0  0  0  0  0  0
  131.8846  137.1836  162.9651 N   0  0  0  0  0  0  0  0  0  0  0  0
  133.1617  136.7182  163.2823 C   0  0  0  0  0  0  0  0  0  0  0  0
  133.4468  136.3013  164.5778 C   0  0  0  0  0  0  0  0  0  0  0  0
  134.7060  135.8368  164.8919 C   0  0  0  0  0  0  0  0  0  0  0  0
  135.6971  135.7954  163.9122 C   0  0  0  0  0  0  0  0  0  0  0  0
  137.0545  135.3008  164.2494 C   0  0  0  0  0  0  0  0  0  0  0  0
  137.8291  134.6678  163.2791 C   0  0  0  0  0  0  0  0  0  0  0  0
  139.0934  134.2144  163.5969 C   0  0  0  0  0  0  0  0  0  0  0  0
  139.5875  134.3777  164.8786 C   0  0  0  0  0  0  0  0  0  0  0  0
  138.8208  135.0004  165.8471 C   0  0  0  0  0  0  0  0  0  0  0  0
  137.5574  135.4624  165.5391 C   0  0  0  0  0  0  0  0  0  0  0  0
  135.4106  136.2187  162.6152 C   0  0  0  0  0  0  0  0  0  0  0  0
  134.1488  136.6776  162.3038 C   0  0  0  0  0  0  0  0  0  0  0  0
  130.0902  137.0735  161.0381 C   0  0  0  0  0  0  0  0  0  0  0  0
  130.0541  135.6117  160.5858 C   0  0  1  0  0  0  0  0  0  0  0  0
  129.1005  135.1232  160.7861 H   0  0  0  0  0  0  0  0  0  0  0  0
  130.5003  135.4251  159.2030 N   0  0  0  0  0  0  0  0  0  0  0  0
  130.3269  134.2016  158.5789 C   0  0  0  0  0  0  0  0  0  0  0  0
  129.7640  133.0976  159.1412 N   0  0  0  0  0  0  0  0  0  0  0  0
  129.4148  133.0270  160.0435 H   0  0  0  0  0  0  0  0  0  0  0  0
  129.7790  132.1022  158.1943 C   0  0  0  0  0  0  0  0  0  0  0  0
  130.3576  132.6239  157.0843 C   0  0  0  0  0  0  0  0  0  0  0  0
  130.5934  131.9103  155.8055 C   0  0  0  0  0  0  0  0  0  0  0  0
  130.5880  132.6126  154.6015 C   0  0  0  0  0  0  0  0  0  0  0  0
  130.8129  131.9448  153.4151 C   0  0  0  0  0  0  0  0  0  0  0  0
  131.0327  130.5782  153.4182 C   0  0  0  0  0  0  0  0  0  0  0  0
  131.3333  129.6685  151.7878 Br  0  0  0  0  0  0  0  0  0  0  0  0
  131.0338  129.8753  154.6105 C   0  0  0  0  0  0  0  0  0  0  0  0
  130.8153  130.5343  155.8030 C   0  0  0  0  0  0  0  0  0  0  0  0
  130.6831  133.9138  157.3507 N   0  0  0  0  0  0  0  0  0  0  0  0
  131.1107  134.5254  156.7311 H   0  0  0  0  0  0  0  0  0  0  0  0
  132.7110  133.8802  161.3628 H   0  0  0  0  0  0  0  0  0  0  0  0
  131.1789  133.1697  161.9249 H   0  0  0  0  0  0  0  0  0  0  0  0
  132.1821  134.1222  163.0450 H   0  0  0  0  0  0  0  0  0  0  0  0
  131.5206  137.9549  163.4272 H   0  0  0  0  0  0  0  0  0  0  0  0
  132.6801  136.3379  165.3375 H   0  0  0  0  0  0  0  0  0  0  0  0
  134.9260  135.5093  165.8972 H   0  0  0  0  0  0  0  0  0  0  0  0
  137.4425  134.5359  162.2793 H   0  0  0  0  0  0  0  0  0  0  0  0
  139.6962  133.7273  162.8448 H   0  0  0  0  0  0  0  0  0  0  0  0
  140.5757  134.0177  165.1241 H   0  0  0  0  0  0  0  0  0  0  0  0
  139.2115  135.1247  166.8462 H   0  0  0  0  0  0  0  0  0  0  0  0
  136.9594  135.9479  166.2960 H   0  0  0  0  0  0  0  0  0  0  0  0
  136.1772  136.1877  161.8551 H   0  0  0  0  0  0  0  0  0  0  0  0
  133.9263  137.0054  161.2991 H   0  0  0  0  0  0  0  0  0  0  0  0
  130.4699  137.7676  160.2885 H   0  0  0  0  0  0  0  0  0  0  0  0
  129.1773  137.4171  161.5247 H   0  0  0  0  0  0  0  0  0  0  0  0
  130.9173  136.1587  158.7247 H   0  0  0  0  0  0  0  0  0  0  0  0
  129.4055  131.0959  158.3127 H   0  0  0  0  0  0  0  0  0  0  0  0
  130.4121  133.6781  154.5976 H   0  0  0  0  0  0  0  0  0  0  0  0
  130.8129  132.4886  152.4820 H   0  0  0  0  0  0  0  0  0  0  0  0
  131.2063  128.8091  154.6077 H   0  0  0  0  0  0  0  0  0  0  0  0
  130.8167  129.9850  156.7328 H   0  0  0  0  0  0  0  0  0  0  0  0
  1  2  1  0
  1 35  1  0
  1 36  1  0
  1 37  1  0
  2 18  1  0
  2  3  2  0
  3  4  1  0
  3 17  1  0
  4  5  1  0
  4 38  1  0
  5 16  1  0
  5  6  2  0
  6  7  1  0
  6 39  1  0
  7  8  2  0
  7 40  1  0
  8  9  1  0
  8 15  1  0
  9 14  1  0
  9 10  2  0
 10 11  1  0
 10 41  1  0
 11 12  2  0
 11 42  1  0
 12 13  1  0
 12 43  1  0
 13 14  2  0
 13 44  1  0
 14 45  1  0
 15 16  2  0
 15 46  1  0
 16 47  1  0
 17 18  1  0
 17 48  1  0
 17 49  1  0
 18 19  1  1
 18 20  1  0
 20 50  1  0
 21 20  1  0
 21 33  2  0
 21 22  1  0
 22 23  1  0
 22 24  1  0
 24 25  2  0
 24 51  1  0
 25 26  1  0
 25 33  1  0
 26 32  1  0
 26 27  2  0
 27 28  1  0
 27 52  1  0
 28 29  2  0
 28 53  1  0
 29 30  1  0
 29 31  1  0
 31 32  2  0
 31 54  1  0
 32 55  1  0
 33 34  1  0
M  CHG  1  33   1
M  END
>  <DOCK_score>  (1) 
-59.265804

>  <SMILES>  (1) 
CC1=C(Nc2ccc(-c3ccccc3)cc2)C[C@H]1Nc1[nH]cc(-c2ccc(Br)cc2)[nH+]1

$$$$
