Cc1ccc(-n2cc(C[NH+]3CCC(N4CC=CC4)CC3)c(CCc3ccccn3)n2)cc1
     RDKit          3D

 66 70  0  0  1  0  0  0  0  0999 V2000
  130.6501  130.1604  152.5047 C   0  0  0  0  0  0  0  0  0  0  0  0
  130.5486  130.9134  153.8061 C   0  0  0  0  0  0  0  0  0  0  0  0
  130.7030  130.2424  155.0053 C   0  0  0  0  0  0  0  0  0  0  0  0
  130.6104  130.9298  156.1998 C   0  0  0  0  0  0  0  0  0  0  0  0
  130.3622  132.2957  156.1955 C   0  0  0  0  0  0  0  0  0  0  0  0
  130.2673  132.9961  157.4062 N   0  0  0  0  0  0  0  0  0  0  0  0
  130.0305  134.3204  157.5430 C   0  0  0  0  0  0  0  0  0  0  0  0
  130.0148  134.6012  158.8667 C   0  0  0  0  0  0  0  0  0  0  0  0
  129.7845  135.9570  159.4827 C   0  0  0  0  0  0  0  0  0  0  0  0
  131.0719  136.6454  159.6464 N   0  0  1  0  0  0  0  0  0  0  0  0
  131.6505  136.4711  158.8383 H   0  0  0  0  0  0  0  0  0  0  0  0
  130.8402  138.0890  159.7762 C   0  0  0  0  0  0  0  0  0  0  0  0
  132.1821  138.8189  159.8657 C   0  0  0  0  0  0  0  0  0  0  0  0
  132.9523  138.3120  161.0883 C   0  0  2  0  0  0  0  0  0  0  0  0
  134.2731  138.9527  161.1393 N   0  0  0  0  0  0  0  0  0  0  0  0
  134.1481  140.4081  161.3901 C   0  0  0  0  0  0  0  0  0  0  0  0
  135.3369  140.7698  162.2502 C   0  0  0  0  0  0  0  0  0  0  0  0
  135.8448  139.6813  162.7723 C   0  0  0  0  0  0  0  0  0  0  0  0
  135.0464  138.4832  162.3135 C   0  0  0  0  0  0  0  0  0  0  0  0
  133.1234  136.7940  160.9783 C   0  0  0  0  0  0  0  0  0  0  0  0
  131.7466  136.1392  160.8477 C   0  0  0  0  0  0  0  0  0  0  0  0
  130.2495  133.4101  159.5625 C   0  0  0  0  0  0  0  0  0  0  0  0
  130.3165  133.2609  161.0606 C   0  0  0  0  0  0  0  0  0  0  0  0
  129.5143  132.0300  161.4870 C   0  0  0  0  0  0  0  0  0  0  0  0
  128.0778  132.1945  161.0624 C   0  0  0  0  0  0  0  0  0  0  0  0
  127.3220  131.0771  160.7614 C   0  0  0  0  0  0  0  0  0  0  0  0
  126.0014  131.2394  160.3723 C   0  0  0  0  0  0  0  0  0  0  0  0
  125.4880  132.5255  160.3001 C   0  0  0  0  0  0  0  0  0  0  0  0
  126.3040  133.5949  160.6163 C   0  0  0  0  0  0  0  0  0  0  0  0
  127.5548  133.4026  160.9876 N   0  0  0  0  0  0  0  0  0  0  0  0
  130.4009  132.4480  158.6884 N   0  0  0  0  0  0  0  0  0  0  0  0
  130.2023  132.9657  154.9900 C   0  0  0  0  0  0  0  0  0  0  0  0
  130.3017  132.2738  153.7988 C   0  0  0  0  0  0  0  0  0  0  0  0
  129.6639  129.7952  152.2183 H   0  0  0  0  0  0  0  0  0  0  0  0
  131.0307  130.8250  151.7291 H   0  0  0  0  0  0  0  0  0  0  0  0
  131.3291  129.3162  152.6253 H   0  0  0  0  0  0  0  0  0  0  0  0
  130.8957  129.1797  155.0080 H   0  0  0  0  0  0  0  0  0  0  0  0
  130.7307  130.4051  157.1361 H   0  0  0  0  0  0  0  0  0  0  0  0
  129.8808  135.0270  156.7402 H   0  0  0  0  0  0  0  0  0  0  0  0
  129.1375  136.5462  158.8327 H   0  0  0  0  0  0  0  0  0  0  0  0
  129.3098  135.8378  160.4566 H   0  0  0  0  0  0  0  0  0  0  0  0
  130.2892  138.4478  158.9069 H   0  0  0  0  0  0  0  0  0  0  0  0
  130.2603  138.2838  160.6785 H   0  0  0  0  0  0  0  0  0  0  0  0
  132.0078  139.8904  159.9638 H   0  0  0  0  0  0  0  0  0  0  0  0
  132.7626  138.6250  158.9637 H   0  0  0  0  0  0  0  0  0  0  0  0
  132.3958  138.5512  161.9946 H   0  0  0  0  0  0  0  0  0  0  0  0
  134.1817  140.9577  160.4494 H   0  0  0  0  0  0  0  0  0  0  0  0
  133.2198  140.6217  161.9200 H   0  0  0  0  0  0  0  0  0  0  0  0
  135.7096  141.7707  162.4099 H   0  0  0  0  0  0  0  0  0  0  0  0
  136.7015  139.6456  163.4289 H   0  0  0  0  0  0  0  0  0  0  0  0
  134.3711  138.1544  163.1034 H   0  0  0  0  0  0  0  0  0  0  0  0
  135.7137  137.6707  162.0258 H   0  0  0  0  0  0  0  0  0  0  0  0
  133.6219  136.4182  161.8718 H   0  0  0  0  0  0  0  0  0  0  0  0
  133.7234  136.5581  160.0994 H   0  0  0  0  0  0  0  0  0  0  0  0
  131.1474  136.3755  161.7271 H   0  0  0  0  0  0  0  0  0  0  0  0
  131.8646  135.0585  160.7694 H   0  0  0  0  0  0  0  0  0  0  0  0
  131.3556  133.1417  161.3678 H   0  0  0  0  0  0  0  0  0  0  0  0
  129.8976  134.1493  161.5334 H   0  0  0  0  0  0  0  0  0  0  0  0
  129.9334  131.1416  161.0143 H   0  0  0  0  0  0  0  0  0  0  0  0
  129.5628  131.9220  162.5705 H   0  0  0  0  0  0  0  0  0  0  0  0
  127.7549  130.0899  160.8283 H   0  0  0  0  0  0  0  0  0  0  0  0
  125.3871  130.3847  160.1308 H   0  0  0  0  0  0  0  0  0  0  0  0
  124.4632  132.6893  160.0011 H   0  0  0  0  0  0  0  0  0  0  0  0
  125.9117  134.5998  160.5625 H   0  0  0  0  0  0  0  0  0  0  0  0
  130.0051  134.0275  154.9837 H   0  0  0  0  0  0  0  0  0  0  0  0
  130.1815  132.7951  152.8605 H   0  0  0  0  0  0  0  0  0  0  0  0
  1  2  1  0
  1 34  1  0
  1 35  1  0
  1 36  1  0
  2 33  2  0
  2  3  1  0
  3  4  2  0
  3 37  1  0
  4  5  1  0
  4 38  1  0
  5  6  1  0
  5 32  2  0
  6 31  1  0
  6  7  1  0
  7  8  2  0
  7 39  1  0
  8  9  1  0
  8 22  1  0
  9 10  1  0
  9 40  1  0
  9 41  1  0
 10 11  1  6
 10 21  1  0
 10 12  1  0
 12 13  1  0
 12 42  1  0
 12 43  1  0
 13 14  1  0
 13 44  1  0
 13 45  1  0
 14 15  1  0
 14 20  1  0
 14 46  1  1
 15 19  1  0
 15 16  1  0
 16 17  1  0
 16 47  1  0
 16 48  1  0
 17 18  2  0
 17 49  1  0
 18 19  1  0
 18 50  1  0
 19 51  1  0
 19 52  1  0
 20 21  1  0
 20 53  1  0
 20 54  1  0
 21 55  1  0
 21 56  1  0
 22 23  1  0
 22 31  2  0
 23 24  1  0
 23 57  1  0
 23 58  1  0
 24 25  1  0
 24 59  1  0
 24 60  1  0
 25 30  1  0
 25 26  2  0
 26 27  1  0
 26 61  1  0
 27 28  2  0
 27 62  1  0
 28 29  1  0
 28 63  1  0
 29 30  2  0
 29 64  1  0
 32 33  1  0
 32 65  1  0
 33 66  1  0
M  CHG  1  10   1
M  END
>  <DOCK_score>  (1) 
-57.703175

>  <SMILES>  (1) 
Cc1ccc(-n2cc(C[NH+]3CCC(N4CC=CC4)CC3)c(CCc3ccccn3)n2)cc1

$$$$
