Nc1ccc(-c2c[nH]c(Nc3ccc(Nc4ccc(C5CC5)cc4)cc3)[nH+]2)cc1
     RDKit          3D

 53 57  0  0  1  0  0  0  0  0999 V2000
  131.3669  129.2326  151.8082 N   0  0  0  0  0  0  0  0  0  0  0  0
  131.0722  129.9890  152.9450 C   0  0  0  0  0  0  0  0  0  0  0  0
  130.1545  131.0299  152.8671 C   0  0  0  0  0  0  0  0  0  0  0  0
  129.8621  131.7781  153.9878 C   0  0  0  0  0  0  0  0  0  0  0  0
  130.4877  131.4897  155.1998 C   0  0  0  0  0  0  0  0  0  0  0  0
  130.1747  132.2932  156.4071 C   0  0  0  0  0  0  0  0  0  0  0  0
  129.6563  131.8206  157.5677 C   0  0  0  0  0  0  0  0  0  0  0  0
  129.5317  132.8954  158.4154 N   0  0  0  0  0  0  0  0  0  0  0  0
  129.1918  132.8745  159.3237 H   0  0  0  0  0  0  0  0  0  0  0  0
  129.9701  133.9948  157.7435 C   0  0  0  0  0  0  0  0  0  0  0  0
  130.0076  135.2853  158.2453 N   0  0  0  0  0  0  0  0  0  0  0  0
  129.0693  135.6920  159.2018 C   0  0  0  0  0  0  0  0  0  0  0  0
  129.4081  136.6585  160.1399 C   0  0  0  0  0  0  0  0  0  0  0  0
  128.4831  137.0592  161.0832 C   0  0  0  0  0  0  0  0  0  0  0  0
  127.2135  136.4960  161.0940 C   0  0  0  0  0  0  0  0  0  0  0  0
  126.2759  136.9018  162.0507 N   0  0  0  0  0  0  0  0  0  0  0  0
  126.7037  137.3375  163.3070 C   0  0  0  0  0  0  0  0  0  0  0  0
  126.4080  138.6257  163.7352 C   0  0  0  0  0  0  0  0  0  0  0  0
  126.8285  139.0515  164.9799 C   0  0  0  0  0  0  0  0  0  0  0  0
  127.5518  138.2006  165.7954 C   0  0  0  0  0  0  0  0  0  0  0  0
  128.0135  138.6705  167.1508 C   0  0  0  0  0  0  0  0  0  0  0  0
  127.6906  137.7825  168.3542 C   0  0  0  0  0  0  0  0  0  0  0  0
  126.9402  139.1014  168.1525 C   0  0  0  0  0  0  0  0  0  0  0  0
  127.8530  136.9197  165.3701 C   0  0  0  0  0  0  0  0  0  0  0  0
  127.4312  136.4855  164.1289 C   0  0  0  0  0  0  0  0  0  0  0  0
  126.8763  135.5259  160.1588 C   0  0  0  0  0  0  0  0  0  0  0  0
  127.7995  135.1292  159.2122 C   0  0  0  0  0  0  0  0  0  0  0  0
  130.3564  133.6300  156.5450 N   0  0  0  0  0  0  0  0  0  0  0  0
  130.7151  134.2219  155.8654 H   0  0  0  0  0  0  0  0  0  0  0  0
  131.4121  130.4490  155.2743 C   0  0  0  0  0  0  0  0  0  0  0  0
  131.6968  129.6995  154.1524 C   0  0  0  0  0  0  0  0  0  0  0  0
  130.9312  129.4338  150.9653 H   0  0  0  0  0  0  0  0  0  0  0  0
  132.0072  128.5059  151.8618 H   0  0  0  0  0  0  0  0  0  0  0  0
  129.6703  131.2532  151.9279 H   0  0  0  0  0  0  0  0  0  0  0  0
  129.1486  132.5866  153.9269 H   0  0  0  0  0  0  0  0  0  0  0  0
  129.3953  130.7956  157.7856 H   0  0  0  0  0  0  0  0  0  0  0  0
  130.6839  135.9072  157.9342 H   0  0  0  0  0  0  0  0  0  0  0  0
  130.3953  137.0964  160.1316 H   0  0  0  0  0  0  0  0  0  0  0  0
  128.7467  137.8107  161.8127 H   0  0  0  0  0  0  0  0  0  0  0  0
  125.3292  136.8843  161.8398 H   0  0  0  0  0  0  0  0  0  0  0  0
  125.8463  139.2919  163.0971 H   0  0  0  0  0  0  0  0  0  0  0  0
  126.5957  140.0514  165.3149 H   0  0  0  0  0  0  0  0  0  0  0  0
  128.9599  139.2110  167.1638 H   0  0  0  0  0  0  0  0  0  0  0  0
  127.1442  136.8583  168.1656 H   0  0  0  0  0  0  0  0  0  0  0  0
  128.4244  137.7392  169.1590 H   0  0  0  0  0  0  0  0  0  0  0  0
  127.1807  139.9250  168.8247 H   0  0  0  0  0  0  0  0  0  0  0  0
  125.9003  139.0453  167.8310 H   0  0  0  0  0  0  0  0  0  0  0  0
  128.4184  136.2578  166.0094 H   0  0  0  0  0  0  0  0  0  0  0  0
  127.6666  135.4850  163.7972 H   0  0  0  0  0  0  0  0  0  0  0  0
  125.8905  135.0848  160.1699 H   0  0  0  0  0  0  0  0  0  0  0  0
  127.5361  134.3777  158.4828 H   0  0  0  0  0  0  0  0  0  0  0  0
  131.9016  130.2270  156.2111 H   0  0  0  0  0  0  0  0  0  0  0  0
  132.4094  128.8900  154.2108 H   0  0  0  0  0  0  0  0  0  0  0  0
  1  2  1  0
  1 32  1  0
  1 33  1  0
  2 31  2  0
  2  3  1  0
  3  4  2  0
  3 34  1  0
  4  5  1  0
  4 35  1  0
  5  6  1  0
  5 30  2  0
  6 28  1  0
  6  7  2  0
  7  8  1  0
  7 36  1  0
  8  9  1  0
  8 10  1  0
 10 11  1  0
 10 28  2  0
 11 12  1  0
 11 37  1  0
 12 27  1  0
 12 13  2  0
 13 14  1  0
 13 38  1  0
 14 15  2  0
 14 39  1  0
 15 16  1  0
 15 26  1  0
 16 17  1  0
 16 40  1  0
 17 25  1  0
 17 18  2  0
 18 19  1  0
 18 41  1  0
 19 20  2  0
 19 42  1  0
 20 21  1  0
 20 24  1  0
 21 23  1  0
 21 22  1  0
 21 43  1  0
 22 23  1  0
 22 44  1  0
 22 45  1  0
 23 46  1  0
 23 47  1  0
 24 25  2  0
 24 48  1  0
 25 49  1  0
 26 27  2  0
 26 50  1  0
 27 51  1  0
 28 29  1  0
 30 31  1  0
 30 52  1  0
 31 53  1  0
M  CHG  1  28   1
M  END
>  <DOCK_score>  (1) 
-56.945709

>  <SMILES>  (1) 
Nc1ccc(-c2c[nH]c(Nc3ccc(Nc4ccc(C5CC5)cc4)cc3)[nH+]2)cc1

$$$$
