FC(F)[C@H](Cc1ccccc1)N1CC[NH+](Cc2ccc(-c3cnn4ccccc34)cc2)CC1
     RDKit          3D

 62 66  0  0  1  0  0  0  0  0999 V2000
  131.9344  130.2297  157.9298 F   0  0  0  0  0  0  0  0  0  0  0  0
  130.5544  130.1154  157.7308 C   0  0  0  0  0  0  0  0  0  0  0  0
  129.9210  129.9109  158.9613 F   0  0  0  0  0  0  0  0  0  0  0  0
  130.0233  131.3998  157.0912 C   0  0  2  0  0  0  0  0  0  0  0  0
  129.0625  131.1992  156.6170 H   0  0  0  0  0  0  0  0  0  0  0  0
  131.0179  131.8946  156.0390 C   0  0  0  0  0  0  0  0  0  0  0  0
  130.8358  131.1081  154.7666 C   0  0  0  0  0  0  0  0  0  0  0  0
  131.5589  129.9478  154.5616 C   0  0  0  0  0  0  0  0  0  0  0  0
  131.3884  129.2238  153.3966 C   0  0  0  0  0  0  0  0  0  0  0  0
  130.5024  129.6655  152.4317 C   0  0  0  0  0  0  0  0  0  0  0  0
  129.7832  130.8284  152.6343 C   0  0  0  0  0  0  0  0  0  0  0  0
  129.9498  131.5497  153.8017 C   0  0  0  0  0  0  0  0  0  0  0  0
  129.8533  132.4283  158.1262 N   0  0  0  0  0  0  0  0  0  0  0  0
  131.1489  133.0024  158.5159 C   0  0  0  0  0  0  0  0  0  0  0  0
  130.9348  134.0240  159.6350 C   0  0  0  0  0  0  0  0  0  0  0  0
  130.0320  135.0832  159.1651 N   0  0  0  0  0  0  0  0  0  0  0  0
  130.4345  135.5340  158.3571 H   0  0  0  0  0  0  0  0  0  0  0  0
  129.8410  136.0731  160.2335 C   0  0  0  0  0  0  0  0  0  0  0  0
  131.0233  137.0068  160.2704 C   0  0  0  0  0  0  0  0  0  0  0  0
  132.1161  136.7036  161.0630 C   0  0  0  0  0  0  0  0  0  0  0  0
  133.2016  137.5544  161.1011 C   0  0  0  0  0  0  0  0  0  0  0  0
  133.1958  138.7223  160.3384 C   0  0  0  0  0  0  0  0  0  0  0  0
  134.3576  139.6401  160.3750 C   0  0  0  0  0  0  0  0  0  0  0  0
  135.1556  140.0129  159.2895 C   0  0  0  0  0  0  0  0  0  0  0  0
  136.0855  140.8372  159.7095 N   0  0  0  0  0  0  0  0  0  0  0  0
  135.9372  141.0397  161.0872 N   0  0  0  0  0  0  0  0  0  0  0  0
  136.6371  141.7943  161.9842 C   0  0  0  0  0  0  0  0  0  0  0  0
  136.2836  141.8191  163.2869 C   0  0  0  0  0  0  0  0  0  0  0  0
  135.1880  141.0672  163.7401 C   0  0  0  0  0  0  0  0  0  0  0  0
  134.4811  140.3100  162.8550 C   0  0  0  0  0  0  0  0  0  0  0  0
  134.8638  140.2970  161.5044 C   0  0  0  0  0  0  0  0  0  0  0  0
  132.0890  139.0250  159.5453 C   0  0  0  0  0  0  0  0  0  0  0  0
  131.0115  138.1638  159.5120 C   0  0  0  0  0  0  0  0  0  0  0  0
  128.7345  134.4975  158.8030 C   0  0  0  0  0  0  0  0  0  0  0  0
  128.9303  133.4801  157.6769 C   0  0  0  0  0  0  0  0  0  0  0  0
  130.3509  129.2708  157.0726 H   0  0  0  0  0  0  0  0  0  0  0  0
  130.8414  132.9518  155.8410 H   0  0  0  0  0  0  0  0  0  0  0  0
  132.0346  131.7587  156.4078 H   0  0  0  0  0  0  0  0  0  0  0  0
  132.2543  129.6051  155.3135 H   0  0  0  0  0  0  0  0  0  0  0  0
  131.9505  128.3153  153.2381 H   0  0  0  0  0  0  0  0  0  0  0  0
  130.3724  129.1021  151.5195 H   0  0  0  0  0  0  0  0  0  0  0  0
  129.0912  131.1737  151.8804 H   0  0  0  0  0  0  0  0  0  0  0  0
  129.3881  132.4585  153.9598 H   0  0  0  0  0  0  0  0  0  0  0  0
  131.6020  133.4950  157.6556 H   0  0  0  0  0  0  0  0  0  0  0  0
  131.8070  132.2086  158.8693 H   0  0  0  0  0  0  0  0  0  0  0  0
  131.8929  134.4615  159.9158 H   0  0  0  0  0  0  0  0  0  0  0  0
  130.4942  133.5284  160.5000 H   0  0  0  0  0  0  0  0  0  0  0  0
  129.7524  135.5610  161.1917 H   0  0  0  0  0  0  0  0  0  0  0  0
  128.9328  136.6444  160.0414 H   0  0  0  0  0  0  0  0  0  0  0  0
  132.1193  135.7993  161.6534 H   0  0  0  0  0  0  0  0  0  0  0  0
  134.0541  137.3165  161.7199 H   0  0  0  0  0  0  0  0  0  0  0  0
  135.0269  139.6775  158.2710 H   0  0  0  0  0  0  0  0  0  0  0  0
  137.4820  142.3771  161.6484 H   0  0  0  0  0  0  0  0  0  0  0  0
  136.8442  142.4244  163.9838 H   0  0  0  0  0  0  0  0  0  0  0  0
  134.9072  141.0894  164.7827 H   0  0  0  0  0  0  0  0  0  0  0  0
  133.6360  139.7262  163.1889 H   0  0  0  0  0  0  0  0  0  0  0  0
  132.0769  139.9298  158.9556 H   0  0  0  0  0  0  0  0  0  0  0  0
  130.1555  138.3952  158.8955 H   0  0  0  0  0  0  0  0  0  0  0  0
  128.3054  133.9994  159.6724 H   0  0  0  0  0  0  0  0  0  0  0  0
  128.0611  135.2861  158.4670 H   0  0  0  0  0  0  0  0  0  0  0  0
  129.3469  133.9805  156.8027 H   0  0  0  0  0  0  0  0  0  0  0  0
  127.9697  133.0347  157.4181 H   0  0  0  0  0  0  0  0  0  0  0  0
  1  2  1  0
  2  3  1  0
  2  4  1  0
  2 36  1  0
  4  5  1  6
  4  6  1  0
  4 13  1  0
  6  7  1  0
  6 37  1  0
  6 38  1  0
  7 12  1  0
  7  8  2  0
  8  9  1  0
  8 39  1  0
  9 10  2  0
  9 40  1  0
 10 11  1  0
 10 41  1  0
 11 12  2  0
 11 42  1  0
 12 43  1  0
 13 35  1  0
 13 14  1  0
 14 15  1  0
 14 44  1  0
 14 45  1  0
 15 16  1  0
 15 46  1  0
 15 47  1  0
 16 17  1  0
 16 18  1  0
 16 34  1  0
 18 19  1  0
 18 48  1  0
 18 49  1  0
 19 33  1  0
 19 20  2  0
 20 21  1  0
 20 50  1  0
 21 22  2  0
 21 51  1  0
 22 23  1  0
 22 32  1  0
 23 31  2  0
 23 24  1  0
 24 25  2  0
 24 52  1  0
 25 26  1  0
 26 31  1  0
 26 27  1  0
 27 28  2  0
 27 53  1  0
 28 29  1  0
 28 54  1  0
 29 30  2  0
 29 55  1  0
 30 31  1  0
 30 56  1  0
 32 33  2  0
 32 57  1  0
 33 58  1  0
 34 35  1  0
 34 59  1  0
 34 60  1  0
 35 61  1  0
 35 62  1  0
M  CHG  1  16   1
M  END
>  <DOCK_score>  (1) 
-57.074272

>  <SMILES>  (1) 
FC(F)[C@H](Cc1ccccc1)N1CC[NH+](Cc2ccc(-c3cnn4ccccc34)cc2)CC1

$$$$
