Nc1ccc(Nc2[nH]cc(-c3ccccc3)[nH+]2)c(Cl)c1
     RDKit          3D

 34 36  0  0  1  0  0  0  0  0999 V2000
  126.6563  137.0026  162.5439 N   0  0  0  0  0  0  0  0  0  0  0  0
  127.5582  136.5789  161.5613 C   0  0  0  0  0  0  0  0  0  0  0  0
  128.9171  136.5235  161.8435 C   0  0  0  0  0  0  0  0  0  0  0  0
  129.8069  136.1004  160.8761 C   0  0  0  0  0  0  0  0  0  0  0  0
  129.3441  135.7352  159.6190 C   0  0  0  0  0  0  0  0  0  0  0  0
  130.2473  135.3064  158.6372 N   0  0  0  0  0  0  0  0  0  0  0  0
  130.1283  134.0382  158.0934 C   0  0  0  0  0  0  0  0  0  0  0  0
  129.6272  132.9454  158.7321 N   0  0  0  0  0  0  0  0  0  0  0  0
  129.2920  132.9150  159.6417 H   0  0  0  0  0  0  0  0  0  0  0  0
  129.6835  131.8939  157.8503 C   0  0  0  0  0  0  0  0  0  0  0  0
  130.2170  132.3736  156.6993 C   0  0  0  0  0  0  0  0  0  0  0  0
  130.4687  131.5939  155.4626 C   0  0  0  0  0  0  0  0  0  0  0  0
  129.8451  131.9546  154.2694 C   0  0  0  0  0  0  0  0  0  0  0  0
  130.0875  131.2291  153.1206 C   0  0  0  0  0  0  0  0  0  0  0  0
  130.9381  130.1389  153.1545 C   0  0  0  0  0  0  0  0  0  0  0  0
  131.5552  129.7728  154.3373 C   0  0  0  0  0  0  0  0  0  0  0  0
  131.3251  130.4948  155.4908 C   0  0  0  0  0  0  0  0  0  0  0  0
  130.4744  133.6934  156.8770 N   0  0  0  0  0  0  0  0  0  0  0  0
  130.8556  134.2868  156.2112 H   0  0  0  0  0  0  0  0  0  0  0  0
  127.9853  135.7953  159.3344 C   0  0  0  0  0  0  0  0  0  0  0  0
  127.4063  135.3383  157.7629 Cl  0  0  0  0  0  0  0  0  0  0  0  0
  127.0951  136.2189  160.3028 C   0  0  0  0  0  0  0  0  0  0  0  0
  126.9801  137.2577  163.4220 H   0  0  0  0  0  0  0  0  0  0  0  0
  125.7072  137.0414  162.3469 H   0  0  0  0  0  0  0  0  0  0  0  0
  129.2773  136.8072  162.8214 H   0  0  0  0  0  0  0  0  0  0  0  0
  130.8629  136.0534  161.0974 H   0  0  0  0  0  0  0  0  0  0  0  0
  130.9557  135.8976  158.3384 H   0  0  0  0  0  0  0  0  0  0  0  0
  129.3640  130.8795  158.0376 H   0  0  0  0  0  0  0  0  0  0  0  0
  129.1773  132.8028  154.2429 H   0  0  0  0  0  0  0  0  0  0  0  0
  129.6087  131.5104  152.1944 H   0  0  0  0  0  0  0  0  0  0  0  0
  131.1213  129.5713  152.2541 H   0  0  0  0  0  0  0  0  0  0  0  0
  132.2186  128.9207  154.3579 H   0  0  0  0  0  0  0  0  0  0  0  0
  131.8081  130.2086  156.4135 H   0  0  0  0  0  0  0  0  0  0  0  0
  126.0391  136.2662  160.0819 H   0  0  0  0  0  0  0  0  0  0  0  0
  1  2  1  0
  1 23  1  0
  1 24  1  0
  2 22  2  0
  2  3  1  0
  3  4  2  0
  3 25  1  0
  4  5  1  0
  4 26  1  0
  5  6  1  0
  5 20  2  0
  6 27  1  0
  7  6  1  0
  7 18  2  0
  7  8  1  0
  8  9  1  0
  8 10  1  0
 10 11  2  0
 10 28  1  0
 11 12  1  0
 11 18  1  0
 12 17  1  0
 12 13  2  0
 13 14  1  0
 13 29  1  0
 14 15  2  0
 14 30  1  0
 15 16  1  0
 15 31  1  0
 16 17  2  0
 16 32  1  0
 17 33  1  0
 18 19  1  0
 20 21  1  0
 20 22  1  0
 22 34  1  0
M  CHG  1  18   1
M  END
>  <DOCK_score>  (1) 
-52.56229

>  <SMILES>  (1) 
Nc1ccc(Nc2[nH]cc(-c3ccccc3)[nH+]2)c(Cl)c1

$$$$
