Nc1ccc(-c2c[nH]c(N[C@H](c3ccccc3)c3ccccc3C3=CCCC3)[nH+]2)cc1
     RDKit          3D

 58 62  0  0  1  0  0  0  0  0999 V2000
  131.2323  129.4577  152.0175 N   0  0  0  0  0  0  0  0  0  0  0  0
  130.9648  130.1888  153.1775 C   0  0  0  0  0  0  0  0  0  0  0  0
  130.2552  131.3807  153.0987 C   0  0  0  0  0  0  0  0  0  0  0  0
  129.9854  132.1008  154.2434 C   0  0  0  0  0  0  0  0  0  0  0  0
  130.4341  131.6373  155.4792 C   0  0  0  0  0  0  0  0  0  0  0  0
  130.1493  132.4128  156.7114 C   0  0  0  0  0  0  0  0  0  0  0  0
  129.4546  131.9716  157.7890 C   0  0  0  0  0  0  0  0  0  0  0  0
  129.4292  133.0038  158.6968 N   0  0  0  0  0  0  0  0  0  0  0  0
  129.0046  132.9918  159.5689 H   0  0  0  0  0  0  0  0  0  0  0  0
  130.1097  134.0454  158.1457 C   0  0  0  0  0  0  0  0  0  0  0  0
  130.3154  135.2787  158.7400 N   0  0  0  0  0  0  0  0  0  0  0  0
  129.7788  135.5465  160.0766 C   0  0  2  0  0  0  0  0  0  0  0  0
  130.2036  134.8376  160.7874 H   0  0  0  0  0  0  0  0  0  0  0  0
  128.2792  135.3986  160.0549 C   0  0  0  0  0  0  0  0  0  0  0  0
  127.6093  134.9826  161.1902 C   0  0  0  0  0  0  0  0  0  0  0  0
  126.2333  134.8512  161.1715 C   0  0  0  0  0  0  0  0  0  0  0  0
  125.5283  135.1266  160.0147 C   0  0  0  0  0  0  0  0  0  0  0  0
  126.1988  135.5381  158.8781 C   0  0  0  0  0  0  0  0  0  0  0  0
  127.5744  135.6736  158.8980 C   0  0  0  0  0  0  0  0  0  0  0  0
  130.1392  136.9500  160.4908 C   0  0  0  0  0  0  0  0  0  0  0  0
  130.2875  137.9359  159.5367 C   0  0  0  0  0  0  0  0  0  0  0  0
  130.6130  139.2258  159.9157 C   0  0  0  0  0  0  0  0  0  0  0  0
  130.8034  139.5337  161.2511 C   0  0  0  0  0  0  0  0  0  0  0  0
  130.6633  138.5560  162.2142 C   0  0  0  0  0  0  0  0  0  0  0  0
  130.3293  137.2540  161.8390 C   0  0  0  0  0  0  0  0  0  0  0  0
  130.1781  136.2013  162.8657 C   0  0  0  0  0  0  0  0  0  0  0  0
  130.8942  135.0916  162.9135 C   0  0  0  0  0  0  0  0  0  0  0  0
  130.4843  134.2378  164.0910 C   0  0  0  0  0  0  0  0  0  0  0  0
  129.6793  135.1867  165.0080 C   0  0  0  0  0  0  0  0  0  0  0  0
  129.1794  136.2457  163.9989 C   0  0  0  0  0  0  0  0  0  0  0  0
  130.5428  133.6866  156.9617 N   0  0  0  0  0  0  0  0  0  0  0  0
  131.0602  134.2439  156.3595 H   0  0  0  0  0  0  0  0  0  0  0  0
  131.1505  130.4439  155.5554 C   0  0  0  0  0  0  0  0  0  0  0  0
  131.4137  129.7246  154.4088 C   0  0  0  0  0  0  0  0  0  0  0  0
  131.7308  128.6273  152.0713 H   0  0  0  0  0  0  0  0  0  0  0  0
  130.9158  129.7786  151.1586 H   0  0  0  0  0  0  0  0  0  0  0  0
  129.9116  131.7417  152.1407 H   0  0  0  0  0  0  0  0  0  0  0  0
  129.4300  133.0250  154.1821 H   0  0  0  0  0  0  0  0  0  0  0  0
  129.0068  130.9964  157.9108 H   0  0  0  0  0  0  0  0  0  0  0  0
  130.8149  135.9656  158.2713 H   0  0  0  0  0  0  0  0  0  0  0  0
  128.1604  134.7634  162.0927 H   0  0  0  0  0  0  0  0  0  0  0  0
  125.7094  134.5300  162.0595 H   0  0  0  0  0  0  0  0  0  0  0  0
  124.4536  135.0206  159.9992 H   0  0  0  0  0  0  0  0  0  0  0  0
  125.6480  135.7533  157.9744 H   0  0  0  0  0  0  0  0  0  0  0  0
  128.0983  135.9947  158.0099 H   0  0  0  0  0  0  0  0  0  0  0  0
  130.1449  137.7009  158.4923 H   0  0  0  0  0  0  0  0  0  0  0  0
  130.7232  139.9949  159.1655 H   0  0  0  0  0  0  0  0  0  0  0  0
  131.0618  140.5416  161.5402 H   0  0  0  0  0  0  0  0  0  0  0  0
  130.8122  138.7976  163.2563 H   0  0  0  0  0  0  0  0  0  0  0  0
  131.6690  134.8311  162.2076 H   0  0  0  0  0  0  0  0  0  0  0  0
  131.3633  133.8604  164.6135 H   0  0  0  0  0  0  0  0  0  0  0  0
  129.8578  133.4105  163.7575 H   0  0  0  0  0  0  0  0  0  0  0  0
  130.3228  135.6395  165.7625 H   0  0  0  0  0  0  0  0  0  0  0  0
  128.8429  134.6646  165.4727 H   0  0  0  0  0  0  0  0  0  0  0  0
  129.1709  137.2339  164.4586 H   0  0  0  0  0  0  0  0  0  0  0  0
  128.1839  135.9876  163.6376 H   0  0  0  0  0  0  0  0  0  0  0  0
  131.4995  130.0832  156.5117 H   0  0  0  0  0  0  0  0  0  0  0  0
  131.9687  128.8000  154.4672 H   0  0  0  0  0  0  0  0  0  0  0  0
  1  2  1  0
  1 35  1  0
  1 36  1  0
  2 34  2  0
  2  3  1  0
  3  4  2  0
  3 37  1  0
  4  5  1  0
  4 38  1  0
  5  6  1  0
  5 33  2  0
  6 31  1  0
  6  7  2  0
  7  8  1  0
  7 39  1  0
  8  9  1  0
  8 10  1  0
 10 11  1  0
 10 31  2  0
 11 12  1  0
 11 40  1  0
 12 13  1  1
 12 14  1  0
 12 20  1  0
 14 19  1  0
 14 15  2  0
 15 16  1  0
 15 41  1  0
 16 17  2  0
 16 42  1  0
 17 18  1  0
 17 43  1  0
 18 19  2  0
 18 44  1  0
 19 45  1  0
 20 25  1  0
 20 21  2  0
 21 22  1  0
 21 46  1  0
 22 23  2  0
 22 47  1  0
 23 24  1  0
 23 48  1  0
 24 25  2  0
 24 49  1  0
 25 26  1  0
 26 30  1  0
 26 27  2  0
 27 28  1  0
 27 50  1  0
 28 29  1  0
 28 51  1  0
 28 52  1  0
 29 30  1  0
 29 53  1  0
 29 54  1  0
 30 55  1  0
 30 56  1  0
 31 32  1  0
 33 34  1  0
 33 57  1  0
 34 58  1  0
M  CHG  1  31   1
M  END
>  <DOCK_score>  (1) 
-62.277962

>  <SMILES>  (1) 
Nc1ccc(-c2c[nH]c(N[C@H](c3ccccc3)c3ccccc3C3=CCCC3)[nH+]2)cc1

$$$$
