Fc1ccc(-c2c[nH]c(N[C@@H](CCCCl)c3ccccc3)[nH+]2)cc1
     RDKit          3D

 44 46  0  0  1  0  0  0  0  0999 V2000
  131.6770  129.4760  151.4827 F   0  0  0  0  0  0  0  0  0  0  0  0
  131.3195  130.1372  152.6053 C   0  0  0  0  0  0  0  0  0  0  0  0
  130.5475  131.2842  152.5152 C   0  0  0  0  0  0  0  0  0  0  0  0
  130.1796  131.9623  153.6590 C   0  0  0  0  0  0  0  0  0  0  0  0
  130.5857  131.4919  154.9066 C   0  0  0  0  0  0  0  0  0  0  0  0
  130.1931  132.2178  156.1393 C   0  0  0  0  0  0  0  0  0  0  0  0
  129.4574  131.7150  157.1613 C   0  0  0  0  0  0  0  0  0  0  0  0
  129.3299  132.7180  158.0919 N   0  0  0  0  0  0  0  0  0  0  0  0
  128.8557  132.6616  158.9363 H   0  0  0  0  0  0  0  0  0  0  0  0
  129.9922  133.8049  157.6105 C   0  0  0  0  0  0  0  0  0  0  0  0
  130.1041  135.0287  158.2481 N   0  0  0  0  0  0  0  0  0  0  0  0
  129.0381  135.4898  159.1409 C   0  0  1  0  0  0  0  0  0  0  0  0
  128.9145  134.7779  159.9570 H   0  0  0  0  0  0  0  0  0  0  0  0
  129.4078  136.8605  159.7112 C   0  0  0  0  0  0  0  0  0  0  0  0
  130.3916  136.6825  160.8694 C   0  0  0  0  0  0  0  0  0  0  0  0
  130.7612  138.0533  161.4397 C   0  0  0  0  0  0  0  0  0  0  0  0
  131.5260  139.0546  160.1499 Cl  0  0  0  0  0  0  0  0  0  0  0  0
  127.7482  135.5980  158.3691 C   0  0  0  0  0  0  0  0  0  0  0  0
  126.5403  135.3970  159.0103 C   0  0  0  0  0  0  0  0  0  0  0  0
  125.3570  135.4960  158.3022 C   0  0  0  0  0  0  0  0  0  0  0  0
  125.3820  135.7945  156.9528 C   0  0  0  0  0  0  0  0  0  0  0  0
  126.5901  135.9944  156.3113 C   0  0  0  0  0  0  0  0  0  0  0  0
  127.7732  135.8958  157.0194 C   0  0  0  0  0  0  0  0  0  0  0  0
  130.5018  133.5040  156.4410 N   0  0  0  0  0  0  0  0  0  0  0  0
  131.0189  134.1043  155.8814 H   0  0  0  0  0  0  0  0  0  0  0  0
  131.3666  130.3406  154.9922 C   0  0  0  0  0  0  0  0  0  0  0  0
  131.7254  129.6659  153.8432 C   0  0  0  0  0  0  0  0  0  0  0  0
  130.2336  131.6481  151.5480 H   0  0  0  0  0  0  0  0  0  0  0  0
  129.5776  132.8560  153.5878 H   0  0  0  0  0  0  0  0  0  0  0  0
  129.0492  130.7175  157.2304 H   0  0  0  0  0  0  0  0  0  0  0  0
  130.8884  135.5809  158.1036 H   0  0  0  0  0  0  0  0  0  0  0  0
  129.8700  137.4658  158.9315 H   0  0  0  0  0  0  0  0  0  0  0  0
  128.5078  137.3585  160.0723 H   0  0  0  0  0  0  0  0  0  0  0  0
  129.9293  136.0772  161.6491 H   0  0  0  0  0  0  0  0  0  0  0  0
  131.2914  136.1845  160.5083 H   0  0  0  0  0  0  0  0  0  0  0  0
  129.8614  138.5513  161.8007 H   0  0  0  0  0  0  0  0  0  0  0  0
  131.4622  137.9265  162.2647 H   0  0  0  0  0  0  0  0  0  0  0  0
  126.5206  135.1639  160.0647 H   0  0  0  0  0  0  0  0  0  0  0  0
  124.4129  135.3443  158.8045 H   0  0  0  0  0  0  0  0  0  0  0  0
  124.4576  135.8715  156.3996 H   0  0  0  0  0  0  0  0  0  0  0  0
  126.6097  136.2269  155.2569 H   0  0  0  0  0  0  0  0  0  0  0  0
  128.7172  136.0512  156.5181 H   0  0  0  0  0  0  0  0  0  0  0  0
  131.6870  129.9750  155.9565 H   0  0  0  0  0  0  0  0  0  0  0  0
  132.3268  128.7713  153.9089 H   0  0  0  0  0  0  0  0  0  0  0  0
  1  2  1  0
  2 27  2  0
  2  3  1  0
  3  4  2  0
  3 28  1  0
  4  5  1  0
  4 29  1  0
  5  6  1  0
  5 26  2  0
  6 24  1  0
  6  7  2  0
  7  8  1  0
  7 30  1  0
  8  9  1  0
  8 10  1  0
 10 11  1  0
 10 24  2  0
 11 12  1  0
 11 31  1  0
 12 13  1  1
 12 14  1  0
 12 18  1  0
 14 15  1  0
 14 32  1  0
 14 33  1  0
 15 16  1  0
 15 34  1  0
 15 35  1  0
 16 17  1  0
 16 36  1  0
 16 37  1  0
 18 23  1  0
 18 19  2  0
 19 20  1  0
 19 38  1  0
 20 21  2  0
 20 39  1  0
 21 22  1  0
 21 40  1  0
 22 23  2  0
 22 41  1  0
 23 42  1  0
 24 25  1  0
 26 27  1  0
 26 43  1  0
 27 44  1  0
M  CHG  1  24   1
M  END
>  <DOCK_score>  (1) 
-58.791683

>  <SMILES>  (1) 
Fc1ccc(-c2c[nH]c(N[C@@H](CCCCl)c3ccccc3)[nH+]2)cc1

$$$$
