C=CC[C@H](Nc1[nH]cc(-c2ccc(CC)cc2)[nH+]1)c1ccccc1
     RDKit          3D

 48 50  0  0  1  0  0  0  0  0999 V2000
  131.2448  136.4818  162.9326 C   0  0  0  0  0  0  0  0  0  0  0  0
  130.2240  136.8177  162.1836 C   0  0  0  0  0  0  0  0  0  0  0  0
  130.3416  136.7655  160.6821 C   0  0  0  0  0  0  0  0  0  0  0  0
  129.9227  135.3802  160.1856 C   0  0  2  0  0  0  0  0  0  0  0  0
  130.3060  134.6194  160.8656 H   0  0  0  0  0  0  0  0  0  0  0  0
  130.4685  135.1563  158.8447 N   0  0  0  0  0  0  0  0  0  0  0  0
  130.2203  133.9640  158.1865 C   0  0  0  0  0  0  0  0  0  0  0  0
  129.4918  132.9243  158.6772 N   0  0  0  0  0  0  0  0  0  0  0  0
  129.0570  132.8857  159.5434 H   0  0  0  0  0  0  0  0  0  0  0  0
  129.4855  131.9400  157.7191 C   0  0  0  0  0  0  0  0  0  0  0  0
  130.2096  132.4057  156.6714 C   0  0  0  0  0  0  0  0  0  0  0  0
  130.4761  131.6825  155.4041 C   0  0  0  0  0  0  0  0  0  0  0  0
  130.0561  132.2218  154.1894 C   0  0  0  0  0  0  0  0  0  0  0  0
  130.3072  131.5447  153.0133 C   0  0  0  0  0  0  0  0  0  0  0  0
  130.9740  130.3324  153.0389 C   0  0  0  0  0  0  0  0  0  0  0  0
  131.2447  129.5976  151.7513 C   0  0  0  0  0  0  0  0  0  0  0  0
  130.0733  128.6639  151.4409 C   0  0  0  0  0  0  0  0  0  0  0  0
  131.3881  129.7903  154.2417 C   0  0  0  0  0  0  0  0  0  0  0  0
  131.1479  130.4615  155.4234 C   0  0  0  0  0  0  0  0  0  0  0  0
  130.6520  133.6481  156.9899 N   0  0  0  0  0  0  0  0  0  0  0  0
  131.1985  134.2134  156.4218 H   0  0  0  0  0  0  0  0  0  0  0  0
  128.4188  135.2978  160.1361 C   0  0  0  0  0  0  0  0  0  0  0  0
  127.7142  134.8549  161.2399 C   0  0  0  0  0  0  0  0  0  0  0  0
  126.3344  134.7835  161.1960 C   0  0  0  0  0  0  0  0  0  0  0  0
  125.6597  135.1463  160.0452 C   0  0  0  0  0  0  0  0  0  0  0  0
  126.3647  135.5841  158.9397 C   0  0  0  0  0  0  0  0  0  0  0  0
  127.7442  135.6598  158.9850 C   0  0  0  0  0  0  0  0  0  0  0  0
  131.1606  136.5193  164.0087 H   0  0  0  0  0  0  0  0  0  0  0  0
  132.1707  136.1673  162.4741 H   0  0  0  0  0  0  0  0  0  0  0  0
  129.2982  137.1323  162.6421 H   0  0  0  0  0  0  0  0  0  0  0  0
  131.3743  136.9586  160.3916 H   0  0  0  0  0  0  0  0  0  0  0  0
  129.6926  137.5214  160.2402 H   0  0  0  0  0  0  0  0  0  0  0  0
  131.0039  135.8434  158.4180 H   0  0  0  0  0  0  0  0  0  0  0  0
  128.9972  130.9790  157.7872 H   0  0  0  0  0  0  0  0  0  0  0  0
  129.5349  133.1674  154.1685 H   0  0  0  0  0  0  0  0  0  0  0  0
  129.9821  131.9615  152.0715 H   0  0  0  0  0  0  0  0  0  0  0  0
  132.1589  129.0134  151.8517 H   0  0  0  0  0  0  0  0  0  0  0  0
  131.3605  130.3170  150.9398 H   0  0  0  0  0  0  0  0  0  0  0  0
  130.2691  128.1325  150.5096 H   0  0  0  0  0  0  0  0  0  0  0  0
  129.9573  127.9451  152.2520 H   0  0  0  0  0  0  0  0  0  0  0  0
  129.1590  129.2487  151.3402 H   0  0  0  0  0  0  0  0  0  0  0  0
  131.9041  128.8417  154.2560 H   0  0  0  0  0  0  0  0  0  0  0  0
  131.4759  130.0393  156.3618 H   0  0  0  0  0  0  0  0  0  0  0  0
  128.2415  134.5679  162.1376 H   0  0  0  0  0  0  0  0  0  0  0  0
  125.7836  134.4416  162.0598 H   0  0  0  0  0  0  0  0  0  0  0  0
  124.5819  135.0879  160.0100 H   0  0  0  0  0  0  0  0  0  0  0  0
  125.8377  135.8677  158.0407 H   0  0  0  0  0  0  0  0  0  0  0  0
  128.2950  136.0019  158.1214 H   0  0  0  0  0  0  0  0  0  0  0  0
  1  2  2  0
  1 28  1  0
  1 29  1  0
  2  3  1  0
  2 30  1  0
  3  4  1  0
  3 31  1  0
  3 32  1  0
  4  5  1  1
  4  6  1  0
  4 22  1  0
  6 33  1  0
  7  6  1  0
  7 20  2  0
  7  8  1  0
  8  9  1  0
  8 10  1  0
 10 11  2  0
 10 34  1  0
 11 12  1  0
 11 20  1  0
 12 19  1  0
 12 13  2  0
 13 14  1  0
 13 35  1  0
 14 15  2  0
 14 36  1  0
 15 16  1  0
 15 18  1  0
 16 17  1  0
 16 37  1  0
 16 38  1  0
 17 39  1  0
 17 40  1  0
 17 41  1  0
 18 19  2  0
 18 42  1  0
 19 43  1  0
 20 21  1  0
 22 27  1  0
 22 23  2  0
 23 24  1  0
 23 44  1  0
 24 25  2  0
 24 45  1  0
 25 26  1  0
 25 46  1  0
 26 27  2  0
 26 47  1  0
 27 48  1  0
M  CHG  1  20   1
M  END
>  <DOCK_score>  (1) 
-57.253128

>  <SMILES>  (1) 
C=CC[C@H](Nc1[nH]cc(-c2ccc(CC)cc2)[nH+]1)c1ccccc1

$$$$
