Nc1ccc(N(Cc2ccncc2)[C@H]2CCC[NH+](Cc3ccccc3)C2)cc1O
     RDKit          3D

 58 61  0  0  1  0  0  0  0  0999 V2000
  127.2246  138.1381  165.1550 N   0  0  0  0  0  0  0  0  0  0  0  0
  128.1033  138.1656  164.0616 C   0  0  0  0  0  0  0  0  0  0  0  0
  129.4618  138.3523  164.2680 C   0  0  0  0  0  0  0  0  0  0  0  0
  130.3288  138.3738  163.1918 C   0  0  0  0  0  0  0  0  0  0  0  0
  129.8403  138.2193  161.9013 C   0  0  0  0  0  0  0  0  0  0  0  0
  130.7196  138.2463  160.8125 N   0  0  0  0  0  0  0  0  0  0  0  0
  131.0267  139.5163  160.1501 C   0  0  0  0  0  0  0  0  0  0  0  0
  132.5072  139.7839  160.2386 C   0  0  0  0  0  0  0  0  0  0  0  0
  133.0381  140.4913  161.3063 C   0  0  0  0  0  0  0  0  0  0  0  0
  134.4013  140.7131  161.3560 C   0  0  0  0  0  0  0  0  0  0  0  0
  135.1922  140.2694  160.3987 N   0  0  0  0  0  0  0  0  0  0  0  0
  134.7217  139.5978  159.3660 C   0  0  0  0  0  0  0  0  0  0  0  0
  133.3701  139.3332  159.2513 C   0  0  0  0  0  0  0  0  0  0  0  0
  131.3330  137.0043  160.3353 C   0  0  1  0  0  0  0  0  0  0  0  0
  131.9824  137.2207  159.4872 H   0  0  0  0  0  0  0  0  0  0  0  0
  132.1565  136.3747  161.4625 C   0  0  0  0  0  0  0  0  0  0  0  0
  132.7287  135.0392  160.9787 C   0  0  0  0  0  0  0  0  0  0  0  0
  131.5818  134.1341  160.5233 C   0  0  0  0  0  0  0  0  0  0  0  0
  130.8495  134.7802  159.4275 N   0  0  1  0  0  0  0  0  0  0  0  0
  131.4877  134.9866  158.6736 H   0  0  0  0  0  0  0  0  0  0  0  0
  129.7992  133.8752  158.9419 C   0  0  0  0  0  0  0  0  0  0  0  0
  130.4064  132.8498  158.0196 C   0  0  0  0  0  0  0  0  0  0  0  0
  130.4868  133.1019  156.6629 C   0  0  0  0  0  0  0  0  0  0  0  0
  131.0478  132.1631  155.8173 C   0  0  0  0  0  0  0  0  0  0  0  0
  131.5202  130.9684  156.3274 C   0  0  0  0  0  0  0  0  0  0  0  0
  131.4352  130.7140  157.6835 C   0  0  0  0  0  0  0  0  0  0  0  0
  130.8780  131.6546  158.5296 C   0  0  0  0  0  0  0  0  0  0  0  0
  130.2378  136.0266  159.9038 C   0  0  0  0  0  0  0  0  0  0  0  0
  128.4807  138.0321  161.6907 C   0  0  0  0  0  0  0  0  0  0  0  0
  127.6114  138.0050  162.7684 C   0  0  0  0  0  0  0  0  0  0  0  0
  126.2794  137.8215  162.5643 O   0  0  0  0  0  0  0  0  0  0  0  0
  126.2744  138.0072  165.0105 H   0  0  0  0  0  0  0  0  0  0  0  0
  127.5672  138.2499  166.0555 H   0  0  0  0  0  0  0  0  0  0  0  0
  129.8432  138.4766  165.2708 H   0  0  0  0  0  0  0  0  0  0  0  0
  131.3871  138.5149  163.3546 H   0  0  0  0  0  0  0  0  0  0  0  0
  130.7294  139.4612  159.1029 H   0  0  0  0  0  0  0  0  0  0  0  0
  130.4819  140.3230  160.6406 H   0  0  0  0  0  0  0  0  0  0  0  0
  132.3948  140.8613  162.0910 H   0  0  0  0  0  0  0  0  0  0  0  0
  134.8233  141.2591  162.1867 H   0  0  0  0  0  0  0  0  0  0  0  0
  135.4003  139.2503  158.6011 H   0  0  0  0  0  0  0  0  0  0  0  0
  132.9907  138.7827  158.4030 H   0  0  0  0  0  0  0  0  0  0  0  0
  132.9729  137.0436  161.7348 H   0  0  0  0  0  0  0  0  0  0  0  0
  131.5180  136.2050  162.3295 H   0  0  0  0  0  0  0  0  0  0  0  0
  133.2700  134.5584  161.7935 H   0  0  0  0  0  0  0  0  0  0  0  0
  133.4076  135.2142  160.1440 H   0  0  0  0  0  0  0  0  0  0  0  0
  130.9042  133.9590  161.3588 H   0  0  0  0  0  0  0  0  0  0  0  0
  131.9861  133.1825  160.1782 H   0  0  0  0  0  0  0  0  0  0  0  0
  129.3335  133.3715  159.7890 H   0  0  0  0  0  0  0  0  0  0  0  0
  129.0462  134.4492  158.4018 H   0  0  0  0  0  0  0  0  0  0  0  0
  130.1143  134.0338  156.2638 H   0  0  0  0  0  0  0  0  0  0  0  0
  131.1146  132.3620  154.7580 H   0  0  0  0  0  0  0  0  0  0  0  0
  131.9561  130.2339  155.6666 H   0  0  0  0  0  0  0  0  0  0  0  0
  131.8042  129.7806  158.0820 H   0  0  0  0  0  0  0  0  0  0  0  0
  130.8116  131.4559  159.5891 H   0  0  0  0  0  0  0  0  0  0  0  0
  129.5888  135.8109  160.7525 H   0  0  0  0  0  0  0  0  0  0  0  0
  129.6494  136.4717  159.1015 H   0  0  0  0  0  0  0  0  0  0  0  0
  128.1014  137.9074  160.6873 H   0  0  0  0  0  0  0  0  0  0  0  0
  126.0344  137.7197  161.6345 H   0  0  0  0  0  0  0  0  0  0  0  0
  1  2  1  0
  1 32  1  0
  1 33  1  0
  2 30  2  0
  2  3  1  0
  3  4  2  0
  3 34  1  0
  4  5  1  0
  4 35  1  0
  5  6  1  0
  5 29  2  0
  6  7  1  0
  6 14  1  0
  7  8  1  0
  7 36  1  0
  7 37  1  0
  8 13  1  0
  8  9  2  0
  9 10  1  0
  9 38  1  0
 10 11  2  0
 10 39  1  0
 11 12  1  0
 12 13  2  0
 12 40  1  0
 13 41  1  0
 14 15  1  6
 14 28  1  0
 14 16  1  0
 16 17  1  0
 16 42  1  0
 16 43  1  0
 17 18  1  0
 17 44  1  0
 17 45  1  0
 18 19  1  0
 18 46  1  0
 18 47  1  0
 19 20  1  6
 19 21  1  0
 19 28  1  0
 21 22  1  0
 21 48  1  0
 21 49  1  0
 22 27  1  0
 22 23  2  0
 23 24  1  0
 23 50  1  0
 24 25  2  0
 24 51  1  0
 25 26  1  0
 25 52  1  0
 26 27  2  0
 26 53  1  0
 27 54  1  0
 28 55  1  0
 28 56  1  0
 29 30  1  0
 29 57  1  0
 30 31  1  0
 31 58  1  0
M  CHG  1  19   1
M  END
>  <DOCK_score>  (1) 
-47.413654

>  <SMILES>  (1) 
Nc1ccc(N(Cc2ccncc2)[C@H]2CCC[NH+](Cc3ccccc3)C2)cc1O

$$$$
