Cc1c(N2CC[NH+](C(c3ccccc3)c3ccccc3)CC2)cccc1[C@H]1C[C@H](Cc2ccccc2)C1
     RDKit          3D

 76 81  0  0  1  0  0  0  0  0999 V2000
  133.4091  135.9873  164.0521 C   0  0  0  0  0  0  0  0  0  0  0  0
  134.0857  136.8021  162.9799 C   0  0  0  0  0  0  0  0  0  0  0  0
  133.6798  136.6840  161.6565 C   0  0  0  0  0  0  0  0  0  0  0  0
  132.6439  135.8106  161.3173 N   0  0  0  0  0  0  0  0  0  0  0  0
  133.1265  134.7382  160.4358 C   0  0  0  0  0  0  0  0  0  0  0  0
  131.9779  133.7722  160.1366 C   0  0  0  0  0  0  0  0  0  0  0  0
  130.8791  134.5028  159.4915 N   0  0  0  0  0  0  0  0  0  0  0  0
  131.2106  134.9215  158.6355 H   0  0  0  0  0  0  0  0  0  0  0  0
  129.7840  133.5716  159.1882 C   0  0  0  0  0  0  0  0  0  0  0  0
  128.6563  134.3209  158.5262 C   0  0  0  0  0  0  0  0  0  0  0  0
  127.3523  133.8918  158.6883 C   0  0  0  0  0  0  0  0  0  0  0  0
  126.3176  134.5819  158.0851 C   0  0  0  0  0  0  0  0  0  0  0  0
  126.5878  135.6950  157.3112 C   0  0  0  0  0  0  0  0  0  0  0  0
  127.8923  136.1210  157.1448 C   0  0  0  0  0  0  0  0  0  0  0  0
  128.9266  135.4339  157.7523 C   0  0  0  0  0  0  0  0  0  0  0  0
  130.2834  132.4938  158.2609 C   0  0  0  0  0  0  0  0  0  0  0  0
  130.1996  132.6662  156.8920 C   0  0  0  0  0  0  0  0  0  0  0  0
  130.6622  131.6796  156.0414 C   0  0  0  0  0  0  0  0  0  0  0  0
  131.1991  130.5160  156.5599 C   0  0  0  0  0  0  0  0  0  0  0  0
  131.2781  130.3413  157.9289 C   0  0  0  0  0  0  0  0  0  0  0  0
  130.8203  131.3301  158.7794 C   0  0  0  0  0  0  0  0  0  0  0  0
  130.3914  135.5542  160.3937 C   0  0  0  0  0  0  0  0  0  0  0  0
  131.5268  136.5350  160.6950 C   0  0  0  0  0  0  0  0  0  0  0  0
  134.3032  137.4398  160.6721 C   0  0  0  0  0  0  0  0  0  0  0  0
  135.3306  138.2990  161.0103 C   0  0  0  0  0  0  0  0  0  0  0  0
  135.7353  138.4104  162.3277 C   0  0  0  0  0  0  0  0  0  0  0  0
  135.1136  137.6625  163.3110 C   0  0  0  0  0  0  0  0  0  0  0  0
  135.5584  137.7870  164.7455 C   0  0  1  0  0  0  0  0  0  0  0  0
  134.7616  138.1250  165.4078 H   0  0  0  0  0  0  0  0  0  0  0  0
  136.3102  136.5508  165.2669 C   0  0  0  0  0  0  0  0  0  0  0  0
  137.2550  137.5292  165.9881 C   0  0  2  0  0  0  0  0  0  0  0  0
  138.3032  137.2322  165.9548 H   0  0  0  0  0  0  0  0  0  0  0  0
  136.7881  137.9035  167.3963 C   0  0  0  0  0  0  0  0  0  0  0  0
  137.8720  138.6846  168.0938 C   0  0  0  0  0  0  0  0  0  0  0  0
  138.8276  138.0235  168.8426 C   0  0  0  0  0  0  0  0  0  0  0  0
  139.8245  138.7397  169.4783 C   0  0  0  0  0  0  0  0  0  0  0  0
  139.8599  140.1176  169.3737 C   0  0  0  0  0  0  0  0  0  0  0  0
  138.9008  140.7791  168.6296 C   0  0  0  0  0  0  0  0  0  0  0  0
  137.9069  140.0625  167.9895 C   0  0  0  0  0  0  0  0  0  0  0  0
  136.8739  138.5649  164.9172 C   0  0  0  0  0  0  0  0  0  0  0  0
  132.5658  136.5474  164.4562 H   0  0  0  0  0  0  0  0  0  0  0  0
  133.0517  135.0502  163.6251 H   0  0  0  0  0  0  0  0  0  0  0  0
  134.1203  135.7750  164.8504 H   0  0  0  0  0  0  0  0  0  0  0  0
  133.4906  135.1700  159.5034 H   0  0  0  0  0  0  0  0  0  0  0  0
  133.9361  134.1994  160.9279 H   0  0  0  0  0  0  0  0  0  0  0  0
  131.6231  133.3303  161.0677 H   0  0  0  0  0  0  0  0  0  0  0  0
  132.3301  132.9839  159.4714 H   0  0  0  0  0  0  0  0  0  0  0  0
  129.4260  133.1185  160.1126 H   0  0  0  0  0  0  0  0  0  0  0  0
  127.1416  133.0195  159.2894 H   0  0  0  0  0  0  0  0  0  0  0  0
  125.2984  134.2488  158.2148 H   0  0  0  0  0  0  0  0  0  0  0  0
  125.7798  136.2315  156.8363 H   0  0  0  0  0  0  0  0  0  0  0  0
  128.1034  136.9904  156.5399 H   0  0  0  0  0  0  0  0  0  0  0  0
  129.9459  135.7666  157.6221 H   0  0  0  0  0  0  0  0  0  0  0  0
  129.7761  133.5734  156.4869 H   0  0  0  0  0  0  0  0  0  0  0  0
  130.6002  131.8159  154.9718 H   0  0  0  0  0  0  0  0  0  0  0  0
  131.5564  129.7432  155.8954 H   0  0  0  0  0  0  0  0  0  0  0  0
  131.6972  129.4321  158.3340 H   0  0  0  0  0  0  0  0  0  0  0  0
  130.8817  131.1935  159.8490 H   0  0  0  0  0  0  0  0  0  0  0  0
  130.0447  135.1032  161.3235 H   0  0  0  0  0  0  0  0  0  0  0  0
  129.5674  136.0870  159.9191 H   0  0  0  0  0  0  0  0  0  0  0  0
  131.1693  137.3069  161.3764 H   0  0  0  0  0  0  0  0  0  0  0  0
  131.8645  136.9964  159.7670 H   0  0  0  0  0  0  0  0  0  0  0  0
  133.9877  137.3532  159.6429 H   0  0  0  0  0  0  0  0  0  0  0  0
  135.8180  138.8846  160.2449 H   0  0  0  0  0  0  0  0  0  0  0  0
  136.5388  139.0830  162.5894 H   0  0  0  0  0  0  0  0  0  0  0  0
  135.7193  135.9339  165.9439 H   0  0  0  0  0  0  0  0  0  0  0  0
  136.7971  135.9725  164.4817 H   0  0  0  0  0  0  0  0  0  0  0  0
  135.8865  138.5123  167.3304 H   0  0  0  0  0  0  0  0  0  0  0  0
  136.5733  136.9962  167.9610 H   0  0  0  0  0  0  0  0  0  0  0  0
  138.7976  136.9474  168.9277 H   0  0  0  0  0  0  0  0  0  0  0  0
  140.5736  138.2229  170.0599 H   0  0  0  0  0  0  0  0  0  0  0  0
  140.6364  140.6774  169.8734 H   0  0  0  0  0  0  0  0  0  0  0  0
  138.9282  141.8556  168.5480 H   0  0  0  0  0  0  0  0  0  0  0  0
  137.1578  140.5793  167.4082 H   0  0  0  0  0  0  0  0  0  0  0  0
  137.5150  138.5382  164.0362 H   0  0  0  0  0  0  0  0  0  0  0  0
  136.7374  139.5716  165.3123 H   0  0  0  0  0  0  0  0  0  0  0  0
  1  2  1  0
  1 41  1  0
  1 42  1  0
  1 43  1  0
  2 27  2  0
  2  3  1  0
  3  4  1  0
  3 24  2  0
  4 23  1  0
  4  5  1  0
  5  6  1  0
  5 44  1  0
  5 45  1  0
  6  7  1  0
  6 46  1  0
  6 47  1  0
  7  8  1  0
  7  9  1  0
  7 22  1  0
  9 10  1  0
  9 16  1  0
  9 48  1  0
 10 15  1  0
 10 11  2  0
 11 12  1  0
 11 49  1  0
 12 13  2  0
 12 50  1  0
 13 14  1  0
 13 51  1  0
 14 15  2  0
 14 52  1  0
 15 53  1  0
 16 21  1  0
 16 17  2  0
 17 18  1  0
 17 54  1  0
 18 19  2  0
 18 55  1  0
 19 20  1  0
 19 56  1  0
 20 21  2  0
 20 57  1  0
 21 58  1  0
 22 23  1  0
 22 59  1  0
 22 60  1  0
 23 61  1  0
 23 62  1  0
 24 25  1  0
 24 63  1  0
 25 26  2  0
 25 64  1  0
 26 27  1  0
 26 65  1  0
 27 28  1  0
 28 29  1  1
 28 40  1  0
 28 30  1  0
 30 31  1  0
 30 66  1  0
 30 67  1  0
 31 32  1  1
 31 33  1  0
 31 40  1  0
 33 34  1  0
 33 68  1  0
 33 69  1  0
 34 39  1  0
 34 35  2  0
 35 36  1  0
 35 70  1  0
 36 37  2  0
 36 71  1  0
 37 38  1  0
 37 72  1  0
 38 39  2  0
 38 73  1  0
 39 74  1  0
 40 75  1  0
 40 76  1  0
M  CHG  1   7   1
M  END
>  <DOCK_score>  (1) 
-57.673512

>  <SMILES>  (1) 
Cc1c(N2CC[NH+](C(c3ccccc3)c3ccccc3)CC2)cccc1[C@H]1C[C@H](Cc2ccccc2)C1

$$$$
