Cc1ccccc1[C@@H](Nc1[nH]cc(-c2ccc(-c3ccccc3)cc2)[nH+]1)c1ccccc1
     RDKit          3D

 58 62  0  0  1  0  0  0  0  0999 V2000
  128.5835  137.1843  161.9476 C   0  0  0  0  0  0  0  0  0  0  0  0
  129.7239  138.1374  162.1963 C   0  0  0  0  0  0  0  0  0  0  0  0
  129.4660  139.4692  162.4632 C   0  0  0  0  0  0  0  0  0  0  0  0
  130.5120  140.3434  162.6918 C   0  0  0  0  0  0  0  0  0  0  0  0
  131.8162  139.8859  162.6535 C   0  0  0  0  0  0  0  0  0  0  0  0
  132.0738  138.5537  162.3906 C   0  0  0  0  0  0  0  0  0  0  0  0
  131.0277  137.6803  162.1572 C   0  0  0  0  0  0  0  0  0  0  0  0
  131.3088  136.2286  161.8663 C   0  0  1  0  0  0  0  0  0  0  0  0
  130.4812  135.6186  162.2286 H   0  0  0  0  0  0  0  0  0  0  0  0
  131.4583  136.0401  160.4211 N   0  0  0  0  0  0  0  0  0  0  0  0
  131.1085  134.8330  159.8407 C   0  0  0  0  0  0  0  0  0  0  0  0
  130.6108  133.7513  160.5000 N   0  0  0  0  0  0  0  0  0  0  0  0
  130.4395  133.6879  161.4526 H   0  0  0  0  0  0  0  0  0  0  0  0
  130.3963  132.7659  159.5675 C   0  0  0  0  0  0  0  0  0  0  0  0
  130.7688  133.2733  158.3658 C   0  0  0  0  0  0  0  0  0  0  0  0
  130.7137  132.5651  157.0646 C   0  0  0  0  0  0  0  0  0  0  0  0
  129.9323  133.0727  156.0265 C   0  0  0  0  0  0  0  0  0  0  0  0
  129.8846  132.4169  154.8163 C   0  0  0  0  0  0  0  0  0  0  0  0
  130.6094  131.2404  154.6317 C   0  0  0  0  0  0  0  0  0  0  0  0
  130.5535  130.5306  153.3308 C   0  0  0  0  0  0  0  0  0  0  0  0
  130.7109  129.1465  153.2811 C   0  0  0  0  0  0  0  0  0  0  0  0
  130.6533  128.4912  152.0680 C   0  0  0  0  0  0  0  0  0  0  0  0
  130.4499  129.2064  150.9016 C   0  0  0  0  0  0  0  0  0  0  0  0
  130.2977  130.5807  150.9442 C   0  0  0  0  0  0  0  0  0  0  0  0
  130.3486  131.2460  152.1521 C   0  0  0  0  0  0  0  0  0  0  0  0
  131.3872  130.7295  155.6712 C   0  0  0  0  0  0  0  0  0  0  0  0
  131.4388  131.3878  156.8801 C   0  0  0  0  0  0  0  0  0  0  0  0
  131.1966  134.5456  158.5650 N   0  0  0  0  0  0  0  0  0  0  0  0
  131.5181  135.1457  157.8742 H   0  0  0  0  0  0  0  0  0  0  0  0
  132.5801  135.8141  162.5611 C   0  0  0  0  0  0  0  0  0  0  0  0
  132.5324  135.3133  163.8487 C   0  0  0  0  0  0  0  0  0  0  0  0
  133.6983  134.9295  164.4846 C   0  0  0  0  0  0  0  0  0  0  0  0
  134.9127  135.0545  163.8362 C   0  0  0  0  0  0  0  0  0  0  0  0
  134.9609  135.5598  162.5504 C   0  0  0  0  0  0  0  0  0  0  0  0
  133.7947  135.9400  161.9131 C   0  0  0  0  0  0  0  0  0  0  0  0
  128.2650  136.7443  162.8926 H   0  0  0  0  0  0  0  0  0  0  0  0
  127.7498  137.7245  161.4989 H   0  0  0  0  0  0  0  0  0  0  0  0
  128.9109  136.3947  161.2712 H   0  0  0  0  0  0  0  0  0  0  0  0
  128.4473  139.8266  162.4933 H   0  0  0  0  0  0  0  0  0  0  0  0
  130.3106  141.3837  162.9005 H   0  0  0  0  0  0  0  0  0  0  0  0
  132.6334  140.5689  162.8325 H   0  0  0  0  0  0  0  0  0  0  0  0
  133.0923  138.1956  162.3644 H   0  0  0  0  0  0  0  0  0  0  0  0
  131.7985  136.7626  159.8705 H   0  0  0  0  0  0  0  0  0  0  0  0
  130.0062  131.7764  159.7552 H   0  0  0  0  0  0  0  0  0  0  0  0
  129.3676  133.9819  156.1707 H   0  0  0  0  0  0  0  0  0  0  0  0
  129.2825  132.8118  154.0115 H   0  0  0  0  0  0  0  0  0  0  0  0
  130.8743  128.5875  154.1909 H   0  0  0  0  0  0  0  0  0  0  0  0
  130.7711  127.4183  152.0288 H   0  0  0  0  0  0  0  0  0  0  0  0
  130.4099  128.6899  149.9540 H   0  0  0  0  0  0  0  0  0  0  0  0
  130.1391  131.1340  150.0305 H   0  0  0  0  0  0  0  0  0  0  0  0
  130.2305  132.3191  152.1843 H   0  0  0  0  0  0  0  0  0  0  0  0
  131.9487  129.8181  155.5282 H   0  0  0  0  0  0  0  0  0  0  0  0
  132.0411  130.9927  157.6848 H   0  0  0  0  0  0  0  0  0  0  0  0
  131.5840  135.2191  164.3567 H   0  0  0  0  0  0  0  0  0  0  0  0
  133.6606  134.5351  165.4893 H   0  0  0  0  0  0  0  0  0  0  0  0
  135.8239  134.7578  164.3344 H   0  0  0  0  0  0  0  0  0  0  0  0
  135.9097  135.6578  162.0440 H   0  0  0  0  0  0  0  0  0  0  0  0
  133.8324  136.3350  160.9086 H   0  0  0  0  0  0  0  0  0  0  0  0
  1  2  1  0
  1 36  1  0
  1 37  1  0
  1 38  1  0
  2  7  2  0
  2  3  1  0
  3  4  2  0
  3 39  1  0
  4  5  1  0
  4 40  1  0
  5  6  2  0
  5 41  1  0
  6  7  1  0
  6 42  1  0
  7  8  1  0
  8  9  1  1
  8 10  1  0
  8 30  1  0
 10 43  1  0
 11 10  1  0
 11 28  2  0
 11 12  1  0
 12 13  1  0
 12 14  1  0
 14 15  2  0
 14 44  1  0
 15 16  1  0
 15 28  1  0
 16 27  1  0
 16 17  2  0
 17 18  1  0
 17 45  1  0
 18 19  2  0
 18 46  1  0
 19 20  1  0
 19 26  1  0
 20 25  1  0
 20 21  2  0
 21 22  1  0
 21 47  1  0
 22 23  2  0
 22 48  1  0
 23 24  1  0
 23 49  1  0
 24 25  2  0
 24 50  1  0
 25 51  1  0
 26 27  2  0
 26 52  1  0
 27 53  1  0
 28 29  1  0
 30 35  1  0
 30 31  2  0
 31 32  1  0
 31 54  1  0
 32 33  2  0
 32 55  1  0
 33 34  1  0
 33 56  1  0
 34 35  2  0
 34 57  1  0
 35 58  1  0
M  CHG  1  28   1
M  END
>  <DOCK_score>  (1) 
-57.661892

>  <SMILES>  (1) 
Cc1ccccc1[C@@H](Nc1[nH]cc(-c2ccc(-c3ccccc3)cc2)[nH+]1)c1ccccc1

$$$$
