C[C@@H](Cc1ccc(Br)cc1)Nc1[nH]cc(-c2ccc(-c3ccccc3)cc2)[nH+]1
     RDKit          3D

 51 54  0  0  1  0  0  0  0  0999 V2000
  132.4927  136.8174  161.8252 C   0  0  0  0  0  0  0  0  0  0  0  0
  131.4117  135.8548  161.3292 C   0  0  1  0  0  0  0  0  0  0  0  0
  131.5166  134.8970  161.8385 H   0  0  0  0  0  0  0  0  0  0  0  0
  130.0305  136.4421  161.6268 C   0  0  0  0  0  0  0  0  0  0  0  0
  129.0015  135.3413  161.6063 C   0  0  0  0  0  0  0  0  0  0  0  0
  128.3518  135.0247  160.4279 C   0  0  0  0  0  0  0  0  0  0  0  0
  127.4115  134.0119  160.4076 C   0  0  0  0  0  0  0  0  0  0  0  0
  127.1129  133.3222  161.5689 C   0  0  0  0  0  0  0  0  0  0  0  0
  125.8209  131.9417  161.5433 Br  0  0  0  0  0  0  0  0  0  0  0  0
  127.7595  133.6428  162.7488 C   0  0  0  0  0  0  0  0  0  0  0  0
  128.7036  134.6522  162.7671 C   0  0  0  0  0  0  0  0  0  0  0  0
  131.5579  135.6585  159.8848 N   0  0  0  0  0  0  0  0  0  0  0  0
  131.1790  134.4588  159.3075 C   0  0  0  0  0  0  0  0  0  0  0  0
  130.6653  133.3872  159.9710 N   0  0  0  0  0  0  0  0  0  0  0  0
  130.4999  133.3275  160.9249 H   0  0  0  0  0  0  0  0  0  0  0  0
  130.4236  132.4062  159.0406 C   0  0  0  0  0  0  0  0  0  0  0  0
  130.7962  132.9061  157.8356 C   0  0  0  0  0  0  0  0  0  0  0  0
  130.7158  132.1992  156.5350 C   0  0  0  0  0  0  0  0  0  0  0  0
  129.9411  132.7261  155.5015 C   0  0  0  0  0  0  0  0  0  0  0  0
  129.8669  132.0695  154.2930 C   0  0  0  0  0  0  0  0  0  0  0  0
  130.5667  130.8775  154.1029 C   0  0  0  0  0  0  0  0  0  0  0  0
  130.4864  130.1713  152.8012 C   0  0  0  0  0  0  0  0  0  0  0  0
  130.6100  128.7839  152.7500 C   0  0  0  0  0  0  0  0  0  0  0  0
  130.5351  128.1315  151.5362 C   0  0  0  0  0  0  0  0  0  0  0  0
  130.3373  128.8518  150.3719 C   0  0  0  0  0  0  0  0  0  0  0  0
  130.2193  130.2293  150.4161 C   0  0  0  0  0  0  0  0  0  0  0  0
  130.2878  130.8920  151.6248 C   0  0  0  0  0  0  0  0  0  0  0  0
  131.3368  130.3486  155.1375 C   0  0  0  0  0  0  0  0  0  0  0  0
  131.4151  131.0074  156.3445 C   0  0  0  0  0  0  0  0  0  0  0  0
  131.2612  134.1655  158.0327 N   0  0  0  0  0  0  0  0  0  0  0  0
  131.5980  134.7556  157.3404 H   0  0  0  0  0  0  0  0  0  0  0  0
  133.4767  136.3988  161.6131 H   0  0  0  0  0  0  0  0  0  0  0  0
  132.3878  137.7752  161.3159 H   0  0  0  0  0  0  0  0  0  0  0  0
  132.3839  136.9634  162.8999 H   0  0  0  0  0  0  0  0  0  0  0  0
  130.0399  136.9124  162.6102 H   0  0  0  0  0  0  0  0  0  0  0  0
  129.7815  137.1864  160.8706 H   0  0  0  0  0  0  0  0  0  0  0  0
  128.5819  135.5661  159.5222 H   0  0  0  0  0  0  0  0  0  0  0  0
  126.9066  133.7620  159.4860 H   0  0  0  0  0  0  0  0  0  0  0  0
  127.5265  133.1048  163.6559 H   0  0  0  0  0  0  0  0  0  0  0  0
  129.2082  134.9029  163.6884 H   0  0  0  0  0  0  0  0  0  0  0  0
  131.9202  136.3692  159.3331 H   0  0  0  0  0  0  0  0  0  0  0  0
  130.0149  131.4249  159.2316 H   0  0  0  0  0  0  0  0  0  0  0  0
  129.3993  133.6487  155.6490 H   0  0  0  0  0  0  0  0  0  0  0  0
  129.2671  132.4775  153.4929 H   0  0  0  0  0  0  0  0  0  0  0  0
  130.7637  128.2205  153.6586 H   0  0  0  0  0  0  0  0  0  0  0  0
  130.6308  127.0565  151.4953 H   0  0  0  0  0  0  0  0  0  0  0  0
  130.2795  128.3370  149.4242 H   0  0  0  0  0  0  0  0  0  0  0  0
  130.0695  130.7870  149.5034 H   0  0  0  0  0  0  0  0  0  0  0  0
  130.1913  131.9671  151.6585 H   0  0  0  0  0  0  0  0  0  0  0  0
  131.8752  129.4238  154.9911 H   0  0  0  0  0  0  0  0  0  0  0  0
  132.0152  130.5996  157.1444 H   0  0  0  0  0  0  0  0  0  0  0  0
  1  2  1  0
  1 32  1  0
  1 33  1  0
  1 34  1  0
  2  3  1  1
  2  4  1  0
  2 12  1  0
  4  5  1  0
  4 35  1  0
  4 36  1  0
  5 11  1  0
  5  6  2  0
  6  7  1  0
  6 37  1  0
  7  8  2  0
  7 38  1  0
  8  9  1  0
  8 10  1  0
 10 11  2  0
 10 39  1  0
 11 40  1  0
 12 41  1  0
 13 12  1  0
 13 30  2  0
 13 14  1  0
 14 15  1  0
 14 16  1  0
 16 17  2  0
 16 42  1  0
 17 18  1  0
 17 30  1  0
 18 29  1  0
 18 19  2  0
 19 20  1  0
 19 43  1  0
 20 21  2  0
 20 44  1  0
 21 22  1  0
 21 28  1  0
 22 27  1  0
 22 23  2  0
 23 24  1  0
 23 45  1  0
 24 25  2  0
 24 46  1  0
 25 26  1  0
 25 47  1  0
 26 27  2  0
 26 48  1  0
 27 49  1  0
 28 29  2  0
 28 50  1  0
 29 51  1  0
 30 31  1  0
M  CHG  1  30   1
M  END
>  <DOCK_score>  (1) 
-60.679569

>  <SMILES>  (1) 
C[C@@H](Cc1ccc(Br)cc1)Nc1[nH]cc(-c2ccc(-c3ccccc3)cc2)[nH+]1

$$$$
