c1cncc(-c2c[nH]c(N[C@@H](c3cccnc3)C3CCC3)[nH+]2)c1
     RDKit          3D

 43 46  0  0  1  0  0  0  0  0999 V2000
  130.4690  131.1877  153.7418 C   0  0  0  0  0  0  0  0  0  0  0  0
  131.1049  129.9762  153.9440 C   0  0  0  0  0  0  0  0  0  0  0  0
  131.4734  129.5948  155.1515 N   0  0  0  0  0  0  0  0  0  0  0  0
  131.2549  130.3428  156.2139 C   0  0  0  0  0  0  0  0  0  0  0  0
  130.6198  131.5771  156.0935 C   0  0  0  0  0  0  0  0  0  0  0  0
  130.3749  132.4187  157.2903 C   0  0  0  0  0  0  0  0  0  0  0  0
  129.6384  132.0696  158.3741 C   0  0  0  0  0  0  0  0  0  0  0  0
  129.6736  133.1356  159.2400 N   0  0  0  0  0  0  0  0  0  0  0  0
  129.2390  133.1871  160.1057 H   0  0  0  0  0  0  0  0  0  0  0  0
  130.4359  134.1034  158.6618 C   0  0  0  0  0  0  0  0  0  0  0  0
  130.7248  135.3396  159.2140 N   0  0  0  0  0  0  0  0  0  0  0  0
  130.1932  135.6955  160.5320 C   0  0  1  0  0  0  0  0  0  0  0  0
  130.5244  136.6992  160.7984 H   0  0  0  0  0  0  0  0  0  0  0  0
  128.6871  135.6572  160.4931 C   0  0  0  0  0  0  0  0  0  0  0  0
  128.0077  135.9393  159.3177 C   0  0  0  0  0  0  0  0  0  0  0  0
  126.6223  135.8921  159.3288 C   0  0  0  0  0  0  0  0  0  0  0  0
  125.9688  135.5678  160.5029 C   0  0  0  0  0  0  0  0  0  0  0  0
  126.6477  135.3053  161.6023 N   0  0  0  0  0  0  0  0  0  0  0  0
  127.9660  135.3351  161.6271 C   0  0  0  0  0  0  0  0  0  0  0  0
  130.7021  134.6972  161.5737 C   0  0  0  0  0  0  0  0  0  0  0  0
  131.1423  135.3538  162.8927 C   0  0  0  0  0  0  0  0  0  0  0  0
  132.3176  134.3595  162.9024 C   0  0  0  0  0  0  0  0  0  0  0  0
  132.1722  134.2929  161.3728 C   0  0  0  0  0  0  0  0  0  0  0  0
  130.8486  133.6735  157.4944 N   0  0  0  0  0  0  0  0  0  0  0  0
  131.4068  134.1714  156.8769 H   0  0  0  0  0  0  0  0  0  0  0  0
  130.2117  132.0069  154.8273 C   0  0  0  0  0  0  0  0  0  0  0  0
  130.1722  131.4894  152.7480 H   0  0  0  0  0  0  0  0  0  0  0  0
  131.3030  129.3325  153.0997 H   0  0  0  0  0  0  0  0  0  0  0  0
  131.5715  129.9963  157.1866 H   0  0  0  0  0  0  0  0  0  0  0  0
  129.1234  131.1328  158.5274 H   0  0  0  0  0  0  0  0  0  0  0  0
  131.2793  135.9700  158.7283 H   0  0  0  0  0  0  0  0  0  0  0  0
  128.5452  136.1900  158.4151 H   0  0  0  0  0  0  0  0  0  0  0  0
  126.0607  136.1057  158.4314 H   0  0  0  0  0  0  0  0  0  0  0  0
  124.8896  135.5293  160.5199 H   0  0  0  0  0  0  0  0  0  0  0  0
  128.4879  135.1095  162.5453 H   0  0  0  0  0  0  0  0  0  0  0  0
  130.0309  133.8492  161.7108 H   0  0  0  0  0  0  0  0  0  0  0  0
  131.4507  136.3934  162.7812 H   0  0  0  0  0  0  0  0  0  0  0  0
  130.4372  135.2058  163.7108 H   0  0  0  0  0  0  0  0  0  0  0  0
  132.0882  133.4193  163.4040 H   0  0  0  0  0  0  0  0  0  0  0  0
  133.2597  134.7968  163.2328 H   0  0  0  0  0  0  0  0  0  0  0  0
  132.2974  133.2896  160.9655 H   0  0  0  0  0  0  0  0  0  0  0  0
  132.7627  135.0418  160.8451 H   0  0  0  0  0  0  0  0  0  0  0  0
  129.7128  132.9561  154.6989 H   0  0  0  0  0  0  0  0  0  0  0  0
  1 26  2  0
  1  2  1  0
  1 27  1  0
  2  3  2  0
  2 28  1  0
  3  4  1  0
  4  5  2  0
  4 29  1  0
  5  6  1  0
  5 26  1  0
  6 24  1  0
  6  7  2  0
  7  8  1  0
  7 30  1  0
  8  9  1  0
  8 10  1  0
 10 11  1  0
 10 24  2  0
 11 12  1  0
 11 31  1  0
 12 13  1  1
 12 14  1  0
 12 20  1  0
 14 19  1  0
 14 15  2  0
 15 16  1  0
 15 32  1  0
 16 17  2  0
 16 33  1  0
 17 18  1  0
 17 34  1  0
 18 19  2  0
 19 35  1  0
 20 23  1  0
 20 21  1  0
 20 36  1  0
 21 22  1  0
 21 37  1  0
 21 38  1  0
 22 23  1  0
 22 39  1  0
 22 40  1  0
 23 41  1  0
 23 42  1  0
 24 25  1  0
 26 43  1  0
M  CHG  1  24   1
M  END
>  <DOCK_score>  (1) 
-50.162884

>  <SMILES>  (1) 
c1cncc(-c2c[nH]c(N[C@@H](c3cccnc3)C3CCC3)[nH+]2)c1

$$$$
