C[C@@H]([NH2+]CCC1CCC=C1c1cccc2ccccc12)c1cc2ccccc2[nH]1
     RDKit          3D

 58 62  0  0  1  0  0  0  0  0999 V2000
  130.4035  137.8264  160.0257 C   0  0  0  0  0  0  0  0  0  0  0  0
  131.6034  137.1481  160.6896 C   0  0  1  0  0  0  0  0  0  0  0  0
  131.3085  136.7619  161.6653 H   0  0  0  0  0  0  0  0  0  0  0  0
  132.0691  136.0403  159.8448 N   0  0  0  0  0  0  0  0  0  0  0  0
  133.0201  135.8078  160.0890 H   0  0  0  0  0  0  0  0  0  0  0  0
  132.0287  136.3168  158.8752 H   0  0  0  0  0  0  0  0  0  0  0  0
  131.2088  134.8685  160.0559 C   0  0  0  0  0  0  0  0  0  0  0  0
  131.6937  133.7146  159.1759 C   0  0  0  0  0  0  0  0  0  0  0  0
  130.7976  132.4940  159.3957 C   0  0  2  0  0  0  0  0  0  0  0  0
  131.4706  131.2188  158.8334 C   0  0  0  0  0  0  0  0  0  0  0  0
  130.8732  131.1550  157.4090 C   0  0  0  0  0  0  0  0  0  0  0  0
  129.5599  131.8961  157.5071 C   0  0  0  0  0  0  0  0  0  0  0  0
  129.5167  132.6329  158.6062 C   0  0  0  0  0  0  0  0  0  0  0  0
  128.3758  133.4792  159.0030 C   0  0  0  0  0  0  0  0  0  0  0  0
  128.3055  134.8000  158.5884 C   0  0  0  0  0  0  0  0  0  0  0  0
  127.2331  135.6026  158.9582 C   0  0  0  0  0  0  0  0  0  0  0  0
  126.2251  135.1181  159.7365 C   0  0  0  0  0  0  0  0  0  0  0  0
  126.2554  133.7848  160.1802 C   0  0  0  0  0  0  0  0  0  0  0  0
  125.2272  133.2616  160.9835 C   0  0  0  0  0  0  0  0  0  0  0  0
  125.2871  131.9652  161.3944 C   0  0  0  0  0  0  0  0  0  0  0  0
  126.3549  131.1471  161.0320 C   0  0  0  0  0  0  0  0  0  0  0  0
  127.3683  131.6216  160.2550 C   0  0  0  0  0  0  0  0  0  0  0  0
  127.3397  132.9514  159.8125 C   0  0  0  0  0  0  0  0  0  0  0  0
  132.7155  138.1506  160.8615 C   0  0  0  0  0  0  0  0  0  0  0  0
  133.9404  138.0425  160.3230 C   0  0  0  0  0  0  0  0  0  0  0  0
  134.6964  139.2269  160.7376 C   0  0  0  0  0  0  0  0  0  0  0  0
  135.9962  139.6799  160.5028 C   0  0  0  0  0  0  0  0  0  0  0  0
  136.4137  140.8580  161.0542 C   0  0  0  0  0  0  0  0  0  0  0  0
  135.5558  141.6093  161.8460 C   0  0  0  0  0  0  0  0  0  0  0  0
  134.2695  141.1812  162.0903 C   0  0  0  0  0  0  0  0  0  0  0  0
  133.8231  139.9844  161.5392 C   0  0  0  0  0  0  0  0  0  0  0  0
  132.6282  139.3028  161.5943 N   0  0  0  0  0  0  0  0  0  0  0  0
  131.8414  139.5958  162.0803 H   0  0  0  0  0  0  0  0  0  0  0  0
  130.6985  138.2128  159.0500 H   0  0  0  0  0  0  0  0  0  0  0  0
  129.5992  137.1014  159.9014 H   0  0  0  0  0  0  0  0  0  0  0  0
  130.0580  138.6485  160.6526 H   0  0  0  0  0  0  0  0  0  0  0  0
  130.1813  135.1196  159.7922 H   0  0  0  0  0  0  0  0  0  0  0  0
  131.2525  134.5697  161.1033 H   0  0  0  0  0  0  0  0  0  0  0  0
  132.7210  133.4634  159.4395 H   0  0  0  0  0  0  0  0  0  0  0  0
  131.6500  134.0133  158.1284 H   0  0  0  0  0  0  0  0  0  0  0  0
  130.5782  132.3695  160.4560 H   0  0  0  0  0  0  0  0  0  0  0  0
  131.1933  130.3382  159.4127 H   0  0  0  0  0  0  0  0  0  0  0  0
  132.5538  131.3349  158.7975 H   0  0  0  0  0  0  0  0  0  0  0  0
  130.7033  130.1194  157.1149 H   0  0  0  0  0  0  0  0  0  0  0  0
  131.5351  131.6488  156.6976 H   0  0  0  0  0  0  0  0  0  0  0  0
  128.7644  131.8332  156.7793 H   0  0  0  0  0  0  0  0  0  0  0  0
  129.0913  135.2090  157.9708 H   0  0  0  0  0  0  0  0  0  0  0  0
  127.1984  136.6288  158.6236 H   0  0  0  0  0  0  0  0  0  0  0  0
  125.3992  135.7583  160.0092 H   0  0  0  0  0  0  0  0  0  0  0  0
  124.3938  133.8847  161.2725 H   0  0  0  0  0  0  0  0  0  0  0  0
  124.4954  131.5651  162.0107 H   0  0  0  0  0  0  0  0  0  0  0  0
  126.3795  130.1222  161.3715 H   0  0  0  0  0  0  0  0  0  0  0  0
  128.1901  130.9764  159.9816 H   0  0  0  0  0  0  0  0  0  0  0  0
  134.2998  137.2364  159.7006 H   0  0  0  0  0  0  0  0  0  0  0  0
  136.6689  139.1008  159.8875 H   0  0  0  0  0  0  0  0  0  0  0  0
  137.4193  141.2079  160.8726 H   0  0  0  0  0  0  0  0  0  0  0  0
  135.9003  142.5389  162.2745 H   0  0  0  0  0  0  0  0  0  0  0  0
  133.6095  141.7731  162.7072 H   0  0  0  0  0  0  0  0  0  0  0  0
  1  2  1  0
  1 34  1  0
  1 35  1  0
  1 36  1  0
  2  3  1  1
  2  4  1  0
  2 24  1  0
  4  5  1  0
  4  6  1  0
  4  7  1  0
  7  8  1  0
  7 37  1  0
  7 38  1  0
  8  9  1  0
  8 39  1  0
  8 40  1  0
  9 13  1  0
  9 10  1  0
  9 41  1  1
 10 11  1  0
 10 42  1  0
 10 43  1  0
 11 12  1  0
 11 44  1  0
 11 45  1  0
 12 13  2  0
 12 46  1  0
 13 14  1  0
 14 23  1  0
 14 15  2  0
 15 16  1  0
 15 47  1  0
 16 17  2  0
 16 48  1  0
 17 18  1  0
 17 49  1  0
 18 23  2  0
 18 19  1  0
 19 20  2  0
 19 50  1  0
 20 21  1  0
 20 51  1  0
 21 22  2  0
 21 52  1  0
 22 23  1  0
 22 53  1  0
 24 32  1  0
 24 25  2  0
 25 26  1  0
 25 54  1  0
 26 31  2  0
 26 27  1  0
 27 28  2  0
 27 55  1  0
 28 29  1  0
 28 56  1  0
 29 30  2  0
 29 57  1  0
 30 31  1  0
 30 58  1  0
 31 32  1  0
 32 33  1  0
M  CHG  1   4   1
M  END
>  <DOCK_score>  (1) 
-56.662876

>  <SMILES>  (1) 
C[C@@H]([NH2+]CCC1CCC=C1c1cccc2ccccc12)c1cc2ccccc2[nH]1

$$$$
