Oc1ccccc1[C@H](Nc1[nH]cc(-c2ccc(-c3ccccc3)cc2)[nH+]1)c1ccccc1
     RDKit          3D

 56 60  0  0  1  0  0  0  0  0999 V2000
  133.0287  137.5386  163.5768 O   0  0  0  0  0  0  0  0  0  0  0  0
  132.3521  138.5280  162.9363 C   0  0  0  0  0  0  0  0  0  0  0  0
  132.6883  139.8559  163.1579 C   0  0  0  0  0  0  0  0  0  0  0  0
  131.9988  140.8597  162.5060 C   0  0  0  0  0  0  0  0  0  0  0  0
  130.9740  140.5421  161.6335 C   0  0  0  0  0  0  0  0  0  0  0  0
  130.6410  139.2197  161.4067 C   0  0  0  0  0  0  0  0  0  0  0  0
  131.3241  138.2121  162.0602 C   0  0  0  0  0  0  0  0  0  0  0  0
  130.9568  136.7710  161.8169 C   0  0  2  0  0  0  0  0  0  0  0  0
  131.6030  136.1259  162.4119 H   0  0  0  0  0  0  0  0  0  0  0  0
  131.1277  136.4567  160.3962 N   0  0  0  0  0  0  0  0  0  0  0  0
  130.8490  135.1832  159.9306 C   0  0  0  0  0  0  0  0  0  0  0  0
  130.4172  134.1388  160.6892 N   0  0  0  0  0  0  0  0  0  0  0  0
  130.2505  134.1530  161.6447 H   0  0  0  0  0  0  0  0  0  0  0  0
  130.2604  133.0612  159.8521 C   0  0  0  0  0  0  0  0  0  0  0  0
  130.6007  133.4777  158.6066 C   0  0  0  0  0  0  0  0  0  0  0  0
  130.5860  132.6513  157.3759 C   0  0  0  0  0  0  0  0  0  0  0  0
  130.3395  133.2468  156.1387 C   0  0  0  0  0  0  0  0  0  0  0  0
  130.3264  132.4789  154.9953 C   0  0  0  0  0  0  0  0  0  0  0  0
  130.5600  131.1063  155.0744 C   0  0  0  0  0  0  0  0  0  0  0  0
  130.5462  130.2797  153.8431 C   0  0  0  0  0  0  0  0  0  0  0  0
  131.3424  129.1387  153.7575 C   0  0  0  0  0  0  0  0  0  0  0  0
  131.3216  128.3705  152.6112 C   0  0  0  0  0  0  0  0  0  0  0  0
  130.5208  128.7368  151.5445 C   0  0  0  0  0  0  0  0  0  0  0  0
  129.7330  129.8713  151.6216 C   0  0  0  0  0  0  0  0  0  0  0  0
  129.7417  130.6441  152.7647 C   0  0  0  0  0  0  0  0  0  0  0  0
  130.8069  130.5108  156.3111 C   0  0  0  0  0  0  0  0  0  0  0  0
  130.8196  131.2784  157.4547 C   0  0  0  0  0  0  0  0  0  0  0  0
  130.9627  134.7829  158.6879 N   0  0  0  0  0  0  0  0  0  0  0  0
  131.2565  135.3326  157.9445 H   0  0  0  0  0  0  0  0  0  0  0  0
  129.5201  136.5452  162.2120 C   0  0  0  0  0  0  0  0  0  0  0  0
  129.2107  136.1595  163.5030 C   0  0  0  0  0  0  0  0  0  0  0  0
  127.8926  135.9566  163.8665 C   0  0  0  0  0  0  0  0  0  0  0  0
  126.8845  136.1301  162.9366 C   0  0  0  0  0  0  0  0  0  0  0  0
  127.1943  136.5112  161.6444 C   0  0  0  0  0  0  0  0  0  0  0  0
  128.5121  136.7182  161.2820 C   0  0  0  0  0  0  0  0  0  0  0  0
  133.7264  137.8568  164.1658 H   0  0  0  0  0  0  0  0  0  0  0  0
  133.4881  140.1044  163.8399 H   0  0  0  0  0  0  0  0  0  0  0  0
  132.2601  141.8933  162.6781 H   0  0  0  0  0  0  0  0  0  0  0  0
  130.4356  141.3285  161.1253 H   0  0  0  0  0  0  0  0  0  0  0  0
  129.8432  138.9741  160.7213 H   0  0  0  0  0  0  0  0  0  0  0  0
  131.4362  137.1409  159.7818 H   0  0  0  0  0  0  0  0  0  0  0  0
  129.9295  132.0720  160.1319 H   0  0  0  0  0  0  0  0  0  0  0  0
  130.1635  134.3105  156.0768 H   0  0  0  0  0  0  0  0  0  0  0  0
  130.1356  132.9399  154.0374 H   0  0  0  0  0  0  0  0  0  0  0  0
  131.9714  128.8544  154.5882 H   0  0  0  0  0  0  0  0  0  0  0  0
  131.9349  127.4840  152.5454 H   0  0  0  0  0  0  0  0  0  0  0  0
  130.5108  128.1349  150.6478 H   0  0  0  0  0  0  0  0  0  0  0  0
  129.1102  130.1528  150.7853 H   0  0  0  0  0  0  0  0  0  0  0  0
  129.1265  131.5298  152.8237 H   0  0  0  0  0  0  0  0  0  0  0  0
  130.9877  129.4479  156.3722 H   0  0  0  0  0  0  0  0  0  0  0  0
  131.0112  130.8173  158.4125 H   0  0  0  0  0  0  0  0  0  0  0  0
  129.9986  136.0199  164.2283 H   0  0  0  0  0  0  0  0  0  0  0  0
  127.6505  135.6593  164.8761 H   0  0  0  0  0  0  0  0  0  0  0  0
  125.8549  135.9683  163.2197 H   0  0  0  0  0  0  0  0  0  0  0  0
  126.4068  136.6467  160.9178 H   0  0  0  0  0  0  0  0  0  0  0  0
  128.7543  137.0156  160.2723 H   0  0  0  0  0  0  0  0  0  0  0  0
  1  2  1  0
  1 36  1  0
  2  7  2  0
  2  3  1  0
  3  4  2  0
  3 37  1  0
  4  5  1  0
  4 38  1  0
  5  6  2  0
  5 39  1  0
  6  7  1  0
  6 40  1  0
  7  8  1  0
  8  9  1  1
  8 10  1  0
  8 30  1  0
 10 41  1  0
 11 10  1  0
 11 28  2  0
 11 12  1  0
 12 13  1  0
 12 14  1  0
 14 15  2  0
 14 42  1  0
 15 16  1  0
 15 28  1  0
 16 27  1  0
 16 17  2  0
 17 18  1  0
 17 43  1  0
 18 19  2  0
 18 44  1  0
 19 20  1  0
 19 26  1  0
 20 25  1  0
 20 21  2  0
 21 22  1  0
 21 45  1  0
 22 23  2  0
 22 46  1  0
 23 24  1  0
 23 47  1  0
 24 25  2  0
 24 48  1  0
 25 49  1  0
 26 27  2  0
 26 50  1  0
 27 51  1  0
 28 29  1  0
 30 35  1  0
 30 31  2  0
 31 32  1  0
 31 52  1  0
 32 33  2  0
 32 53  1  0
 33 34  1  0
 33 54  1  0
 34 35  2  0
 34 55  1  0
 35 56  1  0
M  CHG  1  28   1
M  END
>  <DOCK_score>  (1) 
-57.074898

>  <SMILES>  (1) 
Oc1ccccc1[C@H](Nc1[nH]cc(-c2ccc(-c3ccccc3)cc2)[nH+]1)c1ccccc1

$$$$
