CCc1ccc(-c2c[nH]c(N[C@@H](c3ccccc3F)c3ccc(F)cc3F)[nH+]2)cc1
     RDKit          3D

 51 54  0  0  1  0  0  0  0  0999 V2000
  130.3319  128.5436  151.9277 C   0  0  0  0  0  0  0  0  0  0  0  0
  131.4393  129.5532  152.2351 C   0  0  0  0  0  0  0  0  0  0  0  0
  131.0528  130.3717  153.4401 C   0  0  0  0  0  0  0  0  0  0  0  0
  131.4091  129.9444  154.7061 C   0  0  0  0  0  0  0  0  0  0  0  0
  131.0628  130.6927  155.8129 C   0  0  0  0  0  0  0  0  0  0  0  0
  130.3427  131.8753  155.6536 C   0  0  0  0  0  0  0  0  0  0  0  0
  129.9627  132.6810  156.8396 C   0  0  0  0  0  0  0  0  0  0  0  0
  129.1961  132.2619  157.8768 C   0  0  0  0  0  0  0  0  0  0  0  0
  129.0951  133.3175  158.7500 N   0  0  0  0  0  0  0  0  0  0  0  0
  128.6084  133.3246  159.5890 H   0  0  0  0  0  0  0  0  0  0  0  0
  129.8036  134.3518  158.2204 C   0  0  0  0  0  0  0  0  0  0  0  0
  129.9535  135.6033  158.7929 N   0  0  0  0  0  0  0  0  0  0  0  0
  129.3187  135.9012  160.0792 C   0  0  1  0  0  0  0  0  0  0  0  0
  128.2392  135.7808  159.9881 H   0  0  0  0  0  0  0  0  0  0  0  0
  129.8428  134.9557  161.1290 C   0  0  0  0  0  0  0  0  0  0  0  0
  129.0398  134.5899  162.1929 C   0  0  0  0  0  0  0  0  0  0  0  0
  129.5183  133.7182  163.1530 C   0  0  0  0  0  0  0  0  0  0  0  0
  130.8045  133.2201  163.0565 C   0  0  0  0  0  0  0  0  0  0  0  0
  131.6110  133.5887  161.9968 C   0  0  0  0  0  0  0  0  0  0  0  0
  131.1307  134.4576  161.0314 C   0  0  0  0  0  0  0  0  0  0  0  0
  131.9186  134.8190  159.9952 F   0  0  0  0  0  0  0  0  0  0  0  0
  129.6340  137.3197  160.4784 C   0  0  0  0  0  0  0  0  0  0  0  0
  130.8223  137.9020  160.0790 C   0  0  0  0  0  0  0  0  0  0  0  0
  131.1127  139.2028  160.4443 C   0  0  0  0  0  0  0  0  0  0  0  0
  130.2133  139.9244  161.2109 C   0  0  0  0  0  0  0  0  0  0  0  0
  130.4975  141.1960  161.5683 F   0  0  0  0  0  0  0  0  0  0  0  0
  129.0229  139.3428  161.6111 C   0  0  0  0  0  0  0  0  0  0  0  0
  128.7308  138.0412  161.2403 C   0  0  0  0  0  0  0  0  0  0  0  0
  127.5671  137.4736  161.6263 F   0  0  0  0  0  0  0  0  0  0  0  0
  130.3254  133.9658  157.0816 N   0  0  0  0  0  0  0  0  0  0  0  0
  130.8801  134.5121  156.5032 H   0  0  0  0  0  0  0  0  0  0  0  0
  129.9814  132.2983  154.3756 C   0  0  0  0  0  0  0  0  0  0  0  0
  130.3380  131.5450  153.2758 C   0  0  0  0  0  0  0  0  0  0  0  0
  130.1932  127.8848  152.7851 H   0  0  0  0  0  0  0  0  0  0  0  0
  129.4020  129.0746  151.7234 H   0  0  0  0  0  0  0  0  0  0  0  0
  130.6113  127.9517  151.0563 H   0  0  0  0  0  0  0  0  0  0  0  0
  132.3689  129.0229  152.4391 H   0  0  0  0  0  0  0  0  0  0  0  0
  131.5778  130.2126  151.3775 H   0  0  0  0  0  0  0  0  0  0  0  0
  131.9630  129.0255  154.8287 H   0  0  0  0  0  0  0  0  0  0  0  0
  131.3456  130.3604  156.8007 H   0  0  0  0  0  0  0  0  0  0  0  0
  128.7501  131.2853  157.9937 H   0  0  0  0  0  0  0  0  0  0  0  0
  130.4789  136.2829  158.3425 H   0  0  0  0  0  0  0  0  0  0  0  0
  128.0365  134.9819  162.2717 H   0  0  0  0  0  0  0  0  0  0  0  0
  128.8886  133.4294  163.9816 H   0  0  0  0  0  0  0  0  0  0  0  0
  131.1787  132.5422  163.8093 H   0  0  0  0  0  0  0  0  0  0  0  0
  132.6154  133.1992  161.9214 H   0  0  0  0  0  0  0  0  0  0  0  0
  131.5244  137.3398  159.4811 H   0  0  0  0  0  0  0  0  0  0  0  0
  132.0416  139.6566  160.1315 H   0  0  0  0  0  0  0  0  0  0  0  0
  128.3207  139.9049  162.2088 H   0  0  0  0  0  0  0  0  0  0  0  0
  129.4230  133.2137  154.2464 H   0  0  0  0  0  0  0  0  0  0  0  0
  130.0588  131.8720  152.2850 H   0  0  0  0  0  0  0  0  0  0  0  0
  1  2  1  0
  1 34  1  0
  1 35  1  0
  1 36  1  0
  2  3  1  0
  2 37  1  0
  2 38  1  0
  3 33  2  0
  3  4  1  0
  4  5  2  0
  4 39  1  0
  5  6  1  0
  5 40  1  0
  6  7  1  0
  6 32  2  0
  7 30  1  0
  7  8  2  0
  8  9  1  0
  8 41  1  0
  9 10  1  0
  9 11  1  0
 11 12  1  0
 11 30  2  0
 12 13  1  0
 12 42  1  0
 13 14  1  6
 13 15  1  0
 13 22  1  0
 15 20  1  0
 15 16  2  0
 16 17  1  0
 16 43  1  0
 17 18  2  0
 17 44  1  0
 18 19  1  0
 18 45  1  0
 19 20  2  0
 19 46  1  0
 20 21  1  0
 22 28  1  0
 22 23  2  0
 23 24  1  0
 23 47  1  0
 24 25  2  0
 24 48  1  0
 25 26  1  0
 25 27  1  0
 27 28  2  0
 27 49  1  0
 28 29  1  0
 30 31  1  0
 32 33  1  0
 32 50  1  0
 33 51  1  0
M  CHG  1  30   1
M  END
>  <DOCK_score>  (1) 
-58.438488

>  <SMILES>  (1) 
CCc1ccc(-c2c[nH]c(N[C@@H](c3ccccc3F)c3ccc(F)cc3F)[nH+]2)cc1

$$$$
