C[C@H](CNc1[nH]cc(-c2ccc(Br)cc2)[nH+]1)c1cccc(-c2cccc(Cl)c2)c1
     RDKit          3D

 51 54  0  0  1  0  0  0  0  0999 V2000
  130.1860  137.9948  162.7753 C   0  0  0  0  0  0  0  0  0  0  0  0
  130.7463  137.6225  161.4012 C   0  0  2  0  0  0  0  0  0  0  0  0
  130.3810  138.3295  160.6561 H   0  0  0  0  0  0  0  0  0  0  0  0
  130.2908  136.2098  161.0303 C   0  0  0  0  0  0  0  0  0  0  0  0
  130.8275  135.8534  159.7146 N   0  0  0  0  0  0  0  0  0  0  0  0
  130.5472  134.6139  159.1653 C   0  0  0  0  0  0  0  0  0  0  0  0
  129.7944  133.6409  159.7473 N   0  0  0  0  0  0  0  0  0  0  0  0
  129.3612  133.6907  160.6137 H   0  0  0  0  0  0  0  0  0  0  0  0
  129.7585  132.5764  158.8795 C   0  0  0  0  0  0  0  0  0  0  0  0
  130.4968  132.9260  157.7971 C   0  0  0  0  0  0  0  0  0  0  0  0
  130.7454  132.0844  156.6012 C   0  0  0  0  0  0  0  0  0  0  0  0
  130.3365  132.5203  155.3420 C   0  0  0  0  0  0  0  0  0  0  0  0
  130.5750  131.7359  154.2321 C   0  0  0  0  0  0  0  0  0  0  0  0
  131.2090  130.5133  154.3688 C   0  0  0  0  0  0  0  0  0  0  0  0
  131.5259  129.4404  152.8443 Br  0  0  0  0  0  0  0  0  0  0  0  0
  131.6123  130.0732  155.6178 C   0  0  0  0  0  0  0  0  0  0  0  0
  131.3835  130.8523  156.7336 C   0  0  0  0  0  0  0  0  0  0  0  0
  130.9678  134.1818  158.0016 N   0  0  0  0  0  0  0  0  0  0  0  0
  131.5269  134.6801  157.3851 H   0  0  0  0  0  0  0  0  0  0  0  0
  132.2520  137.6702  161.4430 C   0  0  0  0  0  0  0  0  0  0  0  0
  132.9391  138.5299  160.6047 C   0  0  0  0  0  0  0  0  0  0  0  0
  134.3207  138.5823  160.6412 C   0  0  0  0  0  0  0  0  0  0  0  0
  135.0221  137.7683  161.5077 C   0  0  0  0  0  0  0  0  0  0  0  0
  134.3355  136.8968  162.3503 C   0  0  0  0  0  0  0  0  0  0  0  0
  135.0842  136.0189  163.2835 C   0  0  0  0  0  0  0  0  0  0  0  0
  134.5140  135.6418  164.4980 C   0  0  0  0  0  0  0  0  0  0  0  0
  135.2120  134.8210  165.3603 C   0  0  0  0  0  0  0  0  0  0  0  0
  136.4803  134.3813  165.0266 C   0  0  0  0  0  0  0  0  0  0  0  0
  137.0541  134.7572  163.8244 C   0  0  0  0  0  0  0  0  0  0  0  0
  138.6463  134.2010  163.4127 Cl  0  0  0  0  0  0  0  0  0  0  0  0
  136.3616  135.5738  162.9514 C   0  0  0  0  0  0  0  0  0  0  0  0
  132.9432  136.8520  162.3131 C   0  0  0  0  0  0  0  0  0  0  0  0
  129.0969  137.9604  162.7451 H   0  0  0  0  0  0  0  0  0  0  0  0
  130.5513  137.2880  163.5203 H   0  0  0  0  0  0  0  0  0  0  0  0
  130.5103  139.0013  163.0395 H   0  0  0  0  0  0  0  0  0  0  0  0
  129.2019  136.1754  161.0000 H   0  0  0  0  0  0  0  0  0  0  0  0
  130.6561  135.5030  161.7753 H   0  0  0  0  0  0  0  0  0  0  0  0
  131.3826  136.4843  159.2299 H   0  0  0  0  0  0  0  0  0  0  0  0
  129.2443  131.6390  159.0320 H   0  0  0  0  0  0  0  0  0  0  0  0
  129.8377  133.4722  155.2347 H   0  0  0  0  0  0  0  0  0  0  0  0
  130.2623  132.0745  153.2553 H   0  0  0  0  0  0  0  0  0  0  0  0
  132.1067  129.1184  155.7193 H   0  0  0  0  0  0  0  0  0  0  0  0
  131.6985  130.5081  157.7076 H   0  0  0  0  0  0  0  0  0  0  0  0
  132.3943  139.1656  159.9223 H   0  0  0  0  0  0  0  0  0  0  0  0
  134.8518  139.2584  159.9875 H   0  0  0  0  0  0  0  0  0  0  0  0
  136.1010  137.8074  161.5327 H   0  0  0  0  0  0  0  0  0  0  0  0
  133.5255  135.9877  164.7618 H   0  0  0  0  0  0  0  0  0  0  0  0
  134.7687  134.5248  166.2995 H   0  0  0  0  0  0  0  0  0  0  0  0
  137.0247  133.7428  165.7064 H   0  0  0  0  0  0  0  0  0  0  0  0
  136.8098  135.8668  162.0134 H   0  0  0  0  0  0  0  0  0  0  0  0
  132.4059  136.1784  162.9644 H   0  0  0  0  0  0  0  0  0  0  0  0
  1  2  1  0
  1 33  1  0
  1 34  1  0
  1 35  1  0
  2  3  1  6
  2  4  1  0
  2 20  1  0
  4  5  1  0
  4 36  1  0
  4 37  1  0
  5 38  1  0
  6  5  1  0
  6 18  2  0
  6  7  1  0
  7  8  1  0
  7  9  1  0
  9 10  2  0
  9 39  1  0
 10 11  1  0
 10 18  1  0
 11 17  1  0
 11 12  2  0
 12 13  1  0
 12 40  1  0
 13 14  2  0
 13 41  1  0
 14 15  1  0
 14 16  1  0
 16 17  2  0
 16 42  1  0
 17 43  1  0
 18 19  1  0
 20 32  1  0
 20 21  2  0
 21 22  1  0
 21 44  1  0
 22 23  2  0
 22 45  1  0
 23 24  1  0
 23 46  1  0
 24 25  1  0
 24 32  2  0
 25 31  1  0
 25 26  2  0
 26 27  1  0
 26 47  1  0
 27 28  2  0
 27 48  1  0
 28 29  1  0
 28 49  1  0
 29 30  1  0
 29 31  2  0
 31 50  1  0
 32 51  1  0
M  CHG  1  18   1
M  END
>  <DOCK_score>  (1) 
-57.713516

>  <SMILES>  (1) 
C[C@H](CNc1[nH]cc(-c2ccc(Br)cc2)[nH+]1)c1cccc(-c2cccc(Cl)c2)c1

$$$$
