CCCNc1ccc(-c2n[nH]cc2C[NH2+]CC2=CCCCC2)o1
     RDKit          3D

 50 52  0  0  0  0  0  0  0  0999 V2000
  136.3384  140.5352  159.5759 C   0  0  0  0  0  0  0  0  0  0  0  0
  135.5589  139.2202  159.6398 C   0  0  0  0  0  0  0  0  0  0  0  0
  134.0767  139.5171  159.8758 C   0  0  0  0  0  0  0  0  0  0  0  0
  133.3302  138.2580  159.9369 N   0  0  0  0  0  0  0  0  0  0  0  0
  131.9559  138.2742  160.1451 C   0  0  0  0  0  0  0  0  0  0  0  0
  131.1928  139.3831  160.3114 C   0  0  0  0  0  0  0  0  0  0  0  0
  129.8656  138.9454  160.4910 C   0  0  0  0  0  0  0  0  0  0  0  0
  129.8863  137.5880  160.4252 C   0  0  0  0  0  0  0  0  0  0  0  0
  128.7155  136.6970  160.5604 C   0  0  0  0  0  0  0  0  0  0  0  0
  127.4706  137.0773  160.7702 N   0  0  0  0  0  0  0  0  0  0  0  0
  126.6707  135.9293  160.8356 N   0  0  0  0  0  0  0  0  0  0  0  0
  125.7119  135.9117  160.9818 H   0  0  0  0  0  0  0  0  0  0  0  0
  127.4651  134.8512  160.6601 C   0  0  0  0  0  0  0  0  0  0  0  0
  128.7318  135.2879  160.4928 C   0  0  0  0  0  0  0  0  0  0  0  0
  129.9464  134.4239  160.2710 C   0  0  0  0  0  0  0  0  0  0  0  0
  130.7576  134.9890  159.1845 N   0  0  0  0  0  0  0  0  0  0  0  0
  130.2094  135.0224  158.3380 H   0  0  0  0  0  0  0  0  0  0  0  0
  131.0497  135.9223  159.4331 H   0  0  0  0  0  0  0  0  0  0  0  0
  131.9415  134.1467  158.9683 C   0  0  0  0  0  0  0  0  0  0  0  0
  131.5052  132.7529  158.5967 C   0  0  0  0  0  0  0  0  0  0  0  0
  131.8713  131.7775  159.3649 C   0  0  0  0  0  0  0  0  0  0  0  0
  131.5193  130.3389  159.1227 C   0  0  0  0  0  0  0  0  0  0  0  0
  130.3638  130.2384  158.1246 C   0  0  0  0  0  0  0  0  0  0  0  0
  130.6930  131.1174  156.9113 C   0  0  0  0  0  0  0  0  0  0  0  0
  130.6785  132.5815  157.3561 C   0  0  0  0  0  0  0  0  0  0  0  0
  131.1608  137.1934  160.2209 O   0  0  0  0  0  0  0  0  0  0  0  0
  137.3945  140.3237  159.4079 H   0  0  0  0  0  0  0  0  0  0  0  0
  135.9554  141.1454  158.7579 H   0  0  0  0  0  0  0  0  0  0  0  0
  136.2209  141.0733  160.5166 H   0  0  0  0  0  0  0  0  0  0  0  0
  135.9421  138.6100  160.4579 H   0  0  0  0  0  0  0  0  0  0  0  0
  135.6765  138.6821  158.6993 H   0  0  0  0  0  0  0  0  0  0  0  0
  133.6936  140.1272  159.0578 H   0  0  0  0  0  0  0  0  0  0  0  0
  133.9592  140.0552  160.8163 H   0  0  0  0  0  0  0  0  0  0  0  0
  133.7950  137.4131  159.8321 H   0  0  0  0  0  0  0  0  0  0  0  0
  131.5368  140.4067  160.3066 H   0  0  0  0  0  0  0  0  0  0  0  0
  128.9983  139.5688  160.6506 H   0  0  0  0  0  0  0  0  0  0  0  0
  127.1440  133.8200  160.6586 H   0  0  0  0  0  0  0  0  0  0  0  0
  130.5384  134.3879  161.1855 H   0  0  0  0  0  0  0  0  0  0  0  0
  129.6310  133.4157  160.0025 H   0  0  0  0  0  0  0  0  0  0  0  0
  132.5434  134.5661  158.1621 H   0  0  0  0  0  0  0  0  0  0  0  0
  132.5336  134.1104  159.8827 H   0  0  0  0  0  0  0  0  0  0  0  0
  132.4638  132.0140  160.2363 H   0  0  0  0  0  0  0  0  0  0  0  0
  131.2256  129.8731  160.0635 H   0  0  0  0  0  0  0  0  0  0  0  0
  132.3898  129.8201  158.7213 H   0  0  0  0  0  0  0  0  0  0  0  0
  129.4440  130.5893  158.5923 H   0  0  0  0  0  0  0  0  0  0  0  0
  130.2407  129.2037  157.8048 H   0  0  0  0  0  0  0  0  0  0  0  0
  129.9451  130.9634  156.1336 H   0  0  0  0  0  0  0  0  0  0  0  0
  131.6811  130.8601  156.5297 H   0  0  0  0  0  0  0  0  0  0  0  0
  129.6523  132.8868  157.5607 H   0  0  0  0  0  0  0  0  0  0  0  0
  131.0885  133.2030  156.5600 H   0  0  0  0  0  0  0  0  0  0  0  0
  1  2  1  0
  1 27  1  0
  1 28  1  0
  1 29  1  0
  2  3  1  0
  2 30  1  0
  2 31  1  0
  3  4  1  0
  3 32  1  0
  3 33  1  0
  4  5  1  0
  4 34  1  0
  5 26  1  0
  5  6  2  0
  6  7  1  0
  6 35  1  0
  7  8  2  0
  7 36  1  0
  8  9  1  0
  8 26  1  0
  9 14  1  0
  9 10  2  0
 10 11  1  0
 11 12  1  0
 11 13  1  0
 13 14  2  0
 13 37  1  0
 14 15  1  0
 15 16  1  0
 15 38  1  0
 15 39  1  0
 16 17  1  0
 16 18  1  0
 16 19  1  0
 19 20  1  0
 19 40  1  0
 19 41  1  0
 20 25  1  0
 20 21  2  0
 21 22  1  0
 21 42  1  0
 22 23  1  0
 22 43  1  0
 22 44  1  0
 23 24  1  0
 23 45  1  0
 23 46  1  0
 24 25  1  0
 24 47  1  0
 24 48  1  0
 25 49  1  0
 25 50  1  0
M  CHG  1  16   1
M  END
>  <DOCK_score>  (1) 
-43.408848

>  <SMILES>  (1) 
CCCNc1ccc(-c2n[nH]cc2C[NH2+]CC2=CCCCC2)o1

$$$$
