Oc1ccc(CNC(NC2CC=CC2)=[NH+]Cc2cc(O)cc(F)c2)cc1
     RDKit          3D

 49 51  0  0  1  0  0  0  0  0999 V2000
  136.4731  140.7684  162.5540 O   0  0  0  0  0  0  0  0  0  0  0  0
  135.5507  139.9538  161.9777 C   0  0  0  0  0  0  0  0  0  0  0  0
  135.6886  138.5761  162.0659 C   0  0  0  0  0  0  0  0  0  0  0  0
  134.7497  137.7502  161.4788 C   0  0  0  0  0  0  0  0  0  0  0  0
  133.6737  138.2954  160.8030 C   0  0  0  0  0  0  0  0  0  0  0  0
  132.6513  137.3920  160.1630 C   0  0  0  0  0  0  0  0  0  0  0  0
  131.5860  137.1010  161.1257 N   0  0  0  0  0  0  0  0  0  0  0  0
  130.5355  136.2909  160.7645 C   0  0  0  0  0  0  0  0  0  0  0  0
  130.4847  135.7542  159.4997 N   0  0  0  0  0  0  0  0  0  0  0  0
  129.3654  134.8911  159.1147 C   0  0  0  0  0  0  0  0  0  0  0  0
  129.4043  133.5530  159.8887 C   0  0  0  0  0  0  0  0  0  0  0  0
  128.9476  132.5169  158.8882 C   0  0  0  0  0  0  0  0  0  0  0  0
  129.0087  132.9812  157.6698 C   0  0  0  0  0  0  0  0  0  0  0  0
  129.5164  134.4043  157.6547 C   0  0  0  0  0  0  0  0  0  0  0  0
  129.5878  136.0319  161.6210 N   0  0  0  0  0  0  0  0  0  0  0  0
  128.8466  135.4604  161.3662 H   0  0  0  0  0  0  0  0  0  0  0  0
  129.6420  136.6040  162.9686 C   0  0  0  0  0  0  0  0  0  0  0  0
  128.4374  136.1539  163.7542 C   0  0  0  0  0  0  0  0  0  0  0  0
  127.1846  136.1799  163.1720 C   0  0  0  0  0  0  0  0  0  0  0  0
  126.0752  135.7657  163.8947 C   0  0  0  0  0  0  0  0  0  0  0  0
  124.8425  135.7915  163.3231 O   0  0  0  0  0  0  0  0  0  0  0  0
  126.2257  135.3258  165.2014 C   0  0  0  0  0  0  0  0  0  0  0  0
  127.4816  135.3012  165.7810 C   0  0  0  0  0  0  0  0  0  0  0  0
  127.6299  134.8734  167.0538 F   0  0  0  0  0  0  0  0  0  0  0  0
  128.5878  135.7102  165.0545 C   0  0  0  0  0  0  0  0  0  0  0  0
  133.5370  139.6682  160.7087 C   0  0  0  0  0  0  0  0  0  0  0  0
  134.4698  140.4983  161.2995 C   0  0  0  0  0  0  0  0  0  0  0  0
  137.1884  140.2972  163.0030 H   0  0  0  0  0  0  0  0  0  0  0  0
  136.5291  138.1498  162.5930 H   0  0  0  0  0  0  0  0  0  0  0  0
  134.8566  136.6777  161.5471 H   0  0  0  0  0  0  0  0  0  0  0  0
  133.1293  136.4613  159.8576 H   0  0  0  0  0  0  0  0  0  0  0  0
  132.2262  137.8861  159.2892 H   0  0  0  0  0  0  0  0  0  0  0  0
  131.6219  137.4797  162.0179 H   0  0  0  0  0  0  0  0  0  0  0  0
  131.1880  135.9502  158.8612 H   0  0  0  0  0  0  0  0  0  0  0  0
  128.4130  135.4006  159.2605 H   0  0  0  0  0  0  0  0  0  0  0  0
  130.4192  133.3369  160.2227 H   0  0  0  0  0  0  0  0  0  0  0  0
  128.7228  133.5862  160.7388 H   0  0  0  0  0  0  0  0  0  0  0  0
  128.6139  131.5229  159.1471 H   0  0  0  0  0  0  0  0  0  0  0  0
  128.7324  132.4218  156.7882 H   0  0  0  0  0  0  0  0  0  0  0  0
  128.9114  135.0163  156.9859 H   0  0  0  0  0  0  0  0  0  0  0  0
  130.5630  134.4327  157.3514 H   0  0  0  0  0  0  0  0  0  0  0  0
  130.5494  136.2673  163.4700 H   0  0  0  0  0  0  0  0  0  0  0  0
  129.6464  137.6919  162.9016 H   0  0  0  0  0  0  0  0  0  0  0  0
  127.0690  136.5231  162.1544 H   0  0  0  0  0  0  0  0  0  0  0  0
  124.8384  136.1133  162.4112 H   0  0  0  0  0  0  0  0  0  0  0  0
  125.3634  135.0032  165.7661 H   0  0  0  0  0  0  0  0  0  0  0  0
  129.5685  135.6864  165.5061 H   0  0  0  0  0  0  0  0  0  0  0  0
  132.6982  140.0916  160.1765 H   0  0  0  0  0  0  0  0  0  0  0  0
  134.3605  141.5706  161.2290 H   0  0  0  0  0  0  0  0  0  0  0  0
  1  2  1  0
  1 28  1  0
  2 27  2  0
  2  3  1  0
  3  4  2  0
  3 29  1  0
  4  5  1  0
  4 30  1  0
  5  6  1  0
  5 26  2  0
  6  7  1  0
  6 31  1  0
  6 32  1  0
  7 33  1  0
  8  7  1  0
  8  9  1  0
  8 15  2  0
  9 10  1  0
  9 34  1  0
 10 14  1  0
 10 11  1  0
 10 35  1  0
 11 12  1  0
 11 36  1  0
 11 37  1  0
 12 13  2  0
 12 38  1  0
 13 14  1  0
 13 39  1  0
 14 40  1  0
 14 41  1  0
 15 16  1  0
 15 17  1  0
 17 18  1  0
 17 42  1  0
 17 43  1  0
 18 25  1  0
 18 19  2  0
 19 20  1  0
 19 44  1  0
 20 21  1  0
 20 22  2  0
 21 45  1  0
 22 23  1  0
 22 46  1  0
 23 24  1  0
 23 25  2  0
 25 47  1  0
 26 27  1  0
 26 48  1  0
 27 49  1  0
M  CHG  1  15   1
M  END
>  <DOCK_score>  (1) 
-41.328316

>  <SMILES>  (1) 
Oc1ccc(CNC(NC2CC=CC2)=[NH+]Cc2cc(O)cc(F)c2)cc1

$$$$
