Cn1cc(C[NH2+][C@H](CO)Cc2c[nH]c3ccc(O)cc23)c(C2CCCCC2)n1
     RDKit          3D

 59 62  0  0  1  0  0  0  0  0999 V2000
  132.4352  141.6265  164.0170 C   0  0  0  0  0  0  0  0  0  0  0  0
  131.4004  140.6041  163.8439 N   0  0  0  0  0  0  0  0  0  0  0  0
  131.5978  139.3385  163.4189 C   0  0  0  0  0  0  0  0  0  0  0  0
  130.3952  138.7189  163.3956 C   0  0  0  0  0  0  0  0  0  0  0  0
  130.1409  137.2916  162.9842 C   0  0  0  0  0  0  0  0  0  0  0  0
  129.8721  137.2386  161.5410 N   0  0  0  0  0  0  0  0  0  0  0  0
  130.6694  137.5969  161.0369 H   0  0  0  0  0  0  0  0  0  0  0  0
  129.0605  137.7993  161.3291 H   0  0  0  0  0  0  0  0  0  0  0  0
  129.6242  135.8472  161.1398 C   0  0  2  0  0  0  0  0  0  0  0  0
  129.0237  135.3508  161.9021 H   0  0  0  0  0  0  0  0  0  0  0  0
  130.9590  135.1155  160.9856 C   0  0  0  0  0  0  0  0  0  0  0  0
  131.9100  135.9842  160.3667 O   0  0  0  0  0  0  0  0  0  0  0  0
  128.8743  135.8268  159.8064 C   0  0  0  0  0  0  0  0  0  0  0  0
  128.1970  134.4921  159.6313 C   0  0  0  0  0  0  0  0  0  0  0  0
  128.7179  133.4034  159.0434 C   0  0  0  0  0  0  0  0  0  0  0  0
  127.8118  132.3790  159.0726 N   0  0  0  0  0  0  0  0  0  0  0  0
  127.9618  131.4917  158.7103 H   0  0  0  0  0  0  0  0  0  0  0  0
  126.6513  132.7976  159.6887 C   0  0  0  0  0  0  0  0  0  0  0  0
  125.4410  132.1727  159.9710 C   0  0  0  0  0  0  0  0  0  0  0  0
  124.4414  132.8673  160.6144 C   0  0  0  0  0  0  0  0  0  0  0  0
  124.6280  134.1960  160.9879 C   0  0  0  0  0  0  0  0  0  0  0  0
  123.6299  134.8676  161.6219 O   0  0  0  0  0  0  0  0  0  0  0  0
  125.8219  134.8338  160.7172 C   0  0  0  0  0  0  0  0  0  0  0  0
  126.8430  134.1388  160.0649 C   0  0  0  0  0  0  0  0  0  0  0  0
  129.4288  139.6390  163.8150 C   0  0  0  0  0  0  0  0  0  0  0  0
  127.9498  139.3747  163.9342 C   0  0  0  0  0  0  0  0  0  0  0  0
  127.1853  140.3320  163.0177 C   0  0  0  0  0  0  0  0  0  0  0  0
  125.6839  140.0638  163.1388 C   0  0  0  0  0  0  0  0  0  0  0  0
  125.2419  140.2821  164.5871 C   0  0  0  0  0  0  0  0  0  0  0  0
  126.0064  139.3247  165.5035 C   0  0  0  0  0  0  0  0  0  0  0  0
  127.5079  139.5930  165.3825 C   0  0  0  0  0  0  0  0  0  0  0  0
  130.0311  140.7675  164.0899 N   0  0  0  0  0  0  0  0  0  0  0  0
  132.5533  142.1847  163.0883 H   0  0  0  0  0  0  0  0  0  0  0  0
  132.1427  142.3079  164.8158 H   0  0  0  0  0  0  0  0  0  0  0  0
  133.3796  141.1475  164.2756 H   0  0  0  0  0  0  0  0  0  0  0  0
  132.5460  138.8989  163.1466 H   0  0  0  0  0  0  0  0  0  0  0  0
  129.2796  136.9045  163.5285 H   0  0  0  0  0  0  0  0  0  0  0  0
  131.0178  136.6859  163.2130 H   0  0  0  0  0  0  0  0  0  0  0  0
  130.8184  134.2299  160.3657 H   0  0  0  0  0  0  0  0  0  0  0  0
  131.3252  134.8167  161.9679 H   0  0  0  0  0  0  0  0  0  0  0  0
  131.6492  136.2903  159.4874 H   0  0  0  0  0  0  0  0  0  0  0  0
  128.1250  136.6184  159.7988 H   0  0  0  0  0  0  0  0  0  0  0  0
  129.5795  135.9861  158.9906 H   0  0  0  0  0  0  0  0  0  0  0  0
  129.7068  133.3444  158.6135 H   0  0  0  0  0  0  0  0  0  0  0  0
  125.2853  131.1429  159.6853 H   0  0  0  0  0  0  0  0  0  0  0  0
  123.5036  132.3774  160.8311 H   0  0  0  0  0  0  0  0  0  0  0  0
  123.8500  135.7832  161.8420 H   0  0  0  0  0  0  0  0  0  0  0  0
  125.9656  135.8639  161.0079 H   0  0  0  0  0  0  0  0  0  0  0  0
  127.7399  138.3459  163.6414 H   0  0  0  0  0  0  0  0  0  0  0  0
  127.3952  141.3607  163.3106 H   0  0  0  0  0  0  0  0  0  0  0  0
  127.5002  140.1765  161.9859 H   0  0  0  0  0  0  0  0  0  0  0  0
  125.4738  139.0351  162.8459 H   0  0  0  0  0  0  0  0  0  0  0  0
  125.1391  140.7458  162.4859 H   0  0  0  0  0  0  0  0  0  0  0  0
  124.1721  140.0909  164.6732 H   0  0  0  0  0  0  0  0  0  0  0  0
  125.4518  141.3108  164.8799 H   0  0  0  0  0  0  0  0  0  0  0  0
  125.7965  138.2961  165.2108 H   0  0  0  0  0  0  0  0  0  0  0  0
  125.6915  139.4803  166.5355 H   0  0  0  0  0  0  0  0  0  0  0  0
  128.0526  138.9110  166.0355 H   0  0  0  0  0  0  0  0  0  0  0  0
  127.7178  140.6218  165.6754 H   0  0  0  0  0  0  0  0  0  0  0  0
  1  2  1  0
  1 33  1  0
  1 34  1  0
  1 35  1  0
  2 32  1  0
  2  3  1  0
  3  4  2  0
  3 36  1  0
  4  5  1  0
  4 25  1  0
  5  6  1  0
  5 37  1  0
  5 38  1  0
  6  7  1  0
  6  8  1  0
  6  9  1  0
  9 10  1  1
  9 11  1  0
  9 13  1  0
 11 12  1  0
 11 39  1  0
 11 40  1  0
 12 41  1  0
 13 14  1  0
 13 42  1  0
 13 43  1  0
 14 24  1  0
 14 15  2  0
 15 16  1  0
 15 44  1  0
 16 17  1  0
 16 18  1  0
 18 24  2  0
 18 19  1  0
 19 20  2  0
 19 45  1  0
 20 21  1  0
 20 46  1  0
 21 22  1  0
 21 23  2  0
 22 47  1  0
 23 24  1  0
 23 48  1  0
 25 26  1  0
 25 32  2  0
 26 31  1  0
 26 27  1  0
 26 49  1  0
 27 28  1  0
 27 50  1  0
 27 51  1  0
 28 29  1  0
 28 52  1  0
 28 53  1  0
 29 30  1  0
 29 54  1  0
 29 55  1  0
 30 31  1  0
 30 56  1  0
 30 57  1  0
 31 58  1  0
 31 59  1  0
M  CHG  1   6   1
M  END
>  <DOCK_score>  (1) 
-41.734783

>  <SMILES>  (1) 
Cn1cc(C[NH2+][C@H](CO)Cc2c[nH]c3ccc(O)cc23)c(C2CCCCC2)n1

$$$$
