Cc1ccc(-c2ccc(C(C)(C)Nc3cc(N)ccc3C3=CCN[NH2+]C3)cc2Cl)cc1
     RDKit          3D

 61 64  0  0  0  0  0  0  0  0999 V2000
  137.3284  142.9862  165.2937 C   0  0  0  0  0  0  0  0  0  0  0  0
  136.4653  141.9115  164.6844 C   0  0  0  0  0  0  0  0  0  0  0  0
  135.3596  141.4438  165.3717 C   0  0  0  0  0  0  0  0  0  0  0  0
  134.5654  140.4600  164.8183 C   0  0  0  0  0  0  0  0  0  0  0  0
  134.8791  139.9379  163.5651 C   0  0  0  0  0  0  0  0  0  0  0  0
  134.0292  138.8799  162.9652 C   0  0  0  0  0  0  0  0  0  0  0  0
  134.3115  137.5365  163.2048 C   0  0  0  0  0  0  0  0  0  0  0  0
  133.5181  136.5564  162.6441 C   0  0  0  0  0  0  0  0  0  0  0  0
  132.4440  136.9048  161.8447 C   0  0  0  0  0  0  0  0  0  0  0  0
  131.5823  135.8295  161.2346 C   0  0  0  0  0  0  0  0  0  0  0  0
  130.9587  134.9836  162.3468 C   0  0  0  0  0  0  0  0  0  0  0  0
  132.4403  134.9373  160.3354 C   0  0  0  0  0  0  0  0  0  0  0  0
  130.5200  136.4483  160.4379 N   0  0  0  0  0  0  0  0  0  0  0  0
  129.1833  136.2151  160.7573 C   0  0  0  0  0  0  0  0  0  0  0  0
  128.5247  137.0507  161.6453 C   0  0  0  0  0  0  0  0  0  0  0  0
  127.1951  136.8123  161.9664 C   0  0  0  0  0  0  0  0  0  0  0  0
  126.5359  137.6512  162.8653 N   0  0  0  0  0  0  0  0  0  0  0  0
  126.5180  135.7392  161.3950 C   0  0  0  0  0  0  0  0  0  0  0  0
  127.1625  134.9061  160.5067 C   0  0  0  0  0  0  0  0  0  0  0  0
  128.4989  135.1370  160.1771 C   0  0  0  0  0  0  0  0  0  0  0  0
  129.1916  134.2459  159.2256 C   0  0  0  0  0  0  0  0  0  0  0  0
  129.2908  132.9635  159.5120 C   0  0  0  0  0  0  0  0  0  0  0  0
  129.9856  131.9910  158.5989 C   0  0  0  0  0  0  0  0  0  0  0  0
  130.1457  132.5909  157.2671 N   0  0  0  0  0  0  0  0  0  0  0  0
  130.7434  133.9142  157.3792 N   0  0  0  0  0  0  0  0  0  0  0  0
  131.5571  133.8683  157.9742 H   0  0  0  0  0  0  0  0  0  0  0  0
  131.0126  134.2420  156.4637 H   0  0  0  0  0  0  0  0  0  0  0  0
  129.7583  134.8333  157.9633 C   0  0  0  0  0  0  0  0  0  0  0  0
  132.1615  138.2359  161.5986 C   0  0  0  0  0  0  0  0  0  0  0  0
  132.9453  139.2260  162.1593 C   0  0  0  0  0  0  0  0  0  0  0  0
  132.5857  140.8969  161.8556 Cl  0  0  0  0  0  0  0  0  0  0  0  0
  135.9970  140.4090  162.8796 C   0  0  0  0  0  0  0  0  0  0  0  0
  136.7813  141.3968  163.4401 C   0  0  0  0  0  0  0  0  0  0  0  0
  138.1183  142.5251  165.8864 H   0  0  0  0  0  0  0  0  0  0  0  0
  137.7732  143.5879  164.5009 H   0  0  0  0  0  0  0  0  0  0  0  0
  136.7181  143.6228  165.9341 H   0  0  0  0  0  0  0  0  0  0  0  0
  135.1178  141.8489  166.3431 H   0  0  0  0  0  0  0  0  0  0  0  0
  133.7022  140.0957  165.3555 H   0  0  0  0  0  0  0  0  0  0  0  0
  135.1500  137.2627  163.8280 H   0  0  0  0  0  0  0  0  0  0  0  0
  133.7362  135.5151  162.8294 H   0  0  0  0  0  0  0  0  0  0  0  0
  130.4001  134.1582  161.9054 H   0  0  0  0  0  0  0  0  0  0  0  0
  131.7467  134.5878  162.9873 H   0  0  0  0  0  0  0  0  0  0  0  0
  130.2851  135.6024  162.9395 H   0  0  0  0  0  0  0  0  0  0  0  0
  132.8217  135.5235  159.4995 H   0  0  0  0  0  0  0  0  0  0  0  0
  133.2759  134.5382  160.9106 H   0  0  0  0  0  0  0  0  0  0  0  0
  131.8347  134.1144  159.9558 H   0  0  0  0  0  0  0  0  0  0  0  0
  130.7468  137.0205  159.6882 H   0  0  0  0  0  0  0  0  0  0  0  0
  129.0466  137.8846  162.0904 H   0  0  0  0  0  0  0  0  0  0  0  0
  125.6071  137.4860  163.0912 H   0  0  0  0  0  0  0  0  0  0  0  0
  127.0063  138.3997  163.2646 H   0  0  0  0  0  0  0  0  0  0  0  0
  125.4839  135.5585  161.6488 H   0  0  0  0  0  0  0  0  0  0  0  0
  126.6333  134.0746  160.0651 H   0  0  0  0  0  0  0  0  0  0  0  0
  128.8597  132.5994  160.4329 H   0  0  0  0  0  0  0  0  0  0  0  0
  129.3907  131.0813  158.5177 H   0  0  0  0  0  0  0  0  0  0  0  0
  130.9665  131.7475  159.0073 H   0  0  0  0  0  0  0  0  0  0  0  0
  129.2626  132.6330  156.7811 H   0  0  0  0  0  0  0  0  0  0  0  0
  130.2410  135.7835  158.1915 H   0  0  0  0  0  0  0  0  0  0  0  0
  128.9513  134.9997  157.2497 H   0  0  0  0  0  0  0  0  0  0  0  0
  131.3244  138.5021  160.9701 H   0  0  0  0  0  0  0  0  0  0  0  0
  136.2471  140.0048  161.9099 H   0  0  0  0  0  0  0  0  0  0  0  0
  137.6457  141.7656  162.9079 H   0  0  0  0  0  0  0  0  0  0  0  0
  1  2  1  0
  1 34  1  0
  1 35  1  0
  1 36  1  0
  2 33  2  0
  2  3  1  0
  3  4  2  0
  3 37  1  0
  4  5  1  0
  4 38  1  0
  5  6  1  0
  5 32  2  0
  6 30  1  0
  6  7  2  0
  7  8  1  0
  7 39  1  0
  8  9  2  0
  8 40  1  0
  9 10  1  0
  9 29  1  0
 10 11  1  0
 10 12  1  0
 10 13  1  0
 11 41  1  0
 11 42  1  0
 11 43  1  0
 12 44  1  0
 12 45  1  0
 12 46  1  0
 13 14  1  0
 13 47  1  0
 14 20  1  0
 14 15  2  0
 15 16  1  0
 15 48  1  0
 16 17  1  0
 16 18  2  0
 17 49  1  0
 17 50  1  0
 18 19  1  0
 18 51  1  0
 19 20  2  0
 19 52  1  0
 20 21  1  0
 21 28  1  0
 21 22  2  0
 22 23  1  0
 22 53  1  0
 23 24  1  0
 23 54  1  0
 23 55  1  0
 24 25  1  0
 24 56  1  0
 25 26  1  0
 25 27  1  0
 25 28  1  0
 28 57  1  0
 28 58  1  0
 29 30  2  0
 29 59  1  0
 30 31  1  0
 32 33  1  0
 32 60  1  0
 33 61  1  0
M  CHG  1  25   1
M  END
>  <DOCK_score>  (1) 
-48.204094

>  <SMILES>  (1) 
Cc1ccc(-c2ccc(C(C)(C)Nc3cc(N)ccc3C3=CCN[NH2+]C3)cc2Cl)cc1

$$$$
