OC[C@@H](Nc1[nH]cc(-c2ccc(-c3ccccc3)cc2)[nH+]1)c1ccc(-c2ccccc2)cc1
     RDKit          3D

 59 63  0  0  1  0  0  0  0  0999 V2000
  126.8965  136.2097  161.4873 O   0  0  0  0  0  0  0  0  0  0  0  0
  127.2301  135.6792  160.2031 C   0  0  0  0  0  0  0  0  0  0  0  0
  128.7458  135.7414  160.0036 C   0  0  1  0  0  0  0  0  0  0  0  0
  129.0329  136.7520  159.7131 H   0  0  0  0  0  0  0  0  0  0  0  0
  129.4180  135.3833  161.2550 N   0  0  0  0  0  0  0  0  0  0  0  0
  130.8008  135.3694  161.3183 C   0  0  0  0  0  0  0  0  0  0  0  0
  131.6392  135.1003  160.2805 N   0  0  0  0  0  0  0  0  0  0  0  0
  131.3776  134.8855  159.3715 H   0  0  0  0  0  0  0  0  0  0  0  0
  132.9241  135.1886  160.7578 C   0  0  0  0  0  0  0  0  0  0  0  0
  132.8343  135.5088  162.0731 C   0  0  0  0  0  0  0  0  0  0  0  0
  133.9720  135.7100  163.0018 C   0  0  0  0  0  0  0  0  0  0  0  0
  133.8232  135.4251  164.3593 C   0  0  0  0  0  0  0  0  0  0  0  0
  134.8818  135.6079  165.2213 C   0  0  0  0  0  0  0  0  0  0  0  0
  136.0992  136.0874  164.7387 C   0  0  0  0  0  0  0  0  0  0  0  0
  137.2372  136.2901  165.6681 C   0  0  0  0  0  0  0  0  0  0  0  0
  138.1842  137.2796  165.4093 C   0  0  0  0  0  0  0  0  0  0  0  0
  139.2382  137.4667  166.2802 C   0  0  0  0  0  0  0  0  0  0  0  0
  139.3618  136.6676  167.4025 C   0  0  0  0  0  0  0  0  0  0  0  0
  138.4279  135.6805  167.6617 C   0  0  0  0  0  0  0  0  0  0  0  0
  137.3668  135.4879  166.8006 C   0  0  0  0  0  0  0  0  0  0  0  0
  136.2467  136.3769  163.3825 C   0  0  0  0  0  0  0  0  0  0  0  0
  135.1899  136.1896  162.5195 C   0  0  0  0  0  0  0  0  0  0  0  0
  131.5185  135.6185  162.3864 N   0  0  0  0  0  0  0  0  0  0  0  0
  131.1655  135.8429  163.2615 H   0  0  0  0  0  0  0  0  0  0  0  0
  129.1501  134.7737  158.9213 C   0  0  0  0  0  0  0  0  0  0  0  0
  129.1914  135.1917  157.6035 C   0  0  0  0  0  0  0  0  0  0  0  0
  129.5657  134.3109  156.6089 C   0  0  0  0  0  0  0  0  0  0  0  0
  129.8921  132.9957  156.9333 C   0  0  0  0  0  0  0  0  0  0  0  0
  130.2893  132.0424  155.8676 C   0  0  0  0  0  0  0  0  0  0  0  0
  131.1779  131.0074  156.1511 C   0  0  0  0  0  0  0  0  0  0  0  0
  131.5401  130.1208  155.1572 C   0  0  0  0  0  0  0  0  0  0  0  0
  131.0310  130.2646  153.8792 C   0  0  0  0  0  0  0  0  0  0  0  0
  130.1526  131.2937  153.5910 C   0  0  0  0  0  0  0  0  0  0  0  0
  129.7795  132.1828  154.5785 C   0  0  0  0  0  0  0  0  0  0  0  0
  129.8437  132.5786  158.2619 C   0  0  0  0  0  0  0  0  0  0  0  0
  129.4731  133.4692  159.2490 C   0  0  0  0  0  0  0  0  0  0  0  0
  127.1632  137.1305  161.6140 H   0  0  0  0  0  0  0  0  0  0  0  0
  126.7372  136.2664  159.4281 H   0  0  0  0  0  0  0  0  0  0  0  0
  126.8976  134.6431  160.1405 H   0  0  0  0  0  0  0  0  0  0  0  0
  128.8942  135.1560  162.0391 H   0  0  0  0  0  0  0  0  0  0  0  0
  133.8320  135.0332  160.1939 H   0  0  0  0  0  0  0  0  0  0  0  0
  132.8790  135.0580  164.7337 H   0  0  0  0  0  0  0  0  0  0  0  0
  134.7679  135.3835  166.2716 H   0  0  0  0  0  0  0  0  0  0  0  0
  138.0908  137.9013  164.5312 H   0  0  0  0  0  0  0  0  0  0  0  0
  139.9702  138.2360  166.0831 H   0  0  0  0  0  0  0  0  0  0  0  0
  140.1909  136.8147  168.0789 H   0  0  0  0  0  0  0  0  0  0  0  0
  138.5297  135.0594  168.5392 H   0  0  0  0  0  0  0  0  0  0  0  0
  136.6385  134.7167  167.0037 H   0  0  0  0  0  0  0  0  0  0  0  0
  137.1896  136.7482  163.0091 H   0  0  0  0  0  0  0  0  0  0  0  0
  135.3041  136.4138  161.4692 H   0  0  0  0  0  0  0  0  0  0  0  0
  128.9342  136.2102  157.3527 H   0  0  0  0  0  0  0  0  0  0  0  0
  129.6012  134.6393  155.5807 H   0  0  0  0  0  0  0  0  0  0  0  0
  131.5792  130.8964  157.1476 H   0  0  0  0  0  0  0  0  0  0  0  0
  132.2257  129.3156  155.3768 H   0  0  0  0  0  0  0  0  0  0  0  0
  131.3207  129.5714  153.1035 H   0  0  0  0  0  0  0  0  0  0  0  0
  129.7584  131.4017  152.5913 H   0  0  0  0  0  0  0  0  0  0  0  0
  129.0938  132.9859  154.3523 H   0  0  0  0  0  0  0  0  0  0  0  0
  130.0953  131.5603  158.5188 H   0  0  0  0  0  0  0  0  0  0  0  0
  129.4356  133.1472  160.2792 H   0  0  0  0  0  0  0  0  0  0  0  0
  1  2  1  0
  1 37  1  0
  2  3  1  0
  2 38  1  0
  2 39  1  0
  3  4  1  6
  3  5  1  0
  3 25  1  0
  5 40  1  0
  6  5  1  0
  6 23  2  0
  6  7  1  0
  7  8  1  0
  7  9  1  0
  9 10  2  0
  9 41  1  0
 10 11  1  0
 10 23  1  0
 11 22  1  0
 11 12  2  0
 12 13  1  0
 12 42  1  0
 13 14  2  0
 13 43  1  0
 14 15  1  0
 14 21  1  0
 15 20  1  0
 15 16  2  0
 16 17  1  0
 16 44  1  0
 17 18  2  0
 17 45  1  0
 18 19  1  0
 18 46  1  0
 19 20  2  0
 19 47  1  0
 20 48  1  0
 21 22  2  0
 21 49  1  0
 22 50  1  0
 23 24  1  0
 25 36  1  0
 25 26  2  0
 26 27  1  0
 26 51  1  0
 27 28  2  0
 27 52  1  0
 28 29  1  0
 28 35  1  0
 29 34  1  0
 29 30  2  0
 30 31  1  0
 30 53  1  0
 31 32  2  0
 31 54  1  0
 32 33  1  0
 32 55  1  0
 33 34  2  0
 33 56  1  0
 34 57  1  0
 35 36  2  0
 35 58  1  0
 36 59  1  0
M  CHG  1  23   1
M  END
>  <DOCK_score>  (1) 
-46.799633

>  <SMILES>  (1) 
OC[C@@H](Nc1[nH]cc(-c2ccc(-c3ccccc3)cc2)[nH+]1)c1ccc(-c2ccccc2)cc1

$$$$
