[NH3+][C@H](Cc1ccc2cc(OCc3ccccc3F)ccc2c1)C(=O)Nc1cccc(O)c1
     RDKit          3D

 56 59  0  0  1  0  0  0  0  0999 V2000
  130.6402  133.6091  156.8292 N   0  0  0  0  0  0  0  0  0  0  0  0
  129.9403  134.1459  156.3392 H   0  0  0  0  0  0  0  0  0  0  0  0
  131.5580  133.9462  156.5802 H   0  0  0  0  0  0  0  0  0  0  0  0
  130.5583  132.6366  156.5733 H   0  0  0  0  0  0  0  0  0  0  0  0
  130.4419  133.7527  158.2776 C   0  0  2  0  0  0  0  0  0  0  0  0
  130.5305  134.8033  158.5542 H   0  0  0  0  0  0  0  0  0  0  0  0
  131.5031  132.9386  159.0209 C   0  0  0  0  0  0  0  0  0  0  0  0
  131.6280  133.4471  160.4338 C   0  0  0  0  0  0  0  0  0  0  0  0
  130.8320  132.8938  161.4353 C   0  0  0  0  0  0  0  0  0  0  0  0
  130.9204  133.3299  162.7215 C   0  0  0  0  0  0  0  0  0  0  0  0
  131.8268  134.3535  163.0481 C   0  0  0  0  0  0  0  0  0  0  0  0
  131.9450  134.8291  164.3645 C   0  0  0  0  0  0  0  0  0  0  0  0
  132.8361  135.8253  164.6448 C   0  0  0  0  0  0  0  0  0  0  0  0
  132.9495  136.2845  165.9186 O   0  0  0  0  0  0  0  0  0  0  0  0
  133.8987  137.3274  166.1503 C   0  0  0  0  0  0  0  0  0  0  0  0
  133.8844  137.7046  167.6092 C   0  0  0  0  0  0  0  0  0  0  0  0
  133.8790  139.0364  167.9790 C   0  0  0  0  0  0  0  0  0  0  0  0
  133.8663  139.3826  169.3172 C   0  0  0  0  0  0  0  0  0  0  0  0
  133.8581  138.3966  170.2874 C   0  0  0  0  0  0  0  0  0  0  0  0
  133.8636  137.0654  169.9200 C   0  0  0  0  0  0  0  0  0  0  0  0
  133.8766  136.7173  168.5797 C   0  0  0  0  0  0  0  0  0  0  0  0
  133.8819  135.4152  168.2193 F   0  0  0  0  0  0  0  0  0  0  0  0
  133.6297  136.3827  163.6371 C   0  0  0  0  0  0  0  0  0  0  0  0
  133.5431  135.9402  162.3542 C   0  0  0  0  0  0  0  0  0  0  0  0
  132.6362  134.9161  162.0296 C   0  0  0  0  0  0  0  0  0  0  0  0
  132.5166  134.4395  160.7131 C   0  0  0  0  0  0  0  0  0  0  0  0
  129.0711  133.2492  158.6494 C   0  0  0  0  0  0  0  0  0  0  0  0
  128.5540  132.3637  158.0017 O   0  0  0  0  0  0  0  0  0  0  0  0
  128.4197  133.7829  159.7017 N   0  0  0  0  0  0  0  0  0  0  0  0
  127.1468  133.3155  160.0469 C   0  0  0  0  0  0  0  0  0  0  0  0
  126.7950  131.9973  159.7850 C   0  0  0  0  0  0  0  0  0  0  0  0
  125.5405  131.5346  160.1310 C   0  0  0  0  0  0  0  0  0  0  0  0
  124.6281  132.3840  160.7279 C   0  0  0  0  0  0  0  0  0  0  0  0
  124.9719  133.7032  160.9867 C   0  0  0  0  0  0  0  0  0  0  0  0
  124.0737  134.5374  161.5734 O   0  0  0  0  0  0  0  0  0  0  0  0
  126.2322  134.1698  160.6461 C   0  0  0  0  0  0  0  0  0  0  0  0
  132.4615  133.0406  158.5119 H   0  0  0  0  0  0  0  0  0  0  0  0
  131.2103  131.8888  159.0369 H   0  0  0  0  0  0  0  0  0  0  0  0
  130.1348  132.1073  161.1871 H   0  0  0  0  0  0  0  0  0  0  0  0
  130.2976  132.8916  163.4873 H   0  0  0  0  0  0  0  0  0  0  0  0
  131.3342  134.4098  165.1503 H   0  0  0  0  0  0  0  0  0  0  0  0
  133.6371  138.1972  165.5476 H   0  0  0  0  0  0  0  0  0  0  0  0
  134.8943  136.9803  165.8743 H   0  0  0  0  0  0  0  0  0  0  0  0
  133.8849  139.8068  167.2221 H   0  0  0  0  0  0  0  0  0  0  0  0
  133.8621  140.4235  169.6051 H   0  0  0  0  0  0  0  0  0  0  0  0
  133.8484  138.6691  171.3324 H   0  0  0  0  0  0  0  0  0  0  0  0
  133.8617  136.2960  170.6779 H   0  0  0  0  0  0  0  0  0  0  0  0
  134.3239  137.1727  163.8821 H   0  0  0  0  0  0  0  0  0  0  0  0
  134.1656  136.3766  161.5870 H   0  0  0  0  0  0  0  0  0  0  0  0
  133.1270  134.8583  159.9268 H   0  0  0  0  0  0  0  0  0  0  0  0
  128.8333  134.4910  160.2198 H   0  0  0  0  0  0  0  0  0  0  0  0
  127.5046  131.3328  159.3145 H   0  0  0  0  0  0  0  0  0  0  0  0
  125.2703  130.5083  159.9302 H   0  0  0  0  0  0  0  0  0  0  0  0
  123.6465  132.0205  160.9937 H   0  0  0  0  0  0  0  0  0  0  0  0
  124.4039  135.4355  161.7131 H   0  0  0  0  0  0  0  0  0  0  0  0
  126.5016  135.1961  160.8471 H   0  0  0  0  0  0  0  0  0  0  0  0
  1  2  1  0
  1  3  1  0
  1  4  1  0
  1  5  1  0
  5  6  1  1
  5  7  1  0
  5 27  1  0
  7  8  1  0
  7 37  1  0
  7 38  1  0
  8 26  1  0
  8  9  2  0
  9 10  1  0
  9 39  1  0
 10 11  2  0
 10 40  1  0
 11 25  1  0
 11 12  1  0
 12 13  2  0
 12 41  1  0
 13 14  1  0
 13 23  1  0
 14 15  1  0
 15 16  1  0
 15 42  1  0
 15 43  1  0
 16 21  1  0
 16 17  2  0
 17 18  1  0
 17 44  1  0
 18 19  2  0
 18 45  1  0
 19 20  1  0
 19 46  1  0
 20 21  2  0
 20 47  1  0
 21 22  1  0
 23 24  2  0
 23 48  1  0
 24 25  1  0
 24 49  1  0
 25 26  2  0
 26 50  1  0
 27 28  2  0
 27 29  1  0
 29 30  1  0
 29 51  1  0
 30 36  1  0
 30 31  2  0
 31 32  1  0
 31 52  1  0
 32 33  2  0
 32 53  1  0
 33 34  1  0
 33 54  1  0
 34 35  1  0
 34 36  2  0
 35 55  1  0
 36 56  1  0
M  CHG  1   1   1
M  END
>  <DOCK_score>  (1) 
-46.053036

>  <SMILES>  (1) 
[NH3+][C@H](Cc1ccc2cc(OCc3ccccc3F)ccc2c1)C(=O)Nc1cccc(O)c1

$$$$
