C/C=C/C[NH2+]Cc1c[nH]nc1-c1ccc(NCCc2ccc(Br)cc2)o1
     RDKit          3D

 50 52  0  0  0  0  0  0  0  0999 V2000
  134.5843  139.8866  158.4555 C   0  0  0  0  0  0  0  0  0  0  0  0
  133.5385  139.0702  159.1703 C   0  0  0  0  0  0  0  0  0  0  0  0
  133.9005  138.1447  160.0237 C   0  0  0  0  0  0  0  0  0  0  0  0
  132.8548  137.3283  160.7385 C   0  0  0  0  0  0  0  0  0  0  0  0
  132.5435  136.1305  159.9473 N   0  0  0  0  0  0  0  0  0  0  0  0
  133.3795  135.5778  159.8304 H   0  0  0  0  0  0  0  0  0  0  0  0
  132.1936  136.4068  159.0422 H   0  0  0  0  0  0  0  0  0  0  0  0
  131.5240  135.3346  160.6441 C   0  0  0  0  0  0  0  0  0  0  0  0
  131.2046  134.1058  159.8324 C   0  0  0  0  0  0  0  0  0  0  0  0
  132.1014  133.2933  159.2333 C   0  0  0  0  0  0  0  0  0  0  0  0
  131.4210  132.3073  158.6093 N   0  0  0  0  0  0  0  0  0  0  0  0
  131.8123  131.5807  158.0994 H   0  0  0  0  0  0  0  0  0  0  0  0
  130.0527  132.5188  158.8205 N   0  0  0  0  0  0  0  0  0  0  0  0
  129.9153  133.6030  159.5581 C   0  0  0  0  0  0  0  0  0  0  0  0
  128.6380  134.1873  160.0166 C   0  0  0  0  0  0  0  0  0  0  0  0
  127.3982  133.6958  159.7547 C   0  0  0  0  0  0  0  0  0  0  0  0
  126.4767  134.5587  160.3801 C   0  0  0  0  0  0  0  0  0  0  0  0
  127.1974  135.5317  160.9912 C   0  0  0  0  0  0  0  0  0  0  0  0
  126.6745  136.5897  161.7257 N   0  0  0  0  0  0  0  0  0  0  0  0
  127.5731  137.5736  162.3346 C   0  0  0  0  0  0  0  0  0  0  0  0
  127.9500  137.1160  163.7449 C   0  0  0  0  0  0  0  0  0  0  0  0
  128.8743  138.1280  164.3713 C   0  0  0  0  0  0  0  0  0  0  0  0
  130.2426  138.0009  164.2202 C   0  0  0  0  0  0  0  0  0  0  0  0
  131.0905  138.9317  164.7904 C   0  0  0  0  0  0  0  0  0  0  0  0
  130.5702  139.9846  165.5213 C   0  0  0  0  0  0  0  0  0  0  0  0
  131.7301  141.2540  166.3082 Br  0  0  0  0  0  0  0  0  0  0  0  0
  129.2012  140.1084  165.6767 C   0  0  0  0  0  0  0  0  0  0  0  0
  128.3539  139.1801  165.1016 C   0  0  0  0  0  0  0  0  0  0  0  0
  128.5025  135.2975  160.7721 O   0  0  0  0  0  0  0  0  0  0  0  0
  135.1879  140.4243  159.1866 H   0  0  0  0  0  0  0  0  0  0  0  0
  135.2246  139.2256  157.8712 H   0  0  0  0  0  0  0  0  0  0  0  0
  134.0967  140.6003  157.7914 H   0  0  0  0  0  0  0  0  0  0  0  0
  132.4906  139.2482  158.9789 H   0  0  0  0  0  0  0  0  0  0  0  0
  134.9484  137.9666  160.2151 H   0  0  0  0  0  0  0  0  0  0  0  0
  131.9515  137.9252  160.8648 H   0  0  0  0  0  0  0  0  0  0  0  0
  133.2327  137.0297  161.7164 H   0  0  0  0  0  0  0  0  0  0  0  0
  131.9018  135.0362  161.6220 H   0  0  0  0  0  0  0  0  0  0  0  0
  130.6208  135.9316  160.7703 H   0  0  0  0  0  0  0  0  0  0  0  0
  133.1749  133.4102  159.2514 H   0  0  0  0  0  0  0  0  0  0  0  0
  127.1644  132.8130  159.1781 H   0  0  0  0  0  0  0  0  0  0  0  0
  125.4009  134.4636  160.3737 H   0  0  0  0  0  0  0  0  0  0  0  0
  125.7146  136.6766  161.8350 H   0  0  0  0  0  0  0  0  0  0  0  0
  128.4748  137.6656  161.7293 H   0  0  0  0  0  0  0  0  0  0  0  0
  127.0712  138.5398  162.3881 H   0  0  0  0  0  0  0  0  0  0  0  0
  127.0481  137.0238  164.3504 H   0  0  0  0  0  0  0  0  0  0  0  0
  128.4518  136.1498  163.6915 H   0  0  0  0  0  0  0  0  0  0  0  0
  130.6488  137.1766  163.6529 H   0  0  0  0  0  0  0  0  0  0  0  0
  132.1592  138.8344  164.6690 H   0  0  0  0  0  0  0  0  0  0  0  0
  128.7947  140.9301  166.2476 H   0  0  0  0  0  0  0  0  0  0  0  0
  127.2851  139.2764  165.2233 H   0  0  0  0  0  0  0  0  0  0  0  0
  1  2  1  0
  1 30  1  0
  1 31  1  0
  1 32  1  0
  2  3  2  0
  2 33  1  0
  3  4  1  0
  3 34  1  0
  4  5  1  0
  4 35  1  0
  4 36  1  0
  5  6  1  0
  5  7  1  0
  5  8  1  0
  8  9  1  0
  8 37  1  0
  8 38  1  0
  9 14  1  0
  9 10  2  0
 10 11  1  0
 10 39  1  0
 11 12  1  0
 11 13  1  0
 13 14  2  0
 14 15  1  0
 15 29  1  0
 15 16  2  0
 16 17  1  0
 16 40  1  0
 17 18  2  0
 17 41  1  0
 18 19  1  0
 18 29  1  0
 19 20  1  0
 19 42  1  0
 20 21  1  0
 20 43  1  0
 20 44  1  0
 21 22  1  0
 21 45  1  0
 21 46  1  0
 22 28  1  0
 22 23  2  0
 23 24  1  0
 23 47  1  0
 24 25  2  0
 24 48  1  0
 25 26  1  0
 25 27  1  0
 27 28  2  0
 27 49  1  0
 28 50  1  0
M  CHG  1   5   1
M  END
>  <DOCK_score>  (1) 
-42.497128

>  <SMILES>  (1) 
C/C=C/C[NH2+]Cc1c[nH]nc1-c1ccc(NCCc2ccc(Br)cc2)o1

$$$$
