Cc1ccc(C[NH+]=C(NCC2CC=CC2)NC[C@H]2CCCO2)s1
     RDKit          3D

 51 53  0  0  1  0  0  0  0  0999 V2000
  136.1413  140.3463  159.6388 C   0  0  0  0  0  0  0  0  0  0  0  0
  134.7103  139.8745  159.6620 C   0  0  0  0  0  0  0  0  0  0  0  0
  133.9557  139.6541  158.5843 C   0  0  0  0  0  0  0  0  0  0  0  0
  132.6693  139.2188  158.8522 C   0  0  0  0  0  0  0  0  0  0  0  0
  132.3764  139.0941  160.1475 C   0  0  0  0  0  0  0  0  0  0  0  0
  131.0484  138.6422  160.6984 C   0  0  0  0  0  0  0  0  0  0  0  0
  130.5807  137.4739  159.9485 N   0  0  0  0  0  0  0  0  0  0  0  0
  131.1162  137.1175  159.2224 H   0  0  0  0  0  0  0  0  0  0  0  0
  129.4452  136.9133  160.2569 C   0  0  0  0  0  0  0  0  0  0  0  0
  129.0063  135.8169  159.5530 N   0  0  0  0  0  0  0  0  0  0  0  0
  129.8150  135.2787  158.4563 C   0  0  0  0  0  0  0  0  0  0  0  0
  129.1051  134.0689  157.8453 C   0  0  0  0  0  0  0  0  0  0  0  0
  129.0673  132.8841  158.8356 C   0  0  0  0  0  0  0  0  0  0  0  0
  129.2689  131.6569  157.9774 C   0  0  0  0  0  0  0  0  0  0  0  0
  129.7360  131.9773  156.8015 C   0  0  0  0  0  0  0  0  0  0  0  0
  129.9294  133.4712  156.6815 C   0  0  0  0  0  0  0  0  0  0  0  0
  128.6862  137.4184  161.2861 N   0  0  0  0  0  0  0  0  0  0  0  0
  127.4100  136.7882  161.6327 C   0  0  0  0  0  0  0  0  0  0  0  0
  126.7718  137.5390  162.8032 C   0  0  1  0  0  0  0  0  0  0  0  0
  125.7036  137.3253  162.8420 H   0  0  0  0  0  0  0  0  0  0  0  0
  127.4398  137.1136  164.1251 C   0  0  0  0  0  0  0  0  0  0  0  0
  127.9947  138.4343  164.7119 C   0  0  0  0  0  0  0  0  0  0  0  0
  127.1402  139.4996  163.9789 C   0  0  0  0  0  0  0  0  0  0  0  0
  126.9853  138.9523  162.6519 O   0  0  0  0  0  0  0  0  0  0  0  0
  133.7794  139.5309  161.1142 S   0  0  0  0  0  0  0  0  0  0  0  0
  136.5093  140.4409  160.6603 H   0  0  0  0  0  0  0  0  0  0  0  0
  136.7532  139.6246  159.0976 H   0  0  0  0  0  0  0  0  0  0  0  0
  136.1965  141.3148  159.1416 H   0  0  0  0  0  0  0  0  0  0  0  0
  134.3219  139.8005  157.5789 H   0  0  0  0  0  0  0  0  0  0  0  0
  131.9560  138.9990  158.0716 H   0  0  0  0  0  0  0  0  0  0  0  0
  130.3221  139.4494  160.6036 H   0  0  0  0  0  0  0  0  0  0  0  0
  131.1623  138.3775  161.7496 H   0  0  0  0  0  0  0  0  0  0  0  0
  128.1612  135.3997  159.7824 H   0  0  0  0  0  0  0  0  0  0  0  0
  130.7889  134.9736  158.8389 H   0  0  0  0  0  0  0  0  0  0  0  0
  129.9484  136.0454  157.6931 H   0  0  0  0  0  0  0  0  0  0  0  0
  128.0995  134.3324  157.5177 H   0  0  0  0  0  0  0  0  0  0  0  0
  128.1021  132.8402  159.3403 H   0  0  0  0  0  0  0  0  0  0  0  0
  129.8735  132.9749  159.5636 H   0  0  0  0  0  0  0  0  0  0  0  0
  129.0507  130.6475  158.2939 H   0  0  0  0  0  0  0  0  0  0  0  0
  129.9551  131.2680  156.0171 H   0  0  0  0  0  0  0  0  0  0  0  0
  130.9831  133.7277  156.7914 H   0  0  0  0  0  0  0  0  0  0  0  0
  129.5506  133.8274  155.7234 H   0  0  0  0  0  0  0  0  0  0  0  0
  128.9958  138.1919  161.7826 H   0  0  0  0  0  0  0  0  0  0  0  0
  126.7423  136.8221  160.7719 H   0  0  0  0  0  0  0  0  0  0  0  0
  127.5827  135.7503  161.9177 H   0  0  0  0  0  0  0  0  0  0  0  0
  126.7048  136.6752  164.8002 H   0  0  0  0  0  0  0  0  0  0  0  0
  128.2490  136.4089  163.9341 H   0  0  0  0  0  0  0  0  0  0  0  0
  127.8328  138.4797  165.7889 H   0  0  0  0  0  0  0  0  0  0  0  0
  129.0517  138.5521  164.4735 H   0  0  0  0  0  0  0  0  0  0  0  0
  126.1702  139.6131  164.4630 H   0  0  0  0  0  0  0  0  0  0  0  0
  127.6645  140.4547  163.9442 H   0  0  0  0  0  0  0  0  0  0  0  0
  1  2  1  0
  1 26  1  0
  1 27  1  0
  1 28  1  0
  2 25  1  0
  2  3  2  0
  3  4  1  0
  3 29  1  0
  4  5  2  0
  4 30  1  0
  5  6  1  0
  5 25  1  0
  6  7  1  0
  6 31  1  0
  6 32  1  0
  7  8  1  0
  9  7  2  0
  9 10  1  0
  9 17  1  0
 10 11  1  0
 10 33  1  0
 11 12  1  0
 11 34  1  0
 11 35  1  0
 12 16  1  0
 12 13  1  0
 12 36  1  0
 13 14  1  0
 13 37  1  0
 13 38  1  0
 14 15  2  0
 14 39  1  0
 15 16  1  0
 15 40  1  0
 16 41  1  0
 16 42  1  0
 17 18  1  0
 17 43  1  0
 18 19  1  0
 18 44  1  0
 18 45  1  0
 19 20  1  1
 19 24  1  0
 19 21  1  0
 21 22  1  0
 21 46  1  0
 21 47  1  0
 22 23  1  0
 22 48  1  0
 22 49  1  0
 23 24  1  0
 23 50  1  0
 23 51  1  0
M  CHG  1   7   1
M  END
>  <DOCK_score>  (1) 
-42.083397

>  <SMILES>  (1) 
Cc1ccc(C[NH+]=C(NCC2CC=CC2)NC[C@H]2CCCO2)s1

$$$$
