CCc1ccc(-c2c[nH]c(N[C@@H](CC[C@H]3CC=CC[C@H]3CBr)c3ccc(F)cc3)[nH+]2)cc1
     RDKit          3D

 64 67  0  0  1  0  0  0  0  0999 V2000
  130.6409  128.2499  151.9907 C   0  0  0  0  0  0  0  0  0  0  0  0
  131.6844  129.3245  152.2990 C   0  0  0  0  0  0  0  0  0  0  0  0
  131.2650  130.0957  153.5239 C   0  0  0  0  0  0  0  0  0  0  0  0
  131.6693  129.6720  154.7767 C   0  0  0  0  0  0  0  0  0  0  0  0
  131.2881  130.3742  155.9020 C   0  0  0  0  0  0  0  0  0  0  0  0
  130.4943  131.5127  155.7740 C   0  0  0  0  0  0  0  0  0  0  0  0
  130.0814  132.2717  156.9797 C   0  0  0  0  0  0  0  0  0  0  0  0
  129.3465  131.7905  158.0127 C   0  0  0  0  0  0  0  0  0  0  0  0
  129.1965  132.8206  158.9091 N   0  0  0  0  0  0  0  0  0  0  0  0
  128.7170  132.7839  159.7515 H   0  0  0  0  0  0  0  0  0  0  0  0
  129.8447  133.9021  158.3971 C   0  0  0  0  0  0  0  0  0  0  0  0
  129.9325  135.1475  158.9954 N   0  0  0  0  0  0  0  0  0  0  0  0
  128.8529  135.6197  159.8657 C   0  0  1  0  0  0  0  0  0  0  0  0
  128.7348  134.9327  160.7037 H   0  0  0  0  0  0  0  0  0  0  0  0
  129.1964  137.0139  160.3938 C   0  0  0  0  0  0  0  0  0  0  0  0
  130.1746  136.8894  161.5637 C   0  0  0  0  0  0  0  0  0  0  0  0
  130.5182  138.2837  162.0919 C   0  0  1  0  0  0  0  0  0  0  0  0
  130.9769  138.8761  161.3002 H   0  0  0  0  0  0  0  0  0  0  0  0
  129.2445  138.9768  162.5806 C   0  0  0  0  0  0  0  0  0  0  0  0
  129.5932  140.2245  163.3380 C   0  0  0  0  0  0  0  0  0  0  0  0
  130.7698  140.4795  163.8133 C   0  0  0  0  0  0  0  0  0  0  0  0
  131.9523  139.5676  163.6647 C   0  0  0  0  0  0  0  0  0  0  0  0
  131.4887  138.1627  163.2735 C   0  0  1  0  0  0  0  0  0  0  0  0
  132.3475  137.5579  162.9820 H   0  0  0  0  0  0  0  0  0  0  0  0
  130.7769  137.5074  164.4587 C   0  0  0  0  0  0  0  0  0  0  0  0
  132.1124  136.7760  165.7023 Br  0  0  0  0  0  0  0  0  0  0  0  0
  127.5670  135.6821  159.0823 C   0  0  0  0  0  0  0  0  0  0  0  0
  126.3582  135.4791  159.7217 C   0  0  0  0  0  0  0  0  0  0  0  0
  125.1781  135.5407  159.0051 C   0  0  0  0  0  0  0  0  0  0  0  0
  125.2073  135.7956  157.6445 C   0  0  0  0  0  0  0  0  0  0  0  0
  124.0546  135.8515  156.9422 F   0  0  0  0  0  0  0  0  0  0  0  0
  126.4190  135.9934  157.0043 C   0  0  0  0  0  0  0  0  0  0  0  0
  127.5975  135.9365  157.7238 C   0  0  0  0  0  0  0  0  0  0  0  0
  130.3675  133.5719  157.2414 N   0  0  0  0  0  0  0  0  0  0  0  0
  130.8793  134.1620  156.6664 H   0  0  0  0  0  0  0  0  0  0  0  0
  130.0851  131.9319  154.5093 C   0  0  0  0  0  0  0  0  0  0  0  0
  130.4775  131.2255  153.3906 C   0  0  0  0  0  0  0  0  0  0  0  0
  129.6754  128.7221  151.8097 H   0  0  0  0  0  0  0  0  0  0  0  0
  130.9444  127.6921  151.1047 H   0  0  0  0  0  0  0  0  0  0  0  0
  130.5594  127.5693  152.8381 H   0  0  0  0  0  0  0  0  0  0  0  0
  131.7664  130.0058  151.4512 H   0  0  0  0  0  0  0  0  0  0  0  0
  132.6503  128.8529  152.4796 H   0  0  0  0  0  0  0  0  0  0  0  0
  132.2843  128.7896  154.8747 H   0  0  0  0  0  0  0  0  0  0  0  0
  131.6039  130.0421  156.8799 H   0  0  0  0  0  0  0  0  0  0  0  0
  128.9547  130.7890  158.1121 H   0  0  0  0  0  0  0  0  0  0  0  0
  130.7090  135.7074  158.8384 H   0  0  0  0  0  0  0  0  0  0  0  0
  128.2861  137.5086  160.7326 H   0  0  0  0  0  0  0  0  0  0  0  0
  129.6545  137.6012  159.5980 H   0  0  0  0  0  0  0  0  0  0  0  0
  131.0850  136.3947  161.2249 H   0  0  0  0  0  0  0  0  0  0  0  0
  129.7166  136.3021  162.3594 H   0  0  0  0  0  0  0  0  0  0  0  0
  128.6227  139.2361  161.7237 H   0  0  0  0  0  0  0  0  0  0  0  0
  128.6927  138.3002  163.2333 H   0  0  0  0  0  0  0  0  0  0  0  0
  128.8139  140.9554  163.4959 H   0  0  0  0  0  0  0  0  0  0  0  0
  130.9090  141.4060  164.3506 H   0  0  0  0  0  0  0  0  0  0  0  0
  132.4926  139.5195  164.6103 H   0  0  0  0  0  0  0  0  0  0  0  0
  132.6147  139.9578  162.8920 H   0  0  0  0  0  0  0  0  0  0  0  0
  130.1368  136.7021  164.0981 H   0  0  0  0  0  0  0  0  0  0  0  0
  130.1694  138.2512  164.9742 H   0  0  0  0  0  0  0  0  0  0  0  0
  126.3358  135.2763  160.7822 H   0  0  0  0  0  0  0  0  0  0  0  0
  124.2336  135.3863  159.5056 H   0  0  0  0  0  0  0  0  0  0  0  0
  126.4431  136.1919  155.9429 H   0  0  0  0  0  0  0  0  0  0  0  0
  128.5427  136.0912  157.2247 H   0  0  0  0  0  0  0  0  0  0  0  0
  129.4660  132.8106  154.4047 H   0  0  0  0  0  0  0  0  0  0  0  0
  130.1651  131.5522  152.4098 H   0  0  0  0  0  0  0  0  0  0  0  0
  1  2  1  0
  1 38  1  0
  1 39  1  0
  1 40  1  0
  2  3  1  0
  2 41  1  0
  2 42  1  0
  3 37  2  0
  3  4  1  0
  4  5  2  0
  4 43  1  0
  5  6  1  0
  5 44  1  0
  6  7  1  0
  6 36  2  0
  7 34  1  0
  7  8  2  0
  8  9  1  0
  8 45  1  0
  9 10  1  0
  9 11  1  0
 11 12  1  0
 11 34  2  0
 12 13  1  0
 12 46  1  0
 13 14  1  1
 13 15  1  0
 13 27  1  0
 15 16  1  0
 15 47  1  0
 15 48  1  0
 16 17  1  0
 16 49  1  0
 16 50  1  0
 17 18  1  6
 17 23  1  0
 17 19  1  0
 19 20  1  0
 19 51  1  0
 19 52  1  0
 20 21  2  0
 20 53  1  0
 21 22  1  0
 21 54  1  0
 22 23  1  0
 22 55  1  0
 22 56  1  0
 23 24  1  6
 23 25  1  0
 25 26  1  0
 25 57  1  0
 25 58  1  0
 27 33  1  0
 27 28  2  0
 28 29  1  0
 28 59  1  0
 29 30  2  0
 29 60  1  0
 30 31  1  0
 30 32  1  0
 32 33  2  0
 32 61  1  0
 33 62  1  0
 34 35  1  0
 36 37  1  0
 36 63  1  0
 37 64  1  0
M  CHG  1  34   1
M  END
>  <DOCK_score>  (1) 
-61.479637

>  <SMILES>  (1) 
CCc1ccc(-c2c[nH]c(N[C@@H](CC[C@H]3CC=CC[C@H]3CBr)c3ccc(F)cc3)[nH+]2)cc1

$$$$
