O=C1CC[C@H](NC(NC2CC2)=[NH+][C@H]2COc3cc(NC4C[C@H]5CC[C@H]5C4)ccc3C2)CN1
     RDKit          3D

 68 73  0  0  1  0  0  0  0  0999 V2000
  124.5967  134.5028  163.2445 O   0  0  0  0  0  0  0  0  0  0  0  0
  125.7157  134.8046  162.8872 C   0  0  0  0  0  0  0  0  0  0  0  0
  126.8798  134.2800  163.6776 C   0  0  0  0  0  0  0  0  0  0  0  0
  128.1356  135.0952  163.3585 C   0  0  0  0  0  0  0  0  0  0  0  0
  128.2705  135.2011  161.8346 C   0  0  2  0  0  0  0  0  0  0  0  0
  128.2206  134.2057  161.3931 H   0  0  0  0  0  0  0  0  0  0  0  0
  129.5522  135.8248  161.4968 N   0  0  0  0  0  0  0  0  0  0  0  0
  130.1860  135.5001  160.3208 C   0  0  0  0  0  0  0  0  0  0  0  0
  129.6169  134.5900  159.4618 N   0  0  0  0  0  0  0  0  0  0  0  0
  129.8544  134.6957  158.0201 C   0  0  0  0  0  0  0  0  0  0  0  0
  129.0060  135.6989  157.2360 C   0  0  0  0  0  0  0  0  0  0  0  0
  128.7513  134.1978  157.0840 C   0  0  0  0  0  0  0  0  0  0  0  0
  131.3264  136.0551  160.0203 N   0  0  0  0  0  0  0  0  0  0  0  0
  131.5675  136.1958  159.0913 H   0  0  0  0  0  0  0  0  0  0  0  0
  132.2442  136.4662  161.0855 C   0  0  1  0  0  0  0  0  0  0  0  0
  131.7575  137.2013  161.7264 H   0  0  0  0  0  0  0  0  0  0  0  0
  132.6513  135.2436  161.9180 C   0  0  0  0  0  0  0  0  0  0  0  0
  133.4601  135.6913  163.0078 O   0  0  0  0  0  0  0  0  0  0  0  0
  134.4921  136.5302  162.7305 C   0  0  0  0  0  0  0  0  0  0  0  0
  135.4898  136.6901  163.6852 C   0  0  0  0  0  0  0  0  0  0  0  0
  136.5547  137.5442  163.4436 C   0  0  0  0  0  0  0  0  0  0  0  0
  137.5563  137.7041  164.4038 N   0  0  0  0  0  0  0  0  0  0  0  0
  137.8879  136.5996  165.3072 C   0  0  1  0  0  0  0  0  0  0  0  0
  139.3546  136.7087  165.7496 C   0  0  0  0  0  0  0  0  0  0  0  0
  139.3705  136.3989  167.2586 C   0  0  1  0  0  0  0  0  0  0  0  0
  139.7015  135.3940  167.5206 H   0  0  0  0  0  0  0  0  0  0  0  0
  139.9332  137.5599  168.0981 C   0  0  0  0  0  0  0  0  0  0  0  0
  138.5589  138.2335  167.9482 C   0  0  0  0  0  0  0  0  0  0  0  0
  137.9752  136.8250  167.7690 C   0  0  1  0  0  0  0  0  0  0  0  0
  137.6361  136.3402  168.6844 H   0  0  0  0  0  0  0  0  0  0  0  0
  137.0244  136.6834  166.5737 C   0  0  0  0  0  0  0  0  0  0  0  0
  136.6229  138.2404  162.2427 C   0  0  0  0  0  0  0  0  0  0  0  0
  135.6325  138.0778  161.2962 C   0  0  0  0  0  0  0  0  0  0  0  0
  134.5672  137.2240  161.5347 C   0  0  0  0  0  0  0  0  0  0  0  0
  133.5083  137.0732  160.4718 C   0  0  0  0  0  0  0  0  0  0  0  0
  127.1245  136.0611  161.3002 C   0  0  0  0  0  0  0  0  0  0  0  0
  125.8464  135.5839  161.8130 N   0  0  0  0  0  0  0  0  0  0  0  0
  127.0513  133.2350  163.4195 H   0  0  0  0  0  0  0  0  0  0  0  0
  126.6588  134.3572  164.7422 H   0  0  0  0  0  0  0  0  0  0  0  0
  129.0121  134.5954  163.7707 H   0  0  0  0  0  0  0  0  0  0  0  0
  128.0448  136.0924  163.7890 H   0  0  0  0  0  0  0  0  0  0  0  0
  129.9537  136.4670  162.1029 H   0  0  0  0  0  0  0  0  0  0  0  0
  129.0580  133.8779  159.8104 H   0  0  0  0  0  0  0  0  0  0  0  0
  130.8871  134.5524  157.7020 H   0  0  0  0  0  0  0  0  0  0  0  0
  128.2710  136.2801  157.7929 H   0  0  0  0  0  0  0  0  0  0  0  0
  129.4804  136.2158  156.4019 H   0  0  0  0  0  0  0  0  0  0  0  0
  129.0583  133.7274  156.1499 H   0  0  0  0  0  0  0  0  0  0  0  0
  127.8489  133.7917  157.5409 H   0  0  0  0  0  0  0  0  0  0  0  0
  131.7597  134.7468  162.3009 H   0  0  0  0  0  0  0  0  0  0  0  0
  133.2207  134.5507  161.2985 H   0  0  0  0  0  0  0  0  0  0  0  0
  135.4348  136.1482  164.6179 H   0  0  0  0  0  0  0  0  0  0  0  0
  138.0322  138.5464  164.4725 H   0  0  0  0  0  0  0  0  0  0  0  0
  137.7219  135.6468  164.8046 H   0  0  0  0  0  0  0  0  0  0  0  0
  139.9636  135.9824  165.2113 H   0  0  0  0  0  0  0  0  0  0  0  0
  139.7268  137.7170  165.5689 H   0  0  0  0  0  0  0  0  0  0  0  0
  140.1727  137.2805  169.1242 H   0  0  0  0  0  0  0  0  0  0  0  0
  140.7409  138.1024  167.6068 H   0  0  0  0  0  0  0  0  0  0  0  0
  138.4734  138.8580  167.0591 H   0  0  0  0  0  0  0  0  0  0  0  0
  138.2177  138.7354  168.8536 H   0  0  0  0  0  0  0  0  0  0  0  0
  136.3682  137.5521  166.5177 H   0  0  0  0  0  0  0  0  0  0  0  0
  136.4311  135.7750  166.6782 H   0  0  0  0  0  0  0  0  0  0  0  0
  137.4503  138.9074  162.0505 H   0  0  0  0  0  0  0  0  0  0  0  0
  135.6877  138.6191  160.3633 H   0  0  0  0  0  0  0  0  0  0  0  0
  133.8778  136.4194  159.6819 H   0  0  0  0  0  0  0  0  0  0  0  0
  133.2738  138.0513  160.0521 H   0  0  0  0  0  0  0  0  0  0  0  0
  127.2745  137.0947  161.6117 H   0  0  0  0  0  0  0  0  0  0  0  0
  127.1162  136.0137  160.2113 H   0  0  0  0  0  0  0  0  0  0  0  0
  125.0404  135.8500  161.3435 H   0  0  0  0  0  0  0  0  0  0  0  0
  1  2  2  0
  2 37  1  0
  2  3  1  0
  3  4  1  0
  3 38  1  0
  3 39  1  0
  4  5  1  0
  4 40  1  0
  4 41  1  0
  5  6  1  6
  5  7  1  0
  5 36  1  0
  7 42  1  0
  8  7  1  0
  8  9  1  0
  8 13  2  0
  9 10  1  0
  9 43  1  0
 10 12  1  0
 10 11  1  0
 10 44  1  0
 11 12  1  0
 11 45  1  0
 11 46  1  0
 12 47  1  0
 12 48  1  0
 13 14  1  0
 13 15  1  0
 15 16  1  1
 15 35  1  0
 15 17  1  0
 17 18  1  0
 17 49  1  0
 17 50  1  0
 18 19  1  0
 19 34  2  0
 19 20  1  0
 20 21  2  0
 20 51  1  0
 21 22  1  0
 21 32  1  0
 22 23  1  0
 22 52  1  0
 23 31  1  0
 23 24  1  0
 23 53  1  6
 24 25  1  0
 24 54  1  0
 24 55  1  0
 25 26  1  6
 25 29  1  0
 25 27  1  0
 27 28  1  0
 27 56  1  0
 27 57  1  0
 28 29  1  0
 28 58  1  0
 28 59  1  0
 29 30  1  1
 29 31  1  0
 31 60  1  0
 31 61  1  0
 32 33  2  0
 32 62  1  0
 33 34  1  0
 33 63  1  0
 34 35  1  0
 35 64  1  0
 35 65  1  0
 36 37  1  0
 36 66  1  0
 36 67  1  0
 37 68  1  0
M  CHG  1  13   1
M  END
>  <DOCK_score>  (1) 
-50.399384

>  <SMILES>  (1) 
O=C1CC[C@H](NC(NC2CC2)=[NH+][C@H]2COc3cc(NC4C[C@H]5CC[C@H]5C4)ccc3C2)CN1

$$$$
