CC[C@@H](Cc1ccc(C2=CCCC=CCC2)cc1)Nc1[nH]cc(-c2cccc(O)c2)[nH+]1
     RDKit          3D

 63 66  0  0  1  0  0  0  0  0999 V2000
  132.9597  136.3341  162.1250 C   0  0  0  0  0  0  0  0  0  0  0  0
  132.2093  137.5929  161.6853 C   0  0  0  0  0  0  0  0  0  0  0  0
  130.8964  137.1940  161.0088 C   0  0  1  0  0  0  0  0  0  0  0  0
  130.2817  136.6315  161.7116 H   0  0  0  0  0  0  0  0  0  0  0  0
  130.1460  138.4528  160.5690 C   0  0  0  0  0  0  0  0  0  0  0  0
  129.4303  139.0504  161.7530 C   0  0  0  0  0  0  0  0  0  0  0  0
  130.0708  139.9875  162.5439 C   0  0  0  0  0  0  0  0  0  0  0  0
  129.4190  140.5424  163.6261 C   0  0  0  0  0  0  0  0  0  0  0  0
  128.1150  140.1486  163.9282 C   0  0  0  0  0  0  0  0  0  0  0  0
  127.4108  140.7368  165.0919 C   0  0  0  0  0  0  0  0  0  0  0  0
  127.2174  142.0557  165.0925 C   0  0  0  0  0  0  0  0  0  0  0  0
  126.5243  142.7174  166.2428 C   0  0  0  0  0  0  0  0  0  0  0  0
  127.4460  143.0550  167.3913 C   0  0  0  0  0  0  0  0  0  0  0  0
  128.7174  142.2845  167.3944 C   0  0  0  0  0  0  0  0  0  0  0  0
  128.7104  140.9766  167.4493 C   0  0  0  0  0  0  0  0  0  0  0  0
  127.4146  140.2214  167.5556 C   0  0  0  0  0  0  0  0  0  0  0  0
  126.9584  139.8150  166.1644 C   0  0  0  0  0  0  0  0  0  0  0  0
  127.4767  139.1988  163.1297 C   0  0  0  0  0  0  0  0  0  0  0  0
  128.1376  138.6553  162.0475 C   0  0  0  0  0  0  0  0  0  0  0  0
  131.1836  136.3625  159.8372 N   0  0  0  0  0  0  0  0  0  0  0  0
  130.2751  135.3994  159.4327 C   0  0  0  0  0  0  0  0  0  0  0  0
  130.4246  134.5667  158.3667 N   0  0  0  0  0  0  0  0  0  0  0  0
  131.1799  134.5418  157.7586 H   0  0  0  0  0  0  0  0  0  0  0  0
  129.3084  133.7680  158.3106 C   0  0  0  0  0  0  0  0  0  0  0  0
  128.5094  134.1353  159.3429 C   0  0  0  0  0  0  0  0  0  0  0  0
  127.1912  133.5443  159.6796 C   0  0  0  0  0  0  0  0  0  0  0  0
  126.9255  132.2096  159.3766 C   0  0  0  0  0  0  0  0  0  0  0  0
  125.6998  131.6608  159.6948 C   0  0  0  0  0  0  0  0  0  0  0  0
  124.7294  132.4338  160.3052 C   0  0  0  0  0  0  0  0  0  0  0  0
  124.9840  133.7649  160.6055 C   0  0  0  0  0  0  0  0  0  0  0  0
  124.0270  134.5212  161.2047 O   0  0  0  0  0  0  0  0  0  0  0  0
  126.2132  134.3226  160.2940 C   0  0  0  0  0  0  0  0  0  0  0  0
  129.1293  135.1386  160.0136 N   0  0  0  0  0  0  0  0  0  0  0  0
  128.7822  135.5883  160.7997 H   0  0  0  0  0  0  0  0  0  0  0  0
  132.3450  135.7718  162.8278 H   0  0  0  0  0  0  0  0  0  0  0  0
  133.1733  135.7155  161.2534 H   0  0  0  0  0  0  0  0  0  0  0  0
  133.8950  136.6184  162.6070 H   0  0  0  0  0  0  0  0  0  0  0  0
  132.8239  138.1554  160.9825 H   0  0  0  0  0  0  0  0  0  0  0  0
  131.9956  138.2117  162.5569 H   0  0  0  0  0  0  0  0  0  0  0  0
  130.8554  139.1777  160.1696 H   0  0  0  0  0  0  0  0  0  0  0  0
  129.4199  138.1925  159.7990 H   0  0  0  0  0  0  0  0  0  0  0  0
  131.0817  140.2881  162.3114 H   0  0  0  0  0  0  0  0  0  0  0  0
  129.9184  141.2773  164.2399 H   0  0  0  0  0  0  0  0  0  0  0  0
  127.5626  142.6511  164.2570 H   0  0  0  0  0  0  0  0  0  0  0  0
  125.7388  142.0587  166.6075 H   0  0  0  0  0  0  0  0  0  0  0  0
  126.0659  143.6402  165.8871 H   0  0  0  0  0  0  0  0  0  0  0  0
  126.9209  142.8659  168.3253 H   0  0  0  0  0  0  0  0  0  0  0  0
  127.6868  144.1164  167.3366 H   0  0  0  0  0  0  0  0  0  0  0  0
  129.6585  142.8107  167.3351 H   0  0  0  0  0  0  0  0  0  0  0  0
  129.6465  140.4362  167.4187 H   0  0  0  0  0  0  0  0  0  0  0  0
  126.6560  140.8454  168.0285 H   0  0  0  0  0  0  0  0  0  0  0  0
  127.5657  139.3262  168.1656 H   0  0  0  0  0  0  0  0  0  0  0  0
  125.8667  139.7699  166.1509 H   0  0  0  0  0  0  0  0  0  0  0  0
  127.3407  138.8138  165.9488 H   0  0  0  0  0  0  0  0  0  0  0  0
  126.4672  138.8902  163.3582 H   0  0  0  0  0  0  0  0  0  0  0  0
  127.6446  137.9202  161.4287 H   0  0  0  0  0  0  0  0  0  0  0  0
  132.0102  136.4866  159.3452 H   0  0  0  0  0  0  0  0  0  0  0  0
  129.1058  132.9955  157.5835 H   0  0  0  0  0  0  0  0  0  0  0  0
  127.6799  131.6042  158.8961 H   0  0  0  0  0  0  0  0  0  0  0  0
  125.4965  130.6258  159.4626 H   0  0  0  0  0  0  0  0  0  0  0  0
  123.7706  132.0008  160.5488 H   0  0  0  0  0  0  0  0  0  0  0  0
  124.2961  135.4344  161.3740 H   0  0  0  0  0  0  0  0  0  0  0  0
  126.4126  135.3582  160.5268 H   0  0  0  0  0  0  0  0  0  0  0  0
  1  2  1  0
  1 35  1  0
  1 36  1  0
  1 37  1  0
  2  3  1  0
  2 38  1  0
  2 39  1  0
  3  4  1  1
  3  5  1  0
  3 20  1  0
  5  6  1  0
  5 40  1  0
  5 41  1  0
  6 19  1  0
  6  7  2  0
  7  8  1  0
  7 42  1  0
  8  9  2  0
  8 43  1  0
  9 10  1  0
  9 18  1  0
 10 17  1  0
 10 11  2  0
 11 12  1  0
 11 44  1  0
 12 13  1  0
 12 45  1  0
 12 46  1  0
 13 14  1  0
 13 47  1  0
 13 48  1  0
 14 15  2  0
 14 49  1  0
 15 16  1  0
 15 50  1  0
 16 17  1  0
 16 51  1  0
 16 52  1  0
 17 53  1  0
 17 54  1  0
 18 19  2  0
 18 55  1  0
 19 56  1  0
 20 57  1  0
 21 20  1  0
 21 33  2  0
 21 22  1  0
 22 23  1  0
 22 24  1  0
 24 25  2  0
 24 58  1  0
 25 26  1  0
 25 33  1  0
 26 32  1  0
 26 27  2  0
 27 28  1  0
 27 59  1  0
 28 29  2  0
 28 60  1  0
 29 30  1  0
 29 61  1  0
 30 31  1  0
 30 32  2  0
 31 62  1  0
 32 63  1  0
 33 34  1  0
M  CHG  1  33   1
M  END
>  <DOCK_score>  (1) 
-47.379677

>  <SMILES>  (1) 
CC[C@@H](Cc1ccc(C2=CCCC=CCC2)cc1)Nc1[nH]cc(-c2cccc(O)c2)[nH+]1

$$$$
