CCc1ccc(-c2c[nH]c(N[C@@H](Cc3ccc(-c4ccc(C)cc4)cc3)C3CCC3)[nH+]2)cc1
     RDKit          3D

 67 71  0  0  1  0  0  0  0  0999 V2000
  129.7784  129.2184  150.8405 C   0  0  0  0  0  0  0  0  0  0  0  0
  131.1172  129.6931  151.4089 C   0  0  0  0  0  0  0  0  0  0  0  0
  130.8884  130.3672  152.7371 C   0  0  0  0  0  0  0  0  0  0  0  0
  130.9202  129.6224  153.9024 C   0  0  0  0  0  0  0  0  0  0  0  0
  130.7170  130.2354  155.1220 C   0  0  0  0  0  0  0  0  0  0  0  0
  130.4681  131.6057  155.1773 C   0  0  0  0  0  0  0  0  0  0  0  0
  130.2434  132.2694  156.4847 C   0  0  0  0  0  0  0  0  0  0  0  0
  129.7027  131.6962  157.5882 C   0  0  0  0  0  0  0  0  0  0  0  0
  129.6790  132.6597  158.5671 N   0  0  0  0  0  0  0  0  0  0  0  0
  129.3473  132.5513  159.4721 H   0  0  0  0  0  0  0  0  0  0  0  0
  130.2066  133.7946  158.0325 C   0  0  0  0  0  0  0  0  0  0  0  0
  130.3625  135.0007  158.6941 N   0  0  0  0  0  0  0  0  0  0  0  0
  129.4317  135.3766  159.7609 C   0  0  1  0  0  0  0  0  0  0  0  0
  129.4714  134.6327  160.5567 H   0  0  0  0  0  0  0  0  0  0  0  0
  129.8242  136.7449  160.3218 C   0  0  0  0  0  0  0  0  0  0  0  0
  130.9688  136.5819  161.2886 C   0  0  0  0  0  0  0  0  0  0  0  0
  132.2723  136.6521  160.8313 C   0  0  0  0  0  0  0  0  0  0  0  0
  133.3244  136.5092  161.7133 C   0  0  0  0  0  0  0  0  0  0  0  0
  133.0712  136.2825  163.0646 C   0  0  0  0  0  0  0  0  0  0  0  0
  134.1982  136.1225  164.0166 C   0  0  0  0  0  0  0  0  0  0  0  0
  134.0522  136.5156  165.3454 C   0  0  0  0  0  0  0  0  0  0  0  0
  135.1018  136.3592  166.2278 C   0  0  0  0  0  0  0  0  0  0  0  0
  136.3005  135.8242  165.7930 C   0  0  0  0  0  0  0  0  0  0  0  0
  137.4449  135.6621  166.7601 C   0  0  0  0  0  0  0  0  0  0  0  0
  136.4530  135.4371  164.4735 C   0  0  0  0  0  0  0  0  0  0  0  0
  135.4081  135.5838  163.5837 C   0  0  0  0  0  0  0  0  0  0  0  0
  131.7561  136.2071  163.5187 C   0  0  0  0  0  0  0  0  0  0  0  0
  130.7117  136.3571  162.6290 C   0  0  0  0  0  0  0  0  0  0  0  0
  128.0108  135.4451  159.1975 C   0  0  0  0  0  0  0  0  0  0  0  0
  126.9439  135.7741  160.2549 C   0  0  0  0  0  0  0  0  0  0  0  0
  126.0448  134.7411  159.5553 C   0  0  0  0  0  0  0  0  0  0  0  0
  127.3363  134.0701  159.0585 C   0  0  0  0  0  0  0  0  0  0  0  0
  130.5482  133.5559  156.7899 N   0  0  0  0  0  0  0  0  0  0  0  0
  130.9519  134.1971  156.1843 H   0  0  0  0  0  0  0  0  0  0  0  0
  130.4316  132.3502  153.9996 C   0  0  0  0  0  0  0  0  0  0  0  0
  130.6419  131.7275  152.7860 C   0  0  0  0  0  0  0  0  0  0  0  0
  129.1175  130.0746  150.7044 H   0  0  0  0  0  0  0  0  0  0  0  0
  129.9438  128.7310  149.8798 H   0  0  0  0  0  0  0  0  0  0  0  0
  129.3199  128.5119  151.5324 H   0  0  0  0  0  0  0  0  0  0  0  0
  131.7780  128.8371  151.5450 H   0  0  0  0  0  0  0  0  0  0  0  0
  131.5757  130.3996  150.7171 H   0  0  0  0  0  0  0  0  0  0  0  0
  131.1084  128.5599  153.8580 H   0  0  0  0  0  0  0  0  0  0  0  0
  130.7468  129.6539  156.0316 H   0  0  0  0  0  0  0  0  0  0  0  0
  129.3564  130.6773  157.6799 H   0  0  0  0  0  0  0  0  0  0  0  0
  131.0881  135.5969  158.4512 H   0  0  0  0  0  0  0  0  0  0  0  0
  130.1293  137.3986  159.5046 H   0  0  0  0  0  0  0  0  0  0  0  0
  128.9712  137.1840  160.8393 H   0  0  0  0  0  0  0  0  0  0  0  0
  132.4674  136.8234  159.7830 H   0  0  0  0  0  0  0  0  0  0  0  0
  134.3417  136.5686  161.3559 H   0  0  0  0  0  0  0  0  0  0  0  0
  133.1182  136.9383  165.6850 H   0  0  0  0  0  0  0  0  0  0  0  0
  134.9883  136.6596  167.2590 H   0  0  0  0  0  0  0  0  0  0  0  0
  138.0558  136.5653  166.7545 H   0  0  0  0  0  0  0  0  0  0  0  0
  137.0530  135.4943  167.7623 H   0  0  0  0  0  0  0  0  0  0  0  0
  138.0555  134.8098  166.4605 H   0  0  0  0  0  0  0  0  0  0  0  0
  137.3912  135.0196  164.1390 H   0  0  0  0  0  0  0  0  0  0  0  0
  135.5280  135.2811  162.5539 H   0  0  0  0  0  0  0  0  0  0  0  0
  131.5544  136.0312  164.5651 H   0  0  0  0  0  0  0  0  0  0  0  0
  129.6921  136.2992  162.9800 H   0  0  0  0  0  0  0  0  0  0  0  0
  127.9409  136.0585  158.2991 H   0  0  0  0  0  0  0  0  0  0  0  0
  127.2302  135.4893  161.2674 H   0  0  0  0  0  0  0  0  0  0  0  0
  126.5668  136.7949  160.1918 H   0  0  0  0  0  0  0  0  0  0  0  0
  125.4362  135.1625  158.7554 H   0  0  0  0  0  0  0  0  0  0  0  0
  125.4691  134.1233  160.2447 H   0  0  0  0  0  0  0  0  0  0  0  0
  127.2760  133.7152  158.0297 H   0  0  0  0  0  0  0  0  0  0  0  0
  127.7310  133.3191  159.7429 H   0  0  0  0  0  0  0  0  0  0  0  0
  130.2388  133.4122  154.0365 H   0  0  0  0  0  0  0  0  0  0  0  0
  130.6135  132.3033  151.8727 H   0  0  0  0  0  0  0  0  0  0  0  0
  1  2  1  0
  1 37  1  0
  1 38  1  0
  1 39  1  0
  2  3  1  0
  2 40  1  0
  2 41  1  0
  3 36  2  0
  3  4  1  0
  4  5  2  0
  4 42  1  0
  5  6  1  0
  5 43  1  0
  6  7  1  0
  6 35  2  0
  7 33  1  0
  7  8  2  0
  8  9  1  0
  8 44  1  0
  9 10  1  0
  9 11  1  0
 11 12  1  0
 11 33  2  0
 12 13  1  0
 12 45  1  0
 13 14  1  1
 13 15  1  0
 13 29  1  0
 15 16  1  0
 15 46  1  0
 15 47  1  0
 16 28  1  0
 16 17  2  0
 17 18  1  0
 17 48  1  0
 18 19  2  0
 18 49  1  0
 19 20  1  0
 19 27  1  0
 20 26  1  0
 20 21  2  0
 21 22  1  0
 21 50  1  0
 22 23  2  0
 22 51  1  0
 23 24  1  0
 23 25  1  0
 24 52  1  0
 24 53  1  0
 24 54  1  0
 25 26  2  0
 25 55  1  0
 26 56  1  0
 27 28  2  0
 27 57  1  0
 28 58  1  0
 29 32  1  0
 29 30  1  0
 29 59  1  0
 30 31  1  0
 30 60  1  0
 30 61  1  0
 31 32  1  0
 31 62  1  0
 31 63  1  0
 32 64  1  0
 32 65  1  0
 33 34  1  0
 35 36  1  0
 35 66  1  0
 36 67  1  0
M  CHG  1  33   1
M  END
>  <DOCK_score>  (1) 
-61.36771

>  <SMILES>  (1) 
CCc1ccc(-c2c[nH]c(N[C@@H](Cc3ccc(-c4ccc(C)cc4)cc3)C3CCC3)[nH+]2)cc1

$$$$
