CCc1ccccc1CSc1ccc(C2=CC[N@H+](Cc3ccc(-c4ccccc4)[nH]3)CC2)cc1
     RDKit          3D

 67 71  0  0  1  0  0  0  0  0999 V2000
  133.7208  141.9231  167.3788 C   0  0  0  0  0  0  0  0  0  0  0  0
  134.9768  141.0666  167.2067 C   0  0  0  0  0  0  0  0  0  0  0  0
  136.0569  141.8851  166.5476 C   0  0  0  0  0  0  0  0  0  0  0  0
  136.9436  142.6106  167.3215 C   0  0  0  0  0  0  0  0  0  0  0  0
  137.9318  143.3647  166.7168 C   0  0  0  0  0  0  0  0  0  0  0  0
  138.0349  143.3914  165.3385 C   0  0  0  0  0  0  0  0  0  0  0  0
  137.1511  142.6626  164.5650 C   0  0  0  0  0  0  0  0  0  0  0  0
  136.1638  141.9071  165.1698 C   0  0  0  0  0  0  0  0  0  0  0  0
  135.2002  141.1124  164.3265 C   0  0  0  0  0  0  0  0  0  0  0  0
  135.8696  139.4489  164.0484 S   0  0  0  0  0  0  0  0  0  0  0  0
  134.6273  138.6829  163.0612 C   0  0  0  0  0  0  0  0  0  0  0  0
  134.7900  137.3669  162.6396 C   0  0  0  0  0  0  0  0  0  0  0  0
  133.8201  136.7644  161.8688 C   0  0  0  0  0  0  0  0  0  0  0  0
  132.6729  137.4754  161.5110 C   0  0  0  0  0  0  0  0  0  0  0  0
  131.6311  136.8321  160.6844 C   0  0  0  0  0  0  0  0  0  0  0  0
  130.9076  137.5809  159.8794 C   0  0  0  0  0  0  0  0  0  0  0  0
  129.8217  137.0252  159.0037 C   0  0  0  0  0  0  0  0  0  0  0  0
  129.9811  135.5745  158.8490 N   0  0  2  0  0  0  0  0  0  0  0  0
  130.8190  135.3813  158.3212 H   0  0  0  0  0  0  0  0  0  0  0  0
  128.8169  135.0247  158.1416 C   0  0  0  0  0  0  0  0  0  0  0  0
  129.1736  133.6837  157.5538 C   0  0  0  0  0  0  0  0  0  0  0  0
  129.0264  132.4892  158.1666 C   0  0  0  0  0  0  0  0  0  0  0  0
  129.4750  131.4967  157.2800 C   0  0  0  0  0  0  0  0  0  0  0  0
  129.8859  132.1240  156.1426 C   0  0  0  0  0  0  0  0  0  0  0  0
  130.4359  131.4680  154.9369 C   0  0  0  0  0  0  0  0  0  0  0  0
  130.2417  132.0390  153.6782 C   0  0  0  0  0  0  0  0  0  0  0  0
  130.7621  131.4247  152.5579 C   0  0  0  0  0  0  0  0  0  0  0  0
  131.4659  130.2396  152.6790 C   0  0  0  0  0  0  0  0  0  0  0  0
  131.6570  129.6655  153.9232 C   0  0  0  0  0  0  0  0  0  0  0  0
  131.1463  130.2724  155.0520 C   0  0  0  0  0  0  0  0  0  0  0  0
  129.6935  133.4712  156.3118 N   0  0  0  0  0  0  0  0  0  0  0  0
  129.8961  134.1584  155.6579 H   0  0  0  0  0  0  0  0  0  0  0  0
  130.0857  134.9596  160.1816 C   0  0  0  0  0  0  0  0  0  0  0  0
  131.4353  135.3448  160.7928 C   0  0  0  0  0  0  0  0  0  0  0  0
  132.5149  138.7976  161.9310 C   0  0  0  0  0  0  0  0  0  0  0  0
  133.4852  139.3932  162.7069 C   0  0  0  0  0  0  0  0  0  0  0  0
  132.9397  141.3309  167.8555 H   0  0  0  0  0  0  0  0  0  0  0  0
  133.9528  142.7872  168.0013 H   0  0  0  0  0  0  0  0  0  0  0  0
  133.3752  142.2614  166.4019 H   0  0  0  0  0  0  0  0  0  0  0  0
  134.7448  140.2024  166.5841 H   0  0  0  0  0  0  0  0  0  0  0  0
  135.3225  140.7281  168.1835 H   0  0  0  0  0  0  0  0  0  0  0  0
  136.8630  142.5899  168.3983 H   0  0  0  0  0  0  0  0  0  0  0  0
  138.6219  143.9348  167.3210 H   0  0  0  0  0  0  0  0  0  0  0  0
  138.8067  143.9809  164.8660 H   0  0  0  0  0  0  0  0  0  0  0  0
  137.2321  142.6831  163.4883 H   0  0  0  0  0  0  0  0  0  0  0  0
  135.0588  141.6121  163.3681 H   0  0  0  0  0  0  0  0  0  0  0  0
  134.2426  141.0375  164.8419 H   0  0  0  0  0  0  0  0  0  0  0  0
  135.6775  136.8174  162.9167 H   0  0  0  0  0  0  0  0  0  0  0  0
  133.9467  135.7428  161.5419 H   0  0  0  0  0  0  0  0  0  0  0  0
  131.1037  138.6424  159.8470 H   0  0  0  0  0  0  0  0  0  0  0  0
  129.8708  137.4998  158.0236 H   0  0  0  0  0  0  0  0  0  0  0  0
  128.8519  137.2353  159.4546 H   0  0  0  0  0  0  0  0  0  0  0  0
  127.9894  134.9064  158.8411 H   0  0  0  0  0  0  0  0  0  0  0  0
  128.5227  135.7052  157.3424 H   0  0  0  0  0  0  0  0  0  0  0  0
  128.6348  132.3265  159.1598 H   0  0  0  0  0  0  0  0  0  0  0  0
  129.4916  130.4329  157.4657 H   0  0  0  0  0  0  0  0  0  0  0  0
  129.6887  132.9617  153.5820 H   0  0  0  0  0  0  0  0  0  0  0  0
  130.6162  131.8676  151.5838 H   0  0  0  0  0  0  0  0  0  0  0  0
  131.8676  129.7603  151.7984 H   0  0  0  0  0  0  0  0  0  0  0  0
  132.2072  128.7403  154.0109 H   0  0  0  0  0  0  0  0  0  0  0  0
  131.2958  129.8229  156.0226 H   0  0  0  0  0  0  0  0  0  0  0  0
  129.2787  135.3241  160.8172 H   0  0  0  0  0  0  0  0  0  0  0  0
  130.0184  133.8754  160.0905 H   0  0  0  0  0  0  0  0  0  0  0  0
  131.4556  135.0515  161.8424 H   0  0  0  0  0  0  0  0  0  0  0  0
  132.2354  134.8333  160.2577 H   0  0  0  0  0  0  0  0  0  0  0  0
  131.6309  139.3515  161.6516 H   0  0  0  0  0  0  0  0  0  0  0  0
  133.3611  140.4142  163.0363 H   0  0  0  0  0  0  0  0  0  0  0  0
  1  2  1  0
  1 37  1  0
  1 38  1  0
  1 39  1  0
  2  3  1  0
  2 40  1  0
  2 41  1  0
  3  8  2  0
  3  4  1  0
  4  5  2  0
  4 42  1  0
  5  6  1  0
  5 43  1  0
  6  7  2  0
  6 44  1  0
  7  8  1  0
  7 45  1  0
  8  9  1  0
  9 10  1  0
  9 46  1  0
  9 47  1  0
 10 11  1  0
 11 36  1  0
 11 12  2  0
 12 13  1  0
 12 48  1  0
 13 14  2  0
 13 49  1  0
 14 15  1  0
 14 35  1  0
 15 34  1  0
 15 16  2  0
 16 17  1  0
 16 50  1  0
 17 18  1  0
 17 51  1  0
 17 52  1  0
 18 19  1  6
 18 20  1  0
 18 33  1  0
 20 21  1  0
 20 53  1  0
 20 54  1  0
 21 31  1  0
 21 22  2  0
 22 23  1  0
 22 55  1  0
 23 24  2  0
 23 56  1  0
 24 25  1  0
 24 31  1  0
 25 30  1  0
 25 26  2  0
 26 27  1  0
 26 57  1  0
 27 28  2  0
 27 58  1  0
 28 29  1  0
 28 59  1  0
 29 30  2  0
 29 60  1  0
 30 61  1  0
 31 32  1  0
 33 34  1  0
 33 62  1  0
 33 63  1  0
 34 64  1  0
 34 65  1  0
 35 36  2  0
 35 66  1  0
 36 67  1  0
M  CHG  1  18   1
M  END
>  <DOCK_score>  (1) 
-58.89793

>  <SMILES>  (1) 
CCc1ccccc1CSc1ccc(C2=CC[N@H+](Cc3ccc(-c4ccccc4)[nH]3)CC2)cc1

$$$$
