O=C(C[NH+]1CC[C@H](c2c[nH]c3ccccc23)C1)c1cc2ccccc2[nH]1
     RDKit          3D

 48 52  0  0  1  0  0  0  0  0999 V2000
  131.3789  130.5637  157.4541 O   0  0  0  0  0  0  0  0  0  0  0  0
  131.0548  131.4333  156.6718 C   0  0  0  0  0  0  0  0  0  0  0  0
  130.7967  132.8335  157.1659 C   0  0  0  0  0  0  0  0  0  0  0  0
  130.2975  132.7813  158.5465 N   0  0  1  0  0  0  0  0  0  0  0  0
  129.6524  132.0130  158.6548 H   0  0  0  0  0  0  0  0  0  0  0  0
  131.4307  132.6381  159.4959 C   0  0  0  0  0  0  0  0  0  0  0  0
  130.8414  133.1561  160.8319 C   0  0  0  0  0  0  0  0  0  0  0  0
  129.9440  134.3315  160.3813 C   0  0  2  0  0  0  0  0  0  0  0  0
  130.4767  135.2765  160.4880 H   0  0  0  0  0  0  0  0  0  0  0  0
  128.6693  134.3569  161.1848 C   0  0  0  0  0  0  0  0  0  0  0  0
  128.2385  135.3591  161.9671 C   0  0  0  0  0  0  0  0  0  0  0  0
  127.0389  135.0252  162.5344 N   0  0  0  0  0  0  0  0  0  0  0  0
  126.5304  135.5909  163.1363 H   0  0  0  0  0  0  0  0  0  0  0  0
  126.6638  133.7642  162.1282 C   0  0  0  0  0  0  0  0  0  0  0  0
  125.5640  132.9572  162.4019 C   0  0  0  0  0  0  0  0  0  0  0  0
  125.4717  131.7087  161.8273 C   0  0  0  0  0  0  0  0  0  0  0  0
  126.4658  131.2456  160.9760 C   0  0  0  0  0  0  0  0  0  0  0  0
  127.5543  132.0214  160.6935 C   0  0  0  0  0  0  0  0  0  0  0  0
  127.6684  133.2903  161.2650 C   0  0  0  0  0  0  0  0  0  0  0  0
  129.6355  134.0563  158.8980 C   0  0  0  0  0  0  0  0  0  0  0  0
  130.9150  131.1227  155.2506 C   0  0  0  0  0  0  0  0  0  0  0  0
  131.1206  129.8999  154.6840 C   0  0  0  0  0  0  0  0  0  0  0  0
  130.8826  130.0239  153.2956 C   0  0  0  0  0  0  0  0  0  0  0  0
  130.9364  129.1193  152.2259 C   0  0  0  0  0  0  0  0  0  0  0  0
  130.6451  129.5439  150.9629 C   0  0  0  0  0  0  0  0  0  0  0  0
  130.2946  130.8675  150.7243 C   0  0  0  0  0  0  0  0  0  0  0  0
  130.2399  131.7763  151.7567 C   0  0  0  0  0  0  0  0  0  0  0  0
  130.5276  131.3666  153.0560 C   0  0  0  0  0  0  0  0  0  0  0  0
  130.5530  132.0220  154.2639 N   0  0  0  0  0  0  0  0  0  0  0  0
  130.3507  132.9606  154.4018 H   0  0  0  0  0  0  0  0  0  0  0  0
  131.7239  133.4060  157.1362 H   0  0  0  0  0  0  0  0  0  0  0  0
  130.0534  133.3125  156.5285 H   0  0  0  0  0  0  0  0  0  0  0  0
  131.7276  131.5932  159.5858 H   0  0  0  0  0  0  0  0  0  0  0  0
  132.2745  133.2533  159.1835 H   0  0  0  0  0  0  0  0  0  0  0  0
  131.6340  133.5072  161.4927 H   0  0  0  0  0  0  0  0  0  0  0  0
  130.2477  132.3816  161.3177 H   0  0  0  0  0  0  0  0  0  0  0  0
  128.7601  136.2917  162.1236 H   0  0  0  0  0  0  0  0  0  0  0  0
  124.7856  133.3083  163.0630 H   0  0  0  0  0  0  0  0  0  0  0  0
  124.6170  131.0840  162.0408 H   0  0  0  0  0  0  0  0  0  0  0  0
  126.3779  130.2644  160.5335 H   0  0  0  0  0  0  0  0  0  0  0  0
  128.3237  131.6547  160.0301 H   0  0  0  0  0  0  0  0  0  0  0  0
  130.0312  134.8627  158.2805 H   0  0  0  0  0  0  0  0  0  0  0  0
  128.5593  133.9692  158.7495 H   0  0  0  0  0  0  0  0  0  0  0  0
  131.4130  128.9986  155.2022 H   0  0  0  0  0  0  0  0  0  0  0  0
  131.2080  128.0888  152.4016 H   0  0  0  0  0  0  0  0  0  0  0  0
  130.6875  128.8452  150.1404 H   0  0  0  0  0  0  0  0  0  0  0  0
  130.0676  131.1871  149.7179 H   0  0  0  0  0  0  0  0  0  0  0  0
  129.9708  132.8036  151.5601 H   0  0  0  0  0  0  0  0  0  0  0  0
  1  2  2  0
  2  3  1  0
  2 21  1  0
  3  4  1  0
  3 31  1  0
  3 32  1  0
  4  5  1  6
  4 20  1  0
  4  6  1  0
  6  7  1  0
  6 33  1  0
  6 34  1  0
  7  8  1  0
  7 35  1  0
  7 36  1  0
  8  9  1  6
  8 10  1  0
  8 20  1  0
 10 19  1  0
 10 11  2  0
 11 12  1  0
 11 37  1  0
 12 13  1  0
 12 14  1  0
 14 19  2  0
 14 15  1  0
 15 16  2  0
 15 38  1  0
 16 17  1  0
 16 39  1  0
 17 18  2  0
 17 40  1  0
 18 19  1  0
 18 41  1  0
 20 42  1  0
 20 43  1  0
 21 29  1  0
 21 22  2  0
 22 23  1  0
 22 44  1  0
 23 28  2  0
 23 24  1  0
 24 25  2  0
 24 45  1  0
 25 26  1  0
 25 46  1  0
 26 27  2  0
 26 47  1  0
 27 28  1  0
 27 48  1  0
 28 29  1  0
 29 30  1  0
M  CHG  1   4   1
M  END
>  <DOCK_score>  (1) 
-46.558582

>  <SMILES>  (1) 
O=C(C[NH+]1CC[C@H](c2c[nH]c3ccccc23)C1)c1cc2ccccc2[nH]1

$$$$
