CCNc1cccc2[nH]c(Nc3ccccc3Nc3ccccc3N)[nH+]c12
     RDKit          3D

 50 53  0  0  1  0  0  0  0  0999 V2000
  133.9798  139.6546  158.0899 C   0  0  0  0  0  0  0  0  0  0  0  0
  133.8882  139.5051  159.6098 C   0  0  0  0  0  0  0  0  0  0  0  0
  133.0203  138.3714  159.9375 N   0  0  0  0  0  0  0  0  0  0  0  0
  133.2386  137.6394  161.1082 C   0  0  0  0  0  0  0  0  0  0  0  0
  133.9664  138.1909  162.1475 C   0  0  0  0  0  0  0  0  0  0  0  0
  134.1852  137.4697  163.3112 C   0  0  0  0  0  0  0  0  0  0  0  0
  133.6810  136.1928  163.4487 C   0  0  0  0  0  0  0  0  0  0  0  0
  132.9485  135.6214  162.4169 C   0  0  0  0  0  0  0  0  0  0  0  0
  132.3192  134.3990  162.2502 N   0  0  0  0  0  0  0  0  0  0  0  0
  132.2896  133.6746  162.8944 H   0  0  0  0  0  0  0  0  0  0  0  0
  131.7505  134.4025  161.0076 C   0  0  0  0  0  0  0  0  0  0  0  0
  131.0313  133.3578  160.4610 N   0  0  0  0  0  0  0  0  0  0  0  0
  130.4933  133.4761  159.1734 C   0  0  0  0  0  0  0  0  0  0  0  0
  131.2379  133.0865  158.0700 C   0  0  0  0  0  0  0  0  0  0  0  0
  130.7027  133.1987  156.8004 C   0  0  0  0  0  0  0  0  0  0  0  0
  129.4277  133.7043  156.6250 C   0  0  0  0  0  0  0  0  0  0  0  0
  128.6801  134.1001  157.7184 C   0  0  0  0  0  0  0  0  0  0  0  0
  129.2088  133.9907  158.9962 C   0  0  0  0  0  0  0  0  0  0  0  0
  128.4540  134.3907  160.1046 N   0  0  0  0  0  0  0  0  0  0  0  0
  127.2223  133.7806  160.3696 C   0  0  0  0  0  0  0  0  0  0  0  0
  127.0082  132.4591  160.0067 C   0  0  0  0  0  0  0  0  0  0  0  0
  125.7910  131.8587  160.2695 C   0  0  0  0  0  0  0  0  0  0  0  0
  124.7840  132.5718  160.8935 C   0  0  0  0  0  0  0  0  0  0  0  0
  124.9887  133.8896  161.2587 C   0  0  0  0  0  0  0  0  0  0  0  0
  126.2085  134.4980  161.0047 C   0  0  0  0  0  0  0  0  0  0  0  0
  126.4199  135.8303  161.3789 N   0  0  0  0  0  0  0  0  0  0  0  0
  131.9848  135.5461  160.4152 N   0  0  0  0  0  0  0  0  0  0  0  0
  131.6799  135.7884  159.5267 H   0  0  0  0  0  0  0  0  0  0  0  0
  132.7207  136.3423  161.2355 C   0  0  0  0  0  0  0  0  0  0  0  0
  132.9846  139.8289  157.6813 H   0  0  0  0  0  0  0  0  0  0  0  0
  134.6256  140.4981  157.8461 H   0  0  0  0  0  0  0  0  0  0  0  0
  134.3947  138.7431  157.6595 H   0  0  0  0  0  0  0  0  0  0  0  0
  133.4732  140.4166  160.0402 H   0  0  0  0  0  0  0  0  0  0  0  0
  134.8836  139.3307  160.0185 H   0  0  0  0  0  0  0  0  0  0  0  0
  132.2940  138.1285  159.3421 H   0  0  0  0  0  0  0  0  0  0  0  0
  134.3664  139.1895  162.0520 H   0  0  0  0  0  0  0  0  0  0  0  0
  134.7549  137.9105  164.1159 H   0  0  0  0  0  0  0  0  0  0  0  0
  133.8563  135.6378  164.3584 H   0  0  0  0  0  0  0  0  0  0  0  0
  130.8988  132.5422  160.9690 H   0  0  0  0  0  0  0  0  0  0  0  0
  132.2341  132.6911  158.2032 H   0  0  0  0  0  0  0  0  0  0  0  0
  131.2825  132.8909  155.9427 H   0  0  0  0  0  0  0  0  0  0  0  0
  129.0147  133.7906  155.6309 H   0  0  0  0  0  0  0  0  0  0  0  0
  127.6845  134.4941  157.5778 H   0  0  0  0  0  0  0  0  0  0  0  0
  128.7844  135.0907  160.6892 H   0  0  0  0  0  0  0  0  0  0  0  0
  127.7923  131.8993  159.5185 H   0  0  0  0  0  0  0  0  0  0  0  0
  125.6259  130.8297  159.9862 H   0  0  0  0  0  0  0  0  0  0  0  0
  123.8347  132.0982  161.0958 H   0  0  0  0  0  0  0  0  0  0  0  0
  124.1998  134.4437  161.7457 H   0  0  0  0  0  0  0  0  0  0  0  0
  127.2723  136.2559  161.1967 H   0  0  0  0  0  0  0  0  0  0  0  0
  125.7140  136.3279  161.8205 H   0  0  0  0  0  0  0  0  0  0  0  0
  1  2  1  0
  1 30  1  0
  1 31  1  0
  1 32  1  0
  2  3  1  0
  2 33  1  0
  2 34  1  0
  3  4  1  0
  3 35  1  0
  4 29  2  0
  4  5  1  0
  5  6  2  0
  5 36  1  0
  6  7  1  0
  6 37  1  0
  7  8  2  0
  7 38  1  0
  8 29  1  0
  8  9  1  0
  9 10  1  0
  9 11  1  0
 11 12  1  0
 11 27  2  0
 12 13  1  0
 12 39  1  0
 13 18  1  0
 13 14  2  0
 14 15  1  0
 14 40  1  0
 15 16  2  0
 15 41  1  0
 16 17  1  0
 16 42  1  0
 17 18  2  0
 17 43  1  0
 18 19  1  0
 19 20  1  0
 19 44  1  0
 20 25  1  0
 20 21  2  0
 21 22  1  0
 21 45  1  0
 22 23  2  0
 22 46  1  0
 23 24  1  0
 23 47  1  0
 24 25  2  0
 24 48  1  0
 25 26  1  0
 26 49  1  0
 26 50  1  0
 27 28  1  0
 27 29  1  0
M  CHG  1  27   1
M  END
>  <DOCK_score>  (1) 
-52.784279

>  <SMILES>  (1) 
CCNc1cccc2[nH]c(Nc3ccccc3Nc3ccccc3N)[nH+]c12

$$$$
