CC(NC(NC1CC=CC1)=[NH+][C@H](C)c1cnn(-c2ccccc2)c1)c1ccc2ccccc2c1
     RDKit          3D

 66 70  0  0  1  0  0  0  0  0999 V2000
  133.1143  134.2047  159.3145 C   0  0  0  0  0  0  0  0  0  0  0  0
  132.4945  134.9328  160.5087 C   0  0  2  0  0  0  0  0  0  0  0  0
  131.2745  135.6221  160.0810 N   0  0  0  0  0  0  0  0  0  0  0  0
  130.2430  135.8092  160.9704 C   0  0  0  0  0  0  0  0  0  0  0  0
  130.5086  135.9448  162.3125 N   0  0  0  0  0  0  0  0  0  0  0  0
  129.4095  136.1443  163.2602 C   0  0  0  0  0  0  0  0  0  0  0  0
  128.7447  137.5256  163.0565 C   0  0  0  0  0  0  0  0  0  0  0  0
  128.4034  137.9970  164.4509 C   0  0  0  0  0  0  0  0  0  0  0  0
  129.0552  137.3127  165.3511 C   0  0  0  0  0  0  0  0  0  0  0  0
  129.9401  136.2707  164.7071 C   0  0  0  0  0  0  0  0  0  0  0  0
  129.0132  135.8583  160.5412 N   0  0  0  0  0  0  0  0  0  0  0  0
  128.2855  135.9904  161.1688 H   0  0  0  0  0  0  0  0  0  0  0  0
  128.7301  135.7138  159.1111 C   0  0  2  0  0  0  0  0  0  0  0  0
  129.2334  136.5076  158.5590 H   0  0  0  0  0  0  0  0  0  0  0  0
  127.2209  135.8084  158.8780 C   0  0  0  0  0  0  0  0  0  0  0  0
  129.2294  134.3748  158.6330 C   0  0  0  0  0  0  0  0  0  0  0  0
  129.3161  133.2072  159.3991 C   0  0  0  0  0  0  0  0  0  0  0  0
  129.7901  132.2529  158.6393 N   0  0  0  0  0  0  0  0  0  0  0  0
  130.0291  132.7849  157.3657 N   0  0  0  0  0  0  0  0  0  0  0  0
  130.5407  132.0872  156.2627 C   0  0  0  0  0  0  0  0  0  0  0  0
  130.7292  132.7411  155.0526 C   0  0  0  0  0  0  0  0  0  0  0  0
  131.2338  132.0511  153.9677 C   0  0  0  0  0  0  0  0  0  0  0  0
  131.5518  130.7105  154.0861 C   0  0  0  0  0  0  0  0  0  0  0  0
  131.3650  130.0565  155.2901 C   0  0  0  0  0  0  0  0  0  0  0  0
  130.8602  130.7411  156.3784 C   0  0  0  0  0  0  0  0  0  0  0  0
  129.6734  134.0894  157.3869 C   0  0  0  0  0  0  0  0  0  0  0  0
  133.4773  135.9398  161.0484 C   0  0  0  0  0  0  0  0  0  0  0  0
  134.3767  135.5569  162.0419 C   0  0  0  0  0  0  0  0  0  0  0  0
  135.2807  136.4400  162.5469 C   0  0  0  0  0  0  0  0  0  0  0  0
  135.3024  137.7620  162.0701 C   0  0  0  0  0  0  0  0  0  0  0  0
  136.2173  138.7035  162.5715 C   0  0  0  0  0  0  0  0  0  0  0  0
  136.2088  139.9751  162.0863 C   0  0  0  0  0  0  0  0  0  0  0  0
  135.3058  140.3595  161.0968 C   0  0  0  0  0  0  0  0  0  0  0  0
  134.4059  139.4747  160.5873 C   0  0  0  0  0  0  0  0  0  0  0  0
  134.3843  138.1528  161.0638 C   0  0  0  0  0  0  0  0  0  0  0  0
  133.4694  137.2110  160.5625 C   0  0  0  0  0  0  0  0  0  0  0  0
  133.4356  134.9341  158.5710 H   0  0  0  0  0  0  0  0  0  0  0  0
  133.9741  133.6244  159.6491 H   0  0  0  0  0  0  0  0  0  0  0  0
  132.3750  133.5368  158.8725 H   0  0  0  0  0  0  0  0  0  0  0  0
  132.2497  134.2106  161.2875 H   0  0  0  0  0  0  0  0  0  0  0  0
  131.1945  135.9461  159.1702 H   0  0  0  0  0  0  0  0  0  0  0  0
  131.4238  135.9082  162.6319 H   0  0  0  0  0  0  0  0  0  0  0  0
  128.6767  135.3413  163.1808 H   0  0  0  0  0  0  0  0  0  0  0  0
  129.4419  138.2163  162.5821 H   0  0  0  0  0  0  0  0  0  0  0  0
  127.8398  137.4268  162.4568 H   0  0  0  0  0  0  0  0  0  0  0  0
  127.7108  138.7952  164.6735 H   0  0  0  0  0  0  0  0  0  0  0  0
  128.9728  137.4702  166.4164 H   0  0  0  0  0  0  0  0  0  0  0  0
  129.8479  135.3186  165.2299 H   0  0  0  0  0  0  0  0  0  0  0  0
  130.9786  136.6018  164.7031 H   0  0  0  0  0  0  0  0  0  0  0  0
  126.7125  135.0533  159.4776 H   0  0  0  0  0  0  0  0  0  0  0  0
  126.8699  136.7989  159.1673 H   0  0  0  0  0  0  0  0  0  0  0  0
  127.0051  135.6402  157.8229 H   0  0  0  0  0  0  0  0  0  0  0  0
  129.0364  133.1094  160.4377 H   0  0  0  0  0  0  0  0  0  0  0  0
  130.4819  133.7882  154.9596 H   0  0  0  0  0  0  0  0  0  0  0  0
  131.3807  132.5591  153.0261 H   0  0  0  0  0  0  0  0  0  0  0  0
  131.9422  130.1720  153.2352 H   0  0  0  0  0  0  0  0  0  0  0  0
  131.6141  129.0095  155.3797 H   0  0  0  0  0  0  0  0  0  0  0  0
  130.7150  130.2298  157.3186 H   0  0  0  0  0  0  0  0  0  0  0  0
  129.7326  134.7794  156.5582 H   0  0  0  0  0  0  0  0  0  0  0  0
  134.3589  134.5429  162.4132 H   0  0  0  0  0  0  0  0  0  0  0  0
  135.9746  136.1279  163.3132 H   0  0  0  0  0  0  0  0  0  0  0  0
  136.9232  138.4196  163.3380 H   0  0  0  0  0  0  0  0  0  0  0  0
  136.9127  140.6968  162.4736 H   0  0  0  0  0  0  0  0  0  0  0  0
  135.3206  141.3746  160.7285 H   0  0  0  0  0  0  0  0  0  0  0  0
  133.7124  139.7867  159.8205 H   0  0  0  0  0  0  0  0  0  0  0  0
  132.7637  137.4946  159.7958 H   0  0  0  0  0  0  0  0  0  0  0  0
  1  2  1  0
  1 37  1  0
  1 38  1  0
  1 39  1  0
  2  3  1  0
  2 27  1  0
  2 40  1  1
  3 41  1  0
  4  3  1  0
  4  5  1  0
  4 11  2  0
  5  6  1  0
  5 42  1  0
  6 10  1  0
  6  7  1  0
  6 43  1  0
  7  8  1  0
  7 44  1  0
  7 45  1  0
  8  9  2  0
  8 46  1  0
  9 10  1  0
  9 47  1  0
 10 48  1  0
 10 49  1  0
 11 12  1  0
 11 13  1  0
 13 14  1  6
 13 15  1  0
 13 16  1  0
 15 50  1  0
 15 51  1  0
 15 52  1  0
 16 26  2  0
 16 17  1  0
 17 18  2  0
 17 53  1  0
 18 19  1  0
 19 20  1  0
 19 26  1  0
 20 25  1  0
 20 21  2  0
 21 22  1  0
 21 54  1  0
 22 23  2  0
 22 55  1  0
 23 24  1  0
 23 56  1  0
 24 25  2  0
 24 57  1  0
 25 58  1  0
 26 59  1  0
 27 36  1  0
 27 28  2  0
 28 29  1  0
 28 60  1  0
 29 30  2  0
 29 61  1  0
 30 35  1  0
 30 31  1  0
 31 32  2  0
 31 62  1  0
 32 33  1  0
 32 63  1  0
 33 34  2  0
 33 64  1  0
 34 35  1  0
 34 65  1  0
 35 36  2  0
 36 66  1  0
M  CHG  1  11   1
M  END
>  <DOCK_score>  (1) 
-56.009144

>  <SMILES>  (1) 
CC(NC(NC1CC=CC1)=[NH+][C@H](C)c1cnn(-c2ccccc2)c1)c1ccc2ccccc2c1

$$$$
