Nc1ccc(-c2c[nH]c(NC[C@H]3C=CCC(CCc4ccccc4)=C3)[nH+]2)cc1
     RDKit          3D

 55 58  0  0  1  0  0  0  0  0999 V2000
  131.4467  129.9323  152.4797 N   0  0  0  0  0  0  0  0  0  0  0  0
  131.1139  130.6239  153.6468 C   0  0  0  0  0  0  0  0  0  0  0  0
  130.3982  131.8127  153.5687 C   0  0  0  0  0  0  0  0  0  0  0  0
  130.0685  132.4972  154.7193 C   0  0  0  0  0  0  0  0  0  0  0  0
  130.4536  131.9959  155.9619 C   0  0  0  0  0  0  0  0  0  0  0  0
  130.1000  132.7304  157.2014 C   0  0  0  0  0  0  0  0  0  0  0  0
  129.3425  132.2563  158.2211 C   0  0  0  0  0  0  0  0  0  0  0  0
  129.2674  133.2571  159.1607 N   0  0  0  0  0  0  0  0  0  0  0  0
  128.7926  133.2178  160.0056 H   0  0  0  0  0  0  0  0  0  0  0  0
  129.9819  134.3135  158.6862 C   0  0  0  0  0  0  0  0  0  0  0  0
  130.1564  135.5248  159.3332 N   0  0  0  0  0  0  0  0  0  0  0  0
  129.2297  135.9292  160.3933 C   0  0  0  0  0  0  0  0  0  0  0  0
  130.0028  136.1257  161.6990 C   0  0  1  0  0  0  0  0  0  0  0  0
  129.4142  136.7493  162.3721 H   0  0  0  0  0  0  0  0  0  0  0  0
  130.2325  134.7876  162.3350 C   0  0  0  0  0  0  0  0  0  0  0  0
  131.3455  134.4692  162.9224 C   0  0  0  0  0  0  0  0  0  0  0  0
  132.5142  135.4040  163.0114 C   0  0  0  0  0  0  0  0  0  0  0  0
  132.4167  136.4925  161.9852 C   0  0  0  0  0  0  0  0  0  0  0  0
  133.6669  137.2477  161.6144 C   0  0  0  0  0  0  0  0  0  0  0  0
  134.2354  137.9346  162.8577 C   0  0  0  0  0  0  0  0  0  0  0  0
  135.4857  138.6899  162.4871 C   0  0  0  0  0  0  0  0  0  0  0  0
  136.7171  138.0659  162.5586 C   0  0  0  0  0  0  0  0  0  0  0  0
  137.8633  138.7570  162.2136 C   0  0  0  0  0  0  0  0  0  0  0  0
  137.7793  140.0759  161.8076 C   0  0  0  0  0  0  0  0  0  0  0  0
  136.5486  140.7015  161.7409 C   0  0  0  0  0  0  0  0  0  0  0  0
  135.4017  140.0085  162.0806 C   0  0  0  0  0  0  0  0  0  0  0  0
  131.3017  136.8127  161.4023 C   0  0  0  0  0  0  0  0  0  0  0  0
  130.4731  133.9970  157.5128 N   0  0  0  0  0  0  0  0  0  0  0  0
  131.0183  134.5753  156.9567 H   0  0  0  0  0  0  0  0  0  0  0  0
  131.1763  130.8062  156.0376 C   0  0  0  0  0  0  0  0  0  0  0  0
  131.4984  130.1219  154.8847 C   0  0  0  0  0  0  0  0  0  0  0  0
  131.1785  130.2817  151.6156 H   0  0  0  0  0  0  0  0  0  0  0  0
  131.9462  129.1023  152.5335 H   0  0  0  0  0  0  0  0  0  0  0  0
  130.0998  132.2006  152.6059 H   0  0  0  0  0  0  0  0  0  0  0  0
  129.5122  133.4209  154.6583 H   0  0  0  0  0  0  0  0  0  0  0  0
  128.8860  131.2795  158.2836 H   0  0  0  0  0  0  0  0  0  0  0  0
  130.8924  136.1059  159.0846 H   0  0  0  0  0  0  0  0  0  0  0  0
  128.4750  135.1549  160.5310 H   0  0  0  0  0  0  0  0  0  0  0  0
  128.7442  136.8644  160.1142 H   0  0  0  0  0  0  0  0  0  0  0  0
  129.4360  134.0586  162.3072 H   0  0  0  0  0  0  0  0  0  0  0  0
  131.4351  133.4868  163.3621 H   0  0  0  0  0  0  0  0  0  0  0  0
  132.5392  135.8510  164.0051 H   0  0  0  0  0  0  0  0  0  0  0  0
  133.4342  134.8422  162.8502 H   0  0  0  0  0  0  0  0  0  0  0  0
  134.4053  136.5535  161.2132 H   0  0  0  0  0  0  0  0  0  0  0  0
  133.4278  137.9990  160.8617 H   0  0  0  0  0  0  0  0  0  0  0  0
  133.4970  138.6287  163.2589 H   0  0  0  0  0  0  0  0  0  0  0  0
  134.4745  137.1833  163.6104 H   0  0  0  0  0  0  0  0  0  0  0  0
  136.7831  137.0370  162.8804 H   0  0  0  0  0  0  0  0  0  0  0  0
  138.8249  138.2682  162.2653 H   0  0  0  0  0  0  0  0  0  0  0  0
  138.6754  140.6172  161.5421 H   0  0  0  0  0  0  0  0  0  0  0  0
  136.4830  141.7318  161.4237 H   0  0  0  0  0  0  0  0  0  0  0  0
  134.4400  140.4974  162.0289 H   0  0  0  0  0  0  0  0  0  0  0  0
  131.3103  137.6087  160.6725 H   0  0  0  0  0  0  0  0  0  0  0  0
  131.4794  130.4182  156.9988 H   0  0  0  0  0  0  0  0  0  0  0  0
  132.0537  129.1975  154.9430 H   0  0  0  0  0  0  0  0  0  0  0  0
  1  2  1  0
  1 32  1  0
  1 33  1  0
  2 31  2  0
  2  3  1  0
  3  4  2  0
  3 34  1  0
  4  5  1  0
  4 35  1  0
  5  6  1  0
  5 30  2  0
  6 28  1  0
  6  7  2  0
  7  8  1  0
  7 36  1  0
  8  9  1  0
  8 10  1  0
 10 11  1  0
 10 28  2  0
 11 12  1  0
 11 37  1  0
 12 13  1  0
 12 38  1  0
 12 39  1  0
 13 14  1  1
 13 27  1  0
 13 15  1  0
 15 16  2  0
 15 40  1  0
 16 17  1  0
 16 41  1  0
 17 18  1  0
 17 42  1  0
 17 43  1  0
 18 19  1  0
 18 27  2  0
 19 20  1  0
 19 44  1  0
 19 45  1  0
 20 21  1  0
 20 46  1  0
 20 47  1  0
 21 26  1  0
 21 22  2  0
 22 23  1  0
 22 48  1  0
 23 24  2  0
 23 49  1  0
 24 25  1  0
 24 50  1  0
 25 26  2  0
 25 51  1  0
 26 52  1  0
 27 53  1  0
 28 29  1  0
 30 31  1  0
 30 54  1  0
 31 55  1  0
M  CHG  1  28   1
M  END
>  <DOCK_score>  (1) 
-56.020634

>  <SMILES>  (1) 
Nc1ccc(-c2c[nH]c(NC[C@H]3C=CCC(CCc4ccccc4)=C3)[nH+]2)cc1

$$$$
