CC[N@@H+](Cc1cccs1)Cc1c[nH]nc1-c1ccc(C2=CCC(Br)C2)cc1
     RDKit          3D

 52 55  0  0  1  0  0  0  0  0999 V2000
  132.4386  133.5305  159.9869 C   0  0  0  0  0  0  0  0  0  0  0  0
  131.1788  133.0776  159.2463 C   0  0  0  0  0  0  0  0  0  0  0  0
  130.1245  134.0872  159.4110 N   0  0  1  0  0  0  0  0  0  0  0  0
  130.4396  134.9675  159.0315 H   0  0  0  0  0  0  0  0  0  0  0  0
  128.9149  133.6525  158.6996 C   0  0  0  0  0  0  0  0  0  0  0  0
  129.3031  133.0226  157.3869 C   0  0  0  0  0  0  0  0  0  0  0  0
  129.4363  133.6746  156.2308 C   0  0  0  0  0  0  0  0  0  0  0  0
  129.8011  132.8845  155.1543 C   0  0  0  0  0  0  0  0  0  0  0  0
  129.9590  131.5901  155.4350 C   0  0  0  0  0  0  0  0  0  0  0  0
  129.6487  131.3152  157.1444 S   0  0  0  0  0  0  0  0  0  0  0  0
  129.8210  134.2500  160.8389 C   0  0  0  0  0  0  0  0  0  0  0  0
  128.7393  135.2856  161.0077 C   0  0  0  0  0  0  0  0  0  0  0  0
  127.4095  135.0505  161.0304 C   0  0  0  0  0  0  0  0  0  0  0  0
  126.7795  136.2329  161.2002 N   0  0  0  0  0  0  0  0  0  0  0  0
  125.8201  136.3642  161.2531 H   0  0  0  0  0  0  0  0  0  0  0  0
  127.7525  137.2371  161.2858 N   0  0  0  0  0  0  0  0  0  0  0  0
  128.9360  136.6706  161.1761 C   0  0  0  0  0  0  0  0  0  0  0  0
  130.2445  137.3677  161.2184 C   0  0  0  0  0  0  0  0  0  0  0  0
  130.6094  138.0963  162.3501 C   0  0  0  0  0  0  0  0  0  0  0  0
  131.8262  138.7397  162.3925 C   0  0  0  0  0  0  0  0  0  0  0  0
  132.6906  138.6703  161.2973 C   0  0  0  0  0  0  0  0  0  0  0  0
  133.9935  139.3649  161.3397 C   0  0  0  0  0  0  0  0  0  0  0  0
  134.2309  140.4761  162.0162 C   0  0  0  0  0  0  0  0  0  0  0  0
  135.6674  140.9127  161.8452 C   0  0  0  0  0  0  0  0  0  0  0  0
  136.3962  139.6695  161.2859 C   0  0  2  0  0  0  0  0  0  0  0  0
  137.7594  140.1862  159.9668 Br  0  0  0  0  0  0  0  0  0  0  0  0
  135.2348  138.9041  160.6113 C   0  0  0  0  0  0  0  0  0  0  0  0
  132.3216  137.9454  160.1626 C   0  0  0  0  0  0  0  0  0  0  0  0
  131.1066  137.2987  160.1244 C   0  0  0  0  0  0  0  0  0  0  0  0
  132.7334  134.5182  159.6325 H   0  0  0  0  0  0  0  0  0  0  0  0
  132.2353  133.5741  161.0569 H   0  0  0  0  0  0  0  0  0  0  0  0
  133.2451  132.8215  159.7991 H   0  0  0  0  0  0  0  0  0  0  0  0
  130.8385  132.1266  159.6560 H   0  0  0  0  0  0  0  0  0  0  0  0
  131.4040  132.9569  158.1867 H   0  0  0  0  0  0  0  0  0  0  0  0
  128.2735  134.5139  158.5137 H   0  0  0  0  0  0  0  0  0  0  0  0
  128.3781  132.9241  159.3074 H   0  0  0  0  0  0  0  0  0  0  0  0
  129.2725  134.7384  156.1415 H   0  0  0  0  0  0  0  0  0  0  0  0
  129.9427  133.2850  154.1613 H   0  0  0  0  0  0  0  0  0  0  0  0
  130.2370  130.8279  154.7223 H   0  0  0  0  0  0  0  0  0  0  0  0
  129.4806  133.2991  161.2488 H   0  0  0  0  0  0  0  0  0  0  0  0
  130.7184  134.5726  161.3667 H   0  0  0  0  0  0  0  0  0  0  0  0
  126.9335  134.0863  160.9304 H   0  0  0  0  0  0  0  0  0  0  0  0
  129.9392  138.1528  163.1951 H   0  0  0  0  0  0  0  0  0  0  0  0
  132.1104  139.3006  163.2705 H   0  0  0  0  0  0  0  0  0  0  0  0
  133.4978  140.9993  162.6123 H   0  0  0  0  0  0  0  0  0  0  0  0
  136.0952  141.2037  162.8046 H   0  0  0  0  0  0  0  0  0  0  0  0
  135.7287  141.7390  161.1370 H   0  0  0  0  0  0  0  0  0  0  0  0
  136.8369  139.0804  162.0902 H   0  0  0  0  0  0  0  0  0  0  0  0
  135.3684  137.8291  160.7315 H   0  0  0  0  0  0  0  0  0  0  0  0
  135.1726  139.1638  159.5545 H   0  0  0  0  0  0  0  0  0  0  0  0
  132.9891  137.8918  159.3153 H   0  0  0  0  0  0  0  0  0  0  0  0
  130.8213  136.7374  159.2468 H   0  0  0  0  0  0  0  0  0  0  0  0
  1  2  1  0
  1 30  1  0
  1 31  1  0
  1 32  1  0
  2  3  1  0
  2 33  1  0
  2 34  1  0
  3  4  1  6
  3  5  1  0
  3 11  1  0
  5  6  1  0
  5 35  1  0
  5 36  1  0
  6 10  1  0
  6  7  2  0
  7  8  1  0
  7 37  1  0
  8  9  2  0
  8 38  1  0
  9 10  1  0
  9 39  1  0
 11 12  1  0
 11 40  1  0
 11 41  1  0
 12 17  1  0
 12 13  2  0
 13 14  1  0
 13 42  1  0
 14 15  1  0
 14 16  1  0
 16 17  2  0
 17 18  1  0
 18 29  1  0
 18 19  2  0
 19 20  1  0
 19 43  1  0
 20 21  2  0
 20 44  1  0
 21 22  1  0
 21 28  1  0
 22 27  1  0
 22 23  2  0
 23 24  1  0
 23 45  1  0
 24 25  1  0
 24 46  1  0
 24 47  1  0
 25 26  1  0
 25 27  1  0
 25 48  1  1
 27 49  1  0
 27 50  1  0
 28 29  2  0
 28 51  1  0
 29 52  1  0
M  CHG  1   3   1
M  END
>  <DOCK_score>  (1) 
-42.355934

>  <SMILES>  (1) 
CC[N@@H+](Cc1cccs1)Cc1c[nH]nc1-c1ccc(C2=CCC(Br)C2)cc1

$$$$
