FC1(F)C[C@H]1CNc1cc(Nc2[nH]c3ccccc3[nH+]2)c(Cl)c(-c2ccccc2)c1
     RDKit          3D

 50 54  0  0  1  0  0  0  0  0999 V2000
  123.1833  131.8360  160.4977 F   0  0  0  0  0  0  0  0  0  0  0  0
  124.4884  132.1868  160.8595 C   0  0  0  0  0  0  0  0  0  0  0  0
  125.5047  131.4488  160.2434 F   0  0  0  0  0  0  0  0  0  0  0  0
  124.7228  132.6471  162.3005 C   0  0  0  0  0  0  0  0  0  0  0  0
  124.7669  133.6618  161.1562 C   0  0  1  0  0  0  0  0  0  0  0  0
  123.9334  134.3588  161.0692 H   0  0  0  0  0  0  0  0  0  0  0  0
  126.1356  134.2166  160.7564 C   0  0  0  0  0  0  0  0  0  0  0  0
  126.4060  135.4415  161.5131 N   0  0  0  0  0  0  0  0  0  0  0  0
  127.6043  136.1335  161.3176 C   0  0  0  0  0  0  0  0  0  0  0  0
  128.5408  135.6562  160.4100 C   0  0  0  0  0  0  0  0  0  0  0  0
  129.7298  136.3435  160.2099 C   0  0  0  0  0  0  0  0  0  0  0  0
  130.6691  135.8627  159.2910 N   0  0  0  0  0  0  0  0  0  0  0  0
  130.7678  134.5111  159.0513 C   0  0  0  0  0  0  0  0  0  0  0  0
  131.1418  133.9670  157.8952 N   0  0  0  0  0  0  0  0  0  0  0  0
  131.3869  134.4533  157.0927 H   0  0  0  0  0  0  0  0  0  0  0  0
  131.1243  132.6040  158.0320 C   0  0  0  0  0  0  0  0  0  0  0  0
  131.4160  131.5464  157.1752 C   0  0  0  0  0  0  0  0  0  0  0  0
  131.2931  130.2488  157.6225 C   0  0  0  0  0  0  0  0  0  0  0  0
  130.8803  129.9884  158.9211 C   0  0  0  0  0  0  0  0  0  0  0  0
  130.5880  131.0237  159.7823 C   0  0  0  0  0  0  0  0  0  0  0  0
  130.7067  132.3403  159.3468 C   0  0  0  0  0  0  0  0  0  0  0  0
  130.4976  133.5573  159.9400 N   0  0  0  0  0  0  0  0  0  0  0  0
  130.2028  133.7000  160.8530 H   0  0  0  0  0  0  0  0  0  0  0  0
  129.9902  137.5048  160.9250 C   0  0  0  0  0  0  0  0  0  0  0  0
  131.4801  138.3612  160.6788 Cl  0  0  0  0  0  0  0  0  0  0  0  0
  129.0544  137.9825  161.8397 C   0  0  0  0  0  0  0  0  0  0  0  0
  129.3296  139.2236  162.6051 C   0  0  0  0  0  0  0  0  0  0  0  0
  129.9725  139.1558  163.8395 C   0  0  0  0  0  0  0  0  0  0  0  0
  130.2298  140.3138  164.5452 C   0  0  0  0  0  0  0  0  0  0  0  0
  129.8416  141.5390  164.0340 C   0  0  0  0  0  0  0  0  0  0  0  0
  129.1989  141.6117  162.8112 C   0  0  0  0  0  0  0  0  0  0  0  0
  128.9408  140.4606  162.0948 C   0  0  0  0  0  0  0  0  0  0  0  0
  127.8595  137.2931  162.0344 C   0  0  0  0  0  0  0  0  0  0  0  0
  125.6688  132.3748  162.7685 H   0  0  0  0  0  0  0  0  0  0  0  0
  123.8602  132.6765  162.9662 H   0  0  0  0  0  0  0  0  0  0  0  0
  126.1395  134.4402  159.6896 H   0  0  0  0  0  0  0  0  0  0  0  0
  126.9055  133.4768  160.9753 H   0  0  0  0  0  0  0  0  0  0  0  0
  125.7532  135.7723  162.1498 H   0  0  0  0  0  0  0  0  0  0  0  0
  128.3418  134.7508  159.8558 H   0  0  0  0  0  0  0  0  0  0  0  0
  131.2509  136.4820  158.8232 H   0  0  0  0  0  0  0  0  0  0  0  0
  131.7379  131.7423  156.1630 H   0  0  0  0  0  0  0  0  0  0  0  0
  131.5196  129.4288  156.9572 H   0  0  0  0  0  0  0  0  0  0  0  0
  130.7875  128.9670  159.2595 H   0  0  0  0  0  0  0  0  0  0  0  0
  130.2677  130.8140  160.7921 H   0  0  0  0  0  0  0  0  0  0  0  0
  130.2719  138.1993  164.2417 H   0  0  0  0  0  0  0  0  0  0  0  0
  130.7310  140.2627  165.5005 H   0  0  0  0  0  0  0  0  0  0  0  0
  130.0417  142.4422  164.5911 H   0  0  0  0  0  0  0  0  0  0  0  0
  128.8980  142.5710  162.4167 H   0  0  0  0  0  0  0  0  0  0  0  0
  128.4389  140.5185  161.1404 H   0  0  0  0  0  0  0  0  0  0  0  0
  127.1324  137.6617  162.7429 H   0  0  0  0  0  0  0  0  0  0  0  0
  1  2  1  0
  2  5  1  0
  2  3  1  0
  2  4  1  0
  4  5  1  0
  4 34  1  0
  4 35  1  0
  5  6  1  1
  5  7  1  0
  7  8  1  0
  7 36  1  0
  7 37  1  0
  8  9  1  0
  8 38  1  0
  9 33  1  0
  9 10  2  0
 10 11  1  0
 10 39  1  0
 11 12  1  0
 11 24  2  0
 12 13  1  0
 12 40  1  0
 13 22  1  0
 13 14  2  0
 14 15  1  0
 14 16  1  0
 16 21  2  0
 16 17  1  0
 17 18  2  0
 17 41  1  0
 18 19  1  0
 18 42  1  0
 19 20  2  0
 19 43  1  0
 20 21  1  0
 20 44  1  0
 21 22  1  0
 22 23  1  0
 24 25  1  0
 24 26  1  0
 26 27  1  0
 26 33  2  0
 27 32  1  0
 27 28  2  0
 28 29  1  0
 28 45  1  0
 29 30  2  0
 29 46  1  0
 30 31  1  0
 30 47  1  0
 31 32  2  0
 31 48  1  0
 32 49  1  0
 33 50  1  0
M  CHG  1  14   1
M  END
>  <DOCK_score>  (1) 
-49.809956

>  <SMILES>  (1) 
FC1(F)C[C@H]1CNc1cc(Nc2[nH]c3ccccc3[nH+]2)c(Cl)c(-c2ccccc2)c1

$$$$
