C[NH2+][C@@H](C(=O)Nc1cccc(O)c1)c1cccc(Nc2ccccc2N)c1
     RDKit          3D

 50 52  0  0  1  0  0  0  0  0999 V2000
  130.9311  132.2835  157.2571 C   0  0  0  0  0  0  0  0  0  0  0  0
  131.6003  132.7215  158.4893 N   0  0  0  0  0  0  0  0  0  0  0  0
  132.5053  133.1056  158.2623 H   0  0  0  0  0  0  0  0  0  0  0  0
  131.7153  131.9329  159.1082 H   0  0  0  0  0  0  0  0  0  0  0  0
  130.7845  133.7484  159.1512 C   0  0  1  0  0  0  0  0  0  0  0  0
  130.6602  134.6002  158.4827 H   0  0  0  0  0  0  0  0  0  0  0  0
  129.4330  133.1745  159.4904 C   0  0  0  0  0  0  0  0  0  0  0  0
  129.3198  131.9913  159.7318 O   0  0  0  0  0  0  0  0  0  0  0  0
  128.3501  133.9762  159.5258 N   0  0  0  0  0  0  0  0  0  0  0  0
  127.0953  133.4434  159.8408 C   0  0  0  0  0  0  0  0  0  0  0  0
  126.7966  132.1266  159.5133 C   0  0  0  0  0  0  0  0  0  0  0  0
  125.5600  131.5989  159.8294 C   0  0  0  0  0  0  0  0  0  0  0  0
  124.6127  132.3820  160.4617 C   0  0  0  0  0  0  0  0  0  0  0  0
  124.9034  133.6996  160.7860 C   0  0  0  0  0  0  0  0  0  0  0  0
  123.9709  134.4686  161.4072 O   0  0  0  0  0  0  0  0  0  0  0  0
  126.1455  134.2310  160.4756 C   0  0  0  0  0  0  0  0  0  0  0  0
  131.4712  134.1977  160.4152 C   0  0  0  0  0  0  0  0  0  0  0  0
  131.2115  133.5508  161.6099 C   0  0  0  0  0  0  0  0  0  0  0  0
  131.8393  133.9597  162.7720 C   0  0  0  0  0  0  0  0  0  0  0  0
  132.7285  135.0161  162.7433 C   0  0  0  0  0  0  0  0  0  0  0  0
  132.9965  135.6642  161.5441 C   0  0  0  0  0  0  0  0  0  0  0  0
  133.8999  136.7288  161.5104 N   0  0  0  0  0  0  0  0  0  0  0  0
  133.4465  138.0383  161.7103 C   0  0  0  0  0  0  0  0  0  0  0  0
  132.1017  138.2802  161.9475 C   0  0  0  0  0  0  0  0  0  0  0  0
  131.6562  139.5740  162.1445 C   0  0  0  0  0  0  0  0  0  0  0  0
  132.5479  140.6300  162.1055 C   0  0  0  0  0  0  0  0  0  0  0  0
  133.8904  140.3982  161.8697 C   0  0  0  0  0  0  0  0  0  0  0  0
  134.3471  139.1032  161.6771 C   0  0  0  0  0  0  0  0  0  0  0  0
  135.7068  138.8656  161.4439 N   0  0  0  0  0  0  0  0  0  0  0  0
  132.3591  135.2545  160.3792 C   0  0  0  0  0  0  0  0  0  0  0  0
  129.9535  131.8686  157.5023 H   0  0  0  0  0  0  0  0  0  0  0  0
  130.8069  133.1355  156.5887 H   0  0  0  0  0  0  0  0  0  0  0  0
  131.5365  131.5216  156.7660 H   0  0  0  0  0  0  0  0  0  0  0  0
  128.4408  134.9225  159.3328 H   0  0  0  0  0  0  0  0  0  0  0  0
  127.5336  131.5139  159.0153 H   0  0  0  0  0  0  0  0  0  0  0  0
  125.3310  130.5739  159.5778 H   0  0  0  0  0  0  0  0  0  0  0  0
  123.6451  131.9679  160.7039 H   0  0  0  0  0  0  0  0  0  0  0  0
  124.2650  135.3709  161.5921 H   0  0  0  0  0  0  0  0  0  0  0  0
  126.3737  135.2561  160.7275 H   0  0  0  0  0  0  0  0  0  0  0  0
  130.5166  132.7244  161.6351 H   0  0  0  0  0  0  0  0  0  0  0  0
  131.6343  133.4524  163.7031 H   0  0  0  0  0  0  0  0  0  0  0  0
  133.2188  135.3349  163.6514 H   0  0  0  0  0  0  0  0  0  0  0  0
  134.8416  136.5608  161.3487 H   0  0  0  0  0  0  0  0  0  0  0  0
  131.4022  137.4578  161.9780 H   0  0  0  0  0  0  0  0  0  0  0  0
  130.6085  139.7605  162.3291 H   0  0  0  0  0  0  0  0  0  0  0  0
  132.1946  141.6389  162.2593 H   0  0  0  0  0  0  0  0  0  0  0  0
  134.5840  141.2256  161.8394 H   0  0  0  0  0  0  0  0  0  0  0  0
  136.0240  137.9594  161.3052 H   0  0  0  0  0  0  0  0  0  0  0  0
  136.3316  139.6071  161.4211 H   0  0  0  0  0  0  0  0  0  0  0  0
  132.5613  135.7592  159.4461 H   0  0  0  0  0  0  0  0  0  0  0  0
  1  2  1  0
  1 31  1  0
  1 32  1  0
  1 33  1  0
  2  3  1  0
  2  4  1  0
  2  5  1  0
  5  6  1  6
  5  7  1  0
  5 17  1  0
  7  8  2  0
  7  9  1  0
  9 10  1  0
  9 34  1  0
 10 16  1  0
 10 11  2  0
 11 12  1  0
 11 35  1  0
 12 13  2  0
 12 36  1  0
 13 14  1  0
 13 37  1  0
 14 15  1  0
 14 16  2  0
 15 38  1  0
 16 39  1  0
 17 30  1  0
 17 18  2  0
 18 19  1  0
 18 40  1  0
 19 20  2  0
 19 41  1  0
 20 21  1  0
 20 42  1  0
 21 22  1  0
 21 30  2  0
 22 23  1  0
 22 43  1  0
 23 28  1  0
 23 24  2  0
 24 25  1  0
 24 44  1  0
 25 26  2  0
 25 45  1  0
 26 27  1  0
 26 46  1  0
 27 28  2  0
 27 47  1  0
 28 29  1  0
 29 48  1  0
 29 49  1  0
 30 50  1  0
M  CHG  1   2   1
M  END
>  <DOCK_score>  (1) 
-43.217041

>  <SMILES>  (1) 
C[NH2+][C@@H](C(=O)Nc1cccc(O)c1)c1cccc(Nc2ccccc2N)c1

$$$$
