CCC[C@@H](Nc1[nH]cc(-c2ccc(N)cc2)[nH+]1)c1ccc(Cl)cc1
     RDKit          3D

 46 48  0  0  1  0  0  0  0  0999 V2000
  125.3405  135.2367  159.7600 C   0  0  0  0  0  0  0  0  0  0  0  0
  126.7467  135.3378  160.3546 C   0  0  0  0  0  0  0  0  0  0  0  0
  127.7683  135.4872  159.2255 C   0  0  0  0  0  0  0  0  0  0  0  0
  129.1745  135.5882  159.8201 C   0  0  1  0  0  0  0  0  0  0  0  0
  129.2673  134.8920  160.6536 H   0  0  0  0  0  0  0  0  0  0  0  0
  130.1641  135.2546  158.7926 N   0  0  0  0  0  0  0  0  0  0  0  0
  130.1441  134.0079  158.1911 C   0  0  0  0  0  0  0  0  0  0  0  0
  129.7119  132.8551  158.7707 N   0  0  0  0  0  0  0  0  0  0  0  0
  129.3661  132.7595  159.6719 H   0  0  0  0  0  0  0  0  0  0  0  0
  129.8566  131.8508  157.8430 C   0  0  0  0  0  0  0  0  0  0  0  0
  130.3723  132.4192  156.7252 C   0  0  0  0  0  0  0  0  0  0  0  0
  130.6972  131.7173  155.4593 C   0  0  0  0  0  0  0  0  0  0  0  0
  130.6116  132.3947  154.2438 C   0  0  0  0  0  0  0  0  0  0  0  0
  130.9198  131.7420  153.0689 C   0  0  0  0  0  0  0  0  0  0  0  0
  131.3042  130.4066  153.0947 C   0  0  0  0  0  0  0  0  0  0  0  0
  131.6107  129.7459  151.9027 N   0  0  0  0  0  0  0  0  0  0  0  0
  131.3847  129.7277  154.3048 C   0  0  0  0  0  0  0  0  0  0  0  0
  131.0831  130.3781  155.4827 C   0  0  0  0  0  0  0  0  0  0  0  0
  130.5329  133.7444  156.9673 N   0  0  0  0  0  0  0  0  0  0  0  0
  130.8819  134.3930  156.3362 H   0  0  0  0  0  0  0  0  0  0  0  0
  129.4130  136.9931  160.3100 C   0  0  0  0  0  0  0  0  0  0  0  0
  129.9604  137.9372  159.4614 C   0  0  0  0  0  0  0  0  0  0  0  0
  130.1742  139.2275  159.9085 C   0  0  0  0  0  0  0  0  0  0  0  0
  129.8507  139.5711  161.2090 C   0  0  0  0  0  0  0  0  0  0  0  0
  130.1249  141.1898  161.7733 Cl  0  0  0  0  0  0  0  0  0  0  0  0
  129.3081  138.6244  162.0595 C   0  0  0  0  0  0  0  0  0  0  0  0
  129.0895  137.3359  161.6096 C   0  0  0  0  0  0  0  0  0  0  0  0
  124.6127  135.1303  160.5644 H   0  0  0  0  0  0  0  0  0  0  0  0
  125.1219  136.1391  159.1891 H   0  0  0  0  0  0  0  0  0  0  0  0
  125.2854  134.3689  159.1029 H   0  0  0  0  0  0  0  0  0  0  0  0
  126.8018  136.2057  161.0118 H   0  0  0  0  0  0  0  0  0  0  0  0
  126.9655  134.4354  160.9255 H   0  0  0  0  0  0  0  0  0  0  0  0
  127.7131  134.6192  158.5684 H   0  0  0  0  0  0  0  0  0  0  0  0
  127.5495  136.3896  158.6546 H   0  0  0  0  0  0  0  0  0  0  0  0
  130.8335  135.9072  158.5340 H   0  0  0  0  0  0  0  0  0  0  0  0
  129.6072  130.8087  157.9786 H   0  0  0  0  0  0  0  0  0  0  0  0
  130.3083  133.4310  154.2228 H   0  0  0  0  0  0  0  0  0  0  0  0
  130.8575  132.2674  152.1274 H   0  0  0  0  0  0  0  0  0  0  0  0
  131.8793  128.8139  151.9199 H   0  0  0  0  0  0  0  0  0  0  0  0
  131.5547  130.2190  151.0577 H   0  0  0  0  0  0  0  0  0  0  0  0
  131.6832  128.6900  154.3226 H   0  0  0  0  0  0  0  0  0  0  0  0
  131.1461  129.8502  156.4229 H   0  0  0  0  0  0  0  0  0  0  0  0
  130.2170  137.6676  158.4475 H   0  0  0  0  0  0  0  0  0  0  0  0
  130.5978  139.9660  159.2441 H   0  0  0  0  0  0  0  0  0  0  0  0
  129.0557  138.8920  163.0750 H   0  0  0  0  0  0  0  0  0  0  0  0
  128.6657  136.5969  162.2733 H   0  0  0  0  0  0  0  0  0  0  0  0
  1  2  1  0
  1 28  1  0
  1 29  1  0
  1 30  1  0
  2  3  1  0
  2 31  1  0
  2 32  1  0
  3  4  1  0
  3 33  1  0
  3 34  1  0
  4  5  1  1
  4  6  1  0
  4 21  1  0
  6 35  1  0
  7  6  1  0
  7 19  2  0
  7  8  1  0
  8  9  1  0
  8 10  1  0
 10 11  2  0
 10 36  1  0
 11 12  1  0
 11 19  1  0
 12 18  1  0
 12 13  2  0
 13 14  1  0
 13 37  1  0
 14 15  2  0
 14 38  1  0
 15 16  1  0
 15 17  1  0
 16 39  1  0
 16 40  1  0
 17 18  2  0
 17 41  1  0
 18 42  1  0
 19 20  1  0
 21 27  1  0
 21 22  2  0
 22 23  1  0
 22 43  1  0
 23 24  2  0
 23 44  1  0
 24 25  1  0
 24 26  1  0
 26 27  2  0
 26 45  1  0
 27 46  1  0
M  CHG  1  19   1
M  END
>  <DOCK_score>  (1) 
-58.535065

>  <SMILES>  (1) 
CCC[C@@H](Nc1[nH]cc(-c2ccc(N)cc2)[nH+]1)c1ccc(Cl)cc1

$$$$
