CCN(C)c1ccccc1C[C@@H]([NH3+])C(=O)Nc1cc(O)cc(O)c1
     RDKit          3D

 48 49  0  0  1  0  0  0  0  0999 V2000
  131.1897  131.0010  155.7520 C   0  0  0  0  0  0  0  0  0  0  0  0
  130.1597  130.8324  156.8708 C   0  0  0  0  0  0  0  0  0  0  0  0
  130.7613  131.2218  158.1531 N   0  0  0  0  0  0  0  0  0  0  0  0
  131.4790  130.0938  158.7619 C   0  0  0  0  0  0  0  0  0  0  0  0
  129.7960  131.7301  159.0251 C   0  0  0  0  0  0  0  0  0  0  0  0
  128.4836  131.2802  158.9498 C   0  0  0  0  0  0  0  0  0  0  0  0
  127.5329  131.7810  159.8169 C   0  0  0  0  0  0  0  0  0  0  0  0
  127.8845  132.7337  160.7559 C   0  0  0  0  0  0  0  0  0  0  0  0
  129.1883  133.1877  160.8299 C   0  0  0  0  0  0  0  0  0  0  0  0
  130.1445  132.6906  159.9659 C   0  0  0  0  0  0  0  0  0  0  0  0
  131.5653  133.1862  160.0472 C   0  0  0  0  0  0  0  0  0  0  0  0
  131.7373  134.3955  159.1259 C   0  0  1  0  0  0  0  0  0  0  0  0
  132.7651  134.7539  159.1848 H   0  0  0  0  0  0  0  0  0  0  0  0
  131.4338  134.0043  157.7428 N   0  0  0  0  0  0  0  0  0  0  0  0
  131.5473  134.8018  157.1351 H   0  0  0  0  0  0  0  0  0  0  0  0
  132.0632  133.2700  157.4551 H   0  0  0  0  0  0  0  0  0  0  0  0
  130.4825  133.6724  157.6882 H   0  0  0  0  0  0  0  0  0  0  0  0
  130.7973  135.4922  159.5556 C   0  0  0  0  0  0  0  0  0  0  0  0
  129.6796  135.5507  159.0880 O   0  0  0  0  0  0  0  0  0  0  0  0
  131.1986  136.4081  160.4592 N   0  0  0  0  0  0  0  0  0  0  0  0
  130.3258  137.4263  160.8582 C   0  0  0  0  0  0  0  0  0  0  0  0
  130.6718  138.7556  160.6576 C   0  0  0  0  0  0  0  0  0  0  0  0
  129.8037  139.7639  161.0474 C   0  0  0  0  0  0  0  0  0  0  0  0
  130.1395  141.0652  160.8457 O   0  0  0  0  0  0  0  0  0  0  0  0
  128.5953  139.4450  161.6489 C   0  0  0  0  0  0  0  0  0  0  0  0
  128.2516  138.1173  161.8548 C   0  0  0  0  0  0  0  0  0  0  0  0
  127.0674  137.8057  162.4442 O   0  0  0  0  0  0  0  0  0  0  0  0
  129.1160  137.1077  161.4597 C   0  0  0  0  0  0  0  0  0  0  0  0
  132.0535  130.3682  155.9551 H   0  0  0  0  0  0  0  0  0  0  0  0
  130.7432  130.7122  154.8005 H   0  0  0  0  0  0  0  0  0  0  0  0
  131.5061  132.0430  155.7035 H   0  0  0  0  0  0  0  0  0  0  0  0
  129.8432  129.7905  156.9193 H   0  0  0  0  0  0  0  0  0  0  0  0
  129.2958  131.4654  156.6678 H   0  0  0  0  0  0  0  0  0  0  0  0
  130.7717  129.2999  159.0014 H   0  0  0  0  0  0  0  0  0  0  0  0
  132.2247  129.7171  158.0617 H   0  0  0  0  0  0  0  0  0  0  0  0
  131.9733  130.4276  159.6743 H   0  0  0  0  0  0  0  0  0  0  0  0
  128.2084  130.5363  158.2168 H   0  0  0  0  0  0  0  0  0  0  0  0
  126.5135  131.4287  159.7615 H   0  0  0  0  0  0  0  0  0  0  0  0
  127.1388  133.1240  161.4326 H   0  0  0  0  0  0  0  0  0  0  0  0
  129.4595  133.9316  161.5643 H   0  0  0  0  0  0  0  0  0  0  0  0
  131.7907  133.4763  161.0734 H   0  0  0  0  0  0  0  0  0  0  0  0
  132.2452  132.3929  159.7362 H   0  0  0  0  0  0  0  0  0  0  0  0
  132.0924  136.3613  160.8331 H   0  0  0  0  0  0  0  0  0  0  0  0
  131.6149  139.0041  160.1939 H   0  0  0  0  0  0  0  0  0  0  0  0
  131.0014  141.1883  160.4248 H   0  0  0  0  0  0  0  0  0  0  0  0
  127.9216  140.2309  161.9568 H   0  0  0  0  0  0  0  0  0  0  0  0
  126.9161  136.8560  162.5451 H   0  0  0  0  0  0  0  0  0  0  0  0
  128.8481  136.0739  161.6199 H   0  0  0  0  0  0  0  0  0  0  0  0
  1  2  1  0
  1 29  1  0
  1 30  1  0
  1 31  1  0
  2  3  1  0
  2 32  1  0
  2 33  1  0
  3  4  1  0
  3  5  1  0
  4 34  1  0
  4 35  1  0
  4 36  1  0
  5 10  2  0
  5  6  1  0
  6  7  2  0
  6 37  1  0
  7  8  1  0
  7 38  1  0
  8  9  2  0
  8 39  1  0
  9 10  1  0
  9 40  1  0
 10 11  1  0
 11 12  1  0
 11 41  1  0
 11 42  1  0
 12 13  1  6
 12 14  1  0
 12 18  1  0
 14 15  1  0
 14 16  1  0
 14 17  1  0
 18 19  2  0
 18 20  1  0
 20 21  1  0
 20 43  1  0
 21 28  1  0
 21 22  2  0
 22 23  1  0
 22 44  1  0
 23 24  1  0
 23 25  2  0
 24 45  1  0
 25 26  1  0
 25 46  1  0
 26 27  1  0
 26 28  2  0
 27 47  1  0
 28 48  1  0
M  CHG  1  14   1
M  END
>  <DOCK_score>  (1) 
-44.037537

>  <SMILES>  (1) 
CCN(C)c1ccccc1C[C@@H]([NH3+])C(=O)Nc1cc(O)cc(O)c1

$$$$
