CCc1ccc(-c2c[nH]c(N[C@@H](C=Cc3ccccc3F)c3cccc(C)c3C)[nH+]2)cc1
     RDKit          3D

 61 64  0  0  1  0  0  0  0  0999 V2000
  129.5507  128.4207  150.6500 C   0  0  0  0  0  0  0  0  0  0  0  0
  130.7408  129.3677  150.8159 C   0  0  0  0  0  0  0  0  0  0  0  0
  130.6878  130.0073  152.1794 C   0  0  0  0  0  0  0  0  0  0  0  0
  131.3180  129.4000  153.2500 C   0  0  0  0  0  0  0  0  0  0  0  0
  131.2776  129.9839  154.4999 C   0  0  0  0  0  0  0  0  0  0  0  0
  130.5904  131.1823  154.6843 C   0  0  0  0  0  0  0  0  0  0  0  0
  130.5387  131.8120  156.0264 C   0  0  0  0  0  0  0  0  0  0  0  0
  130.0254  131.2537  157.1506 C   0  0  0  0  0  0  0  0  0  0  0  0
  130.1802  132.1737  158.1590 N   0  0  0  0  0  0  0  0  0  0  0  0
  129.9088  132.0636  159.0837 H   0  0  0  0  0  0  0  0  0  0  0  0
  130.7842  133.2682  157.6210 C   0  0  0  0  0  0  0  0  0  0  0  0
  131.1187  134.4233  158.3067 N   0  0  0  0  0  0  0  0  0  0  0  0
  130.8226  134.5379  159.7369 C   0  0  1  0  0  0  0  0  0  0  0  0
  131.0294  133.5872  160.2280 H   0  0  0  0  0  0  0  0  0  0  0  0
  131.6846  135.6149  160.3436 C   0  0  0  0  0  0  0  0  0  0  0  0
  132.8751  135.3095  160.8409 C   0  0  0  0  0  0  0  0  0  0  0  0
  133.7205  136.3655  161.4359 C   0  0  0  0  0  0  0  0  0  0  0  0
  134.1258  137.4560  160.6654 C   0  0  0  0  0  0  0  0  0  0  0  0
  134.9148  138.4386  161.2265 C   0  0  0  0  0  0  0  0  0  0  0  0
  135.3059  138.3455  162.5507 C   0  0  0  0  0  0  0  0  0  0  0  0
  134.9089  137.2685  163.3216 C   0  0  0  0  0  0  0  0  0  0  0  0
  134.1129  136.2796  162.7742 C   0  0  0  0  0  0  0  0  0  0  0  0
  133.7207  135.2302  163.5293 F   0  0  0  0  0  0  0  0  0  0  0  0
  129.3699  134.8936  159.9221 C   0  0  0  0  0  0  0  0  0  0  0  0
  128.5522  135.0571  158.8193 C   0  0  0  0  0  0  0  0  0  0  0  0
  127.2199  135.3832  158.9892 C   0  0  0  0  0  0  0  0  0  0  0  0
  126.7045  135.5451  160.2615 C   0  0  0  0  0  0  0  0  0  0  0  0
  127.5218  135.3806  161.3643 C   0  0  0  0  0  0  0  0  0  0  0  0
  126.9600  135.5563  162.7517 C   0  0  0  0  0  0  0  0  0  0  0  0
  128.8537  135.0505  161.1946 C   0  0  0  0  0  0  0  0  0  0  0  0
  129.7434  134.8661  162.3967 C   0  0  0  0  0  0  0  0  0  0  0  0
  131.0021  133.0459  156.3477 N   0  0  0  0  0  0  0  0  0  0  0  0
  131.4249  133.6657  155.7329 H   0  0  0  0  0  0  0  0  0  0  0  0
  129.9523  131.7872  153.6029 C   0  0  0  0  0  0  0  0  0  0  0  0
  130.0041  131.1972  152.3563 C   0  0  0  0  0  0  0  0  0  0  0  0
  128.6221  128.9823  150.7523 H   0  0  0  0  0  0  0  0  0  0  0  0
  129.5890  127.9583  149.6638 H   0  0  0  0  0  0  0  0  0  0  0  0
  129.5934  127.6467  151.4162 H   0  0  0  0  0  0  0  0  0  0  0  0
  131.6691  128.8068  150.7133 H   0  0  0  0  0  0  0  0  0  0  0  0
  130.6978  130.1424  150.0493 H   0  0  0  0  0  0  0  0  0  0  0  0
  131.8462  128.4689  153.1070 H   0  0  0  0  0  0  0  0  0  0  0  0
  131.7740  129.5110  155.3344 H   0  0  0  0  0  0  0  0  0  0  0  0
  129.5798  130.2737  157.2366 H   0  0  0  0  0  0  0  0  0  0  0  0
  131.5493  135.1568  157.8402 H   0  0  0  0  0  0  0  0  0  0  0  0
  131.3327  136.6356  160.3734 H   0  0  0  0  0  0  0  0  0  0  0  0
  133.2270  134.2888  160.8111 H   0  0  0  0  0  0  0  0  0  0  0  0
  133.8217  137.5307  159.6317 H   0  0  0  0  0  0  0  0  0  0  0  0
  135.2288  139.2827  160.6305 H   0  0  0  0  0  0  0  0  0  0  0  0
  135.9243  139.1177  162.9840 H   0  0  0  0  0  0  0  0  0  0  0  0
  135.2176  137.2019  164.3544 H   0  0  0  0  0  0  0  0  0  0  0  0
  128.9546  134.9305  157.8250 H   0  0  0  0  0  0  0  0  0  0  0  0
  126.5812  135.5112  158.1278 H   0  0  0  0  0  0  0  0  0  0  0  0
  125.6633  135.7996  160.3940 H   0  0  0  0  0  0  0  0  0  0  0  0
  126.5843  134.6000  163.1154 H   0  0  0  0  0  0  0  0  0  0  0  0
  127.7441  135.9158  163.4182 H   0  0  0  0  0  0  0  0  0  0  0  0
  126.1456  136.2803  162.7249 H   0  0  0  0  0  0  0  0  0  0  0  0
  130.1992  135.8203  162.6612 H   0  0  0  0  0  0  0  0  0  0  0  0
  129.1502  134.5020  163.2355 H   0  0  0  0  0  0  0  0  0  0  0  0
  130.5246  134.1428  162.1631 H   0  0  0  0  0  0  0  0  0  0  0  0
  129.4181  132.7159  153.7402 H   0  0  0  0  0  0  0  0  0  0  0  0
  129.5097  131.6649  151.5177 H   0  0  0  0  0  0  0  0  0  0  0  0
  1  2  1  0
  1 36  1  0
  1 37  1  0
  1 38  1  0
  2  3  1  0
  2 39  1  0
  2 40  1  0
  3 35  2  0
  3  4  1  0
  4  5  2  0
  4 41  1  0
  5  6  1  0
  5 42  1  0
  6  7  1  0
  6 34  2  0
  7 32  1  0
  7  8  2  0
  8  9  1  0
  8 43  1  0
  9 10  1  0
  9 11  1  0
 11 12  1  0
 11 32  2  0
 12 13  1  0
 12 44  1  0
 13 14  1  1
 13 15  1  0
 13 24  1  0
 15 16  2  0
 15 45  1  0
 16 17  1  0
 16 46  1  0
 17 22  1  0
 17 18  2  0
 18 19  1  0
 18 47  1  0
 19 20  2  0
 19 48  1  0
 20 21  1  0
 20 49  1  0
 21 22  2  0
 21 50  1  0
 22 23  1  0
 24 30  1  0
 24 25  2  0
 25 26  1  0
 25 51  1  0
 26 27  2  0
 26 52  1  0
 27 28  1  0
 27 53  1  0
 28 29  1  0
 28 30  2  0
 29 54  1  0
 29 55  1  0
 29 56  1  0
 30 31  1  0
 31 57  1  0
 31 58  1  0
 31 59  1  0
 32 33  1  0
 34 35  1  0
 34 60  1  0
 35 61  1  0
M  CHG  1  32   1
M  END
>  <DOCK_score>  (1) 
-63.458

>  <SMILES>  (1) 
CCc1ccc(-c2c[nH]c(N[C@@H](C=Cc3ccccc3F)c3cccc(C)c3C)[nH+]2)cc1

$$$$
