c1ccc(-c2ccc(-c3n[nH]cc3CNc3[nH]c4ccccc4[nH+]3)cc2)cc1
     RDKit          3D

 48 52  0  0  0  0  0  0  0  0999 V2000
  131.3089  130.1215  153.6996 C   0  0  0  0  0  0  0  0  0  0  0  0
  130.5035  131.1958  153.3669 C   0  0  0  0  0  0  0  0  0  0  0  0
  130.0185  132.0297  154.3538 C   0  0  0  0  0  0  0  0  0  0  0  0
  130.3416  131.7876  155.6879 C   0  0  0  0  0  0  0  0  0  0  0  0
  129.8238  132.6804  156.7530 C   0  0  0  0  0  0  0  0  0  0  0  0
  129.5726  134.0237  156.4759 C   0  0  0  0  0  0  0  0  0  0  0  0
  129.0921  134.8529  157.4654 C   0  0  0  0  0  0  0  0  0  0  0  0
  128.8565  134.3490  158.7440 C   0  0  0  0  0  0  0  0  0  0  0  0
  128.3386  135.2420  159.8093 C   0  0  0  0  0  0  0  0  0  0  0  0
  127.2078  135.0897  160.4660 N   0  0  0  0  0  0  0  0  0  0  0  0
  127.0915  136.1427  161.3823 N   0  0  0  0  0  0  0  0  0  0  0  0
  126.3556  136.2819  161.9989 H   0  0  0  0  0  0  0  0  0  0  0  0
  128.1838  136.9276  161.2619 C   0  0  0  0  0  0  0  0  0  0  0  0
  128.9701  136.4030  160.2972 C   0  0  0  0  0  0  0  0  0  0  0  0
  130.2913  136.9575  159.8302 C   0  0  0  0  0  0  0  0  0  0  0  0
  131.0998  137.3365  160.9916 N   0  0  0  0  0  0  0  0  0  0  0  0
  132.3541  137.8700  160.8114 C   0  0  0  0  0  0  0  0  0  0  0  0
  133.1679  138.2526  161.7928 N   0  0  0  0  0  0  0  0  0  0  0  0
  132.9749  138.2015  162.7420 H   0  0  0  0  0  0  0  0  0  0  0  0
  134.3258  138.7282  161.2355 C   0  0  0  0  0  0  0  0  0  0  0  0
  135.5045  139.2494  161.7612 C   0  0  0  0  0  0  0  0  0  0  0  0
  136.5105  139.6588  160.9131 C   0  0  0  0  0  0  0  0  0  0  0  0
  136.3571  139.5552  159.5382 C   0  0  0  0  0  0  0  0  0  0  0  0
  135.1966  139.0415  159.0013 C   0  0  0  0  0  0  0  0  0  0  0  0
  134.1706  138.6233  159.8436 C   0  0  0  0  0  0  0  0  0  0  0  0
  132.9290  138.0845  159.6302 N   0  0  0  0  0  0  0  0  0  0  0  0
  132.5354  137.8923  158.7646 H   0  0  0  0  0  0  0  0  0  0  0  0
  129.1131  133.0071  159.0226 C   0  0  0  0  0  0  0  0  0  0  0  0
  129.5886  132.1765  158.0319 C   0  0  0  0  0  0  0  0  0  0  0  0
  131.1577  130.7066  156.0168 C   0  0  0  0  0  0  0  0  0  0  0  0
  131.6331  129.8766  155.0219 C   0  0  0  0  0  0  0  0  0  0  0  0
  131.6862  129.4715  152.9239 H   0  0  0  0  0  0  0  0  0  0  0  0
  130.2541  131.3827  152.3328 H   0  0  0  0  0  0  0  0  0  0  0  0
  129.3901  132.8684  154.0928 H   0  0  0  0  0  0  0  0  0  0  0  0
  129.7551  134.4141  155.4855 H   0  0  0  0  0  0  0  0  0  0  0  0
  128.8975  135.8934  157.2507 H   0  0  0  0  0  0  0  0  0  0  0  0
  128.3912  137.8191  161.8351 H   0  0  0  0  0  0  0  0  0  0  0  0
  130.8193  136.1994  159.2517 H   0  0  0  0  0  0  0  0  0  0  0  0
  130.1174  137.8345  159.2067 H   0  0  0  0  0  0  0  0  0  0  0  0
  130.7503  137.2109  161.8876 H   0  0  0  0  0  0  0  0  0  0  0  0
  135.6304  139.3324  162.8307 H   0  0  0  0  0  0  0  0  0  0  0  0
  137.4250  140.0627  161.3217 H   0  0  0  0  0  0  0  0  0  0  0  0
  137.1531  139.8792  158.8841 H   0  0  0  0  0  0  0  0  0  0  0  0
  135.0838  138.9632  157.9301 H   0  0  0  0  0  0  0  0  0  0  0  0
  128.9351  132.6179  160.0143 H   0  0  0  0  0  0  0  0  0  0  0  0
  129.7832  131.1361  158.2466 H   0  0  0  0  0  0  0  0  0  0  0  0
  131.4148  130.5171  157.0484 H   0  0  0  0  0  0  0  0  0  0  0  0
  132.2622  129.0364  155.2758 H   0  0  0  0  0  0  0  0  0  0  0  0
  1 31  2  0
  1  2  1  0
  1 32  1  0
  2  3  2  0
  2 33  1  0
  3  4  1  0
  3 34  1  0
  4  5  1  0
  4 30  2  0
  5 29  1  0
  5  6  2  0
  6  7  1  0
  6 35  1  0
  7  8  2  0
  7 36  1  0
  8  9  1  0
  8 28  1  0
  9 14  1  0
  9 10  2  0
 10 11  1  0
 11 12  1  0
 11 13  1  0
 13 14  2  0
 13 37  1  0
 14 15  1  0
 15 16  1  0
 15 38  1  0
 15 39  1  0
 16 17  1  0
 16 40  1  0
 17 26  1  0
 17 18  2  0
 18 19  1  0
 18 20  1  0
 20 25  2  0
 20 21  1  0
 21 22  2  0
 21 41  1  0
 22 23  1  0
 22 42  1  0
 23 24  2  0
 23 43  1  0
 24 25  1  0
 24 44  1  0
 25 26  1  0
 26 27  1  0
 28 29  2  0
 28 45  1  0
 29 46  1  0
 30 31  1  0
 30 47  1  0
 31 48  1  0
M  CHG  1  18   1
M  END
>  <DOCK_score>  (1) 
-53.050117

>  <SMILES>  (1) 
c1ccc(-c2ccc(-c3n[nH]cc3CNc3[nH]c4ccccc4[nH+]3)cc2)cc1

$$$$
