C1=C[C@H]([NH2+]Cc2c[nH]nc2-c2ccc(Nc3ccccc3)o2)CCCC1
     RDKit          3D

 51 54  0  0  1  0  0  0  0  0999 V2000
  134.3932  138.6449  161.6974 C   0  0  0  0  0  0  0  0  0  0  0  0
  133.9854  137.7511  160.8534 C   0  0  0  0  0  0  0  0  0  0  0  0
  132.5049  137.5270  160.6317 C   0  0  2  0  0  0  0  0  0  0  0  0
  131.9974  137.4409  161.5925 H   0  0  0  0  0  0  0  0  0  0  0  0
  132.3033  136.2961  159.8555 N   0  0  0  0  0  0  0  0  0  0  0  0
  132.9493  135.5890  160.1727 H   0  0  0  0  0  0  0  0  0  0  0  0
  132.4647  136.4851  158.8776 H   0  0  0  0  0  0  0  0  0  0  0  0
  130.9260  135.8201  160.0414 C   0  0  0  0  0  0  0  0  0  0  0  0
  130.7191  134.5575  159.2452 C   0  0  0  0  0  0  0  0  0  0  0  0
  131.6418  133.9437  158.4740 C   0  0  0  0  0  0  0  0  0  0  0  0
  131.0697  132.8480  157.9293 N   0  0  0  0  0  0  0  0  0  0  0  0
  131.5019  132.2184  157.3311 H   0  0  0  0  0  0  0  0  0  0  0  0
  129.7461  132.7751  158.3816 N   0  0  0  0  0  0  0  0  0  0  0  0
  129.5266  133.8073  159.1722 C   0  0  0  0  0  0  0  0  0  0  0  0
  128.2588  134.1190  159.8640 C   0  0  0  0  0  0  0  0  0  0  0  0
  127.1138  133.3898  159.7950 C   0  0  0  0  0  0  0  0  0  0  0  0
  126.1623  134.0468  160.5994 C   0  0  0  0  0  0  0  0  0  0  0  0
  126.7743  135.1369  161.1261 C   0  0  0  0  0  0  0  0  0  0  0  0
  126.1897  136.0609  161.9849 N   0  0  0  0  0  0  0  0  0  0  0  0
  126.9731  136.7318  162.9269 C   0  0  0  0  0  0  0  0  0  0  0  0
  126.6294  138.0162  163.3306 C   0  0  0  0  0  0  0  0  0  0  0  0
  127.4034  138.6746  164.2657 C   0  0  0  0  0  0  0  0  0  0  0  0
  128.5254  138.0612  164.7924 C   0  0  0  0  0  0  0  0  0  0  0  0
  128.8734  136.7850  164.3888 C   0  0  0  0  0  0  0  0  0  0  0  0
  128.1010  136.1187  163.4582 C   0  0  0  0  0  0  0  0  0  0  0  0
  128.0408  135.1738  160.6772 O   0  0  0  0  0  0  0  0  0  0  0  0
  131.9406  138.7205  159.8579 C   0  0  0  0  0  0  0  0  0  0  0  0
  131.5558  139.8427  160.8056 C   0  0  0  0  0  0  0  0  0  0  0  0
  132.7408  140.4747  161.5141 C   0  0  0  0  0  0  0  0  0  0  0  0
  133.3943  139.4771  162.4729 C   0  0  0  0  0  0  0  0  0  0  0  0
  135.4516  138.7975  161.8487 H   0  0  0  0  0  0  0  0  0  0  0  0
  134.7057  137.1624  160.3047 H   0  0  0  0  0  0  0  0  0  0  0  0
  130.2283  136.5842  159.6989 H   0  0  0  0  0  0  0  0  0  0  0  0
  130.7516  135.6163  161.0978 H   0  0  0  0  0  0  0  0  0  0  0  0
  132.6595  134.2709  158.3201 H   0  0  0  0  0  0  0  0  0  0  0  0
  126.9619  132.4822  159.2297 H   0  0  0  0  0  0  0  0  0  0  0  0
  125.1411  133.7389  160.7683 H   0  0  0  0  0  0  0  0  0  0  0  0
  125.2380  136.2395  161.9300 H   0  0  0  0  0  0  0  0  0  0  0  0
  125.7556  138.4973  162.9166 H   0  0  0  0  0  0  0  0  0  0  0  0
  127.1343  139.6711  164.5832 H   0  0  0  0  0  0  0  0  0  0  0  0
  129.1316  138.5802  165.5201 H   0  0  0  0  0  0  0  0  0  0  0  0
  129.7505  136.3092  164.8019 H   0  0  0  0  0  0  0  0  0  0  0  0
  128.3736  135.1222  163.1432 H   0  0  0  0  0  0  0  0  0  0  0  0
  132.6940  139.0837  159.1588 H   0  0  0  0  0  0  0  0  0  0  0  0
  131.0589  138.4028  159.3011 H   0  0  0  0  0  0  0  0  0  0  0  0
  131.0362  140.6152  160.2385 H   0  0  0  0  0  0  0  0  0  0  0  0
  130.8719  139.4462  161.5561 H   0  0  0  0  0  0  0  0  0  0  0  0
  133.4739  140.7931  160.7729 H   0  0  0  0  0  0  0  0  0  0  0  0
  132.4004  141.3432  162.0780 H   0  0  0  0  0  0  0  0  0  0  0  0
  133.9074  140.0168  163.2688 H   0  0  0  0  0  0  0  0  0  0  0  0
  132.6311  138.8273  162.9010 H   0  0  0  0  0  0  0  0  0  0  0  0
  1 30  1  0
  1  2  2  0
  1 31  1  0
  2  3  1  0
  2 32  1  0
  3  4  1  1
  3  5  1  0
  3 27  1  0
  5  6  1  0
  5  7  1  0
  5  8  1  0
  8  9  1  0
  8 33  1  0
  8 34  1  0
  9 14  1  0
  9 10  2  0
 10 11  1  0
 10 35  1  0
 11 12  1  0
 11 13  1  0
 13 14  2  0
 14 15  1  0
 15 26  1  0
 15 16  2  0
 16 17  1  0
 16 36  1  0
 17 18  2  0
 17 37  1  0
 18 19  1  0
 18 26  1  0
 19 20  1  0
 19 38  1  0
 20 25  1  0
 20 21  2  0
 21 22  1  0
 21 39  1  0
 22 23  2  0
 22 40  1  0
 23 24  1  0
 23 41  1  0
 24 25  2  0
 24 42  1  0
 25 43  1  0
 27 28  1  0
 27 44  1  0
 27 45  1  0
 28 29  1  0
 28 46  1  0
 28 47  1  0
 29 30  1  0
 29 48  1  0
 29 49  1  0
 30 50  1  0
 30 51  1  0
M  CHG  1   5   1
M  END
>  <DOCK_score>  (1) 
-45.175556

>  <SMILES>  (1) 
C1=C[C@H]([NH2+]Cc2c[nH]nc2-c2ccc(Nc3ccccc3)o2)CCCC1

$$$$
