CCc1ccc(-c2c[nH]c(N[C@@H](c3ccc(C)cc3)c3ccccc3Cl)[nH+]2)cc1
     RDKit          3D

 54 57  0  0  1  0  0  0  0  0999 V2000
  130.1447  128.9987  151.3396 C   0  0  0  0  0  0  0  0  0  0  0  0
  131.4300  129.6306  151.8780 C   0  0  0  0  0  0  0  0  0  0  0  0
  131.1405  130.3219  153.1854 C   0  0  0  0  0  0  0  0  0  0  0  0
  131.2586  129.6248  154.3743 C   0  0  0  0  0  0  0  0  0  0  0  0
  131.0002  130.2543  155.5749 C   0  0  0  0  0  0  0  0  0  0  0  0
  130.6086  131.5919  155.5872 C   0  0  0  0  0  0  0  0  0  0  0  0
  130.3241  132.2725  156.8741 C   0  0  0  0  0  0  0  0  0  0  0  0
  129.8544  131.6836  158.0018 C   0  0  0  0  0  0  0  0  0  0  0  0
  129.7360  132.6721  158.9482 N   0  0  0  0  0  0  0  0  0  0  0  0
  129.4238  132.5604  159.8597 H   0  0  0  0  0  0  0  0  0  0  0  0
  130.1374  133.8373  158.3708 C   0  0  0  0  0  0  0  0  0  0  0  0
  130.1697  135.0749  158.9903 N   0  0  0  0  0  0  0  0  0  0  0  0
  129.7478  135.2062  160.3871 C   0  0  1  0  0  0  0  0  0  0  0  0
  130.1105  134.3516  160.9580 H   0  0  0  0  0  0  0  0  0  0  0  0
  130.3168  136.4757  160.9665 C   0  0  0  0  0  0  0  0  0  0  0  0
  129.9953  137.6970  160.4044 C   0  0  0  0  0  0  0  0  0  0  0  0
  130.5138  138.8617  160.9386 C   0  0  0  0  0  0  0  0  0  0  0  0
  131.3614  138.8045  162.0291 C   0  0  0  0  0  0  0  0  0  0  0  0
  131.9305  140.0739  162.6085 C   0  0  0  0  0  0  0  0  0  0  0  0
  131.6867  137.5828  162.5883 C   0  0  0  0  0  0  0  0  0  0  0  0
  131.1647  136.4184  162.0567 C   0  0  0  0  0  0  0  0  0  0  0  0
  128.2430  135.2535  160.4548 C   0  0  0  0  0  0  0  0  0  0  0  0
  127.5199  135.7843  159.4031 C   0  0  0  0  0  0  0  0  0  0  0  0
  126.1398  135.8272  159.4649 C   0  0  0  0  0  0  0  0  0  0  0  0
  125.4815  135.3404  160.5791 C   0  0  0  0  0  0  0  0  0  0  0  0
  126.2034  134.8101  161.6314 C   0  0  0  0  0  0  0  0  0  0  0  0
  127.5848  134.7606  161.5673 C   0  0  0  0  0  0  0  0  0  0  0  0
  128.4919  134.0869  162.8851 Cl  0  0  0  0  0  0  0  0  0  0  0  0
  130.4935  133.5935  157.1332 N   0  0  0  0  0  0  0  0  0  0  0  0
  130.8232  134.2526  156.5025 H   0  0  0  0  0  0  0  0  0  0  0  0
  130.4858  132.2877  154.3858 C   0  0  0  0  0  0  0  0  0  0  0  0
  130.7522  131.6496  153.1915 C   0  0  0  0  0  0  0  0  0  0  0  0
  129.3964  129.7753  151.1820 H   0  0  0  0  0  0  0  0  0  0  0  0
  130.3542  128.4986  150.3940 H   0  0  0  0  0  0  0  0  0  0  0  0
  129.7681  128.2719  152.0594 H   0  0  0  0  0  0  0  0  0  0  0  0
  132.1784  128.8539  152.0356 H   0  0  0  0  0  0  0  0  0  0  0  0
  131.8067  130.3574  151.1582 H   0  0  0  0  0  0  0  0  0  0  0  0
  131.5574  128.5870  154.3633 H   0  0  0  0  0  0  0  0  0  0  0  0
  131.0972  129.7105  156.5030 H   0  0  0  0  0  0  0  0  0  0  0  0
  129.6181  130.6377  158.1308 H   0  0  0  0  0  0  0  0  0  0  0  0
  130.4720  135.8552  158.4995 H   0  0  0  0  0  0  0  0  0  0  0  0
  129.3363  137.7414  159.5499 H   0  0  0  0  0  0  0  0  0  0  0  0
  130.2595  139.8162  160.5019 H   0  0  0  0  0  0  0  0  0  0  0  0
  132.8754  140.3060  162.1171 H   0  0  0  0  0  0  0  0  0  0  0  0
  131.2280  140.8922  162.4506 H   0  0  0  0  0  0  0  0  0  0  0  0
  132.0997  139.9415  163.6772 H   0  0  0  0  0  0  0  0  0  0  0  0
  132.3490  137.5381  163.4402 H   0  0  0  0  0  0  0  0  0  0  0  0
  131.4192  135.4639  162.4934 H   0  0  0  0  0  0  0  0  0  0  0  0
  128.0335  136.1651  158.5325 H   0  0  0  0  0  0  0  0  0  0  0  0
  125.5753  136.2417  158.6427 H   0  0  0  0  0  0  0  0  0  0  0  0
  124.4033  135.3750  160.6271 H   0  0  0  0  0  0  0  0  0  0  0  0
  125.6894  134.4294  162.5016 H   0  0  0  0  0  0  0  0  0  0  0  0
  130.1825  133.3244  154.3895 H   0  0  0  0  0  0  0  0  0  0  0  0
  130.6578  132.1879  152.2601 H   0  0  0  0  0  0  0  0  0  0  0  0
  1  2  1  0
  1 33  1  0
  1 34  1  0
  1 35  1  0
  2  3  1  0
  2 36  1  0
  2 37  1  0
  3 32  2  0
  3  4  1  0
  4  5  2  0
  4 38  1  0
  5  6  1  0
  5 39  1  0
  6  7  1  0
  6 31  2  0
  7 29  1  0
  7  8  2  0
  8  9  1  0
  8 40  1  0
  9 10  1  0
  9 11  1  0
 11 12  1  0
 11 29  2  0
 12 13  1  0
 12 41  1  0
 13 14  1  1
 13 15  1  0
 13 22  1  0
 15 21  1  0
 15 16  2  0
 16 17  1  0
 16 42  1  0
 17 18  2  0
 17 43  1  0
 18 19  1  0
 18 20  1  0
 19 44  1  0
 19 45  1  0
 19 46  1  0
 20 21  2  0
 20 47  1  0
 21 48  1  0
 22 27  1  0
 22 23  2  0
 23 24  1  0
 23 49  1  0
 24 25  2  0
 24 50  1  0
 25 26  1  0
 25 51  1  0
 26 27  2  0
 26 52  1  0
 27 28  1  0
 29 30  1  0
 31 32  1  0
 31 53  1  0
 32 54  1  0
M  CHG  1  29   1
M  END
>  <DOCK_score>  (1) 
-56.722618

>  <SMILES>  (1) 
CCc1ccc(-c2c[nH]c(N[C@@H](c3ccc(C)cc3)c3ccccc3Cl)[nH+]2)cc1

$$$$
