O=C(C1=CC[NH+](C(c2ccccc2)[C@@H](O)c2ccccc2)CC1)c1cnn(-c2ccccc2)c1
     RDKit          3D

 62 66  0  0  1  0  0  0  0  0999 V2000
  127.8108  133.0902  158.9943 O   0  0  0  0  0  0  0  0  0  0  0  0
  129.0054  133.1022  158.7643 C   0  0  0  0  0  0  0  0  0  0  0  0
  129.8649  134.1174  159.3916 C   0  0  0  0  0  0  0  0  0  0  0  0
  131.1255  133.8159  159.6473 C   0  0  0  0  0  0  0  0  0  0  0  0
  132.0801  134.7804  160.2903 C   0  0  0  0  0  0  0  0  0  0  0  0
  131.5712  136.1525  160.1820 N   0  0  2  0  0  0  0  0  0  0  0  0
  131.5769  136.4394  159.2146 H   0  0  0  0  0  0  0  0  0  0  0  0
  132.4224  137.0559  160.9676 C   0  0  2  0  0  0  0  0  0  0  0  0
  131.8983  138.4644  160.8552 C   0  0  0  0  0  0  0  0  0  0  0  0
  132.0766  139.3535  161.8985 C   0  0  0  0  0  0  0  0  0  0  0  0
  131.5957  140.6454  161.7955 C   0  0  0  0  0  0  0  0  0  0  0  0
  130.9375  141.0485  160.6487 C   0  0  0  0  0  0  0  0  0  0  0  0
  130.7549  140.1581  159.6073 C   0  0  0  0  0  0  0  0  0  0  0  0
  131.2396  138.8673  159.7085 C   0  0  0  0  0  0  0  0  0  0  0  0
  133.8548  137.0007  160.4326 C   0  0  1  0  0  0  0  0  0  0  0  0
  134.2340  135.9820  160.5138 H   0  0  0  0  0  0  0  0  0  0  0  0
  133.8675  137.4058  159.0624 O   0  0  0  0  0  0  0  0  0  0  0  0
  134.7281  137.9275  161.2386 C   0  0  0  0  0  0  0  0  0  0  0  0
  134.8847  139.2440  160.8473 C   0  0  0  0  0  0  0  0  0  0  0  0
  135.6823  140.0952  161.5891 C   0  0  0  0  0  0  0  0  0  0  0  0
  136.3305  139.6276  162.7169 C   0  0  0  0  0  0  0  0  0  0  0  0
  136.1781  138.3096  163.1052 C   0  0  0  0  0  0  0  0  0  0  0  0
  135.3771  137.4595  162.3658 C   0  0  0  0  0  0  0  0  0  0  0  0
  130.1954  136.1960  160.7021 C   0  0  0  0  0  0  0  0  0  0  0  0
  129.2782  135.4628  159.7202 C   0  0  0  0  0  0  0  0  0  0  0  0
  129.5914  132.0991  157.8566 C   0  0  0  0  0  0  0  0  0  0  0  0
  130.1077  130.8350  158.2233 C   0  0  0  0  0  0  0  0  0  0  0  0
  130.5311  130.2417  157.1413 N   0  0  0  0  0  0  0  0  0  0  0  0
  130.3189  131.0871  156.0466 N   0  0  0  0  0  0  0  0  0  0  0  0
  130.6493  130.8015  154.7151 C   0  0  0  0  0  0  0  0  0  0  0  0
  129.8955  131.3395  153.6806 C   0  0  0  0  0  0  0  0  0  0  0  0
  130.2272  131.0612  152.3690 C   0  0  0  0  0  0  0  0  0  0  0  0
  131.3015  130.2376  152.0860 C   0  0  0  0  0  0  0  0  0  0  0  0
  132.0506  129.6956  153.1142 C   0  0  0  0  0  0  0  0  0  0  0  0
  131.7276  129.9753  154.4277 C   0  0  0  0  0  0  0  0  0  0  0  0
  129.7447  132.2207  156.4886 C   0  0  0  0  0  0  0  0  0  0  0  0
  131.4852  132.8325  159.3827 H   0  0  0  0  0  0  0  0  0  0  0  0
  133.0482  134.7146  159.7937 H   0  0  0  0  0  0  0  0  0  0  0  0
  132.1964  134.5209  161.3425 H   0  0  0  0  0  0  0  0  0  0  0  0
  132.4127  136.7470  162.0128 H   0  0  0  0  0  0  0  0  0  0  0  0
  132.5912  139.0386  162.7944 H   0  0  0  0  0  0  0  0  0  0  0  0
  131.7348  141.3400  162.6108 H   0  0  0  0  0  0  0  0  0  0  0  0
  130.5619  142.0579  160.5682 H   0  0  0  0  0  0  0  0  0  0  0  0
  130.2368  140.4716  158.7132 H   0  0  0  0  0  0  0  0  0  0  0  0
  131.1006  138.1728  158.8933 H   0  0  0  0  0  0  0  0  0  0  0  0
  133.3253  136.8526  158.4835 H   0  0  0  0  0  0  0  0  0  0  0  0
  134.3813  139.6085  159.9641 H   0  0  0  0  0  0  0  0  0  0  0  0
  135.8011  141.1250  161.2859 H   0  0  0  0  0  0  0  0  0  0  0  0
  136.9558  140.2919  163.2948 H   0  0  0  0  0  0  0  0  0  0  0  0
  136.6845  137.9442  163.9863 H   0  0  0  0  0  0  0  0  0  0  0  0
  135.2580  136.4299  162.6692 H   0  0  0  0  0  0  0  0  0  0  0  0
  130.1565  135.7057  161.6749 H   0  0  0  0  0  0  0  0  0  0  0  0
  129.8735  137.2328  160.7991 H   0  0  0  0  0  0  0  0  0  0  0  0
  129.1813  136.0495  158.8067 H   0  0  0  0  0  0  0  0  0  0  0  0
  128.2951  135.3296  160.1719 H   0  0  0  0  0  0  0  0  0  0  0  0
  130.1427  130.4302  159.2238 H   0  0  0  0  0  0  0  0  0  0  0  0
  129.0535  131.9789  153.9011 H   0  0  0  0  0  0  0  0  0  0  0  0
  129.6445  131.4835  151.5638 H   0  0  0  0  0  0  0  0  0  0  0  0
  131.5561  130.0175  151.0597 H   0  0  0  0  0  0  0  0  0  0  0  0
  132.8894  129.0533  152.8900 H   0  0  0  0  0  0  0  0  0  0  0  0
  132.3132  129.5519  155.2303 H   0  0  0  0  0  0  0  0  0  0  0  0
  129.4563  133.0689  155.8854 H   0  0  0  0  0  0  0  0  0  0  0  0
  1  2  2  0
  2  3  1  0
  2 26  1  0
  3 25  1  0
  3  4  2  0
  4  5  1  0
  4 37  1  0
  5  6  1  0
  5 38  1  0
  5 39  1  0
  6  7  1  6
  6  8  1  0
  6 24  1  0
  8  9  1  0
  8 15  1  0
  8 40  1  1
  9 14  1  0
  9 10  2  0
 10 11  1  0
 10 41  1  0
 11 12  2  0
 11 42  1  0
 12 13  1  0
 12 43  1  0
 13 14  2  0
 13 44  1  0
 14 45  1  0
 15 16  1  6
 15 17  1  0
 15 18  1  0
 17 46  1  0
 18 23  1  0
 18 19  2  0
 19 20  1  0
 19 47  1  0
 20 21  2  0
 20 48  1  0
 21 22  1  0
 21 49  1  0
 22 23  2  0
 22 50  1  0
 23 51  1  0
 24 25  1  0
 24 52  1  0
 24 53  1  0
 25 54  1  0
 25 55  1  0
 26 36  2  0
 26 27  1  0
 27 28  2  0
 27 56  1  0
 28 29  1  0
 29 30  1  0
 29 36  1  0
 30 35  1  0
 30 31  2  0
 31 32  1  0
 31 57  1  0
 32 33  2  0
 32 58  1  0
 33 34  1  0
 33 59  1  0
 34 35  2  0
 34 60  1  0
 35 61  1  0
 36 62  1  0
M  CHG  1   6   1
M  END
>  <DOCK_score>  (1) 
-60.077312

>  <SMILES>  (1) 
O=C(C1=CC[NH+](C(c2ccccc2)[C@@H](O)c2ccccc2)CC1)c1cnn(-c2ccccc2)c1

$$$$
