CCc1ccc(-c2c[nH]c(N[C@H](C)C(c3ccccc3)c3ccccc3)[nH+]2)cc1
     RDKit          3D

 57 60  0  0  1  0  0  0  0  0999 V2000
  130.1959  128.5441  151.2603 C   0  0  0  0  0  0  0  0  0  0  0  0
  131.3397  129.4971  151.6122 C   0  0  0  0  0  0  0  0  0  0  0  0
  130.9979  130.2483  152.8730 C   0  0  0  0  0  0  0  0  0  0  0  0
  131.3595  129.7302  154.1031 C   0  0  0  0  0  0  0  0  0  0  0  0
  131.0539  130.4164  155.2609 C   0  0  0  0  0  0  0  0  0  0  0  0
  130.3697  131.6286  155.1893 C   0  0  0  0  0  0  0  0  0  0  0  0
  130.0337  132.3681  156.4305 C   0  0  0  0  0  0  0  0  0  0  0  0
  129.2700  131.9074  157.4519 C   0  0  0  0  0  0  0  0  0  0  0  0
  129.2161  132.9076  158.3919 N   0  0  0  0  0  0  0  0  0  0  0  0
  128.7426  132.8759  159.2380 H   0  0  0  0  0  0  0  0  0  0  0  0
  129.9492  133.9512  157.9171 C   0  0  0  0  0  0  0  0  0  0  0  0
  130.1478  135.1582  158.5653 N   0  0  0  0  0  0  0  0  0  0  0  0
  129.1199  135.6827  159.4680 C   0  0  2  0  0  0  0  0  0  0  0  0
  128.6976  134.8651  160.0519 H   0  0  0  0  0  0  0  0  0  0  0  0
  128.0130  136.3487  158.6480 C   0  0  0  0  0  0  0  0  0  0  0  0
  129.7462  136.7123  160.4106 C   0  0  0  0  0  0  0  0  0  0  0  0
  128.6887  137.2519  161.3390 C   0  0  0  0  0  0  0  0  0  0  0  0
  128.7909  138.5407  161.8282 C   0  0  0  0  0  0  0  0  0  0  0  0
  127.8185  139.0372  162.6761 C   0  0  0  0  0  0  0  0  0  0  0  0
  126.7493  138.2413  163.0429 C   0  0  0  0  0  0  0  0  0  0  0  0
  126.6501  136.9507  162.5578 C   0  0  0  0  0  0  0  0  0  0  0  0
  127.6197  136.4560  161.7060 C   0  0  0  0  0  0  0  0  0  0  0  0
  130.8364  136.0564  161.2181 C   0  0  0  0  0  0  0  0  0  0  0  0
  130.5390  135.4729  162.4354 C   0  0  0  0  0  0  0  0  0  0  0  0
  131.5382  134.8668  163.1739 C   0  0  0  0  0  0  0  0  0  0  0  0
  132.8367  134.8535  162.6998 C   0  0  0  0  0  0  0  0  0  0  0  0
  133.1351  135.4415  161.4849 C   0  0  0  0  0  0  0  0  0  0  0  0
  132.1348  136.0430  160.7440 C   0  0  0  0  0  0  0  0  0  0  0  0
  130.4410  133.6229  156.7475 N   0  0  0  0  0  0  0  0  0  0  0  0
  131.0042  134.1877  156.1954 H   0  0  0  0  0  0  0  0  0  0  0  0
  130.0029  132.1436  153.9473 C   0  0  0  0  0  0  0  0  0  0  0  0
  130.3186  131.4514  152.7958 C   0  0  0  0  0  0  0  0  0  0  0  0
  130.4431  128.0007  150.3482 H   0  0  0  0  0  0  0  0  0  0  0  0
  130.0493  127.8363  152.0763 H   0  0  0  0  0  0  0  0  0  0  0  0
  129.2807  129.1155  151.1060 H   0  0  0  0  0  0  0  0  0  0  0  0
  132.2549  128.9263  151.7660 H   0  0  0  0  0  0  0  0  0  0  0  0
  131.4863  130.2053  150.7958 H   0  0  0  0  0  0  0  0  0  0  0  0
  131.8853  128.7884  154.1575 H   0  0  0  0  0  0  0  0  0  0  0  0
  131.3409  130.0129  156.2207 H   0  0  0  0  0  0  0  0  0  0  0  0
  128.7947  130.9396  157.5142 H   0  0  0  0  0  0  0  0  0  0  0  0
  130.9675  135.6565  158.4220 H   0  0  0  0  0  0  0  0  0  0  0  0
  128.4353  137.1665  158.0640 H   0  0  0  0  0  0  0  0  0  0  0  0
  127.5669  135.6152  157.9765 H   0  0  0  0  0  0  0  0  0  0  0  0
  127.2482  136.7390  159.3196 H   0  0  0  0  0  0  0  0  0  0  0  0
  130.1685  137.5301  159.8266 H   0  0  0  0  0  0  0  0  0  0  0  0
  129.6284  139.1610  161.5452 H   0  0  0  0  0  0  0  0  0  0  0  0
  127.8963  140.0454  163.0554 H   0  0  0  0  0  0  0  0  0  0  0  0
  125.9920  138.6278  163.7088 H   0  0  0  0  0  0  0  0  0  0  0  0
  125.8149  136.3287  162.8448 H   0  0  0  0  0  0  0  0  0  0  0  0
  127.5423  135.4474  161.3272 H   0  0  0  0  0  0  0  0  0  0  0  0
  129.5255  135.4872  162.8080 H   0  0  0  0  0  0  0  0  0  0  0  0
  131.3053  134.4078  164.1234 H   0  0  0  0  0  0  0  0  0  0  0  0
  133.6181  134.3840  163.2789 H   0  0  0  0  0  0  0  0  0  0  0  0
  134.1495  135.4315  161.1146 H   0  0  0  0  0  0  0  0  0  0  0  0
  132.3679  136.5028  159.7950 H   0  0  0  0  0  0  0  0  0  0  0  0
  129.4724  133.0822  153.8860 H   0  0  0  0  0  0  0  0  0  0  0  0
  130.0346  131.8493  151.8328 H   0  0  0  0  0  0  0  0  0  0  0  0
  1  2  1  0
  1 33  1  0
  1 34  1  0
  1 35  1  0
  2  3  1  0
  2 36  1  0
  2 37  1  0
  3 32  2  0
  3  4  1  0
  4  5  2  0
  4 38  1  0
  5  6  1  0
  5 39  1  0
  6  7  1  0
  6 31  2  0
  7 29  1  0
  7  8  2  0
  8  9  1  0
  8 40  1  0
  9 10  1  0
  9 11  1  0
 11 12  1  0
 11 29  2  0
 12 13  1  0
 12 41  1  0
 13 14  1  1
 13 15  1  0
 13 16  1  0
 15 42  1  0
 15 43  1  0
 15 44  1  0
 16 17  1  0
 16 23  1  0
 16 45  1  0
 17 22  1  0
 17 18  2  0
 18 19  1  0
 18 46  1  0
 19 20  2  0
 19 47  1  0
 20 21  1  0
 20 48  1  0
 21 22  2  0
 21 49  1  0
 22 50  1  0
 23 28  1  0
 23 24  2  0
 24 25  1  0
 24 51  1  0
 25 26  2  0
 25 52  1  0
 26 27  1  0
 26 53  1  0
 27 28  2  0
 27 54  1  0
 28 55  1  0
 29 30  1  0
 31 32  1  0
 31 56  1  0
 32 57  1  0
M  CHG  1  29   1
M  END
>  <DOCK_score>  (1) 
-61.682846

>  <SMILES>  (1) 
CCc1ccc(-c2c[nH]c(N[C@H](C)C(c3ccccc3)c3ccccc3)[nH+]2)cc1

$$$$
