O=C1CC[C@H](NC(=O)Nc2cc(Nc3[nH]c4ccccc4[nH+]3)cc3ccccc23)CN1
     RDKit          3D

 54 58  0  0  1  0  0  0  0  0999 V2000
  127.6297  142.0556  165.8525 O   0  0  0  0  0  0  0  0  0  0  0  0
  127.2973  141.1026  165.1801 C   0  0  0  0  0  0  0  0  0  0  0  0
  128.3082  140.5066  164.2431 C   0  0  0  0  0  0  0  0  0  0  0  0
  127.6024  139.6368  163.2001 C   0  0  0  0  0  0  0  0  0  0  0  0
  126.6322  138.6982  163.9274 C   0  0  2  0  0  0  0  0  0  0  0  0
  127.1596  138.1643  164.7180 H   0  0  0  0  0  0  0  0  0  0  0  0
  126.0709  137.7370  162.9750 N   0  0  0  0  0  0  0  0  0  0  0  0
  126.8851  136.8945  162.3090 C   0  0  0  0  0  0  0  0  0  0  0  0
  128.0856  136.9321  162.4986 O   0  0  0  0  0  0  0  0  0  0  0  0
  126.3688  136.0103  161.4325 N   0  0  0  0  0  0  0  0  0  0  0  0
  127.2122  135.1374  160.7426 C   0  0  0  0  0  0  0  0  0  0  0  0
  128.4941  135.5099  160.4511 C   0  0  0  0  0  0  0  0  0  0  0  0
  129.3496  134.6502  159.7563 C   0  0  0  0  0  0  0  0  0  0  0  0
  130.6545  135.0594  159.4671 N   0  0  0  0  0  0  0  0  0  0  0  0
  131.3050  135.9318  160.3101 C   0  0  0  0  0  0  0  0  0  0  0  0
  132.2304  136.8107  159.9314 N   0  0  0  0  0  0  0  0  0  0  0  0
  132.5533  136.9395  159.0260 H   0  0  0  0  0  0  0  0  0  0  0  0
  132.6494  137.5023  161.0371 C   0  0  0  0  0  0  0  0  0  0  0  0
  133.5779  138.5187  161.2426 C   0  0  0  0  0  0  0  0  0  0  0  0
  133.7769  139.0184  162.5113 C   0  0  0  0  0  0  0  0  0  0  0  0
  133.0579  138.5161  163.5861 C   0  0  0  0  0  0  0  0  0  0  0  0
  132.1353  137.5096  163.4003 C   0  0  0  0  0  0  0  0  0  0  0  0
  131.9219  136.9931  162.1254 C   0  0  0  0  0  0  0  0  0  0  0  0
  131.1000  136.0194  161.6226 N   0  0  0  0  0  0  0  0  0  0  0  0
  130.4747  135.4843  162.1359 H   0  0  0  0  0  0  0  0  0  0  0  0
  128.9232  133.4012  159.3581 C   0  0  0  0  0  0  0  0  0  0  0  0
  127.6126  132.9892  159.6488 C   0  0  0  0  0  0  0  0  0  0  0  0
  127.1444  131.7223  159.2582 C   0  0  0  0  0  0  0  0  0  0  0  0
  125.8685  131.3543  159.5569 C   0  0  0  0  0  0  0  0  0  0  0  0
  125.0165  132.2162  160.2446 C   0  0  0  0  0  0  0  0  0  0  0  0
  125.4361  133.4503  160.6382 C   0  0  0  0  0  0  0  0  0  0  0  0
  126.7455  133.8650  160.3486 C   0  0  0  0  0  0  0  0  0  0  0  0
  125.5059  139.5345  164.5364 C   0  0  0  0  0  0  0  0  0  0  0  0
  126.0536  140.6399  165.3125 N   0  0  0  0  0  0  0  0  0  0  0  0
  128.8513  141.3066  163.7399 H   0  0  0  0  0  0  0  0  0  0  0  0
  129.0101  139.8947  164.8096 H   0  0  0  0  0  0  0  0  0  0  0  0
  128.3394  139.0499  162.6521 H   0  0  0  0  0  0  0  0  0  0  0  0
  127.0492  140.2712  162.5074 H   0  0  0  0  0  0  0  0  0  0  0  0
  125.1133  137.7070  162.8237 H   0  0  0  0  0  0  0  0  0  0  0  0
  125.4111  135.9803  161.2813 H   0  0  0  0  0  0  0  0  0  0  0  0
  128.8495  136.4825  160.7579 H   0  0  0  0  0  0  0  0  0  0  0  0
  131.1016  134.7287  158.6724 H   0  0  0  0  0  0  0  0  0  0  0  0
  134.1437  138.9117  160.4108 H   0  0  0  0  0  0  0  0  0  0  0  0
  134.4978  139.8068  162.6701 H   0  0  0  0  0  0  0  0  0  0  0  0
  133.2229  138.9163  164.5755 H   0  0  0  0  0  0  0  0  0  0  0  0
  131.5795  137.1223  164.2415 H   0  0  0  0  0  0  0  0  0  0  0  0
  129.5935  132.7431  158.8250 H   0  0  0  0  0  0  0  0  0  0  0  0
  127.7939  131.0445  158.7243 H   0  0  0  0  0  0  0  0  0  0  0  0
  125.5112  130.3805  159.2561 H   0  0  0  0  0  0  0  0  0  0  0  0
  124.0084  131.9004  160.4692 H   0  0  0  0  0  0  0  0  0  0  0  0
  124.7644  134.1074  161.1705 H   0  0  0  0  0  0  0  0  0  0  0  0
  124.8790  139.9308  163.7376 H   0  0  0  0  0  0  0  0  0  0  0  0
  124.8996  138.9034  165.1864 H   0  0  0  0  0  0  0  0  0  0  0  0
  125.4771  141.0659  165.9661 H   0  0  0  0  0  0  0  0  0  0  0  0
  1  2  2  0
  2 34  1  0
  2  3  1  0
  3  4  1  0
  3 35  1  0
  3 36  1  0
  4  5  1  0
  4 37  1  0
  4 38  1  0
  5  6  1  1
  5  7  1  0
  5 33  1  0
  7  8  1  0
  7 39  1  0
  8  9  2  0
  8 10  1  0
 10 11  1  0
 10 40  1  0
 11 32  1  0
 11 12  2  0
 12 13  1  0
 12 41  1  0
 13 14  1  0
 13 26  2  0
 14 15  1  0
 14 42  1  0
 15 24  1  0
 15 16  2  0
 16 17  1  0
 16 18  1  0
 18 23  2  0
 18 19  1  0
 19 20  2  0
 19 43  1  0
 20 21  1  0
 20 44  1  0
 21 22  2  0
 21 45  1  0
 22 23  1  0
 22 46  1  0
 23 24  1  0
 24 25  1  0
 26 27  1  0
 26 47  1  0
 27 32  2  0
 27 28  1  0
 28 29  2  0
 28 48  1  0
 29 30  1  0
 29 49  1  0
 30 31  2  0
 30 50  1  0
 31 32  1  0
 31 51  1  0
 33 34  1  0
 33 52  1  0
 33 53  1  0
 34 54  1  0
M  CHG  1  16   1
M  END
>  <DOCK_score>  (1) 
-42.449181

>  <SMILES>  (1) 
O=C1CC[C@H](NC(=O)Nc2cc(Nc3[nH]c4ccccc4[nH+]3)cc3ccccc23)CN1

$$$$
