CCc1ccc(-c2c[nH]c(Nc3ccc(Nc4ccc([C@@H]5CCC[NH2+]5)cc4)cc3)[nH+]2)cc1
     RDKit          3D

 63 67  0  0  1  0  0  0  0  0999 V2000
  129.7967  128.9724  150.8084 C   0  0  0  0  0  0  0  0  0  0  0  0
  131.0940  129.5907  151.3336 C   0  0  0  0  0  0  0  0  0  0  0  0
  130.8119  130.3429  152.6085 C   0  0  0  0  0  0  0  0  0  0  0  0
  130.8998  129.6925  153.8261 C   0  0  0  0  0  0  0  0  0  0  0  0
  130.6473  130.3776  154.9973 C   0  0  0  0  0  0  0  0  0  0  0  0
  130.2922  131.7247  154.9507 C   0  0  0  0  0  0  0  0  0  0  0  0
  130.0141  132.4650  156.2056 C   0  0  0  0  0  0  0  0  0  0  0  0
  129.5175  131.9356  157.3513 C   0  0  0  0  0  0  0  0  0  0  0  0
  129.4169  132.9645  158.2552 N   0  0  0  0  0  0  0  0  0  0  0  0
  129.0932  132.8984  159.1672 H   0  0  0  0  0  0  0  0  0  0  0  0
  129.8554  134.0942  157.6351 C   0  0  0  0  0  0  0  0  0  0  0  0
  129.9155  135.3555  158.2042 N   0  0  0  0  0  0  0  0  0  0  0  0
  128.9986  135.7197  159.1977 C   0  0  0  0  0  0  0  0  0  0  0  0
  129.3663  136.6268  160.1832 C   0  0  0  0  0  0  0  0  0  0  0  0
  128.4606  136.9896  161.1600 C   0  0  0  0  0  0  0  0  0  0  0  0
  127.1851  136.4400  161.1632 C   0  0  0  0  0  0  0  0  0  0  0  0
  126.2687  136.8038  162.1565 N   0  0  0  0  0  0  0  0  0  0  0  0
  126.7229  137.1671  163.4266 C   0  0  0  0  0  0  0  0  0  0  0  0
  126.4490  138.4335  163.9280 C   0  0  0  0  0  0  0  0  0  0  0  0
  126.8948  138.7873  165.1863 C   0  0  0  0  0  0  0  0  0  0  0  0
  127.6231  137.8869  165.9422 C   0  0  0  0  0  0  0  0  0  0  0  0
  128.1132  138.2788  167.3123 C   0  0  2  0  0  0  0  0  0  0  0  0
  128.6647  137.4517  167.7593 H   0  0  0  0  0  0  0  0  0  0  0  0
  126.9160  138.6573  168.2097 C   0  0  0  0  0  0  0  0  0  0  0  0
  127.4623  139.8603  169.0275 C   0  0  0  0  0  0  0  0  0  0  0  0
  128.3655  140.5660  167.9854 C   0  0  0  0  0  0  0  0  0  0  0  0
  128.9820  139.4660  167.2137 N   0  0  0  0  0  0  0  0  0  0  0  0
  129.8921  139.2531  167.5936 H   0  0  0  0  0  0  0  0  0  0  0  0
  129.0725  139.7411  166.2471 H   0  0  0  0  0  0  0  0  0  0  0  0
  127.9023  136.6275  165.4438 C   0  0  0  0  0  0  0  0  0  0  0  0
  127.4545  136.2648  164.1888 C   0  0  0  0  0  0  0  0  0  0  0  0
  126.8191  135.5288  160.1806 C   0  0  0  0  0  0  0  0  0  0  0  0
  127.7233  135.1697  159.2011 C   0  0  0  0  0  0  0  0  0  0  0  0
  130.2169  133.7901  156.4122 N   0  0  0  0  0  0  0  0  0  0  0  0
  130.5705  134.4137  155.7587 H   0  0  0  0  0  0  0  0  0  0  0  0
  130.1999  132.3735  153.7206 C   0  0  0  0  0  0  0  0  0  0  0  0
  130.4602  131.6798  152.5564 C   0  0  0  0  0  0  0  0  0  0  0  0
  129.3936  128.2864  151.5534 H   0  0  0  0  0  0  0  0  0  0  0  0
  129.0716  129.7621  150.6116 H   0  0  0  0  0  0  0  0  0  0  0  0
  130.0008  128.4284  149.8863 H   0  0  0  0  0  0  0  0  0  0  0  0
  131.8191  128.8011  151.5303 H   0  0  0  0  0  0  0  0  0  0  0  0
  131.4972  130.2766  150.5885 H   0  0  0  0  0  0  0  0  0  0  0  0
  131.1708  128.6476  153.8607 H   0  0  0  0  0  0  0  0  0  0  0  0
  130.7203  129.8700  155.9476 H   0  0  0  0  0  0  0  0  0  0  0  0
  129.2520  130.9024  157.5203 H   0  0  0  0  0  0  0  0  0  0  0  0
  130.5929  135.9864  157.9146 H   0  0  0  0  0  0  0  0  0  0  0  0
  130.3594  137.0513  160.1829 H   0  0  0  0  0  0  0  0  0  0  0  0
  128.7452  137.6980  161.9239 H   0  0  0  0  0  0  0  0  0  0  0  0
  125.3180  136.8036  161.9631 H   0  0  0  0  0  0  0  0  0  0  0  0
  125.8842  139.1387  163.3365 H   0  0  0  0  0  0  0  0  0  0  0  0
  126.6786  139.7700  165.5785 H   0  0  0  0  0  0  0  0  0  0  0  0
  126.0613  138.9595  167.6046 H   0  0  0  0  0  0  0  0  0  0  0  0
  126.6506  137.8297  168.8673 H   0  0  0  0  0  0  0  0  0  0  0  0
  128.0464  139.5165  169.8812 H   0  0  0  0  0  0  0  0  0  0  0  0
  126.6526  140.5151  169.3495 H   0  0  0  0  0  0  0  0  0  0  0  0
  129.1337  141.1553  168.4861 H   0  0  0  0  0  0  0  0  0  0  0  0
  127.7681  141.2005  167.3307 H   0  0  0  0  0  0  0  0  0  0  0  0
  128.4710  135.9265  166.0368 H   0  0  0  0  0  0  0  0  0  0  0  0
  127.6722  135.2808  163.8005 H   0  0  0  0  0  0  0  0  0  0  0  0
  125.8272  135.1017  160.1828 H   0  0  0  0  0  0  0  0  0  0  0  0
  127.4387  134.4613  158.4372 H   0  0  0  0  0  0  0  0  0  0  0  0
  129.9249  133.4170  153.6787 H   0  0  0  0  0  0  0  0  0  0  0  0
  130.3890  132.1816  151.6025 H   0  0  0  0  0  0  0  0  0  0  0  0
  1  2  1  0
  1 38  1  0
  1 39  1  0
  1 40  1  0
  2  3  1  0
  2 41  1  0
  2 42  1  0
  3 37  2  0
  3  4  1  0
  4  5  2  0
  4 43  1  0
  5  6  1  0
  5 44  1  0
  6  7  1  0
  6 36  2  0
  7 34  1  0
  7  8  2  0
  8  9  1  0
  8 45  1  0
  9 10  1  0
  9 11  1  0
 11 12  1  0
 11 34  2  0
 12 13  1  0
 12 46  1  0
 13 33  1  0
 13 14  2  0
 14 15  1  0
 14 47  1  0
 15 16  2  0
 15 48  1  0
 16 17  1  0
 16 32  1  0
 17 18  1  0
 17 49  1  0
 18 31  1  0
 18 19  2  0
 19 20  1  0
 19 50  1  0
 20 21  2  0
 20 51  1  0
 21 22  1  0
 21 30  1  0
 22 23  1  1
 22 27  1  0
 22 24  1  0
 24 25  1  0
 24 52  1  0
 24 53  1  0
 25 26  1  0
 25 54  1  0
 25 55  1  0
 26 27  1  0
 26 56  1  0
 26 57  1  0
 27 28  1  0
 27 29  1  0
 30 31  2  0
 30 58  1  0
 31 59  1  0
 32 33  2  0
 32 60  1  0
 33 61  1  0
 34 35  1  0
 36 37  1  0
 36 62  1  0
 37 63  1  0
M  CHG  2  27   1  34   1
M  END
>  <DOCK_score>  (1) 
-60.46632

>  <SMILES>  (1) 
CCc1ccc(-c2c[nH]c(Nc3ccc(Nc4ccc([C@@H]5CCC[NH2+]5)cc4)cc3)[nH+]2)cc1

$$$$
