CCc1ccc(-c2c[nH]c(Nc3ccccc3Nc3ccccc3C#N)[nH+]2)cc1
     RDKit          3D

 51 54  0  0  1  0  0  0  0  0999 V2000
  130.1943  128.4829  151.1536 C   0  0  0  0  0  0  0  0  0  0  0  0
  131.3011  129.5011  151.4344 C   0  0  0  0  0  0  0  0  0  0  0  0
  130.9756  130.2624  152.6937 C   0  0  0  0  0  0  0  0  0  0  0  0
  131.4167  129.7916  153.9169 C   0  0  0  0  0  0  0  0  0  0  0  0
  131.1258  130.4870  155.0729 C   0  0  0  0  0  0  0  0  0  0  0  0
  130.3769  131.6606  155.0070 C   0  0  0  0  0  0  0  0  0  0  0  0
  130.0566  132.4099  156.2465 C   0  0  0  0  0  0  0  0  0  0  0  0
  129.3625  131.9337  157.3101 C   0  0  0  0  0  0  0  0  0  0  0  0
  129.2970  132.9504  158.2309 N   0  0  0  0  0  0  0  0  0  0  0  0
  128.8627  132.9136  159.0974 H   0  0  0  0  0  0  0  0  0  0  0  0
  129.9536  134.0196  157.7029 C   0  0  0  0  0  0  0  0  0  0  0  0
  130.1171  135.2499  158.3173 N   0  0  0  0  0  0  0  0  0  0  0  0
  129.1484  135.7195  159.2125 C   0  0  0  0  0  0  0  0  0  0  0  0
  127.8209  135.3485  159.0586 C   0  0  0  0  0  0  0  0  0  0  0  0
  126.8663  135.8129  159.9441 C   0  0  0  0  0  0  0  0  0  0  0  0
  127.2303  136.6478  160.9847 C   0  0  0  0  0  0  0  0  0  0  0  0
  128.5509  137.0230  161.1459 C   0  0  0  0  0  0  0  0  0  0  0  0
  129.5166  136.5575  160.2655 C   0  0  0  0  0  0  0  0  0  0  0  0
  130.8552  136.9314  160.4299 N   0  0  0  0  0  0  0  0  0  0  0  0
  131.1688  138.1603  160.9995 C   0  0  0  0  0  0  0  0  0  0  0  0
  130.3066  139.2392  160.8507 C   0  0  0  0  0  0  0  0  0  0  0  0
  130.6199  140.4578  161.4174 C   0  0  0  0  0  0  0  0  0  0  0  0
  131.7937  140.6163  162.1370 C   0  0  0  0  0  0  0  0  0  0  0  0
  132.6617  139.5578  162.2950 C   0  0  0  0  0  0  0  0  0  0  0  0
  132.3559  138.3158  161.7327 C   0  0  0  0  0  0  0  0  0  0  0  0
  133.2505  137.2099  161.8985 C   0  0  0  0  0  0  0  0  0  0  0  0
  133.9602  136.3327  162.0300 N   0  0  0  0  0  0  0  0  0  0  0  0
  130.4111  133.6903  156.5193 N   0  0  0  0  0  0  0  0  0  0  0  0
  130.9193  134.2706  155.9313 H   0  0  0  0  0  0  0  0  0  0  0  0
  129.9305  132.1280  153.7720 C   0  0  0  0  0  0  0  0  0  0  0  0
  130.2319  131.4271  152.6221 C   0  0  0  0  0  0  0  0  0  0  0  0
  130.1203  127.7874  151.9896 H   0  0  0  0  0  0  0  0  0  0  0  0
  129.2448  129.0032  151.0287 H   0  0  0  0  0  0  0  0  0  0  0  0
  130.4298  127.9324  150.2427 H   0  0  0  0  0  0  0  0  0  0  0  0
  132.2506  128.9813  151.5592 H   0  0  0  0  0  0  0  0  0  0  0  0
  131.3750  130.1971  150.5982 H   0  0  0  0  0  0  0  0  0  0  0  0
  131.9931  128.8796  153.9671 H   0  0  0  0  0  0  0  0  0  0  0  0
  131.4744  130.1205  156.0271 H   0  0  0  0  0  0  0  0  0  0  0  0
  128.9418  130.9443  157.4131 H   0  0  0  0  0  0  0  0  0  0  0  0
  130.9027  135.7864  158.1275 H   0  0  0  0  0  0  0  0  0  0  0  0
  127.5329  134.6969  158.2470 H   0  0  0  0  0  0  0  0  0  0  0  0
  125.8330  135.5233  159.8225 H   0  0  0  0  0  0  0  0  0  0  0  0
  126.4804  137.0081  161.6733 H   0  0  0  0  0  0  0  0  0  0  0  0
  128.8314  137.6754  161.9595 H   0  0  0  0  0  0  0  0  0  0  0  0
  131.5640  136.3330  160.1466 H   0  0  0  0  0  0  0  0  0  0  0  0
  129.3898  139.1240  160.2915 H   0  0  0  0  0  0  0  0  0  0  0  0
  129.9462  141.2937  161.2989 H   0  0  0  0  0  0  0  0  0  0  0  0
  132.0294  141.5744  162.5759 H   0  0  0  0  0  0  0  0  0  0  0  0
  133.5749  139.6869  162.8571 H   0  0  0  0  0  0  0  0  0  0  0  0
  129.3495  133.0367  153.7153 H   0  0  0  0  0  0  0  0  0  0  0  0
  129.8862  131.7880  151.6647 H   0  0  0  0  0  0  0  0  0  0  0  0
  1  2  1  0
  1 32  1  0
  1 33  1  0
  1 34  1  0
  2  3  1  0
  2 35  1  0
  2 36  1  0
  3 31  2  0
  3  4  1  0
  4  5  2  0
  4 37  1  0
  5  6  1  0
  5 38  1  0
  6  7  1  0
  6 30  2  0
  7 28  1  0
  7  8  2  0
  8  9  1  0
  8 39  1  0
  9 10  1  0
  9 11  1  0
 11 12  1  0
 11 28  2  0
 12 13  1  0
 12 40  1  0
 13 18  1  0
 13 14  2  0
 14 15  1  0
 14 41  1  0
 15 16  2  0
 15 42  1  0
 16 17  1  0
 16 43  1  0
 17 18  2  0
 17 44  1  0
 18 19  1  0
 19 20  1  0
 19 45  1  0
 20 25  1  0
 20 21  2  0
 21 22  1  0
 21 46  1  0
 22 23  2  0
 22 47  1  0
 23 24  1  0
 23 48  1  0
 24 25  2  0
 24 49  1  0
 25 26  1  0
 26 27  3  0
 28 29  1  0
 30 31  1  0
 30 50  1  0
 31 51  1  0
M  CHG  1  28   1
M  END
>  <DOCK_score>  (1) 
-59.642494

>  <SMILES>  (1) 
CCc1ccc(-c2c[nH]c(Nc3ccccc3Nc3ccccc3C#N)[nH+]2)cc1

$$$$
