CCNc1cccc(Nc2[nH]cc(-c3ccc(N)cc3)[nH+]2)c1
     RDKit          3D

 42 44  0  0  1  0  0  0  0  0999 V2000
  126.3105  133.1157  160.7264 C   0  0  0  0  0  0  0  0  0  0  0  0
  125.5108  134.2702  160.1193 C   0  0  0  0  0  0  0  0  0  0  0  0
  125.8700  135.5205  160.7930 N   0  0  0  0  0  0  0  0  0  0  0  0
  127.1907  135.9739  160.7659 C   0  0  0  0  0  0  0  0  0  0  0  0
  127.6319  136.8890  161.7146 C   0  0  0  0  0  0  0  0  0  0  0  0
  128.9366  137.3420  161.6853 C   0  0  0  0  0  0  0  0  0  0  0  0
  129.8102  136.8795  160.7198 C   0  0  0  0  0  0  0  0  0  0  0  0
  129.3773  135.9604  159.7719 C   0  0  0  0  0  0  0  0  0  0  0  0
  130.2618  135.4924  158.7961 N   0  0  0  0  0  0  0  0  0  0  0  0
  130.1076  134.2178  158.2756 C   0  0  0  0  0  0  0  0  0  0  0  0
  129.5822  133.1499  158.9359 N   0  0  0  0  0  0  0  0  0  0  0  0
  129.2519  133.1440  159.8479 H   0  0  0  0  0  0  0  0  0  0  0  0
  129.6066  132.0815  158.0719 C   0  0  0  0  0  0  0  0  0  0  0  0
  130.1457  132.5275  156.9100 C   0  0  0  0  0  0  0  0  0  0  0  0
  130.3704  131.7205  155.6855 C   0  0  0  0  0  0  0  0  0  0  0  0
  129.7487  132.0779  154.4902 C   0  0  0  0  0  0  0  0  0  0  0  0
  129.9628  131.3291  153.3522 C   0  0  0  0  0  0  0  0  0  0  0  0
  130.7892  130.2132  153.3986 C   0  0  0  0  0  0  0  0  0  0  0  0
  131.0007  129.4532  152.2456 N   0  0  0  0  0  0  0  0  0  0  0  0
  131.4061  129.8516  154.5909 C   0  0  0  0  0  0  0  0  0  0  0  0
  131.1991  130.6004  155.7300 C   0  0  0  0  0  0  0  0  0  0  0  0
  130.4385  133.8427  157.0639 N   0  0  0  0  0  0  0  0  0  0  0  0
  130.8320  134.4141  156.3860 H   0  0  0  0  0  0  0  0  0  0  0  0
  128.0654  135.5072  159.7953 C   0  0  0  0  0  0  0  0  0  0  0  0
  127.3762  133.3047  160.5975 H   0  0  0  0  0  0  0  0  0  0  0  0
  126.0818  133.0345  161.7890 H   0  0  0  0  0  0  0  0  0  0  0  0
  126.0432  132.1855  160.2251 H   0  0  0  0  0  0  0  0  0  0  0  0
  124.4451  134.0813  160.2482 H   0  0  0  0  0  0  0  0  0  0  0  0
  125.7395  134.3514  159.0567 H   0  0  0  0  0  0  0  0  0  0  0  0
  125.1905  136.0334  161.2580 H   0  0  0  0  0  0  0  0  0  0  0  0
  126.9528  137.2491  162.4733 H   0  0  0  0  0  0  0  0  0  0  0  0
  129.2757  138.0557  162.4213 H   0  0  0  0  0  0  0  0  0  0  0  0
  130.8306  137.2325  160.7021 H   0  0  0  0  0  0  0  0  0  0  0  0
  130.9836  136.0598  158.4834 H   0  0  0  0  0  0  0  0  0  0  0  0
  129.2622  131.0790  158.2783 H   0  0  0  0  0  0  0  0  0  0  0  0
  129.1029  132.9427  154.4545 H   0  0  0  0  0  0  0  0  0  0  0  0
  129.4849  131.6082  152.4249 H   0  0  0  0  0  0  0  0  0  0  0  0
  131.5781  128.6738  152.2777 H   0  0  0  0  0  0  0  0  0  0  0  0
  130.5710  129.7043  151.4137 H   0  0  0  0  0  0  0  0  0  0  0  0
  132.0477  128.9834  154.6250 H   0  0  0  0  0  0  0  0  0  0  0  0
  131.6788  130.3196  156.6561 H   0  0  0  0  0  0  0  0  0  0  0  0
  127.7264  134.7930  159.0594 H   0  0  0  0  0  0  0  0  0  0  0  0
  1  2  1  0
  1 25  1  0
  1 26  1  0
  1 27  1  0
  2  3  1  0
  2 28  1  0
  2 29  1  0
  3  4  1  0
  3 30  1  0
  4 24  2  0
  4  5  1  0
  5  6  2  0
  5 31  1  0
  6  7  1  0
  6 32  1  0
  7  8  2  0
  7 33  1  0
  8  9  1  0
  8 24  1  0
  9 34  1  0
 10  9  1  0
 10 22  2  0
 10 11  1  0
 11 12  1  0
 11 13  1  0
 13 14  2  0
 13 35  1  0
 14 15  1  0
 14 22  1  0
 15 21  1  0
 15 16  2  0
 16 17  1  0
 16 36  1  0
 17 18  2  0
 17 37  1  0
 18 19  1  0
 18 20  1  0
 19 38  1  0
 19 39  1  0
 20 21  2  0
 20 40  1  0
 21 41  1  0
 22 23  1  0
 24 42  1  0
M  CHG  1  22   1
M  END
>  <DOCK_score>  (1) 
-53.512142

>  <SMILES>  (1) 
CCNc1cccc(Nc2[nH]cc(-c3ccc(N)cc3)[nH+]2)c1

$$$$
