CC/C=C\COc1ccccc1[C@H](Nc1[nH]cc(-c2cccnc2)[nH+]1)c1ccccc1
     RDKit          3D

 58 61  0  0  1  0  0  0  0  0999 V2000
  135.7615  137.6431  164.5072 C   0  0  0  0  0  0  0  0  0  0  0  0
  134.7400  137.6751  165.6458 C   0  0  0  0  0  0  0  0  0  0  0  0
  133.9117  136.4166  165.6131 C   0  0  0  0  0  0  0  0  0  0  0  0
  132.8045  136.3793  164.9140 C   0  0  0  0  0  0  0  0  0  0  0  0
  132.4390  137.5354  164.0192 C   0  0  0  0  0  0  0  0  0  0  0  0
  131.6796  137.0559  162.9076 O   0  0  0  0  0  0  0  0  0  0  0  0
  131.2677  137.9778  161.9980 C   0  0  0  0  0  0  0  0  0  0  0  0
  131.5880  139.3166  162.1718 C   0  0  0  0  0  0  0  0  0  0  0  0
  131.1731  140.2509  161.2430 C   0  0  0  0  0  0  0  0  0  0  0  0
  130.4343  139.8537  160.1434 C   0  0  0  0  0  0  0  0  0  0  0  0
  130.1092  138.5212  159.9711 C   0  0  0  0  0  0  0  0  0  0  0  0
  130.5214  137.5828  160.8976 C   0  0  0  0  0  0  0  0  0  0  0  0
  130.1661  136.1304  160.7093 C   0  0  2  0  0  0  0  0  0  0  0  0
  130.5790  135.5457  161.5313 H   0  0  0  0  0  0  0  0  0  0  0  0
  130.7231  135.6518  159.4417 N   0  0  0  0  0  0  0  0  0  0  0  0
  130.5253  134.3387  159.0506 C   0  0  0  0  0  0  0  0  0  0  0  0
  129.8401  133.3966  159.7543 N   0  0  0  0  0  0  0  0  0  0  0  0
  129.4061  133.5234  160.6125 H   0  0  0  0  0  0  0  0  0  0  0  0
  129.8743  132.2338  159.0237 C   0  0  0  0  0  0  0  0  0  0  0  0
  130.5856  132.4962  157.8994 C   0  0  0  0  0  0  0  0  0  0  0  0
  130.8874  131.5328  156.8126 C   0  0  0  0  0  0  0  0  0  0  0  0
  130.4509  131.7753  155.5068 C   0  0  0  0  0  0  0  0  0  0  0  0
  130.7622  130.8478  154.5278 C   0  0  0  0  0  0  0  0  0  0  0  0
  131.4796  129.7160  154.8715 C   0  0  0  0  0  0  0  0  0  0  0  0
  131.8737  129.5119  156.1136 N   0  0  0  0  0  0  0  0  0  0  0  0
  131.6054  130.3685  157.0778 C   0  0  0  0  0  0  0  0  0  0  0  0
  130.9718  133.7960  157.9442 N   0  0  0  0  0  0  0  0  0  0  0  0
  131.4946  134.2511  157.2656 H   0  0  0  0  0  0  0  0  0  0  0  0
  128.6669  135.9786  160.6884 C   0  0  0  0  0  0  0  0  0  0  0  0
  127.9789  135.7498  161.8654 C   0  0  0  0  0  0  0  0  0  0  0  0
  126.6034  135.6146  161.8468 C   0  0  0  0  0  0  0  0  0  0  0  0
  125.9167  135.6995  160.6501 C   0  0  0  0  0  0  0  0  0  0  0  0
  126.6051  135.9236  159.4726 C   0  0  0  0  0  0  0  0  0  0  0  0
  127.9803  136.0628  159.4917 C   0  0  0  0  0  0  0  0  0  0  0  0
  136.3606  138.5535  164.5309 H   0  0  0  0  0  0  0  0  0  0  0  0
  136.4121  136.7768  164.6270 H   0  0  0  0  0  0  0  0  0  0  0  0
  135.2396  137.5764  163.5526 H   0  0  0  0  0  0  0  0  0  0  0  0
  134.0894  138.5415  165.5261 H   0  0  0  0  0  0  0  0  0  0  0  0
  135.2619  137.7419  166.6005 H   0  0  0  0  0  0  0  0  0  0  0  0
  134.2310  135.5455  166.1659 H   0  0  0  0  0  0  0  0  0  0  0  0
  132.1535  135.5199  164.9791 H   0  0  0  0  0  0  0  0  0  0  0  0
  133.3478  138.0166  163.6579 H   0  0  0  0  0  0  0  0  0  0  0  0
  131.8450  138.2562  164.5810 H   0  0  0  0  0  0  0  0  0  0  0  0
  132.1649  139.6274  163.0304 H   0  0  0  0  0  0  0  0  0  0  0  0
  131.4256  141.2926  161.3756 H   0  0  0  0  0  0  0  0  0  0  0  0
  130.1106  140.5857  159.4184 H   0  0  0  0  0  0  0  0  0  0  0  0
  129.5321  138.2134  159.1115 H   0  0  0  0  0  0  0  0  0  0  0  0
  131.2305  136.2550  158.8763 H   0  0  0  0  0  0  0  0  0  0  0  0
  129.4242  131.2901  159.2947 H   0  0  0  0  0  0  0  0  0  0  0  0
  129.8884  132.6656  155.2673 H   0  0  0  0  0  0  0  0  0  0  0  0
  130.4447  131.0036  153.5075 H   0  0  0  0  0  0  0  0  0  0  0  0
  131.7209  128.9883  154.1109 H   0  0  0  0  0  0  0  0  0  0  0  0
  131.9456  130.1667  158.0828 H   0  0  0  0  0  0  0  0  0  0  0  0
  128.5158  135.6797  162.7998 H   0  0  0  0  0  0  0  0  0  0  0  0
  126.0655  135.4391  162.7668 H   0  0  0  0  0  0  0  0  0  0  0  0
  124.8423  135.5905  160.6352 H   0  0  0  0  0  0  0  0  0  0  0  0
  126.0686  135.9897  158.5376 H   0  0  0  0  0  0  0  0  0  0  0  0
  128.5182  136.2374  158.5716 H   0  0  0  0  0  0  0  0  0  0  0  0
  1  2  1  0
  1 35  1  0
  1 36  1  0
  1 37  1  0
  2  3  1  0
  2 38  1  0
  2 39  1  0
  3  4  2  0
  3 40  1  0
  4  5  1  0
  4 41  1  0
  5  6  1  0
  5 42  1  0
  5 43  1  0
  6  7  1  0
  7 12  2  0
  7  8  1  0
  8  9  2  0
  8 44  1  0
  9 10  1  0
  9 45  1  0
 10 11  2  0
 10 46  1  0
 11 12  1  0
 11 47  1  0
 12 13  1  0
 13 14  1  1
 13 15  1  0
 13 29  1  0
 15 48  1  0
 16 15  1  0
 16 27  2  0
 16 17  1  0
 17 18  1  0
 17 19  1  0
 19 20  2  0
 19 49  1  0
 20 21  1  0
 20 27  1  0
 21 26  1  0
 21 22  2  0
 22 23  1  0
 22 50  1  0
 23 24  2  0
 23 51  1  0
 24 25  1  0
 24 52  1  0
 25 26  2  0
 26 53  1  0
 27 28  1  0
 29 34  1  0
 29 30  2  0
 30 31  1  0
 30 54  1  0
 31 32  2  0
 31 55  1  0
 32 33  1  0
 32 56  1  0
 33 34  2  0
 33 57  1  0
 34 58  1  0
M  CHG  1  27   1
M  END
>  <DOCK_score>  (1) 
-56.108891

>  <SMILES>  (1) 
CC/C=C\COc1ccccc1[C@H](Nc1[nH]cc(-c2cccnc2)[nH+]1)c1ccccc1

$$$$
