CCc1ccc(-c2c[nH]c(N[C@H](CNc3cc(Cl)c(Cl)cc3O)Cc3ccccc3)[nH+]2)cc1
     RDKit          3D

 60 63  0  0  1  0  0  0  0  0999 V2000
  130.2545  128.2793  151.1752 C   0  0  0  0  0  0  0  0  0  0  0  0
  131.2474  129.4326  151.3324 C   0  0  0  0  0  0  0  0  0  0  0  0
  130.9848  130.1479  152.6326 C   0  0  0  0  0  0  0  0  0  0  0  0
  131.6307  129.7404  153.7854 C   0  0  0  0  0  0  0  0  0  0  0  0
  131.3985  130.3952  154.9780 C   0  0  0  0  0  0  0  0  0  0  0  0
  130.5025  131.4619  155.0212 C   0  0  0  0  0  0  0  0  0  0  0  0
  130.2446  132.1661  156.3010 C   0  0  0  0  0  0  0  0  0  0  0  0
  129.7549  131.6068  157.4351 C   0  0  0  0  0  0  0  0  0  0  0  0
  129.6739  132.6090  158.3711 N   0  0  0  0  0  0  0  0  0  0  0  0
  129.3588  132.5184  159.2840 H   0  0  0  0  0  0  0  0  0  0  0  0
  130.1170  133.7525  157.7810 C   0  0  0  0  0  0  0  0  0  0  0  0
  130.1953  134.9946  158.3873 N   0  0  0  0  0  0  0  0  0  0  0  0
  129.7801  135.1560  159.7829 C   0  0  2  0  0  0  0  0  0  0  0  0
  128.8817  134.5663  159.9650 H   0  0  0  0  0  0  0  0  0  0  0  0
  129.4864  136.6319  160.0601 C   0  0  0  0  0  0  0  0  0  0  0  0
  130.6939  137.4245  159.8150 N   0  0  0  0  0  0  0  0  0  0  0  0
  130.9179  138.6014  160.5398 C   0  0  0  0  0  0  0  0  0  0  0  0
  129.8611  139.2402  161.1720 C   0  0  0  0  0  0  0  0  0  0  0  0
  130.0846  140.4028  161.8874 C   0  0  0  0  0  0  0  0  0  0  0  0
  128.7614  141.2012  162.6781 Cl  0  0  0  0  0  0  0  0  0  0  0  0
  131.3616  140.9305  161.9743 C   0  0  0  0  0  0  0  0  0  0  0  0
  131.6364  142.3894  162.8741 Cl  0  0  0  0  0  0  0  0  0  0  0  0
  132.4193  140.2977  161.3454 C   0  0  0  0  0  0  0  0  0  0  0  0
  132.2032  139.1302  160.6323 C   0  0  0  0  0  0  0  0  0  0  0  0
  133.2434  138.5041  160.0188 O   0  0  0  0  0  0  0  0  0  0  0  0
  130.9010  134.6768  160.7073 C   0  0  0  0  0  0  0  0  0  0  0  0
  130.3336  134.3754  162.0705 C   0  0  0  0  0  0  0  0  0  0  0  0
  130.2847  135.3661  163.0333 C   0  0  0  0  0  0  0  0  0  0  0  0
  129.7599  135.0909  164.2821 C   0  0  0  0  0  0  0  0  0  0  0  0
  129.2933  133.8223  164.5715 C   0  0  0  0  0  0  0  0  0  0  0  0
  129.3467  132.8302  163.6103 C   0  0  0  0  0  0  0  0  0  0  0  0
  129.8669  133.1068  162.3598 C   0  0  0  0  0  0  0  0  0  0  0  0
  130.4626  133.4827  156.5458 N   0  0  0  0  0  0  0  0  0  0  0  0
  130.8155  134.1225  155.9079 H   0  0  0  0  0  0  0  0  0  0  0  0
  129.8501  131.8648  153.8573 C   0  0  0  0  0  0  0  0  0  0  0  0
  130.0943  131.2063  152.6693 C   0  0  0  0  0  0  0  0  0  0  0  0
  130.3746  127.5817  152.0041 H   0  0  0  0  0  0  0  0  0  0  0  0
  129.2378  128.6720  151.1752 H   0  0  0  0  0  0  0  0  0  0  0  0
  130.4444  127.7620  150.2347 H   0  0  0  0  0  0  0  0  0  0  0  0
  132.2637  129.0404  151.3320 H   0  0  0  0  0  0  0  0  0  0  0  0
  131.1270  130.1307  150.5030 H   0  0  0  0  0  0  0  0  0  0  0  0
  132.3211  128.9107  153.7518 H   0  0  0  0  0  0  0  0  0  0  0  0
  131.9069  130.0791  155.8768 H   0  0  0  0  0  0  0  0  0  0  0  0
  129.4807  130.5717  157.5755 H   0  0  0  0  0  0  0  0  0  0  0  0
  130.5254  135.7580  157.8880 H   0  0  0  0  0  0  0  0  0  0  0  0
  128.6878  136.9734  159.4015 H   0  0  0  0  0  0  0  0  0  0  0  0
  129.1775  136.7521  161.0984 H   0  0  0  0  0  0  0  0  0  0  0  0
  131.3382  137.1340  159.1506 H   0  0  0  0  0  0  0  0  0  0  0  0
  128.8644  138.8298  161.1058 H   0  0  0  0  0  0  0  0  0  0  0  0
  133.4144  140.7118  161.4146 H   0  0  0  0  0  0  0  0  0  0  0  0
  134.0950  138.9460  160.1398 H   0  0  0  0  0  0  0  0  0  0  0  0
  131.3521  133.7748  160.2939 H   0  0  0  0  0  0  0  0  0  0  0  0
  131.6589  135.4555  160.7933 H   0  0  0  0  0  0  0  0  0  0  0  0
  130.6535  136.3560  162.8087 H   0  0  0  0  0  0  0  0  0  0  0  0
  129.7183  135.8659  165.0332 H   0  0  0  0  0  0  0  0  0  0  0  0
  128.8872  133.6061  165.5486 H   0  0  0  0  0  0  0  0  0  0  0  0
  128.9825  131.8390  163.8366 H   0  0  0  0  0  0  0  0  0  0  0  0
  129.9091  132.3316  161.6089 H   0  0  0  0  0  0  0  0  0  0  0  0
  129.1546  132.6907  153.8851 H   0  0  0  0  0  0  0  0  0  0  0  0
  129.5891  131.5175  151.7668 H   0  0  0  0  0  0  0  0  0  0  0  0
  1  2  1  0
  1 37  1  0
  1 38  1  0
  1 39  1  0
  2  3  1  0
  2 40  1  0
  2 41  1  0
  3 36  2  0
  3  4  1  0
  4  5  2  0
  4 42  1  0
  5  6  1  0
  5 43  1  0
  6  7  1  0
  6 35  2  0
  7 33  1  0
  7  8  2  0
  8  9  1  0
  8 44  1  0
  9 10  1  0
  9 11  1  0
 11 12  1  0
 11 33  2  0
 12 13  1  0
 12 45  1  0
 13 14  1  6
 13 15  1  0
 13 26  1  0
 15 16  1  0
 15 46  1  0
 15 47  1  0
 16 17  1  0
 16 48  1  0
 17 24  1  0
 17 18  2  0
 18 19  1  0
 18 49  1  0
 19 20  1  0
 19 21  2  0
 21 22  1  0
 21 23  1  0
 23 24  2  0
 23 50  1  0
 24 25  1  0
 25 51  1  0
 26 27  1  0
 26 52  1  0
 26 53  1  0
 27 32  1  0
 27 28  2  0
 28 29  1  0
 28 54  1  0
 29 30  2  0
 29 55  1  0
 30 31  1  0
 30 56  1  0
 31 32  2  0
 31 57  1  0
 32 58  1  0
 33 34  1  0
 35 36  1  0
 35 59  1  0
 36 60  1  0
M  CHG  1  33   1
M  END
>  <DOCK_score>  (1) 
-64.648972

>  <SMILES>  (1) 
CCc1ccc(-c2c[nH]c(N[C@H](CNc3cc(Cl)c(Cl)cc3O)Cc3ccccc3)[nH+]2)cc1

$$$$
