O=C1CC[C@H](NC(NC2CC=CC2)=[NH+]C2CCCCc3cc(Br)ccc32)CN1
     RDKit          3D

 58 61  0  0  1  0  0  0  0  0999 V2000
  124.0659  134.0620  161.6834 O   0  0  0  0  0  0  0  0  0  0  0  0
  125.2495  134.2692  161.5185 C   0  0  0  0  0  0  0  0  0  0  0  0
  126.1059  133.1405  161.0207 C   0  0  0  0  0  0  0  0  0  0  0  0
  127.5809  133.4475  161.2912 C   0  0  0  0  0  0  0  0  0  0  0  0
  127.8787  134.8684  160.7976 C   0  0  2  0  0  0  0  0  0  0  0  0
  127.5496  134.9729  159.7637 H   0  0  0  0  0  0  0  0  0  0  0  0
  129.3181  135.1271  160.8837 N   0  0  0  0  0  0  0  0  0  0  0  0
  130.1342  134.8343  159.8167 C   0  0  0  0  0  0  0  0  0  0  0  0
  129.5996  134.2987  158.6690 N   0  0  0  0  0  0  0  0  0  0  0  0
  130.4059  133.4063  157.8326 C   0  0  0  0  0  0  0  0  0  0  0  0
  129.5494  132.7702  156.7131 C   0  0  0  0  0  0  0  0  0  0  0  0
  130.0737  131.3591  156.5834 C   0  0  0  0  0  0  0  0  0  0  0  0
  130.7840  131.0237  157.6259 C   0  0  0  0  0  0  0  0  0  0  0  0
  130.8517  132.1553  158.6249 C   0  0  0  0  0  0  0  0  0  0  0  0
  131.4149  135.0646  159.8934 N   0  0  0  0  0  0  0  0  0  0  0  0
  131.9906  134.8581  159.1407 H   0  0  0  0  0  0  0  0  0  0  0  0
  131.9845  135.6353  161.1165 C   0  0  1  0  0  0  0  0  0  0  0  0
  133.4925  135.8296  160.9398 C   0  0  0  0  0  0  0  0  0  0  0  0
  134.2016  135.8127  162.2795 C   0  0  0  0  0  0  0  0  0  0  0  0
  133.8930  137.0019  163.1675 C   0  0  0  0  0  0  0  0  0  0  0  0
  132.4387  136.9660  163.6437 C   0  0  0  0  0  0  0  0  0  0  0  0
  131.5715  137.6168  162.5862 C   0  0  0  0  0  0  0  0  0  0  0  0
  130.9996  138.8512  162.8389 C   0  0  0  0  0  0  0  0  0  0  0  0
  130.2063  139.4475  161.8744 C   0  0  0  0  0  0  0  0  0  0  0  0
  129.4203  141.1347  162.2081 Br  0  0  0  0  0  0  0  0  0  0  0  0
  129.9885  138.8103  160.6660 C   0  0  0  0  0  0  0  0  0  0  0  0
  130.5588  137.5743  160.4224 C   0  0  0  0  0  0  0  0  0  0  0  0
  131.3557  136.9861  161.3888 C   0  0  0  0  0  0  0  0  0  0  0  0
  127.1248  135.8648  161.6792 C   0  0  0  0  0  0  0  0  0  0  0  0
  125.7208  135.4869  161.7895 N   0  0  0  0  0  0  0  0  0  0  0  0
  125.9528  133.0155  159.9487 H   0  0  0  0  0  0  0  0  0  0  0  0
  125.8273  132.2206  161.5346 H   0  0  0  0  0  0  0  0  0  0  0  0
  128.2082  132.7343  160.7566 H   0  0  0  0  0  0  0  0  0  0  0  0
  127.7792  133.3816  162.3610 H   0  0  0  0  0  0  0  0  0  0  0  0
  129.6954  135.5050  161.6936 H   0  0  0  0  0  0  0  0  0  0  0  0
  128.6885  134.5118  158.4129 H   0  0  0  0  0  0  0  0  0  0  0  0
  131.2651  133.9330  157.4172 H   0  0  0  0  0  0  0  0  0  0  0  0
  128.4978  132.7598  156.9994 H   0  0  0  0  0  0  0  0  0  0  0  0
  129.6839  133.3128  155.7773 H   0  0  0  0  0  0  0  0  0  0  0  0
  129.8858  130.7128  155.7387 H   0  0  0  0  0  0  0  0  0  0  0  0
  131.2608  130.0636  157.7571 H   0  0  0  0  0  0  0  0  0  0  0  0
  131.8715  132.2799  158.9888 H   0  0  0  0  0  0  0  0  0  0  0  0
  130.1712  131.9697  159.4557 H   0  0  0  0  0  0  0  0  0  0  0  0
  131.7972  134.9650  161.9554 H   0  0  0  0  0  0  0  0  0  0  0  0
  133.6754  136.7859  160.4497 H   0  0  0  0  0  0  0  0  0  0  0  0
  133.8858  135.0266  160.3163 H   0  0  0  0  0  0  0  0  0  0  0  0
  135.2766  135.7842  162.1013 H   0  0  0  0  0  0  0  0  0  0  0  0
  133.9159  134.9033  162.8080 H   0  0  0  0  0  0  0  0  0  0  0  0
  134.0637  137.9212  162.6072 H   0  0  0  0  0  0  0  0  0  0  0  0
  134.5542  136.9825  164.0338 H   0  0  0  0  0  0  0  0  0  0  0  0
  132.3466  137.5141  164.5815 H   0  0  0  0  0  0  0  0  0  0  0  0
  132.1236  135.9329  163.7910 H   0  0  0  0  0  0  0  0  0  0  0  0
  131.1710  139.3463  163.7833 H   0  0  0  0  0  0  0  0  0  0  0  0
  129.3687  139.2763  159.9141 H   0  0  0  0  0  0  0  0  0  0  0  0
  130.3864  137.0728  159.4815 H   0  0  0  0  0  0  0  0  0  0  0  0
  127.5716  135.8763  162.6733 H   0  0  0  0  0  0  0  0  0  0  0  0
  127.1995  136.8607  161.2426 H   0  0  0  0  0  0  0  0  0  0  0  0
  125.0894  136.1654  162.0758 H   0  0  0  0  0  0  0  0  0  0  0  0
  1  2  2  0
  2 30  1  0
  2  3  1  0
  3  4  1  0
  3 31  1  0
  3 32  1  0
  4  5  1  0
  4 33  1  0
  4 34  1  0
  5  6  1  6
  5  7  1  0
  5 29  1  0
  7 35  1  0
  8  7  1  0
  8  9  1  0
  8 15  2  0
  9 10  1  0
  9 36  1  0
 10 14  1  0
 10 11  1  0
 10 37  1  0
 11 12  1  0
 11 38  1  0
 11 39  1  0
 12 13  2  0
 12 40  1  0
 13 14  1  0
 13 41  1  0
 14 42  1  0
 14 43  1  0
 15 16  1  0
 15 17  1  0
 17 28  1  0
 17 18  1  0
 17 44  1  1
 18 19  1  0
 18 45  1  0
 18 46  1  0
 19 20  1  0
 19 47  1  0
 19 48  1  0
 20 21  1  0
 20 49  1  0
 20 50  1  0
 21 22  1  0
 21 51  1  0
 21 52  1  0
 22 28  2  0
 22 23  1  0
 23 24  2  0
 23 53  1  0
 24 25  1  0
 24 26  1  0
 26 27  2  0
 26 54  1  0
 27 28  1  0
 27 55  1  0
 29 30  1  0
 29 56  1  0
 29 57  1  0
 30 58  1  0
M  CHG  1  15   1
M  END
>  <DOCK_score>  (1) 
-47.166759

>  <SMILES>  (1) 
O=C1CC[C@H](NC(NC2CC=CC2)=[NH+]C2CCCCc3cc(Br)ccc32)CN1

$$$$
