Fc1ccc2[nH]c(CNc3n[nH]cc3C[NH2+]Cc3ccc4ccccc4c3)cc2c1
     RDKit          3D

 53 57  0  0  0  0  0  0  0  0999 V2000
  132.3462  129.4646  156.4739 F   0  0  0  0  0  0  0  0  0  0  0  0
  131.6588  130.3880  157.1812 C   0  0  0  0  0  0  0  0  0  0  0  0
  131.3466  130.1464  158.5144 C   0  0  0  0  0  0  0  0  0  0  0  0
  130.6459  131.0754  159.2508 C   0  0  0  0  0  0  0  0  0  0  0  0
  130.2453  132.2699  158.6613 C   0  0  0  0  0  0  0  0  0  0  0  0
  129.5516  133.3676  159.1229 N   0  0  0  0  0  0  0  0  0  0  0  0
  129.2048  133.4697  160.0231 H   0  0  0  0  0  0  0  0  0  0  0  0
  129.4199  134.2896  158.1207 C   0  0  0  0  0  0  0  0  0  0  0  0
  128.7192  135.6171  158.2529 C   0  0  0  0  0  0  0  0  0  0  0  0
  129.1288  136.2632  159.5023 N   0  0  0  0  0  0  0  0  0  0  0  0
  128.1721  136.5749  160.4757 C   0  0  0  0  0  0  0  0  0  0  0  0
  126.8834  136.3422  160.3920 N   0  0  0  0  0  0  0  0  0  0  0  0
  126.2796  136.7998  161.5702 N   0  0  0  0  0  0  0  0  0  0  0  0
  125.3338  136.7538  161.7808 H   0  0  0  0  0  0  0  0  0  0  0  0
  127.2429  137.3213  162.3586 C   0  0  0  0  0  0  0  0  0  0  0  0
  128.4228  137.1967  161.7095 C   0  0  0  0  0  0  0  0  0  0  0  0
  129.7678  137.6460  162.2194 C   0  0  0  0  0  0  0  0  0  0  0  0
  130.3970  136.5519  162.9712 N   0  0  0  0  0  0  0  0  0  0  0  0
  129.8091  136.2982  163.7510 H   0  0  0  0  0  0  0  0  0  0  0  0
  130.5163  135.7532  162.3662 H   0  0  0  0  0  0  0  0  0  0  0  0
  131.7080  136.9900  163.4685 C   0  0  0  0  0  0  0  0  0  0  0  0
  132.5860  137.3690  162.3038 C   0  0  0  0  0  0  0  0  0  0  0  0
  132.6421  136.5369  161.1871 C   0  0  0  0  0  0  0  0  0  0  0  0
  133.4205  136.8527  160.1164 C   0  0  0  0  0  0  0  0  0  0  0  0
  134.1896  138.0289  160.1385 C   0  0  0  0  0  0  0  0  0  0  0  0
  135.0095  138.3851  159.0542 C   0  0  0  0  0  0  0  0  0  0  0  0
  135.7407  139.5314  159.1112 C   0  0  0  0  0  0  0  0  0  0  0  0
  135.6888  140.3608  160.2301 C   0  0  0  0  0  0  0  0  0  0  0  0
  134.9057  140.0483  161.2983 C   0  0  0  0  0  0  0  0  0  0  0  0
  134.1366  138.8722  161.2763 C   0  0  0  0  0  0  0  0  0  0  0  0
  133.3164  138.5160  162.3605 C   0  0  0  0  0  0  0  0  0  0  0  0
  130.0074  133.8363  157.0020 C   0  0  0  0  0  0  0  0  0  0  0  0
  130.5606  132.5160  157.3131 C   0  0  0  0  0  0  0  0  0  0  0  0
  131.2711  131.5645  156.5779 C   0  0  0  0  0  0  0  0  0  0  0  0
  131.6562  129.2207  158.9767 H   0  0  0  0  0  0  0  0  0  0  0  0
  130.4087  130.8772  160.2856 H   0  0  0  0  0  0  0  0  0  0  0  0
  128.9860  136.2544  157.4099 H   0  0  0  0  0  0  0  0  0  0  0  0
  127.6407  135.4594  158.2621 H   0  0  0  0  0  0  0  0  0  0  0  0
  130.0629  136.4750  159.6552 H   0  0  0  0  0  0  0  0  0  0  0  0
  127.0973  137.7604  163.3345 H   0  0  0  0  0  0  0  0  0  0  0  0
  130.4028  137.9200  161.3768 H   0  0  0  0  0  0  0  0  0  0  0  0
  129.6390  138.5089  162.8728 H   0  0  0  0  0  0  0  0  0  0  0  0
  131.5788  137.8527  164.1221 H   0  0  0  0  0  0  0  0  0  0  0  0
  132.1749  136.1782  164.0263 H   0  0  0  0  0  0  0  0  0  0  0  0
  132.0558  135.6300  161.1694 H   0  0  0  0  0  0  0  0  0  0  0  0
  133.4507  136.2006  159.2560 H   0  0  0  0  0  0  0  0  0  0  0  0
  135.0593  137.7524  158.1803 H   0  0  0  0  0  0  0  0  0  0  0  0
  136.3705  139.8028  158.2768 H   0  0  0  0  0  0  0  0  0  0  0  0
  136.2787  141.2654  160.2495 H   0  0  0  0  0  0  0  0  0  0  0  0
  134.8752  140.7007  162.1585 H   0  0  0  0  0  0  0  0  0  0  0  0
  133.2663  139.1488  163.2342 H   0  0  0  0  0  0  0  0  0  0  0  0
  130.0618  134.3480  156.0524 H   0  0  0  0  0  0  0  0  0  0  0  0
  131.5155  131.7499  155.5423 H   0  0  0  0  0  0  0  0  0  0  0  0
  1  2  1  0
  2 34  2  0
  2  3  1  0
  3  4  2  0
  3 35  1  0
  4  5  1  0
  4 36  1  0
  5 33  2  0
  5  6  1  0
  6  7  1  0
  6  8  1  0
  8  9  1  0
  8 32  2  0
  9 10  1  0
  9 37  1  0
  9 38  1  0
 10 11  1  0
 10 39  1  0
 11 16  1  0
 11 12  2  0
 12 13  1  0
 13 14  1  0
 13 15  1  0
 15 16  2  0
 15 40  1  0
 16 17  1  0
 17 18  1  0
 17 41  1  0
 17 42  1  0
 18 19  1  0
 18 20  1  0
 18 21  1  0
 21 22  1  0
 21 43  1  0
 21 44  1  0
 22 31  1  0
 22 23  2  0
 23 24  1  0
 23 45  1  0
 24 25  2  0
 24 46  1  0
 25 30  1  0
 25 26  1  0
 26 27  2  0
 26 47  1  0
 27 28  1  0
 27 48  1  0
 28 29  2  0
 28 49  1  0
 29 30  1  0
 29 50  1  0
 30 31  2  0
 31 51  1  0
 32 33  1  0
 32 52  1  0
 33 34  1  0
 34 53  1  0
M  CHG  1  18   1
M  END
>  <DOCK_score>  (1) 
-48.175278

>  <SMILES>  (1) 
Fc1ccc2[nH]c(CNc3n[nH]cc3C[NH2+]Cc3ccc4ccccc4c3)cc2c1

$$$$
