CN(C[C@H]1CCCC[N@@H+]1Cc1ccccc1)S(=O)(=O)c1cccnc1
     RDKit          3D

 51 53  0  0  1  0  0  0  0  0999 V2000
  127.3605  134.9706  158.6588 C   0  0  0  0  0  0  0  0  0  0  0  0
  128.2074  135.7637  159.5533 N   0  0  0  0  0  0  0  0  0  0  0  0
  129.5071  136.2539  159.0876 C   0  0  0  0  0  0  0  0  0  0  0  0
  130.6145  135.6897  159.9799 C   0  0  1  0  0  0  0  0  0  0  0  0
  130.2832  135.6974  161.0183 H   0  0  0  0  0  0  0  0  0  0  0  0
  130.9281  134.2533  159.5559 C   0  0  0  0  0  0  0  0  0  0  0  0
  132.0365  133.6929  160.4517 C   0  0  0  0  0  0  0  0  0  0  0  0
  133.2629  134.6056  160.3611 C   0  0  0  0  0  0  0  0  0  0  0  0
  132.8628  136.0289  160.7552 C   0  0  0  0  0  0  0  0  0  0  0  0
  131.8193  136.5174  159.8459 N   0  0  2  0  0  0  0  0  0  0  0  0
  132.1542  136.4706  158.8952 H   0  0  0  0  0  0  0  0  0  0  0  0
  131.4941  137.9106  160.1792 C   0  0  0  0  0  0  0  0  0  0  0  0
  132.7595  138.6535  160.5226 C   0  0  0  0  0  0  0  0  0  0  0  0
  133.2045  138.6930  161.8308 C   0  0  0  0  0  0  0  0  0  0  0  0
  134.3678  139.3705  162.1450 C   0  0  0  0  0  0  0  0  0  0  0  0
  135.0808  140.0166  161.1524 C   0  0  0  0  0  0  0  0  0  0  0  0
  134.6329  139.9819  159.8453 C   0  0  0  0  0  0  0  0  0  0  0  0
  133.4722  139.3001  159.5303 C   0  0  0  0  0  0  0  0  0  0  0  0
  127.6958  136.1058  161.0906 S   0  0  0  0  0  0  0  0  0  0  0  0
  126.2779  136.0128  161.0717 O   0  0  0  0  0  0  0  0  0  0  0  0
  128.3925  137.2767  161.4940 O   0  0  0  0  0  0  0  0  0  0  0  0
  128.2661  134.8039  162.1320 C   0  0  0  0  0  0  0  0  0  0  0  0
  127.7204  133.5332  162.0303 C   0  0  0  0  0  0  0  0  0  0  0  0
  128.1968  132.5411  162.8732 C   0  0  0  0  0  0  0  0  0  0  0  0
  129.2003  132.8466  163.7731 C   0  0  0  0  0  0  0  0  0  0  0  0
  129.6997  134.0652  163.8384 N   0  0  0  0  0  0  0  0  0  0  0  0
  129.2672  135.0349  163.0562 C   0  0  0  0  0  0  0  0  0  0  0  0
  126.6395  135.6239  158.1673 H   0  0  0  0  0  0  0  0  0  0  0  0
  127.9817  134.4841  157.9068 H   0  0  0  0  0  0  0  0  0  0  0  0
  126.8300  134.2139  159.2369 H   0  0  0  0  0  0  0  0  0  0  0  0
  129.6697  135.9319  158.0591 H   0  0  0  0  0  0  0  0  0  0  0  0
  129.5224  137.3428  159.1341 H   0  0  0  0  0  0  0  0  0  0  0  0
  130.0328  133.6400  159.6579 H   0  0  0  0  0  0  0  0  0  0  0  0
  131.2598  134.2444  158.5176 H   0  0  0  0  0  0  0  0  0  0  0  0
  131.6867  133.6538  161.4832 H   0  0  0  0  0  0  0  0  0  0  0  0
  132.3031  132.6900  160.1178 H   0  0  0  0  0  0  0  0  0  0  0  0
  134.0365  134.2442  161.0386 H   0  0  0  0  0  0  0  0  0  0  0  0
  133.6431  134.6040  159.3395 H   0  0  0  0  0  0  0  0  0  0  0  0
  132.4830  136.0294  161.7769 H   0  0  0  0  0  0  0  0  0  0  0  0
  133.7336  136.6815  160.6915 H   0  0  0  0  0  0  0  0  0  0  0  0
  131.0141  138.3863  159.3240 H   0  0  0  0  0  0  0  0  0  0  0  0
  130.8174  137.9312  161.0336 H   0  0  0  0  0  0  0  0  0  0  0  0
  132.6453  138.1915  162.6068 H   0  0  0  0  0  0  0  0  0  0  0  0
  134.7177  139.3978  163.1663 H   0  0  0  0  0  0  0  0  0  0  0  0
  135.9877  140.5490  161.3985 H   0  0  0  0  0  0  0  0  0  0  0  0
  135.1897  140.4872  159.0699 H   0  0  0  0  0  0  0  0  0  0  0  0
  133.1222  139.2730  158.5089 H   0  0  0  0  0  0  0  0  0  0  0  0
  126.9400  133.3224  161.3139 H   0  0  0  0  0  0  0  0  0  0  0  0
  127.7920  131.5409  162.8240 H   0  0  0  0  0  0  0  0  0  0  0  0
  129.5801  132.0782  164.4302 H   0  0  0  0  0  0  0  0  0  0  0  0
  129.7004  136.0207  163.1386 H   0  0  0  0  0  0  0  0  0  0  0  0
  1  2  1  0
  1 28  1  0
  1 29  1  0
  1 30  1  0
  2  3  1  0
  2 19  1  0
  3  4  1  0
  3 31  1  0
  3 32  1  0
  4  5  1  1
  4 10  1  0
  4  6  1  0
  6  7  1  0
  6 33  1  0
  6 34  1  0
  7  8  1  0
  7 35  1  0
  7 36  1  0
  8  9  1  0
  8 37  1  0
  8 38  1  0
  9 10  1  0
  9 39  1  0
  9 40  1  0
 10 11  1  6
 10 12  1  0
 12 13  1  0
 12 41  1  0
 12 42  1  0
 13 18  1  0
 13 14  2  0
 14 15  1  0
 14 43  1  0
 15 16  2  0
 15 44  1  0
 16 17  1  0
 16 45  1  0
 17 18  2  0
 17 46  1  0
 18 47  1  0
 19 20  2  0
 19 21  2  0
 19 22  1  0
 22 27  1  0
 22 23  2  0
 23 24  1  0
 23 48  1  0
 24 25  2  0
 24 49  1  0
 25 26  1  0
 25 50  1  0
 26 27  2  0
 27 51  1  0
M  CHG  1  10   1
M  END
>  <DOCK_score>  (1) 
-41.417664

>  <SMILES>  (1) 
CN(C[C@H]1CCCC[N@@H+]1Cc1ccccc1)S(=O)(=O)c1cccnc1

$$$$
