Nc1ccc(-c2c[nH]c(N[C@@H](CNc3ccc(Br)cc3)c3ccccc3)[nH+]2)cc1
     RDKit          3D

 52 55  0  0  1  0  0  0  0  0999 V2000
  131.2368  129.8327  152.0912 N   0  0  0  0  0  0  0  0  0  0  0  0
  130.9398  130.5284  153.2656 C   0  0  0  0  0  0  0  0  0  0  0  0
  130.5090  131.8482  153.2001 C   0  0  0  0  0  0  0  0  0  0  0  0
  130.2152  132.5369  154.3581 C   0  0  0  0  0  0  0  0  0  0  0  0
  130.3506  131.9085  155.5950 C   0  0  0  0  0  0  0  0  0  0  0  0
  130.0352  132.6474  156.8421 C   0  0  0  0  0  0  0  0  0  0  0  0
  129.5643  132.1062  157.9927 C   0  0  0  0  0  0  0  0  0  0  0  0
  129.4131  133.1396  158.8868 N   0  0  0  0  0  0  0  0  0  0  0  0
  129.0927  133.0677  159.7994 H   0  0  0  0  0  0  0  0  0  0  0  0
  129.7964  134.2820  158.2547 C   0  0  0  0  0  0  0  0  0  0  0  0
  129.7950  135.5502  158.8101 N   0  0  0  0  0  0  0  0  0  0  0  0
  129.3535  135.7435  160.1935 C   0  0  1  0  0  0  0  0  0  0  0  0
  129.9898  135.1640  160.8623 H   0  0  0  0  0  0  0  0  0  0  0  0
  129.4491  137.2266  160.5568 C   0  0  0  0  0  0  0  0  0  0  0  0
  130.8371  137.6745  160.4201 N   0  0  0  0  0  0  0  0  0  0  0  0
  131.8429  137.0748  161.1823 C   0  0  0  0  0  0  0  0  0  0  0  0
  133.1706  137.1771  160.7866 C   0  0  0  0  0  0  0  0  0  0  0  0
  134.1620  136.5785  161.5389 C   0  0  0  0  0  0  0  0  0  0  0  0
  133.8350  135.8858  162.6911 C   0  0  0  0  0  0  0  0  0  0  0  0
  135.1961  135.0726  163.7216 Br  0  0  0  0  0  0  0  0  0  0  0  0
  132.5135  135.7826  163.0880 C   0  0  0  0  0  0  0  0  0  0  0  0
  131.5173  136.3747  162.3370 C   0  0  0  0  0  0  0  0  0  0  0  0
  127.9256  135.2829  160.3342 C   0  0  0  0  0  0  0  0  0  0  0  0
  127.4793  134.7733  161.5393 C   0  0  0  0  0  0  0  0  0  0  0  0
  126.1683  134.3544  161.6695 C   0  0  0  0  0  0  0  0  0  0  0  0
  125.3060  134.4374  160.5923 C   0  0  0  0  0  0  0  0  0  0  0  0
  125.7537  134.9422  159.3858 C   0  0  0  0  0  0  0  0  0  0  0  0
  127.0635  135.3646  159.2567 C   0  0  0  0  0  0  0  0  0  0  0  0
  130.1620  133.9846  157.0315 N   0  0  0  0  0  0  0  0  0  0  0  0
  130.4755  134.6192  156.3683 H   0  0  0  0  0  0  0  0  0  0  0  0
  130.7884  130.5865  155.6586 C   0  0  0  0  0  0  0  0  0  0  0  0
  131.0752  129.8997  154.4978 C   0  0  0  0  0  0  0  0  0  0  0  0
  131.1423  130.2706  151.2309 H   0  0  0  0  0  0  0  0  0  0  0  0
  131.5376  128.9116  152.1361 H   0  0  0  0  0  0  0  0  0  0  0  0
  130.4046  132.3347  152.2416 H   0  0  0  0  0  0  0  0  0  0  0  0
  129.8801  133.5623  154.3065 H   0  0  0  0  0  0  0  0  0  0  0  0
  129.3490  131.0632  158.1724 H   0  0  0  0  0  0  0  0  0  0  0  0
  130.0862  136.3108  158.2831 H   0  0  0  0  0  0  0  0  0  0  0  0
  129.1205  137.3706  161.5862 H   0  0  0  0  0  0  0  0  0  0  0  0
  128.8127  137.8062  159.8880 H   0  0  0  0  0  0  0  0  0  0  0  0
  131.0580  138.3874  159.8005 H   0  0  0  0  0  0  0  0  0  0  0  0
  133.4266  137.7205  159.8890 H   0  0  0  0  0  0  0  0  0  0  0  0
  135.1938  136.6543  161.2294 H   0  0  0  0  0  0  0  0  0  0  0  0
  132.2609  135.2381  163.9858 H   0  0  0  0  0  0  0  0  0  0  0  0
  130.4858  136.2932  162.6469 H   0  0  0  0  0  0  0  0  0  0  0  0
  128.1540  134.7052  162.3798 H   0  0  0  0  0  0  0  0  0  0  0  0
  125.8187  133.9598  162.6121 H   0  0  0  0  0  0  0  0  0  0  0  0
  124.2825  134.1076  160.6933 H   0  0  0  0  0  0  0  0  0  0  0  0
  125.0800  135.0066  158.5442 H   0  0  0  0  0  0  0  0  0  0  0  0
  127.4133  135.7589  158.3141 H   0  0  0  0  0  0  0  0  0  0  0  0
  130.8984  130.0992  156.6160 H   0  0  0  0  0  0  0  0  0  0  0  0
  131.4101  128.8741  154.5463 H   0  0  0  0  0  0  0  0  0  0  0  0
  1  2  1  0
  1 33  1  0
  1 34  1  0
  2 32  2  0
  2  3  1  0
  3  4  2  0
  3 35  1  0
  4  5  1  0
  4 36  1  0
  5  6  1  0
  5 31  2  0
  6 29  1  0
  6  7  2  0
  7  8  1  0
  7 37  1  0
  8  9  1  0
  8 10  1  0
 10 11  1  0
 10 29  2  0
 11 12  1  0
 11 38  1  0
 12 13  1  1
 12 14  1  0
 12 23  1  0
 14 15  1  0
 14 39  1  0
 14 40  1  0
 15 16  1  0
 15 41  1  0
 16 22  1  0
 16 17  2  0
 17 18  1  0
 17 42  1  0
 18 19  2  0
 18 43  1  0
 19 20  1  0
 19 21  1  0
 21 22  2  0
 21 44  1  0
 22 45  1  0
 23 28  1  0
 23 24  2  0
 24 25  1  0
 24 46  1  0
 25 26  2  0
 25 47  1  0
 26 27  1  0
 26 48  1  0
 27 28  2  0
 27 49  1  0
 28 50  1  0
 29 30  1  0
 31 32  1  0
 31 51  1  0
 32 52  1  0
M  CHG  1  29   1
M  END
>  <DOCK_score>  (1) 
-58.229263

>  <SMILES>  (1) 
Nc1ccc(-c2c[nH]c(N[C@@H](CNc3ccc(Br)cc3)c3ccccc3)[nH+]2)cc1

$$$$
