CC(C)(N[C@@H]1C=CC(O)(c2cc3cc[nH]c3cc2Br)C1)C(N)=[NH2+]
     RDKit          3D

 45 47  0  0  1  0  0  0  0  0999 V2000
  124.8133  133.3861  161.1917 C   0  0  0  0  0  0  0  0  0  0  0  0
  126.3249  133.3745  160.9548 C   0  0  0  0  0  0  0  0  0  0  0  0
  126.8709  131.9689  161.2133 C   0  0  0  0  0  0  0  0  0  0  0  0
  126.6058  133.7612  159.5658 N   0  0  0  0  0  0  0  0  0  0  0  0
  127.9935  134.2196  159.4173 C   0  0  2  0  0  0  0  0  0  0  0  0
  128.2861  134.8258  160.2746 H   0  0  0  0  0  0  0  0  0  0  0  0
  128.1540  135.0061  158.1371 C   0  0  0  0  0  0  0  0  0  0  0  0
  129.2349  134.6490  157.4985 C   0  0  0  0  0  0  0  0  0  0  0  0
  129.9756  133.5650  158.2464 C   0  0  2  0  0  0  0  0  0  0  0  0
  131.1037  134.1139  158.9305 O   0  0  0  0  0  0  0  0  0  0  0  0
  130.4153  132.4794  157.2982 C   0  0  0  0  0  0  0  0  0  0  0  0
  130.1213  132.5814  155.9676 C   0  0  0  0  0  0  0  0  0  0  0  0
  130.5287  131.5764  155.0885 C   0  0  0  0  0  0  0  0  0  0  0  0
  130.3890  131.3684  153.6451 C   0  0  0  0  0  0  0  0  0  0  0  0
  130.9911  130.2041  153.3563 C   0  0  0  0  0  0  0  0  0  0  0  0
  131.5052  129.6490  154.4968 N   0  0  0  0  0  0  0  0  0  0  0  0
  131.9855  128.8074  154.5395 H   0  0  0  0  0  0  0  0  0  0  0  0
  131.2394  130.4637  155.5747 C   0  0  0  0  0  0  0  0  0  0  0  0
  131.5283  130.3797  156.9325 C   0  0  0  0  0  0  0  0  0  0  0  0
  131.1167  131.3833  157.7834 C   0  0  0  0  0  0  0  0  0  0  0  0
  131.5108  131.2664  159.6291 Br  0  0  0  0  0  0  0  0  0  0  0  0
  128.9458  133.0116  159.2585 C   0  0  0  0  0  0  0  0  0  0  0  0
  126.9876  134.3510  161.8919 C   0  0  0  0  0  0  0  0  0  0  0  0
  126.6669  135.6326  161.8462 N   0  0  0  0  0  0  0  0  0  0  0  0
  127.8893  133.9261  162.7598 N   0  0  0  0  0  0  0  0  0  0  0  0
  128.1246  132.9856  162.7934 H   0  0  0  0  0  0  0  0  0  0  0  0
  128.3159  134.5546  163.3631 H   0  0  0  0  0  0  0  0  0  0  0  0
  124.3242  132.7579  160.4472 H   0  0  0  0  0  0  0  0  0  0  0  0
  124.5988  133.0018  162.1888 H   0  0  0  0  0  0  0  0  0  0  0  0
  124.4401  134.4068  161.1077 H   0  0  0  0  0  0  0  0  0  0  0  0
  127.9476  131.9606  161.0447 H   0  0  0  0  0  0  0  0  0  0  0  0
  126.6624  131.6819  162.2441 H   0  0  0  0  0  0  0  0  0  0  0  0
  126.3915  131.2626  160.5356 H   0  0  0  0  0  0  0  0  0  0  0  0
  126.4059  133.0022  158.9317 H   0  0  0  0  0  0  0  0  0  0  0  0
  127.4645  135.7637  157.7950 H   0  0  0  0  0  0  0  0  0  0  0  0
  129.5574  135.0726  156.5589 H   0  0  0  0  0  0  0  0  0  0  0  0
  131.7702  134.4983  158.3447 H   0  0  0  0  0  0  0  0  0  0  0  0
  129.5753  133.4365  155.5974 H   0  0  0  0  0  0  0  0  0  0  0  0
  129.8952  132.0269  152.9459 H   0  0  0  0  0  0  0  0  0  0  0  0
  131.0633  129.7714  152.3693 H   0  0  0  0  0  0  0  0  0  0  0  0
  132.0731  129.5310  157.3190 H   0  0  0  0  0  0  0  0  0  0  0  0
  128.4193  132.1495  158.8492 H   0  0  0  0  0  0  0  0  0  0  0  0
  129.4233  132.7625  160.2061 H   0  0  0  0  0  0  0  0  0  0  0  0
  126.0051  135.9445  161.2094 H   0  0  0  0  0  0  0  0  0  0  0  0
  127.0935  136.2610  162.4494 H   0  0  0  0  0  0  0  0  0  0  0  0
  1  2  1  0
  1 28  1  0
  1 29  1  0
  1 30  1  0
  2  3  1  0
  2  4  1  0
  2 23  1  0
  3 31  1  0
  3 32  1  0
  3 33  1  0
  4  5  1  0
  4 34  1  0
  5  6  1  1
  5 22  1  0
  5  7  1  0
  7  8  2  0
  7 35  1  0
  8  9  1  0
  8 36  1  0
  9 10  1  1
  9 11  1  0
  9 22  1  0
 10 37  1  0
 11 20  1  0
 11 12  2  0
 12 13  1  0
 12 38  1  0
 13 18  2  0
 13 14  1  0
 14 15  2  0
 14 39  1  0
 15 16  1  0
 15 40  1  0
 16 17  1  0
 16 18  1  0
 18 19  1  0
 19 20  2  0
 19 41  1  0
 20 21  1  0
 22 42  1  0
 22 43  1  0
 23 24  1  0
 23 25  2  0
 24 44  1  0
 24 45  1  0
 25 26  1  0
 25 27  1  0
M  CHG  1  25   1
M  END
>  <DOCK_score>  (1) 
-46.505768

>  <SMILES>  (1) 
CC(C)(N[C@@H]1C=CC(O)(c2cc3cc[nH]c3cc2Br)C1)C(N)=[NH2+]

$$$$
