Cc1cc(N2CC=CCC2)ccc1C(C)[NH2+][C@@H](C)c1cnn(-c2ccccc2)c1
     RDKit          3D

 60 63  0  0  1  0  0  0  0  0999 V2000
  131.1200  137.9422  162.5802 C   0  0  0  0  0  0  0  0  0  0  0  0
  132.2847  138.1971  161.6585 C   0  0  0  0  0  0  0  0  0  0  0  0
  133.0313  139.3515  161.7930 C   0  0  0  0  0  0  0  0  0  0  0  0
  134.1047  139.5854  160.9433 C   0  0  0  0  0  0  0  0  0  0  0  0
  134.8614  140.7519  161.0763 N   0  0  0  0  0  0  0  0  0  0  0  0
  135.8972  140.8284  160.0383 C   0  0  0  0  0  0  0  0  0  0  0  0
  136.9895  139.8372  160.3187 C   0  0  0  0  0  0  0  0  0  0  0  0
  137.1610  139.2746  161.4761 C   0  0  0  0  0  0  0  0  0  0  0  0
  136.2757  139.5532  162.6584 C   0  0  0  0  0  0  0  0  0  0  0  0
  135.4738  140.8340  162.4128 C   0  0  0  0  0  0  0  0  0  0  0  0
  134.4238  138.6567  159.9605 C   0  0  0  0  0  0  0  0  0  0  0  0
  133.6768  137.5022  159.8351 C   0  0  0  0  0  0  0  0  0  0  0  0
  132.6051  137.2751  160.6793 C   0  0  0  0  0  0  0  0  0  0  0  0
  131.7883  136.0167  160.5354 C   0  0  2  0  0  0  0  0  0  0  0  0
  132.6748  134.8923  159.9963 C   0  0  0  0  0  0  0  0  0  0  0  0
  130.6796  136.2566  159.6019 N   0  0  0  0  0  0  0  0  0  0  0  0
  131.0195  136.1967  158.6537 H   0  0  0  0  0  0  0  0  0  0  0  0
  130.2960  137.1755  159.7643 H   0  0  0  0  0  0  0  0  0  0  0  0
  129.6349  135.2456  159.8124 C   0  0  1  0  0  0  0  0  0  0  0  0
  129.5187  135.0600  160.8803 H   0  0  0  0  0  0  0  0  0  0  0  0
  128.3114  135.7522  159.2357 C   0  0  0  0  0  0  0  0  0  0  0  0
  130.0275  133.9659  159.1201 C   0  0  0  0  0  0  0  0  0  0  0  0
  130.2181  132.7231  159.7340 C   0  0  0  0  0  0  0  0  0  0  0  0
  130.5460  131.8558  158.8102 N   0  0  0  0  0  0  0  0  0  0  0  0
  130.5796  132.5206  157.5776 N   0  0  0  0  0  0  0  0  0  0  0  0
  130.8894  131.9445  156.3377 C   0  0  0  0  0  0  0  0  0  0  0  0
  130.8799  132.7221  155.1876 C   0  0  0  0  0  0  0  0  0  0  0  0
  131.1906  132.1528  153.9680 C   0  0  0  0  0  0  0  0  0  0  0  0
  131.5003  130.8074  153.8905 C   0  0  0  0  0  0  0  0  0  0  0  0
  131.5050  130.0290  155.0334 C   0  0  0  0  0  0  0  0  0  0  0  0
  131.2007  130.5939  156.2565 C   0  0  0  0  0  0  0  0  0  0  0  0
  130.2605  133.8164  157.7956 C   0  0  0  0  0  0  0  0  0  0  0  0
  131.4653  137.3997  163.4603 H   0  0  0  0  0  0  0  0  0  0  0  0
  130.6848  138.8933  162.8873 H   0  0  0  0  0  0  0  0  0  0  0  0
  130.3678  137.3495  162.0599 H   0  0  0  0  0  0  0  0  0  0  0  0
  132.7807  140.0712  162.5583 H   0  0  0  0  0  0  0  0  0  0  0  0
  135.4520  140.6102  159.0674 H   0  0  0  0  0  0  0  0  0  0  0  0
  136.3179  141.8338  160.0218 H   0  0  0  0  0  0  0  0  0  0  0  0
  137.6662  139.5792  159.5176 H   0  0  0  0  0  0  0  0  0  0  0  0
  137.9759  138.5759  161.5947 H   0  0  0  0  0  0  0  0  0  0  0  0
  136.8900  139.6754  163.5505 H   0  0  0  0  0  0  0  0  0  0  0  0
  135.5901  138.7182  162.8027 H   0  0  0  0  0  0  0  0  0  0  0  0
  136.1385  141.6968  162.4588 H   0  0  0  0  0  0  0  0  0  0  0  0
  134.6939  140.9319  163.1679 H   0  0  0  0  0  0  0  0  0  0  0  0
  135.2579  138.8356  159.2981 H   0  0  0  0  0  0  0  0  0  0  0  0
  133.9272  136.7775  159.0744 H   0  0  0  0  0  0  0  0  0  0  0  0
  131.3886  135.7298  161.5081 H   0  0  0  0  0  0  0  0  0  0  0  0
  133.0743  135.1792  159.0238 H   0  0  0  0  0  0  0  0  0  0  0  0
  133.4972  134.7143  160.6891 H   0  0  0  0  0  0  0  0  0  0  0  0
  132.0840  133.9821  159.8923 H   0  0  0  0  0  0  0  0  0  0  0  0
  128.0274  136.6777  159.7366 H   0  0  0  0  0  0  0  0  0  0  0  0
  128.4276  135.9376  158.1679 H   0  0  0  0  0  0  0  0  0  0  0  0
  127.5361  135.0019  159.3919 H   0  0  0  0  0  0  0  0  0  0  0  0
  130.1090  132.5142  160.7879 H   0  0  0  0  0  0  0  0  0  0  0  0
  130.6338  133.7720  155.2469 H   0  0  0  0  0  0  0  0  0  0  0  0
  131.1881  132.7582  153.0737 H   0  0  0  0  0  0  0  0  0  0  0  0
  131.7392  130.3635  152.9353 H   0  0  0  0  0  0  0  0  0  0  0  0
  131.7471  128.9785  154.9697 H   0  0  0  0  0  0  0  0  0  0  0  0
  131.2052  129.9857  157.1490 H   0  0  0  0  0  0  0  0  0  0  0  0
  130.1987  134.5919  157.0464 H   0  0  0  0  0  0  0  0  0  0  0  0
  1  2  1  0
  1 33  1  0
  1 34  1  0
  1 35  1  0
  2 13  2  0
  2  3  1  0
  3  4  2  0
  3 36  1  0
  4  5  1  0
  4 11  1  0
  5 10  1  0
  5  6  1  0
  6  7  1  0
  6 37  1  0
  6 38  1  0
  7  8  2  0
  7 39  1  0
  8  9  1  0
  8 40  1  0
  9 10  1  0
  9 41  1  0
  9 42  1  0
 10 43  1  0
 10 44  1  0
 11 12  2  0
 11 45  1  0
 12 13  1  0
 12 46  1  0
 13 14  1  0
 14 15  1  0
 14 16  1  0
 14 47  1  1
 15 48  1  0
 15 49  1  0
 15 50  1  0
 16 17  1  0
 16 18  1  0
 16 19  1  0
 19 20  1  1
 19 21  1  0
 19 22  1  0
 21 51  1  0
 21 52  1  0
 21 53  1  0
 22 32  2  0
 22 23  1  0
 23 24  2  0
 23 54  1  0
 24 25  1  0
 25 26  1  0
 25 32  1  0
 26 31  1  0
 26 27  2  0
 27 28  1  0
 27 55  1  0
 28 29  2  0
 28 56  1  0
 29 30  1  0
 29 57  1  0
 30 31  2  0
 30 58  1  0
 31 59  1  0
 32 60  1  0
M  CHG  1  16   1
M  END
>  <DOCK_score>  (1) 
-57.360111

>  <SMILES>  (1) 
Cc1cc(N2CC=CCC2)ccc1C(C)[NH2+][C@@H](C)c1cnn(-c2ccccc2)c1

$$$$
