CCc1ccc(-c2c[nH]c(Nc3ccncc3C3=CCN(c4ccc(C[NH3+])cc4)C3)[nH+]2)cc1
     RDKit          3D

 63 67  0  0  1  0  0  0  0  0999 V2000
  130.1680  128.3529  151.4223 C   0  0  0  0  0  0  0  0  0  0  0  0
  131.2659  129.3906  151.6667 C   0  0  0  0  0  0  0  0  0  0  0  0
  130.9451  130.1779  152.9110 C   0  0  0  0  0  0  0  0  0  0  0  0
  131.4042  129.7408  154.1404 C   0  0  0  0  0  0  0  0  0  0  0  0
  131.1133  130.4576  155.2833 C   0  0  0  0  0  0  0  0  0  0  0  0
  130.3553  131.6241  155.1971 C   0  0  0  0  0  0  0  0  0  0  0  0
  130.0394  132.3989  156.4219 C   0  0  0  0  0  0  0  0  0  0  0  0
  129.3472  131.9457  157.4968 C   0  0  0  0  0  0  0  0  0  0  0  0
  129.2857  132.9809  158.3966 N   0  0  0  0  0  0  0  0  0  0  0  0
  128.8541  132.9624  159.2650 H   0  0  0  0  0  0  0  0  0  0  0  0
  129.9427  134.0378  157.8451 C   0  0  0  0  0  0  0  0  0  0  0  0
  130.1095  135.2810  158.4342 N   0  0  0  0  0  0  0  0  0  0  0  0
  129.1498  135.7671  159.3160 C   0  0  0  0  0  0  0  0  0  0  0  0
  127.8099  135.4097  159.1842 C   0  0  0  0  0  0  0  0  0  0  0  0
  126.8878  135.9130  160.0784 C   0  0  0  0  0  0  0  0  0  0  0  0
  127.2540  136.7255  161.0529 N   0  0  0  0  0  0  0  0  0  0  0  0
  128.5086  137.0900  161.2257 C   0  0  0  0  0  0  0  0  0  0  0  0
  129.5052  136.6341  160.3655 C   0  0  0  0  0  0  0  0  0  0  0  0
  130.9102  137.0487  160.5556 C   0  0  0  0  0  0  0  0  0  0  0  0
  131.9752  136.3241  160.2379 C   0  0  0  0  0  0  0  0  0  0  0  0
  133.2249  137.0987  160.5874 C   0  0  0  0  0  0  0  0  0  0  0  0
  132.7852  138.5043  160.7507 N   0  0  0  0  0  0  0  0  0  0  0  0
  133.5198  139.1458  161.7505 C   0  0  0  0  0  0  0  0  0  0  0  0
  134.8317  138.7655  162.0030 C   0  0  0  0  0  0  0  0  0  0  0  0
  135.5553  139.4015  162.9925 C   0  0  0  0  0  0  0  0  0  0  0  0
  134.9751  140.4159  163.7318 C   0  0  0  0  0  0  0  0  0  0  0  0
  135.7676  141.1077  164.8109 C   0  0  0  0  0  0  0  0  0  0  0  0
  135.5778  140.4032  166.0857 N   0  0  0  0  0  0  0  0  0  0  0  0
  136.1086  140.8664  166.8083 H   0  0  0  0  0  0  0  0  0  0  0  0
  135.8957  139.4499  165.9937 H   0  0  0  0  0  0  0  0  0  0  0  0
  134.5992  140.4092  166.3310 H   0  0  0  0  0  0  0  0  0  0  0  0
  133.6674  140.7932  163.4870 C   0  0  0  0  0  0  0  0  0  0  0  0
  132.9400  140.1653  162.4949 C   0  0  0  0  0  0  0  0  0  0  0  0
  131.3629  138.3656  161.1430 C   0  0  0  0  0  0  0  0  0  0  0  0
  130.3866  133.6875  156.6627 N   0  0  0  0  0  0  0  0  0  0  0  0
  130.8859  134.2581  156.0577 H   0  0  0  0  0  0  0  0  0  0  0  0
  129.8903  132.0565  153.9564 C   0  0  0  0  0  0  0  0  0  0  0  0
  130.1918  131.3347  152.8194 C   0  0  0  0  0  0  0  0  0  0  0  0
  130.1110  127.6767  152.2754 H   0  0  0  0  0  0  0  0  0  0  0  0
  129.2111  128.8590  151.2953 H   0  0  0  0  0  0  0  0  0  0  0  0
  130.4002  127.7835  150.5223 H   0  0  0  0  0  0  0  0  0  0  0  0
  131.3225  130.0668  150.8136 H   0  0  0  0  0  0  0  0  0  0  0  0
  132.2225  128.8843  151.7936 H   0  0  0  0  0  0  0  0  0  0  0  0
  131.9915  128.8369  154.2060 H   0  0  0  0  0  0  0  0  0  0  0  0
  131.4727  130.1156  156.2426 H   0  0  0  0  0  0  0  0  0  0  0  0
  128.9249  130.9594  157.6209 H   0  0  0  0  0  0  0  0  0  0  0  0
  130.8954  135.8121  158.2318 H   0  0  0  0  0  0  0  0  0  0  0  0
  127.4966  134.7466  158.3915 H   0  0  0  0  0  0  0  0  0  0  0  0
  125.8481  135.6380  159.9793 H   0  0  0  0  0  0  0  0  0  0  0  0
  128.7659  137.7524  162.0389 H   0  0  0  0  0  0  0  0  0  0  0  0
  131.9527  135.3374  159.7992 H   0  0  0  0  0  0  0  0  0  0  0  0
  133.9539  137.0229  159.7807 H   0  0  0  0  0  0  0  0  0  0  0  0
  133.6516  136.7262  161.5188 H   0  0  0  0  0  0  0  0  0  0  0  0
  135.2856  137.9734  161.4257 H   0  0  0  0  0  0  0  0  0  0  0  0
  136.5752  139.1061  163.1896 H   0  0  0  0  0  0  0  0  0  0  0  0
  135.4242  142.1376  164.9102 H   0  0  0  0  0  0  0  0  0  0  0  0
  136.8248  141.1014  164.5458 H   0  0  0  0  0  0  0  0  0  0  0  0
  133.2157  141.5827  164.0692 H   0  0  0  0  0  0  0  0  0  0  0  0
  131.9203  140.4634  162.3013 H   0  0  0  0  0  0  0  0  0  0  0  0
  131.2712  138.3458  162.2289 H   0  0  0  0  0  0  0  0  0  0  0  0
  130.7756  139.1852  160.7289 H   0  0  0  0  0  0  0  0  0  0  0  0
  129.2985  132.9572  153.8844 H   0  0  0  0  0  0  0  0  0  0  0  0
  129.8351  131.6709  151.8571 H   0  0  0  0  0  0  0  0  0  0  0  0
  1  2  1  0
  1 39  1  0
  1 40  1  0
  1 41  1  0
  2  3  1  0
  2 42  1  0
  2 43  1  0
  3 38  2  0
  3  4  1  0
  4  5  2  0
  4 44  1  0
  5  6  1  0
  5 45  1  0
  6  7  1  0
  6 37  2  0
  7 35  1  0
  7  8  2  0
  8  9  1  0
  8 46  1  0
  9 10  1  0
  9 11  1  0
 11 12  1  0
 11 35  2  0
 12 13  1  0
 12 47  1  0
 13 18  1  0
 13 14  2  0
 14 15  1  0
 14 48  1  0
 15 16  2  0
 15 49  1  0
 16 17  1  0
 17 18  2  0
 17 50  1  0
 18 19  1  0
 19 34  1  0
 19 20  2  0
 20 21  1  0
 20 51  1  0
 21 22  1  0
 21 52  1  0
 21 53  1  0
 22 23  1  0
 22 34  1  0
 23 33  1  0
 23 24  2  0
 24 25  1  0
 24 54  1  0
 25 26  2  0
 25 55  1  0
 26 27  1  0
 26 32  1  0
 27 28  1  0
 27 56  1  0
 27 57  1  0
 28 29  1  0
 28 30  1  0
 28 31  1  0
 32 33  2  0
 32 58  1  0
 33 59  1  0
 34 60  1  0
 34 61  1  0
 35 36  1  0
 37 38  1  0
 37 62  1  0
 38 63  1  0
M  CHG  2  28   1  35   1
M  END
>  <DOCK_score>  (1) 
-62.153408

>  <SMILES>  (1) 
CCc1ccc(-c2c[nH]c(Nc3ccncc3C3=CCN(c4ccc(C[NH3+])cc4)C3)[nH+]2)cc1

$$$$
