Nc1ccc(-c2c[nH]c(N[C@H](Cc3ccccc3Br)c3ccco3)[nH+]2)cc1
     RDKit          3D

 47 50  0  0  1  0  0  0  0  0999 V2000
  131.2735  130.0275  152.1198 N   0  0  0  0  0  0  0  0  0  0  0  0
  131.0164  130.6423  153.3476 C   0  0  0  0  0  0  0  0  0  0  0  0
  130.4497  131.9109  153.3831 C   0  0  0  0  0  0  0  0  0  0  0  0
  130.1951  132.5197  154.5940 C   0  0  0  0  0  0  0  0  0  0  0  0
  130.5064  131.8618  155.7829 C   0  0  0  0  0  0  0  0  0  0  0  0
  130.2334  132.5148  157.0867 C   0  0  0  0  0  0  0  0  0  0  0  0
  129.4159  132.0424  158.0599 C   0  0  0  0  0  0  0  0  0  0  0  0
  129.4540  132.9529  159.0893 N   0  0  0  0  0  0  0  0  0  0  0  0
  128.9713  132.8921  159.9284 H   0  0  0  0  0  0  0  0  0  0  0  0
  130.2943  133.9550  158.7135 C   0  0  0  0  0  0  0  0  0  0  0  0
  130.6080  135.0708  159.4706 N   0  0  0  0  0  0  0  0  0  0  0  0
  130.0159  135.2445  160.7993 C   0  0  2  0  0  0  0  0  0  0  0  0
  130.3776  136.1737  161.2397 H   0  0  0  0  0  0  0  0  0  0  0  0
  130.4138  134.0679  161.6926 C   0  0  0  0  0  0  0  0  0  0  0  0
  131.8107  134.2837  162.2152 C   0  0  0  0  0  0  0  0  0  0  0  0
  132.8959  133.8062  161.5044 C   0  0  0  0  0  0  0  0  0  0  0  0
  134.1773  134.0038  161.9837 C   0  0  0  0  0  0  0  0  0  0  0  0
  134.3741  134.6797  163.1737 C   0  0  0  0  0  0  0  0  0  0  0  0
  133.2899  135.1583  163.8844 C   0  0  0  0  0  0  0  0  0  0  0  0
  132.0069  134.9558  163.4079 C   0  0  0  0  0  0  0  0  0  0  0  0
  130.5224  135.6042  164.3835 Br  0  0  0  0  0  0  0  0  0  0  0  0
  128.5147  135.2975  160.6773 C   0  0  0  0  0  0  0  0  0  0  0  0
  127.6477  135.4488  161.6947 C   0  0  0  0  0  0  0  0  0  0  0  0
  126.3509  135.4463  161.1313 C   0  0  0  0  0  0  0  0  0  0  0  0
  126.5027  135.2856  159.8045 C   0  0  0  0  0  0  0  0  0  0  0  0
  127.8154  135.1960  159.5352 O   0  0  0  0  0  0  0  0  0  0  0  0
  130.7536  133.6924  157.5142 N   0  0  0  0  0  0  0  0  0  0  0  0
  131.3691  134.2502  157.0131 H   0  0  0  0  0  0  0  0  0  0  0  0
  131.0800  130.5919  155.7447 C   0  0  0  0  0  0  0  0  0  0  0  0
  131.3273  129.9843  154.5317 C   0  0  0  0  0  0  0  0  0  0  0  0
  131.0565  130.4861  151.2930 H   0  0  0  0  0  0  0  0  0  0  0  0
  131.6690  129.1423  152.0941 H   0  0  0  0  0  0  0  0  0  0  0  0
  130.2090  132.4204  152.4618 H   0  0  0  0  0  0  0  0  0  0  0  0
  129.7544  133.5053  154.6210 H   0  0  0  0  0  0  0  0  0  0  0  0
  128.8441  131.1266  158.0316 H   0  0  0  0  0  0  0  0  0  0  0  0
  131.2197  135.7377  159.1213 H   0  0  0  0  0  0  0  0  0  0  0  0
  130.3808  133.1449  161.1139 H   0  0  0  0  0  0  0  0  0  0  0  0
  129.7197  133.9966  162.5301 H   0  0  0  0  0  0  0  0  0  0  0  0
  132.7427  133.2784  160.5748 H   0  0  0  0  0  0  0  0  0  0  0  0
  135.0250  133.6303  161.4284 H   0  0  0  0  0  0  0  0  0  0  0  0
  135.3756  134.8341  163.5476 H   0  0  0  0  0  0  0  0  0  0  0  0
  133.4437  135.6862  164.8137 H   0  0  0  0  0  0  0  0  0  0  0  0
  127.8949  135.5542  162.7407 H   0  0  0  0  0  0  0  0  0  0  0  0
  125.4175  135.5501  161.6645 H   0  0  0  0  0  0  0  0  0  0  0  0
  125.7043  135.2363  159.0789 H   0  0  0  0  0  0  0  0  0  0  0  0
  131.3262  130.0822  156.6645 H   0  0  0  0  0  0  0  0  0  0  0  0
  131.7675  128.9987  154.5017 H   0  0  0  0  0  0  0  0  0  0  0  0
  1  2  1  0
  1 31  1  0
  1 32  1  0
  2 30  2  0
  2  3  1  0
  3  4  2  0
  3 33  1  0
  4  5  1  0
  4 34  1  0
  5  6  1  0
  5 29  2  0
  6 27  1  0
  6  7  2  0
  7  8  1  0
  7 35  1  0
  8  9  1  0
  8 10  1  0
 10 11  1  0
 10 27  2  0
 11 12  1  0
 11 36  1  0
 12 13  1  1
 12 14  1  0
 12 22  1  0
 14 15  1  0
 14 37  1  0
 14 38  1  0
 15 20  1  0
 15 16  2  0
 16 17  1  0
 16 39  1  0
 17 18  2  0
 17 40  1  0
 18 19  1  0
 18 41  1  0
 19 20  2  0
 19 42  1  0
 20 21  1  0
 22 26  1  0
 22 23  2  0
 23 24  1  0
 23 43  1  0
 24 25  2  0
 24 44  1  0
 25 26  1  0
 25 45  1  0
 27 28  1  0
 29 30  1  0
 29 46  1  0
 30 47  1  0
M  CHG  1  27   1
M  END
>  <DOCK_score>  (1) 
-57.047928

>  <SMILES>  (1) 
Nc1ccc(-c2c[nH]c(N[C@H](Cc3ccccc3Br)c3ccco3)[nH+]2)cc1

$$$$
