Oc1cc(C[NH+]=C(NCC2Cc3ccccc3C2)NC2CC=CC2)cc(O)c1O
     RDKit          3D

 57 60  0  0  1  0  0  0  0  0999 V2000
  124.8018  136.0555  163.5139 O   0  0  0  0  0  0  0  0  0  0  0  0
  126.0394  136.0904  164.0769 C   0  0  0  0  0  0  0  0  0  0  0  0
  127.1385  136.4568  163.3150 C   0  0  0  0  0  0  0  0  0  0  0  0
  128.3968  136.4926  163.8862 C   0  0  0  0  0  0  0  0  0  0  0  0
  129.5885  136.8917  163.0546 C   0  0  0  0  0  0  0  0  0  0  0  0
  129.5327  136.2063  161.7609 N   0  0  0  0  0  0  0  0  0  0  0  0
  128.7984  135.6045  161.5621 H   0  0  0  0  0  0  0  0  0  0  0  0
  130.4698  136.4052  160.8772 C   0  0  0  0  0  0  0  0  0  0  0  0
  131.5107  137.2580  161.1590 N   0  0  0  0  0  0  0  0  0  0  0  0
  132.5640  137.4816  160.1657 C   0  0  0  0  0  0  0  0  0  0  0  0
  133.5929  138.4657  160.7260 C   0  0  0  0  0  0  0  0  0  0  0  0
  134.5309  138.9733  159.6103 C   0  0  0  0  0  0  0  0  0  0  0  0
  135.8840  139.1336  160.2697 C   0  0  0  0  0  0  0  0  0  0  0  0
  137.0047  139.8348  159.8636 C   0  0  0  0  0  0  0  0  0  0  0  0
  138.1453  139.8363  160.6421 C   0  0  0  0  0  0  0  0  0  0  0  0
  138.1688  139.1338  161.8326 C   0  0  0  0  0  0  0  0  0  0  0  0
  137.0517  138.4321  162.2411 C   0  0  0  0  0  0  0  0  0  0  0  0
  135.9068  138.4295  161.4615 C   0  0  0  0  0  0  0  0  0  0  0  0
  134.5717  137.7510  161.6818 C   0  0  0  0  0  0  0  0  0  0  0  0
  130.4175  135.7620  159.6631 N   0  0  0  0  0  0  0  0  0  0  0  0
  129.3084  134.8532  159.3629 C   0  0  0  0  0  0  0  0  0  0  0  0
  129.3737  133.5865  160.2475 C   0  0  0  0  0  0  0  0  0  0  0  0
  128.9250  132.4626  159.3427 C   0  0  0  0  0  0  0  0  0  0  0  0
  128.9696  132.8223  158.0888 C   0  0  0  0  0  0  0  0  0  0  0  0
  129.4556  134.2462  157.9483 C   0  0  0  0  0  0  0  0  0  0  0  0
  128.5658  136.1578  165.2167 C   0  0  0  0  0  0  0  0  0  0  0  0
  127.4709  135.7953  165.9868 C   0  0  0  0  0  0  0  0  0  0  0  0
  127.6374  135.4710  167.2970 O   0  0  0  0  0  0  0  0  0  0  0  0
  126.2042  135.7580  165.4162 C   0  0  0  0  0  0  0  0  0  0  0  0
  125.1277  135.3990  166.1676 O   0  0  0  0  0  0  0  0  0  0  0  0
  124.7880  136.3022  162.5790 H   0  0  0  0  0  0  0  0  0  0  0  0
  127.0114  136.7148  162.2740 H   0  0  0  0  0  0  0  0  0  0  0  0
  130.5047  136.6119  163.5747 H   0  0  0  0  0  0  0  0  0  0  0  0
  129.5757  137.9700  162.8954 H   0  0  0  0  0  0  0  0  0  0  0  0
  131.5476  137.7118  162.0156 H   0  0  0  0  0  0  0  0  0  0  0  0
  132.1250  137.8932  159.2569 H   0  0  0  0  0  0  0  0  0  0  0  0
  133.0538  136.5352  159.9362 H   0  0  0  0  0  0  0  0  0  0  0  0
  133.1006  139.2989  161.2273 H   0  0  0  0  0  0  0  0  0  0  0  0
  134.5877  138.2434  158.8028 H   0  0  0  0  0  0  0  0  0  0  0  0
  134.1801  139.9321  159.2285 H   0  0  0  0  0  0  0  0  0  0  0  0
  136.9871  140.3837  158.9337 H   0  0  0  0  0  0  0  0  0  0  0  0
  139.0182  140.3852  160.3211 H   0  0  0  0  0  0  0  0  0  0  0  0
  139.0599  139.1341  162.4429 H   0  0  0  0  0  0  0  0  0  0  0  0
  137.0705  137.8839  163.1714 H   0  0  0  0  0  0  0  0  0  0  0  0
  134.2498  137.8761  162.7157 H   0  0  0  0  0  0  0  0  0  0  0  0
  134.6383  136.6921  161.4326 H   0  0  0  0  0  0  0  0  0  0  0  0
  131.1149  135.9099  159.0055 H   0  0  0  0  0  0  0  0  0  0  0  0
  128.3495  135.3595  159.4736 H   0  0  0  0  0  0  0  0  0  0  0  0
  130.3942  133.4143  160.5894 H   0  0  0  0  0  0  0  0  0  0  0  0
  128.6984  133.6821  161.0978 H   0  0  0  0  0  0  0  0  0  0  0  0
  128.6085  131.4895  159.6882 H   0  0  0  0  0  0  0  0  0  0  0  0
  128.6949  132.1861  157.2606 H   0  0  0  0  0  0  0  0  0  0  0  0
  128.8361  134.7902  157.2353 H   0  0  0  0  0  0  0  0  0  0  0  0
  130.4991  134.2638  157.6342 H   0  0  0  0  0  0  0  0  0  0  0  0
  129.5510  136.1827  165.6583 H   0  0  0  0  0  0  0  0  0  0  0  0
  128.5537  135.5221  167.6014 H   0  0  0  0  0  0  0  0  0  0  0  0
  125.3427  135.1866  167.0862 H   0  0  0  0  0  0  0  0  0  0  0  0
  1  2  1  0
  1 31  1  0
  2 29  2  0
  2  3  1  0
  3  4  2  0
  3 32  1  0
  4  5  1  0
  4 26  1  0
  5  6  1  0
  5 33  1  0
  5 34  1  0
  6  7  1  0
  8  6  2  0
  8  9  1  0
  8 20  1  0
  9 10  1  0
  9 35  1  0
 10 11  1  0
 10 36  1  0
 10 37  1  0
 11 19  1  0
 11 12  1  0
 11 38  1  0
 12 13  1  0
 12 39  1  0
 12 40  1  0
 13 18  2  0
 13 14  1  0
 14 15  2  0
 14 41  1  0
 15 16  1  0
 15 42  1  0
 16 17  2  0
 16 43  1  0
 17 18  1  0
 17 44  1  0
 18 19  1  0
 19 45  1  0
 19 46  1  0
 20 21  1  0
 20 47  1  0
 21 25  1  0
 21 22  1  0
 21 48  1  0
 22 23  1  0
 22 49  1  0
 22 50  1  0
 23 24  2  0
 23 51  1  0
 24 25  1  0
 24 52  1  0
 25 53  1  0
 25 54  1  0
 26 27  2  0
 26 55  1  0
 27 28  1  0
 27 29  1  0
 28 56  1  0
 29 30  1  0
 30 57  1  0
M  CHG  1   6   1
M  END
>  <DOCK_score>  (1) 
-44.33321

>  <SMILES>  (1) 
Oc1cc(C[NH+]=C(NCC2Cc3ccccc3C2)NC2CC=CC2)cc(O)c1O

$$$$
