Cc1ccc(-c2ccc(C[C@H](Nc3[nH]cc(C)[nH+]3)c3ccccc3)cc2)cc1
     RDKit          3D

 54 57  0  0  1  0  0  0  0  0999 V2000
  137.6881  135.5157  166.3921 C   0  0  0  0  0  0  0  0  0  0  0  0
  136.5074  135.6866  165.4713 C   0  0  0  0  0  0  0  0  0  0  0  0
  136.6288  135.3725  164.1297 C   0  0  0  0  0  0  0  0  0  0  0  0
  135.5491  135.5216  163.2830 C   0  0  0  0  0  0  0  0  0  0  0  0
  134.3366  135.9948  163.7811 C   0  0  0  0  0  0  0  0  0  0  0  0
  133.1722  136.1567  162.8756 C   0  0  0  0  0  0  0  0  0  0  0  0
  131.8773  136.0059  163.3678 C   0  0  0  0  0  0  0  0  0  0  0  0
  130.7979  136.1618  162.5221 C   0  0  0  0  0  0  0  0  0  0  0  0
  130.9998  136.4577  161.1860 C   0  0  0  0  0  0  0  0  0  0  0  0
  129.8174  136.6218  160.2664 C   0  0  0  0  0  0  0  0  0  0  0  0
  129.4597  135.2683  159.6491 C   0  0  2  0  0  0  0  0  0  0  0  0
  129.5558  134.4879  160.4039 H   0  0  0  0  0  0  0  0  0  0  0  0
  130.3675  134.9845  158.5349 N   0  0  0  0  0  0  0  0  0  0  0  0
  130.2365  133.8071  157.8175 C   0  0  0  0  0  0  0  0  0  0  0  0
  129.7678  132.6266  158.3046 N   0  0  0  0  0  0  0  0  0  0  0  0
  129.4665  132.4554  159.2106 H   0  0  0  0  0  0  0  0  0  0  0  0
  129.8026  131.7211  157.2684 C   0  0  0  0  0  0  0  0  0  0  0  0
  130.2856  132.3712  156.1961 C   0  0  0  0  0  0  0  0  0  0  0  0
  130.5013  131.7779  154.8277 C   0  0  0  0  0  0  0  0  0  0  0  0
  130.5382  133.6425  156.5513 N   0  0  0  0  0  0  0  0  0  0  0  0
  130.8906  134.3297  155.9644 H   0  0  0  0  0  0  0  0  0  0  0  0
  128.0404  135.3060  159.1436 C   0  0  0  0  0  0  0  0  0  0  0  0
  127.0005  134.9350  159.9751 C   0  0  0  0  0  0  0  0  0  0  0  0
  125.6983  134.9733  159.5127 C   0  0  0  0  0  0  0  0  0  0  0  0
  125.4370  135.3748  158.2160 C   0  0  0  0  0  0  0  0  0  0  0  0
  126.4774  135.7410  157.3828 C   0  0  0  0  0  0  0  0  0  0  0  0
  127.7792  135.7062  157.8464 C   0  0  0  0  0  0  0  0  0  0  0  0
  132.2832  136.6039  160.6911 C   0  0  0  0  0  0  0  0  0  0  0  0
  133.3698  136.4547  161.5289 C   0  0  0  0  0  0  0  0  0  0  0  0
  134.2216  136.3146  165.1322 C   0  0  0  0  0  0  0  0  0  0  0  0
  135.3078  136.1617  165.9698 C   0  0  0  0  0  0  0  0  0  0  0  0
  138.2676  136.4386  166.4150 H   0  0  0  0  0  0  0  0  0  0  0  0
  137.3348  135.2836  167.3968 H   0  0  0  0  0  0  0  0  0  0  0  0
  138.3161  134.7015  166.0305 H   0  0  0  0  0  0  0  0  0  0  0  0
  137.5689  135.0055  163.7449 H   0  0  0  0  0  0  0  0  0  0  0  0
  135.6438  135.2724  162.2365 H   0  0  0  0  0  0  0  0  0  0  0  0
  131.7187  135.7704  164.4098 H   0  0  0  0  0  0  0  0  0  0  0  0
  129.7938  136.0489  162.9033 H   0  0  0  0  0  0  0  0  0  0  0  0
  128.9660  136.9991  160.8329 H   0  0  0  0  0  0  0  0  0  0  0  0
  130.0681  137.3275  159.4744 H   0  0  0  0  0  0  0  0  0  0  0  0
  131.0604  135.6213  158.2996 H   0  0  0  0  0  0  0  0  0  0  0  0
  129.4993  130.6853  157.3094 H   0  0  0  0  0  0  0  0  0  0  0  0
  129.5982  131.9043  154.2305 H   0  0  0  0  0  0  0  0  0  0  0  0
  131.3337  132.2843  154.3392 H   0  0  0  0  0  0  0  0  0  0  0  0
  130.7276  130.7161  154.9236 H   0  0  0  0  0  0  0  0  0  0  0  0
  127.2050  134.6180  160.9871 H   0  0  0  0  0  0  0  0  0  0  0  0
  124.8854  134.6870  160.1636 H   0  0  0  0  0  0  0  0  0  0  0  0
  124.4199  135.4023  157.8539 H   0  0  0  0  0  0  0  0  0  0  0  0
  126.2732  136.0542  156.3696 H   0  0  0  0  0  0  0  0  0  0  0  0
  128.5921  135.9922  157.1954 H   0  0  0  0  0  0  0  0  0  0  0  0
  132.4352  136.8348  159.6471 H   0  0  0  0  0  0  0  0  0  0  0  0
  134.3714  136.5691  161.1414 H   0  0  0  0  0  0  0  0  0  0  0  0
  133.2843  136.6821  165.5233 H   0  0  0  0  0  0  0  0  0  0  0  0
  135.2198  136.4093  167.0174 H   0  0  0  0  0  0  0  0  0  0  0  0
  1  2  1  0
  1 32  1  0
  1 33  1  0
  1 34  1  0
  2 31  2  0
  2  3  1  0
  3  4  2  0
  3 35  1  0
  4  5  1  0
  4 36  1  0
  5  6  1  0
  5 30  2  0
  6 29  1  0
  6  7  2  0
  7  8  1  0
  7 37  1  0
  8  9  2  0
  8 38  1  0
  9 10  1  0
  9 28  1  0
 10 11  1  0
 10 39  1  0
 10 40  1  0
 11 12  1  1
 11 13  1  0
 11 22  1  0
 13 41  1  0
 14 13  1  0
 14 20  2  0
 14 15  1  0
 15 16  1  0
 15 17  1  0
 17 18  2  0
 17 42  1  0
 18 19  1  0
 18 20  1  0
 19 43  1  0
 19 44  1  0
 19 45  1  0
 20 21  1  0
 22 27  1  0
 22 23  2  0
 23 24  1  0
 23 46  1  0
 24 25  2  0
 24 47  1  0
 25 26  1  0
 25 48  1  0
 26 27  2  0
 26 49  1  0
 27 50  1  0
 28 29  2  0
 28 51  1  0
 29 52  1  0
 30 31  1  0
 30 53  1  0
 31 54  1  0
M  CHG  1  20   1
M  END
>  <DOCK_score>  (1) 
-56.363438

>  <SMILES>  (1) 
Cc1ccc(-c2ccc(C[C@H](Nc3[nH]cc(C)[nH+]3)c3ccccc3)cc2)cc1

$$$$
