CCc1ccc(-c2c[nH]c(N[C@H](C)Cc3ccc(-c4ccccc4C=CBr)cc3)[nH+]2)cc1
     RDKit          3D

 61 64  0  0  1  0  0  0  0  0999 V2000
  130.4488  128.4184  152.1199 C   0  0  0  0  0  0  0  0  0  0  0  0
  131.3137  129.6739  152.2482 C   0  0  0  0  0  0  0  0  0  0  0  0
  130.9632  130.3975  153.5228 C   0  0  0  0  0  0  0  0  0  0  0  0
  131.6351  130.0958  154.6931 C   0  0  0  0  0  0  0  0  0  0  0  0
  131.3223  130.7592  155.8623 C   0  0  0  0  0  0  0  0  0  0  0  0
  130.3192  131.7268  155.8643 C   0  0  0  0  0  0  0  0  0  0  0  0
  129.9747  132.4393  157.1189 C   0  0  0  0  0  0  0  0  0  0  0  0
  129.5334  131.8669  158.2664 C   0  0  0  0  0  0  0  0  0  0  0  0
  129.3375  132.8836  159.1692 N   0  0  0  0  0  0  0  0  0  0  0  0
  129.0234  132.7887  160.0820 H   0  0  0  0  0  0  0  0  0  0  0  0
  129.6652  134.0485  158.5466 C   0  0  0  0  0  0  0  0  0  0  0  0
  129.6064  135.3101  159.1134 N   0  0  0  0  0  0  0  0  0  0  0  0
  129.1608  135.4701  160.4999 C   0  0  2  0  0  0  0  0  0  0  0  0
  128.3270  134.7954  160.6937 H   0  0  0  0  0  0  0  0  0  0  0  0
  128.7114  136.9148  160.7275 C   0  0  0  0  0  0  0  0  0  0  0  0
  130.3154  135.1399  161.4480 C   0  0  0  0  0  0  0  0  0  0  0  0
  131.4680  136.0728  161.1798 C   0  0  0  0  0  0  0  0  0  0  0  0
  131.5558  137.2733  161.8617 C   0  0  0  0  0  0  0  0  0  0  0  0
  132.6121  138.1291  161.6246 C   0  0  0  0  0  0  0  0  0  0  0  0
  133.5860  137.7869  160.6872 C   0  0  0  0  0  0  0  0  0  0  0  0
  134.7193  138.7046  160.4232 C   0  0  0  0  0  0  0  0  0  0  0  0
  134.6170  139.6766  159.4319 C   0  0  0  0  0  0  0  0  0  0  0  0
  135.6728  140.5331  159.1931 C   0  0  0  0  0  0  0  0  0  0  0  0
  136.8426  140.4258  159.9267 C   0  0  0  0  0  0  0  0  0  0  0  0
  136.9649  139.4652  160.9093 C   0  0  0  0  0  0  0  0  0  0  0  0
  135.9063  138.5950  161.1684 C   0  0  0  0  0  0  0  0  0  0  0  0
  136.0317  137.5650  162.2180 C   0  0  0  0  0  0  0  0  0  0  0  0
  136.2590  137.9236  163.4766 C   0  0  0  0  0  0  0  0  0  0  0  0
  136.4195  136.6040  164.8215 Br  0  0  0  0  0  0  0  0  0  0  0  0
  133.4891  136.5782  159.9990 C   0  0  0  0  0  0  0  0  0  0  0  0
  132.4313  135.7279  160.2488 C   0  0  0  0  0  0  0  0  0  0  0  0
  130.0510  133.7783  157.3234 N   0  0  0  0  0  0  0  0  0  0  0  0
  130.3422  134.4317  156.6682 H   0  0  0  0  0  0  0  0  0  0  0  0
  129.6414  132.0229  154.6831 C   0  0  0  0  0  0  0  0  0  0  0  0
  129.9664  131.3573  153.5186 C   0  0  0  0  0  0  0  0  0  0  0  0
  130.6318  127.7633  152.9716 H   0  0  0  0  0  0  0  0  0  0  0  0
  129.3966  128.7022  152.0993 H   0  0  0  0  0  0  0  0  0  0  0  0
  130.7022  127.8952  151.1980 H   0  0  0  0  0  0  0  0  0  0  0  0
  132.3654  129.3906  152.2684 H   0  0  0  0  0  0  0  0  0  0  0  0
  131.1303  130.3295  151.3960 H   0  0  0  0  0  0  0  0  0  0  0  0
  132.4089  129.3424  154.6914 H   0  0  0  0  0  0  0  0  0  0  0  0
  131.8509  130.5260  156.7748 H   0  0  0  0  0  0  0  0  0  0  0  0
  129.3674  130.8136  158.4375 H   0  0  0  0  0  0  0  0  0  0  0  0
  129.8604  136.0881  158.5927 H   0  0  0  0  0  0  0  0  0  0  0  0
  127.8889  137.1502  160.0520 H   0  0  0  0  0  0  0  0  0  0  0  0
  128.3798  137.0339  161.7589 H   0  0  0  0  0  0  0  0  0  0  0  0
  129.5452  137.5896  160.5335 H   0  0  0  0  0  0  0  0  0  0  0  0
  129.9839  135.2589  162.4794 H   0  0  0  0  0  0  0  0  0  0  0  0
  130.6356  134.1106  161.2856 H   0  0  0  0  0  0  0  0  0  0  0  0
  130.7984  137.5394  162.5841 H   0  0  0  0  0  0  0  0  0  0  0  0
  132.6820  139.0639  162.1607 H   0  0  0  0  0  0  0  0  0  0  0  0
  133.7098  139.7632  158.8523 H   0  0  0  0  0  0  0  0  0  0  0  0
  135.5876  141.2889  158.4264 H   0  0  0  0  0  0  0  0  0  0  0  0
  137.6640  141.0986  159.7287 H   0  0  0  0  0  0  0  0  0  0  0  0
  137.8800  139.3869  161.4774 H   0  0  0  0  0  0  0  0  0  0  0  0
  135.9384  136.5197  161.9628 H   0  0  0  0  0  0  0  0  0  0  0  0
  136.3521  138.9688  163.7319 H   0  0  0  0  0  0  0  0  0  0  0  0
  134.2407  136.3077  159.2720 H   0  0  0  0  0  0  0  0  0  0  0  0
  132.3553  134.7914  159.7164 H   0  0  0  0  0  0  0  0  0  0  0  0
  128.8631  132.7718  154.6789 H   0  0  0  0  0  0  0  0  0  0  0  0
  129.4416  131.5857  152.6027 H   0  0  0  0  0  0  0  0  0  0  0  0
  1  2  1  0
  1 36  1  0
  1 37  1  0
  1 38  1  0
  2  3  1  0
  2 39  1  0
  2 40  1  0
  3 35  2  0
  3  4  1  0
  4  5  2  0
  4 41  1  0
  5  6  1  0
  5 42  1  0
  6  7  1  0
  6 34  2  0
  7 32  1  0
  7  8  2  0
  8  9  1  0
  8 43  1  0
  9 10  1  0
  9 11  1  0
 11 12  1  0
 11 32  2  0
 12 13  1  0
 12 44  1  0
 13 14  1  1
 13 15  1  0
 13 16  1  0
 15 45  1  0
 15 46  1  0
 15 47  1  0
 16 17  1  0
 16 48  1  0
 16 49  1  0
 17 31  1  0
 17 18  2  0
 18 19  1  0
 18 50  1  0
 19 20  2  0
 19 51  1  0
 20 21  1  0
 20 30  1  0
 21 26  1  0
 21 22  2  0
 22 23  1  0
 22 52  1  0
 23 24  2  0
 23 53  1  0
 24 25  1  0
 24 54  1  0
 25 26  2  0
 25 55  1  0
 26 27  1  0
 27 28  2  0
 27 56  1  0
 28 29  1  0
 28 57  1  0
 30 31  2  0
 30 58  1  0
 31 59  1  0
 32 33  1  0
 34 35  1  0
 34 60  1  0
 35 61  1  0
M  CHG  1  32   1
M  END
>  <DOCK_score>  (1) 
-59.331093

>  <SMILES>  (1) 
CCc1ccc(-c2c[nH]c(N[C@H](C)Cc3ccc(-c4ccccc4C=CBr)cc3)[nH+]2)cc1

$$$$
