OCCNc1ccc(-c2n[nH]cc2C[NH2+]CC[C@@H]2CC3CC2C3)o1
     RDKit          3D

 51 54  0  0  1  0  0  0  0  0999 V2000
  125.4083  138.8072  163.2734 O   0  0  0  0  0  0  0  0  0  0  0  0
  126.5004  138.1883  163.9563 C   0  0  0  0  0  0  0  0  0  0  0  0
  127.3123  137.3508  162.9662 C   0  0  0  0  0  0  0  0  0  0  0  0
  126.4536  136.3178  162.3813 N   0  0  0  0  0  0  0  0  0  0  0  0
  126.9733  135.4289  161.4475 C   0  0  0  0  0  0  0  0  0  0  0  0
  126.2867  134.4325  160.8346 C   0  0  0  0  0  0  0  0  0  0  0  0
  127.1902  133.7813  159.9716 C   0  0  0  0  0  0  0  0  0  0  0  0
  128.3854  134.4151  160.1019 C   0  0  0  0  0  0  0  0  0  0  0  0
  129.6287  134.0749  159.3797 C   0  0  0  0  0  0  0  0  0  0  0  0
  129.7752  133.1018  158.5021 N   0  0  0  0  0  0  0  0  0  0  0  0
  131.1016  133.1189  158.0517 N   0  0  0  0  0  0  0  0  0  0  0  0
  131.4888  132.5139  157.3998 H   0  0  0  0  0  0  0  0  0  0  0  0
  131.7494  134.1202  158.6858 C   0  0  0  0  0  0  0  0  0  0  0  0
  130.8715  134.7295  159.5113 C   0  0  0  0  0  0  0  0  0  0  0  0
  131.1669  135.9003  160.4131 C   0  0  0  0  0  0  0  0  0  0  0  0
  132.5747  136.2917  160.2620 N   0  0  0  0  0  0  0  0  0  0  0  0
  133.1684  135.5155  160.5131 H   0  0  0  0  0  0  0  0  0  0  0  0
  132.7501  136.5529  159.3034 H   0  0  0  0  0  0  0  0  0  0  0  0
  132.8627  137.4329  161.1411 C   0  0  0  0  0  0  0  0  0  0  0  0
  134.3289  137.8406  160.9837 C   0  0  0  0  0  0  0  0  0  0  0  0
  134.6288  139.0291  161.8993 C   0  0  2  0  0  0  0  0  0  0  0  0
  134.1349  138.9189  162.8647 H   0  0  0  0  0  0  0  0  0  0  0  0
  134.2560  140.3813  161.2191 C   0  0  0  0  0  0  0  0  0  0  0  0
  135.6791  141.0352  161.1670 C   0  0  2  0  0  0  0  0  0  0  0  0
  136.6894  139.9210  160.7564 C   0  0  0  0  0  0  0  0  0  0  0  0
  136.1711  139.2503  162.0649 C   0  0  1  0  0  0  0  0  0  0  0  0
  136.2546  140.7135  162.5699 C   0  0  0  0  0  0  0  0  0  0  0  0
  128.2402  135.4122  160.9998 O   0  0  0  0  0  0  0  0  0  0  0  0
  124.7973  138.1815  162.8607 H   0  0  0  0  0  0  0  0  0  0  0  0
  126.1163  137.5443  164.7474 H   0  0  0  0  0  0  0  0  0  0  0  0
  127.1392  138.9568  164.3916 H   0  0  0  0  0  0  0  0  0  0  0  0
  128.1453  136.8788  163.4871 H   0  0  0  0  0  0  0  0  0  0  0  0
  127.6964  137.9947  162.1750 H   0  0  0  0  0  0  0  0  0  0  0  0
  125.5226  136.2541  162.6459 H   0  0  0  0  0  0  0  0  0  0  0  0
  125.2457  134.1849  160.9808 H   0  0  0  0  0  0  0  0  0  0  0  0
  126.9743  132.9402  159.3295 H   0  0  0  0  0  0  0  0  0  0  0  0
  132.7877  134.3868  158.5555 H   0  0  0  0  0  0  0  0  0  0  0  0
  130.5255  136.7387  160.1416 H   0  0  0  0  0  0  0  0  0  0  0  0
  130.9772  135.6181  161.4487 H   0  0  0  0  0  0  0  0  0  0  0  0
  132.2212  138.2714  160.8696 H   0  0  0  0  0  0  0  0  0  0  0  0
  132.6731  137.1507  162.1767 H   0  0  0  0  0  0  0  0  0  0  0  0
  134.9703  137.0020  161.2551 H   0  0  0  0  0  0  0  0  0  0  0  0
  134.5184  138.1228  159.9482 H   0  0  0  0  0  0  0  0  0  0  0  0
  133.8516  140.2265  160.2188 H   0  0  0  0  0  0  0  0  0  0  0  0
  133.5714  140.9629  161.8365 H   0  0  0  0  0  0  0  0  0  0  0  0
  135.7668  142.0382  160.7498 H   0  0  0  0  0  0  0  0  0  0  0  0
  136.4247  139.3885  159.8430 H   0  0  0  0  0  0  0  0  0  0  0  0
  137.7350  140.2271  160.7917 H   0  0  0  0  0  0  0  0  0  0  0  0
  136.7522  138.4645  162.5476 H   0  0  0  0  0  0  0  0  0  0  0  0
  137.2706  141.0741  162.7301 H   0  0  0  0  0  0  0  0  0  0  0  0
  135.5785  140.9415  163.3939 H   0  0  0  0  0  0  0  0  0  0  0  0
  1  2  1  0
  1 29  1  0
  2  3  1  0
  2 30  1  0
  2 31  1  0
  3  4  1  0
  3 32  1  0
  3 33  1  0
  4  5  1  0
  4 34  1  0
  5 28  1  0
  5  6  2  0
  6  7  1  0
  6 35  1  0
  7  8  2  0
  7 36  1  0
  8  9  1  0
  8 28  1  0
  9 14  1  0
  9 10  2  0
 10 11  1  0
 11 12  1  0
 11 13  1  0
 13 14  2  0
 13 37  1  0
 14 15  1  0
 15 16  1  0
 15 38  1  0
 15 39  1  0
 16 17  1  0
 16 18  1  0
 16 19  1  0
 19 20  1  0
 19 40  1  0
 19 41  1  0
 20 21  1  0
 20 42  1  0
 20 43  1  0
 21 22  1  1
 21 26  1  0
 21 23  1  0
 23 24  1  0
 23 44  1  0
 23 45  1  0
 24 27  1  0
 24 25  1  0
 24 46  1  6
 25 26  1  0
 25 47  1  0
 25 48  1  0
 26 27  1  0
 26 49  1  1
 27 50  1  0
 27 51  1  0
M  CHG  1  16   1
M  END
>  <DOCK_score>  (1) 
-43.172146

>  <SMILES>  (1) 
OCCNc1ccc(-c2n[nH]cc2C[NH2+]CC[C@@H]2CC3CC2C3)o1

$$$$
