C[NH2+]Cc1ccc([C@H](O)c2ccc(Nc3ccc(SC=CI)cc3)o2)o1
     RDKit          3D

 46 48  0  0  1  0  0  0  0  0999 V2000
  131.4025  133.5390  158.4643 C   0  0  0  0  0  0  0  0  0  0  0  0
  130.7653  133.8118  157.1691 N   0  0  0  0  0  0  0  0  0  0  0  0
  131.4599  133.7752  156.4382 H   0  0  0  0  0  0  0  0  0  0  0  0
  130.3448  134.7288  157.1878 H   0  0  0  0  0  0  0  0  0  0  0  0
  129.7292  132.8030  156.9109 C   0  0  0  0  0  0  0  0  0  0  0  0
  128.6917  132.8577  158.0025 C   0  0  0  0  0  0  0  0  0  0  0  0
  128.1578  131.7969  158.6342 C   0  0  0  0  0  0  0  0  0  0  0  0
  127.2335  132.3037  159.5764 C   0  0  0  0  0  0  0  0  0  0  0  0
  127.2578  133.6439  159.4640 C   0  0  0  0  0  0  0  0  0  0  0  0
  126.4320  134.6113  160.2724 C   0  0  2  0  0  0  0  0  0  0  0  0
  125.4890  134.1402  160.5499 H   0  0  0  0  0  0  0  0  0  0  0  0
  126.1697  135.7803  159.4935 O   0  0  0  0  0  0  0  0  0  0  0  0
  127.1868  134.9969  161.5185 C   0  0  0  0  0  0  0  0  0  0  0  0
  126.7714  134.7963  162.7815 C   0  0  0  0  0  0  0  0  0  0  0  0
  127.7785  135.3070  163.6322 C   0  0  0  0  0  0  0  0  0  0  0  0
  128.7567  135.7928  162.8322 C   0  0  0  0  0  0  0  0  0  0  0  0
  129.9397  136.3895  163.2602 N   0  0  0  0  0  0  0  0  0  0  0  0
  130.8701  136.8506  162.3221 C   0  0  0  0  0  0  0  0  0  0  0  0
  132.1587  136.3311  162.3088 C   0  0  0  0  0  0  0  0  0  0  0  0
  133.0764  136.7856  161.3834 C   0  0  0  0  0  0  0  0  0  0  0  0
  132.7117  137.7623  160.4650 C   0  0  0  0  0  0  0  0  0  0  0  0
  133.8831  138.3423  159.2835 S   0  0  0  0  0  0  0  0  0  0  0  0
  134.6499  139.6929  160.1156 C   0  0  0  0  0  0  0  0  0  0  0  0
  135.7238  139.4880  160.8580 C   0  0  0  0  0  0  0  0  0  0  0  0
  136.6355  141.0939  161.8473 I   0  0  0  0  0  0  0  0  0  0  0  0
  131.4247  138.2858  160.4821 C   0  0  0  0  0  0  0  0  0  0  0  0
  130.5054  137.8272  161.4039 C   0  0  0  0  0  0  0  0  0  0  0  0
  128.3871  135.6054  161.5537 O   0  0  0  0  0  0  0  0  0  0  0  0
  128.1385  133.9735  158.5052 O   0  0  0  0  0  0  0  0  0  0  0  0
  132.1713  134.2875  158.6559 H   0  0  0  0  0  0  0  0  0  0  0  0
  130.6521  133.5784  159.2540 H   0  0  0  0  0  0  0  0  0  0  0  0
  131.8569  132.5483  158.4441 H   0  0  0  0  0  0  0  0  0  0  0  0
  130.1836  131.8123  156.8908 H   0  0  0  0  0  0  0  0  0  0  0  0
  129.2565  133.0054  155.9499 H   0  0  0  0  0  0  0  0  0  0  0  0
  128.3905  130.7574  158.4558 H   0  0  0  0  0  0  0  0  0  0  0  0
  126.6243  131.7257  160.2555 H   0  0  0  0  0  0  0  0  0  0  0  0
  125.6414  136.4479  159.9518 H   0  0  0  0  0  0  0  0  0  0  0  0
  125.8452  134.3329  163.0877 H   0  0  0  0  0  0  0  0  0  0  0  0
  127.7691  135.3095  164.7122 H   0  0  0  0  0  0  0  0  0  0  0  0
  130.1189  136.4856  164.2087 H   0  0  0  0  0  0  0  0  0  0  0  0
  132.4423  135.5722  163.0229 H   0  0  0  0  0  0  0  0  0  0  0  0
  134.0779  136.3815  161.3727 H   0  0  0  0  0  0  0  0  0  0  0  0
  134.2422  140.6884  160.0188 H   0  0  0  0  0  0  0  0  0  0  0  0
  136.1315  138.4926  160.9547 H   0  0  0  0  0  0  0  0  0  0  0  0
  131.1425  139.0486  159.7714 H   0  0  0  0  0  0  0  0  0  0  0  0
  129.5037  138.2309  161.4143 H   0  0  0  0  0  0  0  0  0  0  0  0
  1  2  1  0
  1 30  1  0
  1 31  1  0
  1 32  1  0
  2  3  1  0
  2  4  1  0
  2  5  1  0
  5  6  1  0
  5 33  1  0
  5 34  1  0
  6 29  1  0
  6  7  2  0
  7  8  1  0
  7 35  1  0
  8  9  2  0
  8 36  1  0
  9 10  1  0
  9 29  1  0
 10 11  1  1
 10 12  1  0
 10 13  1  0
 12 37  1  0
 13 28  1  0
 13 14  2  0
 14 15  1  0
 14 38  1  0
 15 16  2  0
 15 39  1  0
 16 17  1  0
 16 28  1  0
 17 18  1  0
 17 40  1  0
 18 27  1  0
 18 19  2  0
 19 20  1  0
 19 41  1  0
 20 21  2  0
 20 42  1  0
 21 22  1  0
 21 26  1  0
 22 23  1  0
 23 24  2  0
 23 43  1  0
 24 25  1  0
 24 44  1  0
 26 27  2  0
 26 45  1  0
 27 46  1  0
M  CHG  1   2   1
M  END
>  <DOCK_score>  (1) 
-41.039719

>  <SMILES>  (1) 
C[NH2+]Cc1ccc([C@H](O)c2ccc(Nc3ccc(SC=CI)cc3)o2)o1

$$$$
