O=C1CC[C@H](NC(NCC2C=CCCC2)=[NH+]C2COc3ccccc3C2)CN1
     RDKit          3D

 59 62  0  0  1  0  0  0  0  0999 V2000
  123.9694  133.5956  161.8108 O   0  0  0  0  0  0  0  0  0  0  0  0
  125.0862  133.9903  161.5509 C   0  0  0  0  0  0  0  0  0  0  0  0
  126.1203  132.9801  161.1440 C   0  0  0  0  0  0  0  0  0  0  0  0
  127.5204  133.5823  161.2846 C   0  0  0  0  0  0  0  0  0  0  0  0
  127.5279  134.9563  160.6036 C   0  0  2  0  0  0  0  0  0  0  0  0
  127.1462  134.8653  159.5868 H   0  0  0  0  0  0  0  0  0  0  0  0
  128.8955  135.4807  160.5701 N   0  0  0  0  0  0  0  0  0  0  0  0
  129.7121  135.2030  159.4995 C   0  0  0  0  0  0  0  0  0  0  0  0
  129.2453  134.4332  158.4604 N   0  0  0  0  0  0  0  0  0  0  0  0
  130.1157  134.1373  157.3196 C   0  0  0  0  0  0  0  0  0  0  0  0
  129.7365  132.7784  156.7278 C   0  0  2  0  0  0  0  0  0  0  0  0
  129.8887  131.7182  157.7791 C   0  0  0  0  0  0  0  0  0  0  0  0
  130.4187  130.5565  157.5661 C   0  0  0  0  0  0  0  0  0  0  0  0
  130.9644  130.1114  156.2410 C   0  0  0  0  0  0  0  0  0  0  0  0
  130.4354  131.0130  155.1234 C   0  0  0  0  0  0  0  0  0  0  0  0
  130.6484  132.4745  155.5371 C   0  0  0  0  0  0  0  0  0  0  0  0
  130.9288  135.6695  159.4697 N   0  0  0  0  0  0  0  0  0  0  0  0
  131.3511  135.8690  158.6195 H   0  0  0  0  0  0  0  0  0  0  0  0
  131.6587  135.8925  160.7201 C   0  0  1  0  0  0  0  0  0  0  0  0
  132.9477  135.0610  160.7219 C   0  0  0  0  0  0  0  0  0  0  0  0
  133.5834  135.2181  161.9913 O   0  0  0  0  0  0  0  0  0  0  0  0
  133.7482  136.4799  162.4669 C   0  0  0  0  0  0  0  0  0  0  0  0
  134.6633  136.6880  163.4943 C   0  0  0  0  0  0  0  0  0  0  0  0
  134.8559  137.9546  164.0067 C   0  0  0  0  0  0  0  0  0  0  0  0
  134.1377  139.0216  163.4985 C   0  0  0  0  0  0  0  0  0  0  0  0
  133.2299  138.8188  162.4777 C   0  0  0  0  0  0  0  0  0  0  0  0
  133.0333  137.5500  161.9585 C   0  0  0  0  0  0  0  0  0  0  0  0
  132.0399  137.3703  160.8387 C   0  0  0  0  0  0  0  0  0  0  0  0
  126.6344  135.9045  161.4042 C   0  0  0  0  0  0  0  0  0  0  0  0
  125.3303  135.2983  161.6413 N   0  0  0  0  0  0  0  0  0  0  0  0
  126.0386  132.1009  161.7829 H   0  0  0  0  0  0  0  0  0  0  0  0
  125.9538  132.6892  160.1067 H   0  0  0  0  0  0  0  0  0  0  0  0
  128.2502  132.9307  160.8042 H   0  0  0  0  0  0  0  0  0  0  0  0
  127.7668  133.6947  162.3405 H   0  0  0  0  0  0  0  0  0  0  0  0
  129.2249  136.0237  161.3033 H   0  0  0  0  0  0  0  0  0  0  0  0
  128.3400  134.0861  158.4825 H   0  0  0  0  0  0  0  0  0  0  0  0
  131.1537  134.1123  157.6513 H   0  0  0  0  0  0  0  0  0  0  0  0
  129.9954  134.9104  156.5606 H   0  0  0  0  0  0  0  0  0  0  0  0
  128.7003  132.8073  156.3912 H   0  0  0  0  0  0  0  0  0  0  0  0
  129.5338  131.9379  158.7751 H   0  0  0  0  0  0  0  0  0  0  0  0
  130.4709  129.8644  158.3935 H   0  0  0  0  0  0  0  0  0  0  0  0
  132.0530  130.1637  156.2626 H   0  0  0  0  0  0  0  0  0  0  0  0
  130.6579  129.0828  156.0509 H   0  0  0  0  0  0  0  0  0  0  0  0
  130.9792  130.8102  154.2008 H   0  0  0  0  0  0  0  0  0  0  0  0
  129.3728  130.8233  154.9716 H   0  0  0  0  0  0  0  0  0  0  0  0
  130.3952  133.1314  154.7049 H   0  0  0  0  0  0  0  0  0  0  0  0
  131.6888  132.6263  155.8242 H   0  0  0  0  0  0  0  0  0  0  0  0
  131.0346  135.6045  161.5662 H   0  0  0  0  0  0  0  0  0  0  0  0
  132.7072  134.0103  160.5595 H   0  0  0  0  0  0  0  0  0  0  0  0
  133.6124  135.4123  159.9326 H   0  0  0  0  0  0  0  0  0  0  0  0
  135.2244  135.8554  163.8921 H   0  0  0  0  0  0  0  0  0  0  0  0
  135.5670  138.1124  164.8039 H   0  0  0  0  0  0  0  0  0  0  0  0
  134.2866  140.0130  163.9001 H   0  0  0  0  0  0  0  0  0  0  0  0
  132.6702  139.6538  162.0827 H   0  0  0  0  0  0  0  0  0  0  0  0
  132.4844  137.7063  159.9019 H   0  0  0  0  0  0  0  0  0  0  0  0
  131.1472  137.9595  161.0478 H   0  0  0  0  0  0  0  0  0  0  0  0
  127.1086  136.1248  162.3606 H   0  0  0  0  0  0  0  0  0  0  0  0
  126.5044  136.8327  160.8478 H   0  0  0  0  0  0  0  0  0  0  0  0
  124.5939  135.8827  161.8801 H   0  0  0  0  0  0  0  0  0  0  0  0
  1  2  2  0
  2 30  1  0
  2  3  1  0
  3  4  1  0
  3 31  1  0
  3 32  1  0
  4  5  1  0
  4 33  1  0
  4 34  1  0
  5  6  1  6
  5  7  1  0
  5 29  1  0
  7 35  1  0
  8  7  1  0
  8  9  1  0
  8 17  2  0
  9 10  1  0
  9 36  1  0
 10 11  1  0
 10 37  1  0
 10 38  1  0
 11 16  1  0
 11 12  1  0
 11 39  1  6
 12 13  2  0
 12 40  1  0
 13 14  1  0
 13 41  1  0
 14 15  1  0
 14 42  1  0
 14 43  1  0
 15 16  1  0
 15 44  1  0
 15 45  1  0
 16 46  1  0
 16 47  1  0
 17 18  1  0
 17 19  1  0
 19 28  1  0
 19 20  1  0
 19 48  1  1
 20 21  1  0
 20 49  1  0
 20 50  1  0
 21 22  1  0
 22 27  2  0
 22 23  1  0
 23 24  2  0
 23 51  1  0
 24 25  1  0
 24 52  1  0
 25 26  2  0
 25 53  1  0
 26 27  1  0
 26 54  1  0
 27 28  1  0
 28 55  1  0
 28 56  1  0
 29 30  1  0
 29 57  1  0
 29 58  1  0
 30 59  1  0
M  CHG  1  17   1
M  END
>  <DOCK_score>  (1) 
-51.273224

>  <SMILES>  (1) 
O=C1CC[C@H](NC(NCC2C=CCCC2)=[NH+]C2COc3ccccc3C2)CN1

$$$$
