Clc1ccccc1[C@H](c1ccccc1OC1CC1)[NH+]1CCN(c2cncc3c2CCCC3)CC1
     RDKit          3D

 67 72  0  0  1  0  0  0  0  0999 V2000
  130.6104  132.7181  162.2178 Cl  0  0  0  0  0  0  0  0  0  0  0  0
  130.9219  132.4980  160.5242 C   0  0  0  0  0  0  0  0  0  0  0  0
  131.3515  131.2698  160.0534 C   0  0  0  0  0  0  0  0  0  0  0  0
  131.6057  131.0970  158.7060 C   0  0  0  0  0  0  0  0  0  0  0  0
  131.4249  132.1493  157.8277 C   0  0  0  0  0  0  0  0  0  0  0  0
  130.9894  133.3745  158.2964 C   0  0  0  0  0  0  0  0  0  0  0  0
  130.7355  133.5487  159.6440 C   0  0  0  0  0  0  0  0  0  0  0  0
  130.2612  134.8848  160.1550 C   0  0  2  0  0  0  0  0  0  0  0  0
  130.1201  134.8316  161.2345 H   0  0  0  0  0  0  0  0  0  0  0  0
  128.9541  135.2400  159.4944 C   0  0  0  0  0  0  0  0  0  0  0  0
  128.9489  135.9512  158.3099 C   0  0  0  0  0  0  0  0  0  0  0  0
  127.7502  136.2736  157.7012 C   0  0  0  0  0  0  0  0  0  0  0  0
  126.5536  135.8935  158.2803 C   0  0  0  0  0  0  0  0  0  0  0  0
  126.5532  135.1872  159.4676 C   0  0  0  0  0  0  0  0  0  0  0  0
  127.7551  134.8583  160.0781 C   0  0  0  0  0  0  0  0  0  0  0  0
  127.7574  134.1627  161.2456 O   0  0  0  0  0  0  0  0  0  0  0  0
  127.1491  132.8698  161.2318 C   0  0  0  0  0  0  0  0  0  0  0  0
  125.8465  132.6935  162.0151 C   0  0  0  0  0  0  0  0  0  0  0  0
  127.1453  132.0767  162.5403 C   0  0  0  0  0  0  0  0  0  0  0  0
  131.2632  135.9124  159.8422 N   0  0  0  0  0  0  0  0  0  0  0  0
  131.3937  135.9614  158.8428 H   0  0  0  0  0  0  0  0  0  0  0  0
  130.8003  137.2146  160.3396 C   0  0  0  0  0  0  0  0  0  0  0  0
  131.8350  138.2887  159.9974 C   0  0  0  0  0  0  0  0  0  0  0  0
  133.1225  137.9388  160.6141 N   0  0  0  0  0  0  0  0  0  0  0  0
  134.0802  138.9257  160.3679 C   0  0  0  0  0  0  0  0  0  0  0  0
  134.4404  139.2463  159.0662 C   0  0  0  0  0  0  0  0  0  0  0  0
  135.3440  140.1768  158.8328 N   0  0  0  0  0  0  0  0  0  0  0  0
  135.9353  140.8292  159.8121 C   0  0  0  0  0  0  0  0  0  0  0  0
  135.6304  140.5635  161.1397 C   0  0  0  0  0  0  0  0  0  0  0  0
  134.6875  139.6018  161.4285 C   0  0  0  0  0  0  0  0  0  0  0  0
  134.2803  139.2552  162.8334 C   0  0  0  0  0  0  0  0  0  0  0  0
  135.3217  139.7598  163.8316 C   0  0  0  0  0  0  0  0  0  0  0  0
  135.6000  141.2384  163.5377 C   0  0  0  0  0  0  0  0  0  0  0  0
  136.3514  141.3365  162.2108 C   0  0  0  0  0  0  0  0  0  0  0  0
  133.5865  136.6258  160.1443 C   0  0  0  0  0  0  0  0  0  0  0  0
  132.5373  135.5654  160.4853 C   0  0  0  0  0  0  0  0  0  0  0  0
  131.4931  130.4478  160.7395 H   0  0  0  0  0  0  0  0  0  0  0  0
  131.9459  130.1399  158.3392 H   0  0  0  0  0  0  0  0  0  0  0  0
  131.6237  132.0138  156.7747 H   0  0  0  0  0  0  0  0  0  0  0  0
  130.8482  134.1960  157.6097 H   0  0  0  0  0  0  0  0  0  0  0  0
  129.8820  136.2521  157.8570 H   0  0  0  0  0  0  0  0  0  0  0  0
  127.7483  136.8265  156.7734 H   0  0  0  0  0  0  0  0  0  0  0  0
  125.6183  136.1500  157.8052 H   0  0  0  0  0  0  0  0  0  0  0  0
  125.6184  134.8909  159.9200 H   0  0  0  0  0  0  0  0  0  0  0  0
  127.2579  132.3089  160.3036 H   0  0  0  0  0  0  0  0  0  0  0  0
  125.4537  133.5637  162.5408 H   0  0  0  0  0  0  0  0  0  0  0  0
  125.0988  132.0163  161.6023 H   0  0  0  0  0  0  0  0  0  0  0  0
  127.2514  130.9940  162.4728 H   0  0  0  0  0  0  0  0  0  0  0  0
  127.6069  132.5413  163.4116 H   0  0  0  0  0  0  0  0  0  0  0  0
  130.6716  137.1656  161.4209 H   0  0  0  0  0  0  0  0  0  0  0  0
  129.8483  137.4649  159.8714 H   0  0  0  0  0  0  0  0  0  0  0  0
  131.4988  139.2526  160.3795 H   0  0  0  0  0  0  0  0  0  0  0  0
  131.9541  138.3475  158.9155 H   0  0  0  0  0  0  0  0  0  0  0  0
  133.9766  138.7298  158.2389 H   0  0  0  0  0  0  0  0  0  0  0  0
  136.6710  141.5843  159.5779 H   0  0  0  0  0  0  0  0  0  0  0  0
  133.3172  139.7161  163.0535 H   0  0  0  0  0  0  0  0  0  0  0  0
  134.1878  138.1730  162.9253 H   0  0  0  0  0  0  0  0  0  0  0  0
  136.2416  139.1852  163.7230 H   0  0  0  0  0  0  0  0  0  0  0  0
  134.9413  139.6536  164.8475 H   0  0  0  0  0  0  0  0  0  0  0  0
  136.2097  141.6620  164.3358 H   0  0  0  0  0  0  0  0  0  0  0  0
  134.6575  141.7813  163.4657 H   0  0  0  0  0  0  0  0  0  0  0  0
  137.3553  140.9305  162.3344 H   0  0  0  0  0  0  0  0  0  0  0  0
  136.4230  142.3828  161.9137 H   0  0  0  0  0  0  0  0  0  0  0  0
  133.7344  136.6572  159.0648 H   0  0  0  0  0  0  0  0  0  0  0  0
  134.5280  136.3764  160.6335 H   0  0  0  0  0  0  0  0  0  0  0  0
  132.3996  135.5248  161.5658 H   0  0  0  0  0  0  0  0  0  0  0  0
  132.8731  134.5930  160.1250 H   0  0  0  0  0  0  0  0  0  0  0  0
  1  2  1  0
  2  7  2  0
  2  3  1  0
  3  4  2  0
  3 37  1  0
  4  5  1  0
  4 38  1  0
  5  6  2  0
  5 39  1  0
  6  7  1  0
  6 40  1  0
  7  8  1  0
  8  9  1  1
  8 10  1  0
  8 20  1  0
 10 15  1  0
 10 11  2  0
 11 12  1  0
 11 41  1  0
 12 13  2  0
 12 42  1  0
 13 14  1  0
 13 43  1  0
 14 15  2  0
 14 44  1  0
 15 16  1  0
 16 17  1  0
 17 19  1  0
 17 18  1  0
 17 45  1  0
 18 19  1  0
 18 46  1  0
 18 47  1  0
 19 48  1  0
 19 49  1  0
 20 21  1  0
 20 36  1  0
 20 22  1  0
 22 23  1  0
 22 50  1  0
 22 51  1  0
 23 24  1  0
 23 52  1  0
 23 53  1  0
 24 25  1  0
 24 35  1  0
 25 30  1  0
 25 26  2  0
 26 27  1  0
 26 54  1  0
 27 28  2  0
 28 29  1  0
 28 55  1  0
 29 34  1  0
 29 30  2  0
 30 31  1  0
 31 32  1  0
 31 56  1  0
 31 57  1  0
 32 33  1  0
 32 58  1  0
 32 59  1  0
 33 34  1  0
 33 60  1  0
 33 61  1  0
 34 62  1  0
 34 63  1  0
 35 36  1  0
 35 64  1  0
 35 65  1  0
 36 66  1  0
 36 67  1  0
M  CHG  1  20   1
M  END
>  <DOCK_score>  (1) 
-61.753361

>  <SMILES>  (1) 
Clc1ccccc1[C@H](c1ccccc1OC1CC1)[NH+]1CCN(c2cncc3c2CCCC3)CC1

$$$$
