O=C1CC[C@H](NC(NC2CC2)=[NH+][C@H]2COc3cc(NCC4=CCCC4)ccc3C2)CN1
     RDKit          3D

 65 69  0  0  1  0  0  0  0  0999 V2000
  123.8577  133.6523  161.8567 O   0  0  0  0  0  0  0  0  0  0  0  0
  124.9992  133.9345  161.5597 C   0  0  0  0  0  0  0  0  0  0  0  0
  125.9195  132.8244  161.1400 C   0  0  0  0  0  0  0  0  0  0  0  0
  127.3744  133.2912  161.2321 C   0  0  0  0  0  0  0  0  0  0  0  0
  127.4933  134.6489  160.5295 C   0  0  2  0  0  0  0  0  0  0  0  0
  127.0755  134.5787  159.5251 H   0  0  0  0  0  0  0  0  0  0  0  0
  128.9030  135.0390  160.4491 N   0  0  0  0  0  0  0  0  0  0  0  0
  129.6574  134.6702  159.3605 C   0  0  0  0  0  0  0  0  0  0  0  0
  129.0888  133.9352  158.3474 N   0  0  0  0  0  0  0  0  0  0  0  0
  129.8926  133.5421  157.1873 C   0  0  0  0  0  0  0  0  0  0  0  0
  129.4051  132.3501  156.3613 C   0  0  0  0  0  0  0  0  0  0  0  0
  130.6337  132.2056  157.2616 C   0  0  0  0  0  0  0  0  0  0  0  0
  130.9117  135.0172  159.2890 N   0  0  0  0  0  0  0  0  0  0  0  0
  131.3259  135.1642  158.4243 H   0  0  0  0  0  0  0  0  0  0  0  0
  131.6945  135.1915  160.5151 C   0  0  1  0  0  0  0  0  0  0  0  0
  131.0671  134.9900  161.3833 H   0  0  0  0  0  0  0  0  0  0  0  0
  132.8902  134.2303  160.5062 C   0  0  0  0  0  0  0  0  0  0  0  0
  133.5726  134.3490  161.7551 O   0  0  0  0  0  0  0  0  0  0  0  0
  133.8805  135.5973  162.1944 C   0  0  0  0  0  0  0  0  0  0  0  0
  134.8356  135.7294  163.1958 C   0  0  0  0  0  0  0  0  0  0  0  0
  135.1709  136.9856  163.6771 C   0  0  0  0  0  0  0  0  0  0  0  0
  136.1301  137.1169  164.6838 N   0  0  0  0  0  0  0  0  0  0  0  0
  136.7837  135.9260  165.2325 C   0  0  0  0  0  0  0  0  0  0  0  0
  137.7686  136.3387  166.2959 C   0  0  0  0  0  0  0  0  0  0  0  0
  139.0231  136.6207  166.0709 C   0  0  0  0  0  0  0  0  0  0  0  0
  139.7331  137.0003  167.3495 C   0  0  0  0  0  0  0  0  0  0  0  0
  138.5988  137.3025  168.3560 C   0  0  0  0  0  0  0  0  0  0  0  0
  137.4353  136.4741  167.7635 C   0  0  0  0  0  0  0  0  0  0  0  0
  134.5493  138.1136  163.1553 C   0  0  0  0  0  0  0  0  0  0  0  0
  133.6030  137.9793  162.1604 C   0  0  0  0  0  0  0  0  0  0  0  0
  133.2666  136.7250  161.6767 C   0  0  0  0  0  0  0  0  0  0  0  0
  132.2297  136.6237  160.5864 C   0  0  0  0  0  0  0  0  0  0  0  0
  126.7176  135.6912  161.3360 C   0  0  0  0  0  0  0  0  0  0  0  0
  125.3699  135.2139  161.6227 N   0  0  0  0  0  0  0  0  0  0  0  0
  125.6957  132.5375  160.1126 H   0  0  0  0  0  0  0  0  0  0  0  0
  125.7727  131.9654  161.7947 H   0  0  0  0  0  0  0  0  0  0  0  0
  128.0242  132.5662  160.7420 H   0  0  0  0  0  0  0  0  0  0  0  0
  127.6614  133.3933  162.2787 H   0  0  0  0  0  0  0  0  0  0  0  0
  129.3041  135.5577  161.1639 H   0  0  0  0  0  0  0  0  0  0  0  0
  128.1554  133.6770  158.4005 H   0  0  0  0  0  0  0  0  0  0  0  0
  130.3796  134.3587  156.6543 H   0  0  0  0  0  0  0  0  0  0  0  0
  128.4863  131.8584  156.6809 H   0  0  0  0  0  0  0  0  0  0  0  0
  129.5713  132.3825  155.2844 H   0  0  0  0  0  0  0  0  0  0  0  0
  131.6081  132.1430  156.7770 H   0  0  0  0  0  0  0  0  0  0  0  0
  130.5233  131.6189  158.1735 H   0  0  0  0  0  0  0  0  0  0  0  0
  132.5378  133.2071  160.3760 H   0  0  0  0  0  0  0  0  0  0  0  0
  133.5660  134.4928  159.6922 H   0  0  0  0  0  0  0  0  0  0  0  0
  135.3179  134.8514  163.5995 H   0  0  0  0  0  0  0  0  0  0  0  0
  136.3635  137.9964  165.0195 H   0  0  0  0  0  0  0  0  0  0  0  0
  136.0325  135.2679  165.6689 H   0  0  0  0  0  0  0  0  0  0  0  0
  137.3089  135.3999  164.4353 H   0  0  0  0  0  0  0  0  0  0  0  0
  139.4915  136.5890  165.0982 H   0  0  0  0  0  0  0  0  0  0  0  0
  140.3503  137.8855  167.1957 H   0  0  0  0  0  0  0  0  0  0  0  0
  140.3425  136.1684  167.7027 H   0  0  0  0  0  0  0  0  0  0  0  0
  138.3571  138.3654  168.3656 H   0  0  0  0  0  0  0  0  0  0  0  0
  138.8588  136.9531  169.3551 H   0  0  0  0  0  0  0  0  0  0  0  0
  136.4900  137.0014  167.8911 H   0  0  0  0  0  0  0  0  0  0  0  0
  137.3879  135.4920  168.2342 H   0  0  0  0  0  0  0  0  0  0  0  0
  134.8068  139.0941  163.5278 H   0  0  0  0  0  0  0  0  0  0  0  0
  133.1216  138.8573  161.7557 H   0  0  0  0  0  0  0  0  0  0  0  0
  132.6812  136.8902  159.6308 H   0  0  0  0  0  0  0  0  0  0  0  0
  131.4087  137.3072  160.8029 H   0  0  0  0  0  0  0  0  0  0  0  0
  127.2379  135.8802  162.2750 H   0  0  0  0  0  0  0  0  0  0  0  0
  126.6609  136.6185  160.7661 H   0  0  0  0  0  0  0  0  0  0  0  0
  124.7001  135.8694  161.8727 H   0  0  0  0  0  0  0  0  0  0  0  0
  1  2  2  0
  2 34  1  0
  2  3  1  0
  3  4  1  0
  3 35  1  0
  3 36  1  0
  4  5  1  0
  4 37  1  0
  4 38  1  0
  5  6  1  6
  5  7  1  0
  5 33  1  0
  7 39  1  0
  8  7  1  0
  8  9  1  0
  8 13  2  0
  9 10  1  0
  9 40  1  0
 10 12  1  0
 10 11  1  0
 10 41  1  0
 11 12  1  0
 11 42  1  0
 11 43  1  0
 12 44  1  0
 12 45  1  0
 13 14  1  0
 13 15  1  0
 15 16  1  1
 15 32  1  0
 15 17  1  0
 17 18  1  0
 17 46  1  0
 17 47  1  0
 18 19  1  0
 19 31  2  0
 19 20  1  0
 20 21  2  0
 20 48  1  0
 21 22  1  0
 21 29  1  0
 22 23  1  0
 22 49  1  0
 23 24  1  0
 23 50  1  0
 23 51  1  0
 24 28  1  0
 24 25  2  0
 25 26  1  0
 25 52  1  0
 26 27  1  0
 26 53  1  0
 26 54  1  0
 27 28  1  0
 27 55  1  0
 27 56  1  0
 28 57  1  0
 28 58  1  0
 29 30  2  0
 29 59  1  0
 30 31  1  0
 30 60  1  0
 31 32  1  0
 32 61  1  0
 32 62  1  0
 33 34  1  0
 33 63  1  0
 33 64  1  0
 34 65  1  0
M  CHG  1  13   1
M  END
>  <DOCK_score>  (1) 
-52.735855

>  <SMILES>  (1) 
O=C1CC[C@H](NC(NC2CC2)=[NH+][C@H]2COc3cc(NCC4=CCCC4)ccc3C2)CN1

$$$$
