Nc1ccc(-c2c[nH]c(N[C@H](c3cccc4ccccc34)c3ccc(O)c4ccccc34)[nH+]2)cc1
     RDKit          3D

 60 65  0  0  1  0  0  0  0  0999 V2000
  131.1956  129.3225  151.2935 N   0  0  0  0  0  0  0  0  0  0  0  0
  130.9952  129.9697  152.5152 C   0  0  0  0  0  0  0  0  0  0  0  0
  130.1374  131.0613  152.5896 C   0  0  0  0  0  0  0  0  0  0  0  0
  129.9377  131.7014  153.7945 C   0  0  0  0  0  0  0  0  0  0  0  0
  130.5967  131.2533  154.9383 C   0  0  0  0  0  0  0  0  0  0  0  0
  130.3839  131.9406  156.2357 C   0  0  0  0  0  0  0  0  0  0  0  0
  129.8894  131.3770  157.3654 C   0  0  0  0  0  0  0  0  0  0  0  0
  129.8603  132.3632  158.3229 N   0  0  0  0  0  0  0  0  0  0  0  0
  129.5520  132.2671  159.2375 H   0  0  0  0  0  0  0  0  0  0  0  0
  130.3383  133.5005  157.7487 C   0  0  0  0  0  0  0  0  0  0  0  0
  130.4727  134.7263  158.3777 N   0  0  0  0  0  0  0  0  0  0  0  0
  130.0839  134.8755  159.7823 C   0  0  2  0  0  0  0  0  0  0  0  0
  130.3908  133.9909  160.3401 H   0  0  0  0  0  0  0  0  0  0  0  0
  128.5882  135.0342  159.8753 C   0  0  0  0  0  0  0  0  0  0  0  0
  127.8274  135.0229  158.7465 C   0  0  0  0  0  0  0  0  0  0  0  0
  126.4433  135.1682  158.8128 C   0  0  0  0  0  0  0  0  0  0  0  0
  125.8114  135.3253  160.0082 C   0  0  0  0  0  0  0  0  0  0  0  0
  126.5632  135.3416  161.1950 C   0  0  0  0  0  0  0  0  0  0  0  0
  125.9466  135.5021  162.4477 C   0  0  0  0  0  0  0  0  0  0  0  0
  126.7073  135.5131  163.5762 C   0  0  0  0  0  0  0  0  0  0  0  0
  128.0919  135.3681  163.5099 C   0  0  0  0  0  0  0  0  0  0  0  0
  128.7236  135.2103  162.3148 C   0  0  0  0  0  0  0  0  0  0  0  0
  127.9710  135.1888  161.1280 C   0  0  0  0  0  0  0  0  0  0  0  0
  130.7553  136.0934  160.3627 C   0  0  0  0  0  0  0  0  0  0  0  0
  130.1406  137.3071  160.3012 C   0  0  0  0  0  0  0  0  0  0  0  0
  130.7430  138.4447  160.8305 C   0  0  0  0  0  0  0  0  0  0  0  0
  131.9703  138.3761  161.4282 C   0  0  0  0  0  0  0  0  0  0  0  0
  132.5452  139.4952  161.9395 O   0  0  0  0  0  0  0  0  0  0  0  0
  132.6352  137.1360  161.5100 C   0  0  0  0  0  0  0  0  0  0  0  0
  133.8970  137.0232  162.1155 C   0  0  0  0  0  0  0  0  0  0  0  0
  134.5094  135.8089  162.1757 C   0  0  0  0  0  0  0  0  0  0  0  0
  133.9027  134.6724  161.6443 C   0  0  0  0  0  0  0  0  0  0  0  0
  132.6806  134.7440  161.0495 C   0  0  0  0  0  0  0  0  0  0  0  0
  132.0152  135.9797  160.9743 C   0  0  0  0  0  0  0  0  0  0  0  0
  130.6501  133.2439  156.5016 N   0  0  0  0  0  0  0  0  0  0  0  0
  131.0128  133.8842  155.8695 H   0  0  0  0  0  0  0  0  0  0  0  0
  131.4604  130.1617  154.8600 C   0  0  0  0  0  0  0  0  0  0  0  0
  131.6530  129.5215  153.6540 C   0  0  0  0  0  0  0  0  0  0  0  0
  130.7361  129.6351  150.4980 H   0  0  0  0  0  0  0  0  0  0  0  0
  131.7936  128.5612  151.2404 H   0  0  0  0  0  0  0  0  0  0  0  0
  129.6274  131.4084  151.7031 H   0  0  0  0  0  0  0  0  0  0  0  0
  129.2711  132.5492  153.8521 H   0  0  0  0  0  0  0  0  0  0  0  0
  129.5785  130.3504  157.4894 H   0  0  0  0  0  0  0  0  0  0  0  0
  130.8243  135.4866  157.8884 H   0  0  0  0  0  0  0  0  0  0  0  0
  128.3039  134.8999  157.7851 H   0  0  0  0  0  0  0  0  0  0  0  0
  125.8630  135.1566  157.9018 H   0  0  0  0  0  0  0  0  0  0  0  0
  124.7378  135.4366  160.0442 H   0  0  0  0  0  0  0  0  0  0  0  0
  124.8748  135.6162  162.5145 H   0  0  0  0  0  0  0  0  0  0  0  0
  126.2309  135.6366  164.5375 H   0  0  0  0  0  0  0  0  0  0  0  0
  128.6722  135.3808  164.4206 H   0  0  0  0  0  0  0  0  0  0  0  0
  129.7971  135.0983  162.2789 H   0  0  0  0  0  0  0  0  0  0  0  0
  129.1703  137.3881  159.8340 H   0  0  0  0  0  0  0  0  0  0  0  0
  130.2338  139.3951  160.7677 H   0  0  0  0  0  0  0  0  0  0  0  0
  132.0115  140.2947  161.8343 H   0  0  0  0  0  0  0  0  0  0  0  0
  134.3792  137.8954  162.5317 H   0  0  0  0  0  0  0  0  0  0  0  0
  135.4799  135.7250  162.6421 H   0  0  0  0  0  0  0  0  0  0  0  0
  134.4100  133.7209  161.7047 H   0  0  0  0  0  0  0  0  0  0  0  0
  132.2225  133.8550  160.6416 H   0  0  0  0  0  0  0  0  0  0  0  0
  131.9753  129.8155  155.7439 H   0  0  0  0  0  0  0  0  0  0  0  0
  132.3185  128.6731  153.5937 H   0  0  0  0  0  0  0  0  0  0  0  0
  1  2  1  0
  1 39  1  0
  1 40  1  0
  2 38  2  0
  2  3  1  0
  3  4  2  0
  3 41  1  0
  4  5  1  0
  4 42  1  0
  5  6  1  0
  5 37  2  0
  6 35  1  0
  6  7  2  0
  7  8  1  0
  7 43  1  0
  8  9  1  0
  8 10  1  0
 10 11  1  0
 10 35  2  0
 11 12  1  0
 11 44  1  0
 12 13  1  1
 12 14  1  0
 12 24  1  0
 14 23  1  0
 14 15  2  0
 15 16  1  0
 15 45  1  0
 16 17  2  0
 16 46  1  0
 17 18  1  0
 17 47  1  0
 18 23  2  0
 18 19  1  0
 19 20  2  0
 19 48  1  0
 20 21  1  0
 20 49  1  0
 21 22  2  0
 21 50  1  0
 22 23  1  0
 22 51  1  0
 24 34  1  0
 24 25  2  0
 25 26  1  0
 25 52  1  0
 26 27  2  0
 26 53  1  0
 27 28  1  0
 27 29  1  0
 28 54  1  0
 29 34  2  0
 29 30  1  0
 30 31  2  0
 30 55  1  0
 31 32  1  0
 31 56  1  0
 32 33  2  0
 32 57  1  0
 33 34  1  0
 33 58  1  0
 35 36  1  0
 37 38  1  0
 37 59  1  0
 38 60  1  0
M  CHG  1  35   1
M  END
>  <DOCK_score>  (1) 
-62.355808

>  <SMILES>  (1) 
Nc1ccc(-c2c[nH]c(N[C@H](c3cccc4ccccc34)c3ccc(O)c4ccccc34)[nH+]2)cc1

$$$$
