CC1=C[C@H](N(Cc2ccn(C)n2)C(=O)c2c[nH]nc2C2CCC[NH2+]C2)CC1
     RDKit          3D

 56 59  0  0  1  0  0  0  0  0999 V2000
  129.2997  142.3544  163.4282 C   0  0  0  0  0  0  0  0  0  0  0  0
  129.4687  141.1529  162.5345 C   0  0  0  0  0  0  0  0  0  0  0  0
  129.4060  139.9145  162.9424 C   0  0  0  0  0  0  0  0  0  0  0  0
  129.6176  138.9527  161.7963 C   0  0  2  0  0  0  0  0  0  0  0  0
  128.6650  138.5343  161.4711 H   0  0  0  0  0  0  0  0  0  0  0  0
  130.5380  137.8834  162.1906 N   0  0  0  0  0  0  0  0  0  0  0  0
  131.9014  138.2103  162.6157 C   0  0  0  0  0  0  0  0  0  0  0  0
  132.8148  138.2103  161.4170 C   0  0  0  0  0  0  0  0  0  0  0  0
  132.8392  137.2455  160.4046 C   0  0  0  0  0  0  0  0  0  0  0  0
  133.7936  137.6012  159.5135 C   0  0  0  0  0  0  0  0  0  0  0  0
  134.3529  138.7504  159.9467 N   0  0  0  0  0  0  0  0  0  0  0  0
  135.4303  139.4883  159.2826 C   0  0  0  0  0  0  0  0  0  0  0  0
  133.7178  139.1158  161.1406 N   0  0  0  0  0  0  0  0  0  0  0  0
  130.1306  136.5990  162.1626 C   0  0  0  0  0  0  0  0  0  0  0  0
  130.8947  135.7116  162.4900 O   0  0  0  0  0  0  0  0  0  0  0  0
  128.7586  136.2699  161.7351 C   0  0  0  0  0  0  0  0  0  0  0  0
  127.5895  136.6978  162.3316 C   0  0  0  0  0  0  0  0  0  0  0  0
  126.5679  136.1765  161.6336 N   0  0  0  0  0  0  0  0  0  0  0  0
  125.6260  136.3093  161.8229 H   0  0  0  0  0  0  0  0  0  0  0  0
  127.0915  135.4042  160.5905 N   0  0  0  0  0  0  0  0  0  0  0  0
  128.3940  135.4528  160.6416 C   0  0  0  0  0  0  0  0  0  0  0  0
  129.3437  134.7589  159.6994 C   0  0  1  0  0  0  0  0  0  0  0  0
  129.1106  133.2466  159.7603 C   0  0  0  0  0  0  0  0  0  0  0  0
  130.0250  132.5577  158.7432 C   0  0  0  0  0  0  0  0  0  0  0  0
  129.7529  133.1307  157.3507 C   0  0  0  0  0  0  0  0  0  0  0  0
  130.0188  134.5743  157.3511 N   0  0  0  0  0  0  0  0  0  0  0  0
  130.9692  134.7400  157.6467 H   0  0  0  0  0  0  0  0  0  0  0  0
  129.8890  134.9393  156.4194 H   0  0  0  0  0  0  0  0  0  0  0  0
  129.0975  135.2512  158.2716 C   0  0  0  0  0  0  0  0  0  0  0  0
  130.2404  139.8122  160.6718 C   0  0  0  0  0  0  0  0  0  0  0  0
  129.7324  141.2233  161.0483 C   0  0  0  0  0  0  0  0  0  0  0  0
  128.2473  142.6355  163.4639 H   0  0  0  0  0  0  0  0  0  0  0  0
  129.6450  142.1112  164.4330 H   0  0  0  0  0  0  0  0  0  0  0  0
  129.8847  143.1854  163.0341 H   0  0  0  0  0  0  0  0  0  0  0  0
  129.2264  139.6165  163.9648 H   0  0  0  0  0  0  0  0  0  0  0  0
  131.9107  139.1965  163.0796 H   0  0  0  0  0  0  0  0  0  0  0  0
  132.2458  137.4671  163.3348 H   0  0  0  0  0  0  0  0  0  0  0  0
  132.2079  136.3714  160.3444 H   0  0  0  0  0  0  0  0  0  0  0  0
  134.0592  137.0624  158.6161 H   0  0  0  0  0  0  0  0  0  0  0  0
  135.0013  140.2102  158.5876 H   0  0  0  0  0  0  0  0  0  0  0  0
  136.0256  140.0130  160.0299 H   0  0  0  0  0  0  0  0  0  0  0  0
  136.0653  138.7910  158.7362 H   0  0  0  0  0  0  0  0  0  0  0  0
  127.5110  137.3365  163.1991 H   0  0  0  0  0  0  0  0  0  0  0  0
  130.3708  134.9810  159.9889 H   0  0  0  0  0  0  0  0  0  0  0  0
  129.3400  132.8826  160.7618 H   0  0  0  0  0  0  0  0  0  0  0  0
  128.0698  133.0283  159.5213 H   0  0  0  0  0  0  0  0  0  0  0  0
  131.0665  132.7339  159.0121 H   0  0  0  0  0  0  0  0  0  0  0  0
  129.8252  131.4862  158.7414 H   0  0  0  0  0  0  0  0  0  0  0  0
  130.4021  132.6422  156.6240 H   0  0  0  0  0  0  0  0  0  0  0  0
  128.7111  132.9542  157.0829 H   0  0  0  0  0  0  0  0  0  0  0  0
  128.0698  135.0297  157.9834 H   0  0  0  0  0  0  0  0  0  0  0  0
  129.2629  136.3275  158.2252 H   0  0  0  0  0  0  0  0  0  0  0  0
  131.3290  139.7672  160.7023 H   0  0  0  0  0  0  0  0  0  0  0  0
  129.8652  139.5091  159.6944 H   0  0  0  0  0  0  0  0  0  0  0  0
  130.4952  141.9715  160.8331 H   0  0  0  0  0  0  0  0  0  0  0  0
  128.8137  141.4527  160.5084 H   0  0  0  0  0  0  0  0  0  0  0  0
  1  2  1  0
  1 32  1  0
  1 33  1  0
  1 34  1  0
  2 31  1  0
  2  3  2  0
  3  4  1  0
  3 35  1  0
  4  5  1  6
  4  6  1  0
  4 30  1  0
  6  7  1  0
  6 14  1  0
  7  8  1  0
  7 36  1  0
  7 37  1  0
  8 13  2  0
  8  9  1  0
  9 10  2  0
  9 38  1  0
 10 11  1  0
 10 39  1  0
 11 12  1  0
 11 13  1  0
 12 40  1  0
 12 41  1  0
 12 42  1  0
 14 15  2  0
 14 16  1  0
 16 21  1  0
 16 17  2  0
 17 18  1  0
 17 43  1  0
 18 19  1  0
 18 20  1  0
 20 21  2  0
 21 22  1  0
 22 29  1  0
 22 23  1  0
 22 44  1  1
 23 24  1  0
 23 45  1  0
 23 46  1  0
 24 25  1  0
 24 47  1  0
 24 48  1  0
 25 26  1  0
 25 49  1  0
 25 50  1  0
 26 27  1  0
 26 28  1  0
 26 29  1  0
 29 51  1  0
 29 52  1  0
 30 31  1  0
 30 53  1  0
 30 54  1  0
 31 55  1  0
 31 56  1  0
M  CHG  1  26   1
M  END
>  <DOCK_score>  (1) 
-40.997906

>  <SMILES>  (1) 
CC1=C[C@H](N(Cc2ccn(C)n2)C(=O)c2c[nH]nc2C2CCC[NH2+]C2)CC1

$$$$
