Cc1nc(C(O)(c2ccccc2)[C@H](Nc2[nH]cc(-c3ccc(N)cc3)[nH+]2)c2ccccc2)c[nH]1
     RDKit          3D

 61 65  0  0  1  0  0  0  0  0999 V2000
  130.2029  136.9994  165.9647 C   0  0  0  0  0  0  0  0  0  0  0  0
  129.9627  137.4455  164.5453 C   0  0  0  0  0  0  0  0  0  0  0  0
  130.5291  136.9409  163.4833 N   0  0  0  0  0  0  0  0  0  0  0  0
  130.0791  137.5827  162.3950 C   0  0  0  0  0  0  0  0  0  0  0  0
  130.4852  137.3031  160.9709 C   0  0  1  0  0  0  0  0  0  0  0  0
  129.7913  138.1929  160.0941 O   0  0  0  0  0  0  0  0  0  0  0  0
  131.9708  137.5089  160.8226 C   0  0  0  0  0  0  0  0  0  0  0  0
  132.8516  136.7548  161.5753 C   0  0  0  0  0  0  0  0  0  0  0  0
  134.2143  136.9404  161.4357 C   0  0  0  0  0  0  0  0  0  0  0  0
  134.6960  137.8872  160.5513 C   0  0  0  0  0  0  0  0  0  0  0  0
  133.8151  138.6449  159.8024 C   0  0  0  0  0  0  0  0  0  0  0  0
  132.4525  138.4557  159.9382 C   0  0  0  0  0  0  0  0  0  0  0  0
  130.1326  135.8576  160.6144 C   0  0  2  0  0  0  0  0  0  0  0  0
  130.6620  135.1788  161.2831 H   0  0  0  0  0  0  0  0  0  0  0  0
  130.5275  135.5859  159.2300 N   0  0  0  0  0  0  0  0  0  0  0  0
  130.3066  134.3346  158.6801 C   0  0  0  0  0  0  0  0  0  0  0  0
  129.7288  133.2800  159.3166 N   0  0  0  0  0  0  0  0  0  0  0  0
  129.4008  133.2692  160.2295 H   0  0  0  0  0  0  0  0  0  0  0  0
  129.6961  132.2322  158.4271 C   0  0  0  0  0  0  0  0  0  0  0  0
  130.2545  132.6775  157.2745 C   0  0  0  0  0  0  0  0  0  0  0  0
  130.4338  131.8899  156.0302 C   0  0  0  0  0  0  0  0  0  0  0  0
  129.8286  132.3080  154.8460 C   0  0  0  0  0  0  0  0  0  0  0  0
  130.0013  131.5775  153.6894 C   0  0  0  0  0  0  0  0  0  0  0  0
  130.7689  130.4188  153.7062 C   0  0  0  0  0  0  0  0  0  0  0  0
  130.9381  129.6768  152.5346 N   0  0  0  0  0  0  0  0  0  0  0  0
  131.3687  129.9971  154.8867 C   0  0  0  0  0  0  0  0  0  0  0  0
  131.2033  130.7276  156.0446 C   0  0  0  0  0  0  0  0  0  0  0  0
  130.6146  133.9724  157.4585 N   0  0  0  0  0  0  0  0  0  0  0  0
  131.0349  134.5392  156.7930 H   0  0  0  0  0  0  0  0  0  0  0  0
  128.6471  135.6518  160.7627 C   0  0  0  0  0  0  0  0  0  0  0  0
  128.1249  135.2314  161.9716 C   0  0  0  0  0  0  0  0  0  0  0  0
  126.7618  135.0467  162.1089 C   0  0  0  0  0  0  0  0  0  0  0  0
  125.9219  135.2736  161.0346 C   0  0  0  0  0  0  0  0  0  0  0  0
  126.4447  135.6889  159.8242 C   0  0  0  0  0  0  0  0  0  0  0  0
  127.8073  135.8778  159.6882 C   0  0  0  0  0  0  0  0  0  0  0  0
  129.2049  138.5243  162.7982 C   0  0  0  0  0  0  0  0  0  0  0  0
  129.1266  138.4340  164.1618 N   0  0  0  0  0  0  0  0  0  0  0  0
  128.5764  138.9808  164.7441 H   0  0  0  0  0  0  0  0  0  0  0  0
  131.0263  137.5724  166.3913 H   0  0  0  0  0  0  0  0  0  0  0  0
  129.3015  137.1643  166.5547 H   0  0  0  0  0  0  0  0  0  0  0  0
  130.4547  135.9389  165.9745 H   0  0  0  0  0  0  0  0  0  0  0  0
  130.0045  138.0695  159.1590 H   0  0  0  0  0  0  0  0  0  0  0  0
  132.4751  136.0182  162.2695 H   0  0  0  0  0  0  0  0  0  0  0  0
  134.9026  136.3486  162.0210 H   0  0  0  0  0  0  0  0  0  0  0  0
  135.7606  138.0351  160.4455 H   0  0  0  0  0  0  0  0  0  0  0  0
  134.1914  139.3849  159.1117 H   0  0  0  0  0  0  0  0  0  0  0  0
  131.7642  139.0481  159.3534 H   0  0  0  0  0  0  0  0  0  0  0  0
  130.9436  136.2826  158.6987 H   0  0  0  0  0  0  0  0  0  0  0  0
  129.3014  131.2439  158.6111 H   0  0  0  0  0  0  0  0  0  0  0  0
  129.2280  133.2055  154.8338 H   0  0  0  0  0  0  0  0  0  0  0  0
  129.5359  131.9032  152.7709 H   0  0  0  0  0  0  0  0  0  0  0  0
  131.4742  128.8691  152.5449 H   0  0  0  0  0  0  0  0  0  0  0  0
  130.5201  129.9713  151.7098 H   0  0  0  0  0  0  0  0  0  0  0  0
  131.9644  129.0964  154.8975 H   0  0  0  0  0  0  0  0  0  0  0  0
  131.6698  130.3997  156.9617 H   0  0  0  0  0  0  0  0  0  0  0  0
  128.7814  135.0505  162.8098 H   0  0  0  0  0  0  0  0  0  0  0  0
  126.3534  134.7225  163.0546 H   0  0  0  0  0  0  0  0  0  0  0  0
  124.8573  135.1268  161.1410 H   0  0  0  0  0  0  0  0  0  0  0  0
  125.7886  135.8663  158.9848 H   0  0  0  0  0  0  0  0  0  0  0  0
  128.2158  136.2023  158.7425 H   0  0  0  0  0  0  0  0  0  0  0  0
  128.6677  139.2166  162.1669 H   0  0  0  0  0  0  0  0  0  0  0  0
  1  2  1  0
  1 39  1  0
  1 40  1  0
  1 41  1  0
  2 37  1  0
  2  3  2  0
  3  4  1  0
  4  5  1  0
  4 36  2  0
  5  6  1  6
  5  7  1  0
  5 13  1  0
  6 42  1  0
  7 12  1  0
  7  8  2  0
  8  9  1  0
  8 43  1  0
  9 10  2  0
  9 44  1  0
 10 11  1  0
 10 45  1  0
 11 12  2  0
 11 46  1  0
 12 47  1  0
 13 14  1  1
 13 15  1  0
 13 30  1  0
 15 48  1  0
 16 15  1  0
 16 28  2  0
 16 17  1  0
 17 18  1  0
 17 19  1  0
 19 20  2  0
 19 49  1  0
 20 21  1  0
 20 28  1  0
 21 27  1  0
 21 22  2  0
 22 23  1  0
 22 50  1  0
 23 24  2  0
 23 51  1  0
 24 25  1  0
 24 26  1  0
 25 52  1  0
 25 53  1  0
 26 27  2  0
 26 54  1  0
 27 55  1  0
 28 29  1  0
 30 35  1  0
 30 31  2  0
 31 32  1  0
 31 56  1  0
 32 33  2  0
 32 57  1  0
 33 34  1  0
 33 58  1  0
 34 35  2  0
 34 59  1  0
 35 60  1  0
 36 37  1  0
 36 61  1  0
 37 38  1  0
M  CHG  1  28   1
M  END
>  <DOCK_score>  (1) 
-60.150253

>  <SMILES>  (1) 
Cc1nc(C(O)(c2ccccc2)[C@H](Nc2[nH]cc(-c3ccc(N)cc3)[nH+]2)c2ccccc2)c[nH]1

$$$$
