O=C1C[C@H]([NH+]2CCCC(n3cccn3)C2)C(=O)N1C1CN(C=CCl)C1
     RDKit          3D

 48 51  0  0  1  0  0  0  0  0999 V2000
  127.3163  137.3744  162.1406 O   0  0  0  0  0  0  0  0  0  0  0  0
  128.1706  137.4485  161.2836 C   0  0  0  0  0  0  0  0  0  0  0  0
  128.3859  136.4451  160.1716 C   0  0  0  0  0  0  0  0  0  0  0  0
  129.5822  137.0241  159.3891 C   0  0  2  0  0  0  0  0  0  0  0  0
  129.2954  137.2507  158.3622 H   0  0  0  0  0  0  0  0  0  0  0  0
  130.7163  136.0906  159.4133 N   0  0  1  0  0  0  0  0  0  0  0  0
  131.4876  136.4866  158.8970 H   0  0  0  0  0  0  0  0  0  0  0  0
  131.1276  135.8587  160.8031 C   0  0  0  0  0  0  0  0  0  0  0  0
  132.3593  134.9512  160.8298 C   0  0  0  0  0  0  0  0  0  0  0  0
  132.0158  133.6138  160.1674 C   0  0  0  0  0  0  0  0  0  0  0  0
  131.5174  133.8740  158.7430 C   0  0  1  0  0  0  0  0  0  0  0  0
  131.1164  132.6073  158.1259 N   0  0  0  0  0  0  0  0  0  0  0  0
  130.6282  132.4519  156.8774 C   0  0  0  0  0  0  0  0  0  0  0  0
  130.3853  131.1339  156.6907 C   0  0  0  0  0  0  0  0  0  0  0  0
  130.7280  130.4620  157.8687 C   0  0  0  0  0  0  0  0  0  0  0  0
  131.1662  131.3443  158.7296 N   0  0  0  0  0  0  0  0  0  0  0  0
  130.3168  134.8215  158.7936 C   0  0  0  0  0  0  0  0  0  0  0  0
  129.9136  138.2965  160.1378 C   0  0  0  0  0  0  0  0  0  0  0  0
  130.8008  139.0704  159.8491 O   0  0  0  0  0  0  0  0  0  0  0  0
  129.0732  138.4308  161.1715 N   0  0  0  0  0  0  0  0  0  0  0  0
  129.1328  139.5626  162.0996 C   0  0  0  0  0  0  0  0  0  0  0  0
  129.2171  139.1468  163.5795 C   0  0  0  0  0  0  0  0  0  0  0  0
  130.2197  140.2202  163.7233 N   0  0  0  0  0  0  0  0  0  0  0  0
  130.6721  140.9964  164.7863 C   0  0  0  0  0  0  0  0  0  0  0  0
  130.1630  140.8251  165.9923 C   0  0  0  0  0  0  0  0  0  0  0  0
  130.7273  141.7933  167.3181 Cl  0  0  0  0  0  0  0  0  0  0  0  0
  130.5484  140.1388  162.2845 C   0  0  0  0  0  0  0  0  0  0  0  0
  128.6332  135.4658  160.5813 H   0  0  0  0  0  0  0  0  0  0  0  0
  127.5030  136.3818  159.5358 H   0  0  0  0  0  0  0  0  0  0  0  0
  131.3687  136.8116  161.2741 H   0  0  0  0  0  0  0  0  0  0  0  0
  130.3132  135.3805  161.3475 H   0  0  0  0  0  0  0  0  0  0  0  0
  133.1746  135.4280  160.2858 H   0  0  0  0  0  0  0  0  0  0  0  0
  132.6625  134.7792  161.8626 H   0  0  0  0  0  0  0  0  0  0  0  0
  132.9053  132.9849  160.1331 H   0  0  0  0  0  0  0  0  0  0  0  0
  131.2366  133.1122  160.7415 H   0  0  0  0  0  0  0  0  0  0  0  0
  132.3152  134.3285  158.1556 H   0  0  0  0  0  0  0  0  0  0  0  0
  130.4635  133.2382  156.1556 H   0  0  0  0  0  0  0  0  0  0  0  0
  129.9919  130.6812  155.7924 H   0  0  0  0  0  0  0  0  0  0  0  0
  130.6447  129.3987  158.0383 H   0  0  0  0  0  0  0  0  0  0  0  0
  129.5196  134.3659  159.3809 H   0  0  0  0  0  0  0  0  0  0  0  0
  129.9594  135.0087  157.7810 H   0  0  0  0  0  0  0  0  0  0  0  0
  128.3740  140.3189  161.8989 H   0  0  0  0  0  0  0  0  0  0  0  0
  128.2990  139.3254  164.1390 H   0  0  0  0  0  0  0  0  0  0  0  0
  129.6203  138.1457  163.7322 H   0  0  0  0  0  0  0  0  0  0  0  0
  131.4397  141.7386  164.6246 H   0  0  0  0  0  0  0  0  0  0  0  0
  129.3953  140.0829  166.1540 H   0  0  0  0  0  0  0  0  0  0  0  0
  131.3444  139.4298  162.0568 H   0  0  0  0  0  0  0  0  0  0  0  0
  130.6936  141.1084  161.8085 H   0  0  0  0  0  0  0  0  0  0  0  0
  1  2  2  0
  2 20  1  0
  2  3  1  0
  3  4  1  0
  3 28  1  0
  3 29  1  0
  4  5  1  6
  4  6  1  0
  4 18  1  0
  6  7  1  6
  6 17  1  0
  6  8  1  0
  8  9  1  0
  8 30  1  0
  8 31  1  0
  9 10  1  0
  9 32  1  0
  9 33  1  0
 10 11  1  0
 10 34  1  0
 10 35  1  0
 11 12  1  0
 11 17  1  0
 11 36  1  6
 12 16  1  0
 12 13  1  0
 13 14  2  0
 13 37  1  0
 14 15  1  0
 14 38  1  0
 15 16  2  0
 15 39  1  0
 17 40  1  0
 17 41  1  0
 18 19  2  0
 18 20  1  0
 20 21  1  0
 21 27  1  0
 21 22  1  0
 21 42  1  0
 22 23  1  0
 22 43  1  0
 22 44  1  0
 23 24  1  0
 23 27  1  0
 24 25  2  0
 24 45  1  0
 25 26  1  0
 25 46  1  0
 27 47  1  0
 27 48  1  0
M  CHG  1   6   1
M  END
>  <DOCK_score>  (1) 
-41.915848

>  <SMILES>  (1) 
O=C1C[C@H]([NH+]2CCCC(n3cccn3)C2)C(=O)N1C1CN(C=CCl)C1

$$$$
