Cc1cccc([C@@H](Nc2[nH]cc(-c3ccc(Br)cc3)[nH+]2)c2cccc(C3CCC3)c2)c1
     RDKit          3D

 58 62  0  0  1  0  0  0  0  0999 V2000
  125.0989  134.7533  162.2691 C   0  0  0  0  0  0  0  0  0  0  0  0
  125.9252  135.1571  161.0753 C   0  0  0  0  0  0  0  0  0  0  0  0
  125.3069  135.4511  159.8741 C   0  0  0  0  0  0  0  0  0  0  0  0
  126.0647  135.8218  158.7794 C   0  0  0  0  0  0  0  0  0  0  0  0
  127.4407  135.9038  158.8867 C   0  0  0  0  0  0  0  0  0  0  0  0
  128.0592  135.6048  160.0861 C   0  0  0  0  0  0  0  0  0  0  0  0
  129.5594  135.6889  160.2018 C   0  0  1  0  0  0  0  0  0  0  0  0
  129.9081  134.9661  160.9393 H   0  0  0  0  0  0  0  0  0  0  0  0
  130.1667  135.3921  158.9020 N   0  0  0  0  0  0  0  0  0  0  0  0
  129.9461  134.1658  158.2987 C   0  0  0  0  0  0  0  0  0  0  0  0
  129.1835  133.1590  158.8054 N   0  0  0  0  0  0  0  0  0  0  0  0
  128.7013  133.1711  159.6469 H   0  0  0  0  0  0  0  0  0  0  0  0
  129.2232  132.1219  157.9051 C   0  0  0  0  0  0  0  0  0  0  0  0
  130.0080  132.5247  156.8752 C   0  0  0  0  0  0  0  0  0  0  0  0
  130.3396  131.7296  155.6677 C   0  0  0  0  0  0  0  0  0  0  0  0
  129.9861  132.1980  154.4034 C   0  0  0  0  0  0  0  0  0  0  0  0
  130.3020  131.4572  153.2827 C   0  0  0  0  0  0  0  0  0  0  0  0
  130.9580  130.2456  153.4134 C   0  0  0  0  0  0  0  0  0  0  0  0
  131.3801  129.2320  151.8737 Br  0  0  0  0  0  0  0  0  0  0  0  0
  131.3064  129.7733  154.6672 C   0  0  0  0  0  0  0  0  0  0  0  0
  131.0004  130.5090  155.7938 C   0  0  0  0  0  0  0  0  0  0  0  0
  130.4325  133.7852  157.1427 N   0  0  0  0  0  0  0  0  0  0  0  0
  131.0063  134.3187  156.5708 H   0  0  0  0  0  0  0  0  0  0  0  0
  129.9526  137.0779  160.6345 C   0  0  0  0  0  0  0  0  0  0  0  0
  130.2025  138.0527  159.6865 C   0  0  0  0  0  0  0  0  0  0  0  0
  130.5626  139.3266  160.0835 C   0  0  0  0  0  0  0  0  0  0  0  0
  130.6736  139.6261  161.4286 C   0  0  0  0  0  0  0  0  0  0  0  0
  130.4253  138.6512  162.3764 C   0  0  0  0  0  0  0  0  0  0  0  0
  130.5472  138.9773  163.8427 C   0  0  0  0  0  0  0  0  0  0  0  0
  129.3023  138.6006  164.6631 C   0  0  0  0  0  0  0  0  0  0  0  0
  129.5056  139.9212  165.4279 C   0  0  0  0  0  0  0  0  0  0  0  0
  130.2292  140.4445  164.1759 C   0  0  0  0  0  0  0  0  0  0  0  0
  130.0645  137.3769  161.9794 C   0  0  0  0  0  0  0  0  0  0  0  0
  127.3012  135.2339  161.1812 C   0  0  0  0  0  0  0  0  0  0  0  0
  124.8231  135.6416  162.8373 H   0  0  0  0  0  0  0  0  0  0  0  0
  124.1967  134.2436  161.9310 H   0  0  0  0  0  0  0  0  0  0  0  0
  125.6794  134.0825  162.9026 H   0  0  0  0  0  0  0  0  0  0  0  0
  124.2316  135.3914  159.7915 H   0  0  0  0  0  0  0  0  0  0  0  0
  125.5816  136.0518  157.8412 H   0  0  0  0  0  0  0  0  0  0  0  0
  128.0324  136.1978  158.0326 H   0  0  0  0  0  0  0  0  0  0  0  0
  130.7236  136.0548  158.4641 H   0  0  0  0  0  0  0  0  0  0  0  0
  128.7242  131.1687  157.9993 H   0  0  0  0  0  0  0  0  0  0  0  0
  129.4701  133.1411  154.3006 H   0  0  0  0  0  0  0  0  0  0  0  0
  130.0322  131.8211  152.3023 H   0  0  0  0  0  0  0  0  0  0  0  0
  131.8184  128.8273  154.7637 H   0  0  0  0  0  0  0  0  0  0  0  0
  131.2728  130.1396  156.7714 H   0  0  0  0  0  0  0  0  0  0  0  0
  130.1151  137.8190  158.6357 H   0  0  0  0  0  0  0  0  0  0  0  0
  130.7571  140.0883  159.3430 H   0  0  0  0  0  0  0  0  0  0  0  0
  130.9564  140.6211  161.7386 H   0  0  0  0  0  0  0  0  0  0  0  0
  131.4813  138.6230  164.2788 H   0  0  0  0  0  0  0  0  0  0  0  0
  128.3844  138.5729  164.0759 H   0  0  0  0  0  0  0  0  0  0  0  0
  129.4384  137.7123  165.2800 H   0  0  0  0  0  0  0  0  0  0  0  0
  130.1542  139.8247  166.2986 H   0  0  0  0  0  0  0  0  0  0  0  0
  128.5774  140.4483  165.6480 H   0  0  0  0  0  0  0  0  0  0  0  0
  131.1125  141.0427  164.4001 H   0  0  0  0  0  0  0  0  0  0  0  0
  129.5652  140.9218  163.4553 H   0  0  0  0  0  0  0  0  0  0  0  0
  129.8744  136.6141  162.7198 H   0  0  0  0  0  0  0  0  0  0  0  0
  127.7841  135.0045  162.1196 H   0  0  0  0  0  0  0  0  0  0  0  0
  1  2  1  0
  1 35  1  0
  1 36  1  0
  1 37  1  0
  2 34  2  0
  2  3  1  0
  3  4  2  0
  3 38  1  0
  4  5  1  0
  4 39  1  0
  5  6  2  0
  5 40  1  0
  6  7  1  0
  6 34  1  0
  7  8  1  1
  7  9  1  0
  7 24  1  0
  9 41  1  0
 10  9  1  0
 10 22  2  0
 10 11  1  0
 11 12  1  0
 11 13  1  0
 13 14  2  0
 13 42  1  0
 14 15  1  0
 14 22  1  0
 15 21  1  0
 15 16  2  0
 16 17  1  0
 16 43  1  0
 17 18  2  0
 17 44  1  0
 18 19  1  0
 18 20  1  0
 20 21  2  0
 20 45  1  0
 21 46  1  0
 22 23  1  0
 24 33  1  0
 24 25  2  0
 25 26  1  0
 25 47  1  0
 26 27  2  0
 26 48  1  0
 27 28  1  0
 27 49  1  0
 28 29  1  0
 28 33  2  0
 29 32  1  0
 29 30  1  0
 29 50  1  0
 30 31  1  0
 30 51  1  0
 30 52  1  0
 31 32  1  0
 31 53  1  0
 31 54  1  0
 32 55  1  0
 32 56  1  0
 33 57  1  0
 34 58  1  0
M  CHG  1  22   1
M  END
>  <DOCK_score>  (1) 
-61.106556

>  <SMILES>  (1) 
Cc1cccc([C@@H](Nc2[nH]cc(-c3ccc(Br)cc3)[nH+]2)c2cccc(C3CCC3)c2)c1

$$$$
