CC1(C)C([NH2+]C2c3ccccc3C(Nc3c[nH]c4ccccc34)c3c(O)ccc(O)c32)C[C@H]1O
     RDKit          3D

 64 69  0  0  1  0  0  0  0  0999 V2000
  127.7189  134.7431  166.6873 C   0  0  0  0  0  0  0  0  0  0  0  0
  127.9888  136.1702  166.2061 C   0  0  0  0  0  0  0  0  0  0  0  0
  129.3322  136.7184  166.6915 C   0  0  0  0  0  0  0  0  0  0  0  0
  127.7510  136.3677  164.6997 C   0  0  1  0  0  0  0  0  0  0  0  0
  127.8948  135.1342  163.9147 N   0  0  0  0  0  0  0  0  0  0  0  0
  127.4873  134.3632  164.4221 H   0  0  0  0  0  0  0  0  0  0  0  0
  128.8736  134.9507  163.7529 H   0  0  0  0  0  0  0  0  0  0  0  0
  127.2066  135.2909  162.6263 C   0  0  2  0  0  0  0  0  0  0  0  0
  126.8673  133.9345  162.0677 C   0  0  0  0  0  0  0  0  0  0  0  0
  125.7065  133.3077  162.4991 C   0  0  0  0  0  0  0  0  0  0  0  0
  125.3646  132.0621  162.0133 C   0  0  0  0  0  0  0  0  0  0  0  0
  126.1827  131.4342  161.0927 C   0  0  0  0  0  0  0  0  0  0  0  0
  127.3379  132.0555  160.6641 C   0  0  0  0  0  0  0  0  0  0  0  0
  127.6827  133.3086  161.1508 C   0  0  0  0  0  0  0  0  0  0  0  0
  128.9473  133.9484  160.6559 C   0  0  1  0  0  0  0  0  0  0  0  0
  129.1447  133.5872  159.2499 N   0  0  0  0  0  0  0  0  0  0  0  0
  129.8714  132.4291  158.9163 C   0  0  0  0  0  0  0  0  0  0  0  0
  130.4441  131.5672  159.7771 C   0  0  0  0  0  0  0  0  0  0  0  0
  131.0639  130.5560  159.0791 N   0  0  0  0  0  0  0  0  0  0  0  0
  131.5442  129.8148  159.4802 H   0  0  0  0  0  0  0  0  0  0  0  0
  130.9056  130.7568  157.7266 C   0  0  0  0  0  0  0  0  0  0  0  0
  131.3247  130.0548  156.6003 C   0  0  0  0  0  0  0  0  0  0  0  0
  131.0007  130.5192  155.3448 C   0  0  0  0  0  0  0  0  0  0  0  0
  130.2586  131.6826  155.1899 C   0  0  0  0  0  0  0  0  0  0  0  0
  129.8376  132.3876  156.2816 C   0  0  0  0  0  0  0  0  0  0  0  0
  130.1542  131.9349  157.5639 C   0  0  0  0  0  0  0  0  0  0  0  0
  128.8988  135.4447  160.7743 C   0  0  0  0  0  0  0  0  0  0  0  0
  129.7027  136.2058  159.9298 C   0  0  0  0  0  0  0  0  0  0  0  0
  130.5090  135.5880  159.0258 O   0  0  0  0  0  0  0  0  0  0  0  0
  129.6814  137.5884  160.0013 C   0  0  0  0  0  0  0  0  0  0  0  0
  128.8627  138.2169  160.9197 C   0  0  0  0  0  0  0  0  0  0  0  0
  128.0674  137.4609  161.7642 C   0  0  0  0  0  0  0  0  0  0  0  0
  127.2626  138.0800  162.6688 O   0  0  0  0  0  0  0  0  0  0  0  0
  128.0873  136.0704  161.6929 C   0  0  0  0  0  0  0  0  0  0  0  0
  126.2933  136.7059  165.0540 C   0  0  0  0  0  0  0  0  0  0  0  0
  126.8112  137.1317  166.4380 C   0  0  1  0  0  0  0  0  0  0  0  0
  127.1068  138.1794  166.4903 H   0  0  0  0  0  0  0  0  0  0  0  0
  125.9554  136.7420  167.5141 O   0  0  0  0  0  0  0  0  0  0  0  0
  128.3768  134.0517  166.1609 H   0  0  0  0  0  0  0  0  0  0  0  0
  127.9075  134.6794  167.7590 H   0  0  0  0  0  0  0  0  0  0  0  0
  126.6802  134.4818  166.4851 H   0  0  0  0  0  0  0  0  0  0  0  0
  129.3814  137.7888  166.4920 H   0  0  0  0  0  0  0  0  0  0  0  0
  129.4302  136.5436  167.7629 H   0  0  0  0  0  0  0  0  0  0  0  0
  130.1422  136.2131  166.1654 H   0  0  0  0  0  0  0  0  0  0  0  0
  128.3031  137.2062  164.2753 H   0  0  0  0  0  0  0  0  0  0  0  0
  126.2804  135.8434  162.7850 H   0  0  0  0  0  0  0  0  0  0  0  0
  125.0676  133.7974  163.2190 H   0  0  0  0  0  0  0  0  0  0  0  0
  124.4596  131.5791  162.3514 H   0  0  0  0  0  0  0  0  0  0  0  0
  125.9182  130.4598  160.7093 H   0  0  0  0  0  0  0  0  0  0  0  0
  127.9772  131.5642  159.9456 H   0  0  0  0  0  0  0  0  0  0  0  0
  129.7876  133.5730  161.2401 H   0  0  0  0  0  0  0  0  0  0  0  0
  128.7747  134.1462  158.5489 H   0  0  0  0  0  0  0  0  0  0  0  0
  130.4193  131.6550  160.8532 H   0  0  0  0  0  0  0  0  0  0  0  0
  131.9026  129.1490  156.7105 H   0  0  0  0  0  0  0  0  0  0  0  0
  131.3271  129.9731  154.4722 H   0  0  0  0  0  0  0  0  0  0  0  0
  130.0132  132.0333  154.1983 H   0  0  0  0  0  0  0  0  0  0  0  0
  129.2609  133.2917  156.1534 H   0  0  0  0  0  0  0  0  0  0  0  0
  131.0298  136.1958  158.4834 H   0  0  0  0  0  0  0  0  0  0  0  0
  130.3035  138.1742  159.3409 H   0  0  0  0  0  0  0  0  0  0  0  0
  128.8433  139.2950  160.9790 H   0  0  0  0  0  0  0  0  0  0  0  0
  127.3151  139.0453  162.6461 H   0  0  0  0  0  0  0  0  0  0  0  0
  125.8816  137.5289  164.4698 H   0  0  0  0  0  0  0  0  0  0  0  0
  125.6372  135.8359  165.0806 H   0  0  0  0  0  0  0  0  0  0  0  0
  126.3901  136.7304  168.3779 H   0  0  0  0  0  0  0  0  0  0  0  0
  1  2  1  0
  1 39  1  0
  1 40  1  0
  1 41  1  0
  2 36  1  0
  2  3  1  0
  2  4  1  0
  3 42  1  0
  3 43  1  0
  3 44  1  0
  4  5  1  0
  4 35  1  0
  4 45  1  6
  5  6  1  0
  5  7  1  0
  5  8  1  0
  8 34  1  0
  8  9  1  0
  8 46  1  1
  9 14  1  0
  9 10  2  0
 10 11  1  0
 10 47  1  0
 11 12  2  0
 11 48  1  0
 12 13  1  0
 12 49  1  0
 13 14  2  0
 13 50  1  0
 14 15  1  0
 15 16  1  0
 15 27  1  0
 15 51  1  1
 16 17  1  0
 16 52  1  0
 17 26  1  0
 17 18  2  0
 18 19  1  0
 18 53  1  0
 19 20  1  0
 19 21  1  0
 21 26  2  0
 21 22  1  0
 22 23  2  0
 22 54  1  0
 23 24  1  0
 23 55  1  0
 24 25  2  0
 24 56  1  0
 25 26  1  0
 25 57  1  0
 27 34  2  0
 27 28  1  0
 28 29  1  0
 28 30  2  0
 29 58  1  0
 30 31  1  0
 30 59  1  0
 31 32  2  0
 31 60  1  0
 32 33  1  0
 32 34  1  0
 33 61  1  0
 35 36  1  0
 35 62  1  0
 35 63  1  0
 36 37  1  6
 36 38  1  0
 38 64  1  0
M  CHG  1   5   1
M  END
>  <DOCK_score>  (1) 
-41.667877

>  <SMILES>  (1) 
CC1(C)C([NH2+]C2c3ccccc3C(Nc3c[nH]c4ccccc34)c3c(O)ccc(O)c32)C[C@H]1O

$$$$
