CCOC(=O)C=C[C@H](Nc1ccc(C(=O)NC2CC[NH2+]C3(CC3)C2)c(C)c1)c1cnn(C)c1
     RDKit          3D

 67 70  0  0  1  0  0  0  0  0999 V2000
  125.4370  147.8098  168.2124 C   0  0  0  0  0  0  0  0  0  0  0  0
  125.6463  146.3521  168.6276 C   0  0  0  0  0  0  0  0  0  0  0  0
  126.1083  145.5849  167.4848 O   0  0  0  0  0  0  0  0  0  0  0  0
  126.3422  144.2722  167.6830 C   0  0  0  0  0  0  0  0  0  0  0  0
  126.1647  143.7824  168.7810 O   0  0  0  0  0  0  0  0  0  0  0  0
  126.8116  143.4336  166.5714 C   0  0  0  0  0  0  0  0  0  0  0  0
  127.0425  142.1376  166.7670 C   0  0  0  0  0  0  0  0  0  0  0  0
  127.5241  141.2775  165.6272 C   0  0  2  0  0  0  0  0  0  0  0  0
  127.6240  141.8870  164.7291 H   0  0  0  0  0  0  0  0  0  0  0  0
  126.5577  140.2036  165.3836 N   0  0  0  0  0  0  0  0  0  0  0  0
  126.7881  139.2771  164.3727 C   0  0  0  0  0  0  0  0  0  0  0  0
  127.5051  139.6498  163.2389 C   0  0  0  0  0  0  0  0  0  0  0  0
  127.7395  138.7338  162.2394 C   0  0  0  0  0  0  0  0  0  0  0  0
  127.2469  137.4306  162.3580 C   0  0  0  0  0  0  0  0  0  0  0  0
  127.4905  136.4478  161.2851 C   0  0  0  0  0  0  0  0  0  0  0  0
  126.5524  135.9342  160.7066 O   0  0  0  0  0  0  0  0  0  0  0  0
  128.7529  136.1193  160.9462 N   0  0  0  0  0  0  0  0  0  0  0  0
  128.9949  135.1434  159.8807 C   0  0  1  0  0  0  0  0  0  0  0  0
  129.1000  135.8684  158.5364 C   0  0  0  0  0  0  0  0  0  0  0  0
  129.3605  134.8514  157.4242 C   0  0  0  0  0  0  0  0  0  0  0  0
  130.6512  134.1877  157.6518 N   0  0  0  0  0  0  0  0  0  0  0  0
  130.8164  133.5127  156.9202 H   0  0  0  0  0  0  0  0  0  0  0  0
  131.3891  134.8759  157.6478 H   0  0  0  0  0  0  0  0  0  0  0  0
  130.6241  133.5045  158.9525 C   0  0  0  0  0  0  0  0  0  0  0  0
  131.5992  132.3474  159.1689 C   0  0  0  0  0  0  0  0  0  0  0  0
  130.1059  132.0666  158.9884 C   0  0  0  0  0  0  0  0  0  0  0  0
  130.3087  134.4020  160.1531 C   0  0  0  0  0  0  0  0  0  0  0  0
  126.5227  137.0612  163.4949 C   0  0  0  0  0  0  0  0  0  0  0  0
  125.9902  135.6575  163.6270 C   0  0  0  0  0  0  0  0  0  0  0  0
  126.2966  137.9804  164.4940 C   0  0  0  0  0  0  0  0  0  0  0  0
  128.8616  140.6792  165.9794 C   0  0  0  0  0  0  0  0  0  0  0  0
  130.0566  140.8646  165.2767 C   0  0  0  0  0  0  0  0  0  0  0  0
  130.9975  140.1886  165.8848 N   0  0  0  0  0  0  0  0  0  0  0  0
  130.4299  139.5506  166.9953 N   0  0  0  0  0  0  0  0  0  0  0  0
  131.1352  138.6909  167.9491 C   0  0  0  0  0  0  0  0  0  0  0  0
  129.1187  139.8675  167.0312 C   0  0  0  0  0  0  0  0  0  0  0  0
  126.3792  148.2242  167.8537 H   0  0  0  0  0  0  0  0  0  0  0  0
  124.6927  147.8580  167.4176 H   0  0  0  0  0  0  0  0  0  0  0  0
  125.0901  148.3857  169.0705 H   0  0  0  0  0  0  0  0  0  0  0  0
  124.7041  145.9377  168.9866 H   0  0  0  0  0  0  0  0  0  0  0  0
  126.3905  146.3040  169.4225 H   0  0  0  0  0  0  0  0  0  0  0  0
  126.9693  143.8689  165.5957 H   0  0  0  0  0  0  0  0  0  0  0  0
  126.8849  141.7023  167.7428 H   0  0  0  0  0  0  0  0  0  0  0  0
  125.7571  140.1391  165.9275 H   0  0  0  0  0  0  0  0  0  0  0  0
  127.8812  140.6579  163.1457 H   0  0  0  0  0  0  0  0  0  0  0  0
  128.2995  139.0222  161.3622 H   0  0  0  0  0  0  0  0  0  0  0  0
  129.5013  136.5291  161.4077 H   0  0  0  0  0  0  0  0  0  0  0  0
  128.1720  134.4294  159.8465 H   0  0  0  0  0  0  0  0  0  0  0  0
  128.1679  136.3961  158.3347 H   0  0  0  0  0  0  0  0  0  0  0  0
  129.9213  136.5841  158.5733 H   0  0  0  0  0  0  0  0  0  0  0  0
  128.5651  134.1061  157.4210 H   0  0  0  0  0  0  0  0  0  0  0  0
  129.3814  135.3635  156.4623 H   0  0  0  0  0  0  0  0  0  0  0  0
  132.2634  132.0880  158.3444 H   0  0  0  0  0  0  0  0  0  0  0  0
  132.0180  132.2221  160.1674 H   0  0  0  0  0  0  0  0  0  0  0  0
  129.5421  131.7565  159.8684 H   0  0  0  0  0  0  0  0  0  0  0  0
  129.7871  131.6226  158.0454 H   0  0  0  0  0  0  0  0  0  0  0  0
  131.1138  135.1237  160.2916 H   0  0  0  0  0  0  0  0  0  0  0  0
  130.2045  133.7905  161.0493 H   0  0  0  0  0  0  0  0  0  0  0  0
  125.0425  135.5768  163.0950 H   0  0  0  0  0  0  0  0  0  0  0  0
  126.7070  134.9555  163.2009 H   0  0  0  0  0  0  0  0  0  0  0  0
  125.8365  135.4249  164.6808 H   0  0  0  0  0  0  0  0  0  0  0  0
  125.7372  137.6955  165.3727 H   0  0  0  0  0  0  0  0  0  0  0  0
  130.1814  141.4626  164.3861 H   0  0  0  0  0  0  0  0  0  0  0  0
  131.5241  139.2977  168.7666 H   0  0  0  0  0  0  0  0  0  0  0  0
  130.4453  137.9461  168.3459 H   0  0  0  0  0  0  0  0  0  0  0  0
  131.9608  138.1891  167.4444 H   0  0  0  0  0  0  0  0  0  0  0  0
  128.4026  139.5332  167.7673 H   0  0  0  0  0  0  0  0  0  0  0  0
  1  2  1  0
  1 37  1  0
  1 38  1  0
  1 39  1  0
  2  3  1  0
  2 40  1  0
  2 41  1  0
  3  4  1  0
  4  5  2  0
  4  6  1  0
  6  7  2  0
  6 42  1  0
  7  8  1  0
  7 43  1  0
  8  9  1  6
  8 10  1  0
  8 31  1  0
 10 11  1  0
 10 44  1  0
 11 30  1  0
 11 12  2  0
 12 13  1  0
 12 45  1  0
 13 14  2  0
 13 46  1  0
 14 15  1  0
 14 28  1  0
 15 16  2  0
 15 17  1  0
 17 18  1  0
 17 47  1  0
 18 27  1  0
 18 19  1  0
 18 48  1  6
 19 20  1  0
 19 49  1  0
 19 50  1  0
 20 21  1  0
 20 51  1  0
 20 52  1  0
 21 22  1  0
 21 23  1  0
 21 24  1  0
 24 26  1  0
 24 25  1  0
 24 27  1  0
 25 26  1  0
 25 53  1  0
 25 54  1  0
 26 55  1  0
 26 56  1  0
 27 57  1  0
 27 58  1  0
 28 29  1  0
 28 30  2  0
 29 59  1  0
 29 60  1  0
 29 61  1  0
 30 62  1  0
 31 36  2  0
 31 32  1  0
 32 33  2  0
 32 63  1  0
 33 34  1  0
 34 35  1  0
 34 36  1  0
 35 64  1  0
 35 65  1  0
 35 66  1  0
 36 67  1  0
M  CHG  1  21   1
M  END
>  <DOCK_score>  (1) 
-42.653522

>  <SMILES>  (1) 
CCOC(=O)C=C[C@H](Nc1ccc(C(=O)NC2CC[NH2+]C3(CC3)C2)c(C)c1)c1cnn(C)c1

$$$$
