CC[C@H](O)c1cccc(C(Nc2[nH]c(C)c(C)[nH+]2)[C@H]2C[C@H](O)C2)c1
     RDKit          3D

 52 54  0  0  1  0  0  0  0  0999 V2000
  134.8816  137.1038  162.1323 C   0  0  0  0  0  0  0  0  0  0  0  0
  134.3506  138.0808  163.1832 C   0  0  0  0  0  0  0  0  0  0  0  0
  132.9259  137.6836  163.5750 C   0  0  2  0  0  0  0  0  0  0  0  0
  132.5477  138.3797  164.3238 H   0  0  0  0  0  0  0  0  0  0  0  0
  132.9316  136.3604  164.1147 O   0  0  0  0  0  0  0  0  0  0  0  0
  132.0397  137.7255  162.3569 C   0  0  0  0  0  0  0  0  0  0  0  0
  131.8771  138.9091  161.6609 C   0  0  0  0  0  0  0  0  0  0  0  0
  131.0643  138.9477  160.5437 C   0  0  0  0  0  0  0  0  0  0  0  0
  130.4146  137.8026  160.1215 C   0  0  0  0  0  0  0  0  0  0  0  0
  130.5780  136.6193  160.8168 C   0  0  0  0  0  0  0  0  0  0  0  0
  129.8702  135.3710  160.3564 C   0  0  2  0  0  0  0  0  0  0  0  0
  130.2961  135.0425  158.9937 N   0  0  0  0  0  0  0  0  0  0  0  0
  130.3196  133.7256  158.5756 C   0  0  0  0  0  0  0  0  0  0  0  0
  130.6795  133.3018  157.3675 N   0  0  0  0  0  0  0  0  0  0  0  0
  130.9690  133.8627  156.6308 H   0  0  0  0  0  0  0  0  0  0  0  0
  130.5741  131.9454  157.3440 C   0  0  0  0  0  0  0  0  0  0  0  0
  130.8857  131.0471  156.1750 C   0  0  0  0  0  0  0  0  0  0  0  0
  130.1361  131.5538  158.5530 C   0  0  0  0  0  0  0  0  0  0  0  0
  129.8661  130.1362  158.9870 C   0  0  0  0  0  0  0  0  0  0  0  0
  129.9808  132.6718  159.3130 N   0  0  0  0  0  0  0  0  0  0  0  0
  129.6753  132.6960  160.2332 H   0  0  0  0  0  0  0  0  0  0  0  0
  128.3583  135.6054  160.3756 C   0  0  1  0  0  0  0  0  0  0  0  0
  128.0043  136.1558  159.5039 H   0  0  0  0  0  0  0  0  0  0  0  0
  127.5422  134.3374  160.6768 C   0  0  0  0  0  0  0  0  0  0  0  0
  126.6318  135.2239  161.5428 C   0  0  2  0  0  0  0  0  0  0  0  0
  126.3137  134.7486  162.4707 H   0  0  0  0  0  0  0  0  0  0  0  0
  125.5474  135.8099  160.8195 O   0  0  0  0  0  0  0  0  0  0  0  0
  127.8383  136.1624  161.7113 C   0  0  0  0  0  0  0  0  0  0  0  0
  131.3940  136.5798  161.9321 C   0  0  0  0  0  0  0  0  0  0  0  0
  134.2407  137.1341  161.2512 H   0  0  0  0  0  0  0  0  0  0  0  0
  135.8967  137.3868  161.8531 H   0  0  0  0  0  0  0  0  0  0  0  0
  134.8861  136.0945  162.5439 H   0  0  0  0  0  0  0  0  0  0  0  0
  134.3461  139.0900  162.7717 H   0  0  0  0  0  0  0  0  0  0  0  0
  134.9915  138.0505  164.0644 H   0  0  0  0  0  0  0  0  0  0  0  0
  133.2571  135.6871  163.5017 H   0  0  0  0  0  0  0  0  0  0  0  0
  132.3849  139.8034  161.9905 H   0  0  0  0  0  0  0  0  0  0  0  0
  130.9370  139.8723  160.0003 H   0  0  0  0  0  0  0  0  0  0  0  0
  129.7798  137.8326  159.2483 H   0  0  0  0  0  0  0  0  0  0  0  0
  130.1185  134.5455  161.0234 H   0  0  0  0  0  0  0  0  0  0  0  0
  130.5617  135.7495  158.3847 H   0  0  0  0  0  0  0  0  0  0  0  0
  129.9896  130.9156  155.5687 H   0  0  0  0  0  0  0  0  0  0  0  0
  131.6713  131.4987  155.5690 H   0  0  0  0  0  0  0  0  0  0  0  0
  131.2220  130.0772  156.5415 H   0  0  0  0  0  0  0  0  0  0  0  0
  128.8295  129.8803  158.7676 H   0  0  0  0  0  0  0  0  0  0  0  0
  130.5293  129.4589  158.4490 H   0  0  0  0  0  0  0  0  0  0  0  0
  130.0440  130.0441  160.0585 H   0  0  0  0  0  0  0  0  0  0  0  0
  127.0425  133.9216  159.8019 H   0  0  0  0  0  0  0  0  0  0  0  0
  128.0928  133.5888  161.2467 H   0  0  0  0  0  0  0  0  0  0  0  0
  124.9714  136.3687  161.3588 H   0  0  0  0  0  0  0  0  0  0  0  0
  128.4699  135.9129  162.5639 H   0  0  0  0  0  0  0  0  0  0  0  0
  127.5778  137.2201  161.6714 H   0  0  0  0  0  0  0  0  0  0  0  0
  131.5246  135.6542  162.4731 H   0  0  0  0  0  0  0  0  0  0  0  0
  1  2  1  0
  1 30  1  0
  1 31  1  0
  1 32  1  0
  2  3  1  0
  2 33  1  0
  2 34  1  0
  3  4  1  1
  3  5  1  0
  3  6  1  0
  5 35  1  0
  6 29  2  0
  6  7  1  0
  7  8  2  0
  7 36  1  0
  8  9  1  0
  8 37  1  0
  9 10  2  0
  9 38  1  0
 10 11  1  0
 10 29  1  0
 11 12  1  0
 11 22  1  0
 11 39  1  1
 12 40  1  0
 13 12  1  0
 13 20  1  0
 13 14  2  0
 14 15  1  0
 14 16  1  0
 16 17  1  0
 16 18  2  0
 17 41  1  0
 17 42  1  0
 17 43  1  0
 18 19  1  0
 18 20  1  0
 19 44  1  0
 19 45  1  0
 19 46  1  0
 20 21  1  0
 22 23  1  6
 22 28  1  0
 22 24  1  0
 24 25  1  0
 24 47  1  0
 24 48  1  0
 25 26  1  1
 25 27  1  0
 25 28  1  0
 27 49  1  0
 28 50  1  0
 28 51  1  0
 29 52  1  0
M  CHG  1  14   1
M  END
>  <DOCK_score>  (1) 
-45.854309

>  <SMILES>  (1) 
CC[C@H](O)c1cccc(C(Nc2[nH]c(C)c(C)[nH+]2)[C@H]2C[C@H](O)C2)c1

$$$$
