CC1=CC(Nc2[nH]c3ccccc3[nH+]2)C(C)=C(C)[C@@H]1Nc1ccccc1Nc1ccccc1Cl
     RDKit          3D

 63 67  0  0  1  0  0  0  0  0999 V2000
  132.7915  134.9030  161.3497 C   0  0  0  0  0  0  0  0  0  0  0  0
  131.8244  134.2121  160.4231 C   0  0  0  0  0  0  0  0  0  0  0  0
  132.2904  133.3577  159.5638 C   0  0  0  0  0  0  0  0  0  0  0  0
  131.4155  132.6170  158.5977 C   0  0  2  0  0  0  0  0  0  0  0  0
  131.5023  133.2575  157.2830 N   0  0  0  0  0  0  0  0  0  0  0  0
  131.3418  132.5084  156.1414 C   0  0  0  0  0  0  0  0  0  0  0  0
  131.4015  132.9871  154.9007 N   0  0  0  0  0  0  0  0  0  0  0  0
  131.5635  133.9119  154.6568 H   0  0  0  0  0  0  0  0  0  0  0  0
  131.1956  131.9524  154.0264 C   0  0  0  0  0  0  0  0  0  0  0  0
  131.1487  131.8594  152.6384 C   0  0  0  0  0  0  0  0  0  0  0  0
  130.9154  130.6395  152.0413 C   0  0  0  0  0  0  0  0  0  0  0  0
  130.7275  129.5026  152.8137 C   0  0  0  0  0  0  0  0  0  0  0  0
  130.7704  129.5774  154.1890 C   0  0  0  0  0  0  0  0  0  0  0  0
  131.0046  130.8016  154.8083 C   0  0  0  0  0  0  0  0  0  0  0  0
  131.1046  131.1987  156.1158 N   0  0  0  0  0  0  0  0  0  0  0  0
  131.0174  130.6231  156.8916 H   0  0  0  0  0  0  0  0  0  0  0  0
  129.9868  132.6181  159.0516 C   0  0  0  0  0  0  0  0  0  0  0  0
  129.0497  131.5827  158.4852 C   0  0  0  0  0  0  0  0  0  0  0  0
  129.5205  133.4715  159.9104 C   0  0  0  0  0  0  0  0  0  0  0  0
  128.0669  133.3843  160.2983 C   0  0  0  0  0  0  0  0  0  0  0  0
  130.3660  134.5414  160.5331 C   0  0  2  0  0  0  0  0  0  0  0  0
  130.1000  134.6385  161.5857 H   0  0  0  0  0  0  0  0  0  0  0  0
  130.1084  135.8134  159.8536 N   0  0  0  0  0  0  0  0  0  0  0  0
  129.5823  136.8952  160.5692 C   0  0  0  0  0  0  0  0  0  0  0  0
  128.3524  136.7800  161.1994 C   0  0  0  0  0  0  0  0  0  0  0  0
  127.8349  137.8497  161.9061 C   0  0  0  0  0  0  0  0  0  0  0  0
  128.5408  139.0365  161.9875 C   0  0  0  0  0  0  0  0  0  0  0  0
  129.7667  139.1604  161.3617 C   0  0  0  0  0  0  0  0  0  0  0  0
  130.2962  138.0906  160.6554 C   0  0  0  0  0  0  0  0  0  0  0  0
  131.5409  138.2119  160.0259 N   0  0  0  0  0  0  0  0  0  0  0  0
  132.5152  139.0585  160.5616 C   0  0  0  0  0  0  0  0  0  0  0  0
  132.5667  139.2817  161.9317 C   0  0  0  0  0  0  0  0  0  0  0  0
  133.5310  140.1186  162.4579 C   0  0  0  0  0  0  0  0  0  0  0  0
  134.4453  140.7348  161.6225 C   0  0  0  0  0  0  0  0  0  0  0  0
  134.3972  140.5160  160.2583 C   0  0  0  0  0  0  0  0  0  0  0  0
  133.4388  139.6749  159.7253 C   0  0  0  0  0  0  0  0  0  0  0  0
  133.3841  139.3941  158.0130 Cl  0  0  0  0  0  0  0  0  0  0  0  0
  133.8038  134.5561  161.1428 H   0  0  0  0  0  0  0  0  0  0  0  0
  132.7375  135.9804  161.1936 H   0  0  0  0  0  0  0  0  0  0  0  0
  132.5324  134.6722  162.3831 H   0  0  0  0  0  0  0  0  0  0  0  0
  133.3543  133.1728  159.5439 H   0  0  0  0  0  0  0  0  0  0  0  0
  131.7641  131.5874  158.5171 H   0  0  0  0  0  0  0  0  0  0  0  0
  131.6730  134.2102  157.2179 H   0  0  0  0  0  0  0  0  0  0  0  0
  131.2905  132.7412  152.0313 H   0  0  0  0  0  0  0  0  0  0  0  0
  130.8791  130.5679  150.9642 H   0  0  0  0  0  0  0  0  0  0  0  0
  130.5457  128.5524  152.3337 H   0  0  0  0  0  0  0  0  0  0  0  0
  130.6223  128.6886  154.7845 H   0  0  0  0  0  0  0  0  0  0  0  0
  129.0668  130.6936  159.1154 H   0  0  0  0  0  0  0  0  0  0  0  0
  128.0377  131.9867  158.4542 H   0  0  0  0  0  0  0  0  0  0  0  0
  129.3666  131.3190  157.4762 H   0  0  0  0  0  0  0  0  0  0  0  0
  127.4733  134.0021  159.6244 H   0  0  0  0  0  0  0  0  0  0  0  0
  127.7340  132.3487  160.2297 H   0  0  0  0  0  0  0  0  0  0  0  0
  127.9420  133.7392  161.3213 H   0  0  0  0  0  0  0  0  0  0  0  0
  130.3024  135.9059  158.9077 H   0  0  0  0  0  0  0  0  0  0  0  0
  127.7988  135.8547  161.1379 H   0  0  0  0  0  0  0  0  0  0  0  0
  126.8767  137.7583  162.3959 H   0  0  0  0  0  0  0  0  0  0  0  0
  128.1311  139.8687  162.5406 H   0  0  0  0  0  0  0  0  0  0  0  0
  130.3147  140.0887  161.4269 H   0  0  0  0  0  0  0  0  0  0  0  0
  131.7271  137.7083  159.2181 H   0  0  0  0  0  0  0  0  0  0  0  0
  131.8534  138.8009  162.5847 H   0  0  0  0  0  0  0  0  0  0  0  0
  133.5712  140.2922  163.5231 H   0  0  0  0  0  0  0  0  0  0  0  0
  135.1982  141.3887  162.0370 H   0  0  0  0  0  0  0  0  0  0  0  0
  135.1124  140.9991  159.6091 H   0  0  0  0  0  0  0  0  0  0  0  0
  1  2  1  0
  1 38  1  0
  1 39  1  0
  1 40  1  0
  2 21  1  0
  2  3  2  0
  3  4  1  0
  3 41  1  0
  4  5  1  0
  4 17  1  0
  4 42  1  6
  5  6  1  0
  5 43  1  0
  6 15  1  0
  6  7  2  0
  7  8  1  0
  7  9  1  0
  9 14  2  0
  9 10  1  0
 10 11  2  0
 10 44  1  0
 11 12  1  0
 11 45  1  0
 12 13  2  0
 12 46  1  0
 13 14  1  0
 13 47  1  0
 14 15  1  0
 15 16  1  0
 17 18  1  0
 17 19  2  0
 18 48  1  0
 18 49  1  0
 18 50  1  0
 19 20  1  0
 19 21  1  0
 20 51  1  0
 20 52  1  0
 20 53  1  0
 21 22  1  1
 21 23  1  0
 23 24  1  0
 23 54  1  0
 24 29  1  0
 24 25  2  0
 25 26  1  0
 25 55  1  0
 26 27  2  0
 26 56  1  0
 27 28  1  0
 27 57  1  0
 28 29  2  0
 28 58  1  0
 29 30  1  0
 30 31  1  0
 30 59  1  0
 31 36  1  0
 31 32  2  0
 32 33  1  0
 32 60  1  0
 33 34  2  0
 33 61  1  0
 34 35  1  0
 34 62  1  0
 35 36  2  0
 35 63  1  0
 36 37  1  0
M  CHG  1   7   1
M  END
>  <DOCK_score>  (1) 
-67.054932

>  <SMILES>  (1) 
CC1=CC(Nc2[nH]c3ccccc3[nH+]2)C(C)=C(C)[C@@H]1Nc1ccccc1Nc1ccccc1Cl

$$$$
