ICCCNc1ccc(-c2n[nH]cc2C[NH2+]CC2=CCCCC2)o1
     RDKit          3D

 50 52  0  0  0  0  0  0  0  0999 V2000
  125.8633  141.1375  164.9234 I   0  0  0  0  0  0  0  0  0  0  0  0
  127.1597  139.7929  163.8345 C   0  0  0  0  0  0  0  0  0  0  0  0
  126.3495  138.5935  163.3385 C   0  0  0  0  0  0  0  0  0  0  0  0
  127.2670  137.6419  162.5680 C   0  0  0  0  0  0  0  0  0  0  0  0
  126.4913  136.4935  162.0930 N   0  0  0  0  0  0  0  0  0  0  0  0
  127.1142  135.4881  161.3627 C   0  0  0  0  0  0  0  0  0  0  0  0
  126.5124  134.3755  160.8729 C   0  0  0  0  0  0  0  0  0  0  0  0
  127.5044  133.6334  160.2019 C   0  0  0  0  0  0  0  0  0  0  0  0
  128.6642  134.3325  160.3165 C   0  0  0  0  0  0  0  0  0  0  0  0
  129.9744  133.9322  159.7631 C   0  0  0  0  0  0  0  0  0  0  0  0
  130.2247  132.8345  159.0768 N   0  0  0  0  0  0  0  0  0  0  0  0
  131.5839  132.8340  158.7384 N   0  0  0  0  0  0  0  0  0  0  0  0
  132.0439  132.1458  158.2327 H   0  0  0  0  0  0  0  0  0  0  0  0
  132.1432  133.9574  159.2379 C   0  0  0  0  0  0  0  0  0  0  0  0
  131.1809  134.6541  159.8793 C   0  0  0  0  0  0  0  0  0  0  0  0
  131.3628  135.9701  160.5909 C   0  0  0  0  0  0  0  0  0  0  0  0
  131.1310  137.0726  159.6482 N   0  0  0  0  0  0  0  0  0  0  0  0
  131.7899  137.0081  158.8867 H   0  0  0  0  0  0  0  0  0  0  0  0
  130.1912  137.0134  159.2859 H   0  0  0  0  0  0  0  0  0  0  0  0
  131.3085  138.3553  160.3419 C   0  0  0  0  0  0  0  0  0  0  0  0
  132.7122  138.4437  160.8831 C   0  0  0  0  0  0  0  0  0  0  0  0
  132.8623  138.5805  162.1615 C   0  0  0  0  0  0  0  0  0  0  0  0
  134.1939  138.6872  162.8452 C   0  0  0  0  0  0  0  0  0  0  0  0
  135.3069  138.2056  161.9121 C   0  0  0  0  0  0  0  0  0  0  0  0
  135.1335  138.8956  160.5531 C   0  0  0  0  0  0  0  0  0  0  0  0
  133.8489  138.3736  159.9058 C   0  0  0  0  0  0  0  0  0  0  0  0
  128.4152  135.4523  161.0276 O   0  0  0  0  0  0  0  0  0  0  0  0
  127.9574  139.4460  164.4913 H   0  0  0  0  0  0  0  0  0  0  0  0
  127.5927  140.3164  162.9821 H   0  0  0  0  0  0  0  0  0  0  0  0
  125.5518  138.9405  162.6817 H   0  0  0  0  0  0  0  0  0  0  0  0
  125.9165  138.0700  164.1909 H   0  0  0  0  0  0  0  0  0  0  0  0
  128.0647  137.2950  163.2249 H   0  0  0  0  0  0  0  0  0  0  0  0
  127.7000  138.1654  161.7157 H   0  0  0  0  0  0  0  0  0  0  0  0
  125.5430  136.4346  162.2883 H   0  0  0  0  0  0  0  0  0  0  0  0
  125.4709  134.1095  160.9772 H   0  0  0  0  0  0  0  0  0  0  0  0
  127.3690  132.6899  159.6939 H   0  0  0  0  0  0  0  0  0  0  0  0
  133.1799  134.2455  159.1444 H   0  0  0  0  0  0  0  0  0  0  0  0
  130.6511  136.0397  161.4135 H   0  0  0  0  0  0  0  0  0  0  0  0
  132.3780  136.0340  160.9825 H   0  0  0  0  0  0  0  0  0  0  0  0
  131.1365  139.1734  159.6425 H   0  0  0  0  0  0  0  0  0  0  0  0
  130.5968  138.4250  161.1646 H   0  0  0  0  0  0  0  0  0  0  0  0
  131.9739  138.6165  162.7747 H   0  0  0  0  0  0  0  0  0  0  0  0
  134.1892  138.0761  163.7477 H   0  0  0  0  0  0  0  0  0  0  0  0
  134.3747  139.7273  163.1165 H   0  0  0  0  0  0  0  0  0  0  0  0
  135.2374  137.1251  161.7859 H   0  0  0  0  0  0  0  0  0  0  0  0
  136.2791  138.4635  162.3325 H   0  0  0  0  0  0  0  0  0  0  0  0
  135.9857  138.6654  159.9137 H   0  0  0  0  0  0  0  0  0  0  0  0
  135.0597  139.9736  160.6964 H   0  0  0  0  0  0  0  0  0  0  0  0
  133.9954  137.3390  159.5954 H   0  0  0  0  0  0  0  0  0  0  0  0
  133.6132  138.9826  159.0331 H   0  0  0  0  0  0  0  0  0  0  0  0
  1  2  1  0
  2  3  1  0
  2 28  1  0
  2 29  1  0
  3  4  1  0
  3 30  1  0
  3 31  1  0
  4  5  1  0
  4 32  1  0
  4 33  1  0
  5  6  1  0
  5 34  1  0
  6 27  1  0
  6  7  2  0
  7  8  1  0
  7 35  1  0
  8  9  2  0
  8 36  1  0
  9 10  1  0
  9 27  1  0
 10 15  1  0
 10 11  2  0
 11 12  1  0
 12 13  1  0
 12 14  1  0
 14 15  2  0
 14 37  1  0
 15 16  1  0
 16 17  1  0
 16 38  1  0
 16 39  1  0
 17 18  1  0
 17 19  1  0
 17 20  1  0
 20 21  1  0
 20 40  1  0
 20 41  1  0
 21 26  1  0
 21 22  2  0
 22 23  1  0
 22 42  1  0
 23 24  1  0
 23 43  1  0
 23 44  1  0
 24 25  1  0
 24 45  1  0
 24 46  1  0
 25 26  1  0
 25 47  1  0
 25 48  1  0
 26 49  1  0
 26 50  1  0
M  CHG  1  17   1
M  END
>  <DOCK_score>  (1) 
-42.977772

>  <SMILES>  (1) 
ICCCNc1ccc(-c2n[nH]cc2C[NH2+]CC2=CCCCC2)o1

$$$$
