O=C1CC[C@H](NC(NC2CC=CC2)=[NH+][C@@H]2COC3(CCC3)C2)CN1
     RDKit          3D

 53 56  0  0  1  0  0  0  0  0999 V2000
  124.3017  133.8212  161.8847 O   0  0  0  0  0  0  0  0  0  0  0  0
  125.4568  134.1115  161.6562 C   0  0  0  0  0  0  0  0  0  0  0  0
  126.4317  132.9985  161.3984 C   0  0  0  0  0  0  0  0  0  0  0  0
  127.8633  133.5096  161.5619 C   0  0  0  0  0  0  0  0  0  0  0  0
  128.0092  134.8158  160.7720 C   0  0  2  0  0  0  0  0  0  0  0  0
  127.6712  134.6632  159.7470 H   0  0  0  0  0  0  0  0  0  0  0  0
  129.4120  135.2383  160.7692 N   0  0  0  0  0  0  0  0  0  0  0  0
  130.2560  134.8129  159.7707 C   0  0  0  0  0  0  0  0  0  0  0  0
  129.7836  133.9910  158.7750 N   0  0  0  0  0  0  0  0  0  0  0  0
  130.6825  133.0313  158.1293 C   0  0  0  0  0  0  0  0  0  0  0  0
  129.9010  132.0838  157.1899 C   0  0  0  0  0  0  0  0  0  0  0  0
  130.5752  130.7411  157.3508 C   0  0  0  0  0  0  0  0  0  0  0  0
  131.3167  130.7133  158.4245 C   0  0  0  0  0  0  0  0  0  0  0  0
  131.2607  132.0329  159.1588 C   0  0  0  0  0  0  0  0  0  0  0  0
  131.5039  135.1888  159.7682 N   0  0  0  0  0  0  0  0  0  0  0  0
  132.0995  134.8886  159.0637 H   0  0  0  0  0  0  0  0  0  0  0  0
  132.0073  136.0647  160.8292 C   0  0  2  0  0  0  0  0  0  0  0  0
  131.8916  135.5940  161.8055 H   0  0  0  0  0  0  0  0  0  0  0  0
  131.2969  137.4357  160.7929 C   0  0  0  0  0  0  0  0  0  0  0  0
  132.2861  138.4433  161.0487 O   0  0  0  0  0  0  0  0  0  0  0  0
  133.5553  137.8274  161.2601 C   0  0  0  0  0  0  0  0  0  0  0  0
  134.0567  137.8031  162.7042 C   0  0  0  0  0  0  0  0  0  0  0  0
  135.4651  138.0367  162.1284 C   0  0  0  0  0  0  0  0  0  0  0  0
  134.7788  138.6724  160.9057 C   0  0  0  0  0  0  0  0  0  0  0  0
  133.4905  136.4515  160.5694 C   0  0  0  0  0  0  0  0  0  0  0  0
  127.1510  135.8907  161.4404 C   0  0  0  0  0  0  0  0  0  0  0  0
  125.7945  135.4015  161.6526 N   0  0  0  0  0  0  0  0  0  0  0  0
  126.2515  132.1884  162.1050 H   0  0  0  0  0  0  0  0  0  0  0  0
  126.2973  132.6276  160.3824 H   0  0  0  0  0  0  0  0  0  0  0  0
  128.5648  132.7687  161.1785 H   0  0  0  0  0  0  0  0  0  0  0  0
  128.0650  133.6944  162.6170 H   0  0  0  0  0  0  0  0  0  0  0  0
  129.7453  135.8181  161.4717 H   0  0  0  0  0  0  0  0  0  0  0  0
  128.8550  134.0466  158.5000 H   0  0  0  0  0  0  0  0  0  0  0  0
  131.4798  133.5453  157.5924 H   0  0  0  0  0  0  0  0  0  0  0  0
  128.8563  132.0231  157.4952 H   0  0  0  0  0  0  0  0  0  0  0  0
  129.9764  132.4253  156.1575 H   0  0  0  0  0  0  0  0  0  0  0  0
  130.4591  129.9134  156.6670 H   0  0  0  0  0  0  0  0  0  0  0  0
  131.8949  129.8595  158.7458 H   0  0  0  0  0  0  0  0  0  0  0  0
  132.2608  132.3396  159.4651 H   0  0  0  0  0  0  0  0  0  0  0  0
  130.6035  131.9576  160.0251 H   0  0  0  0  0  0  0  0  0  0  0  0
  130.8516  137.5955  159.8109 H   0  0  0  0  0  0  0  0  0  0  0  0
  130.5233  137.4717  161.5598 H   0  0  0  0  0  0  0  0  0  0  0  0
  133.6884  138.6317  163.3091 H   0  0  0  0  0  0  0  0  0  0  0  0
  133.9385  136.8355  163.1919 H   0  0  0  0  0  0  0  0  0  0  0  0
  136.0004  137.1156  161.8981 H   0  0  0  0  0  0  0  0  0  0  0  0
  136.0633  138.7401  162.7075 H   0  0  0  0  0  0  0  0  0  0  0  0
  135.2381  138.4000  159.9556 H   0  0  0  0  0  0  0  0  0  0  0  0
  134.6133  139.7452  161.0057 H   0  0  0  0  0  0  0  0  0  0  0  0
  134.1705  135.7421  161.0413 H   0  0  0  0  0  0  0  0  0  0  0  0
  133.6935  136.5374  159.5020 H   0  0  0  0  0  0  0  0  0  0  0  0
  127.1198  136.7746  160.8033 H   0  0  0  0  0  0  0  0  0  0  0  0
  127.5919  136.1580  162.4008 H   0  0  0  0  0  0  0  0  0  0  0  0
  125.0934  136.0553  161.8008 H   0  0  0  0  0  0  0  0  0  0  0  0
  1  2  2  0
  2 27  1  0
  2  3  1  0
  3  4  1  0
  3 28  1  0
  3 29  1  0
  4  5  1  0
  4 30  1  0
  4 31  1  0
  5  6  1  6
  5  7  1  0
  5 26  1  0
  7 32  1  0
  8  7  1  0
  8  9  1  0
  8 15  2  0
  9 10  1  0
  9 33  1  0
 10 14  1  0
 10 11  1  0
 10 34  1  0
 11 12  1  0
 11 35  1  0
 11 36  1  0
 12 13  2  0
 12 37  1  0
 13 14  1  0
 13 38  1  0
 14 39  1  0
 14 40  1  0
 15 16  1  0
 15 17  1  0
 17 18  1  1
 17 25  1  0
 17 19  1  0
 19 20  1  0
 19 41  1  0
 19 42  1  0
 20 21  1  0
 21 24  1  0
 21 22  1  0
 21 25  1  0
 22 23  1  0
 22 43  1  0
 22 44  1  0
 23 24  1  0
 23 45  1  0
 23 46  1  0
 24 47  1  0
 24 48  1  0
 25 49  1  0
 25 50  1  0
 26 27  1  0
 26 51  1  0
 26 52  1  0
 27 53  1  0
M  CHG  1  15   1
M  END
>  <DOCK_score>  (1) 
-42.673553

>  <SMILES>  (1) 
O=C1CC[C@H](NC(NC2CC=CC2)=[NH+][C@@H]2COC3(CCC3)C2)CN1

$$$$
