ClCCc1c(Cl)cccc1N1CC[NH+]([C@@H](c2ccccc2)c2ccccc2Cl)CC1
     RDKit          3D

 56 59  0  0  1  0  0  0  0  0999 V2000
  132.1776  139.5513  165.1091 Cl  0  0  0  0  0  0  0  0  0  0  0  0
  132.7412  139.9769  163.4501 C   0  0  0  0  0  0  0  0  0  0  0  0
  133.9635  139.1285  163.0935 C   0  0  0  0  0  0  0  0  0  0  0  0
  134.4346  139.4841  161.7069 C   0  0  0  0  0  0  0  0  0  0  0  0
  135.3728  140.4839  161.5298 C   0  0  0  0  0  0  0  0  0  0  0  0
  136.0096  141.3294  162.9058 Cl  0  0  0  0  0  0  0  0  0  0  0  0
  135.8004  140.8151  160.2560 C   0  0  0  0  0  0  0  0  0  0  0  0
  135.2960  140.1431  159.1578 C   0  0  0  0  0  0  0  0  0  0  0  0
  134.3636  139.1391  159.3286 C   0  0  0  0  0  0  0  0  0  0  0  0
  133.9313  138.8039  160.6059 C   0  0  0  0  0  0  0  0  0  0  0  0
  132.9883  137.7887  160.7815 N   0  0  0  0  0  0  0  0  0  0  0  0
  131.7089  138.1433  160.1509 C   0  0  0  0  0  0  0  0  0  0  0  0
  130.6881  137.0346  160.4166 C   0  0  0  0  0  0  0  0  0  0  0  0
  131.1885  135.7666  159.8695 N   0  0  0  0  0  0  0  0  0  0  0  0
  131.3415  135.8658  158.8771 H   0  0  0  0  0  0  0  0  0  0  0  0
  130.2002  134.7065  160.1088 C   0  0  1  0  0  0  0  0  0  0  0  0
  130.0345  134.5995  161.1808 H   0  0  0  0  0  0  0  0  0  0  0  0
  128.9023  135.0678  159.4335 C   0  0  0  0  0  0  0  0  0  0  0  0
  127.7028  134.6278  159.9611 C   0  0  0  0  0  0  0  0  0  0  0  0
  126.5120  134.9629  159.3441 C   0  0  0  0  0  0  0  0  0  0  0  0
  126.5213  135.7301  158.1942 C   0  0  0  0  0  0  0  0  0  0  0  0
  127.7212  136.1659  157.6639 C   0  0  0  0  0  0  0  0  0  0  0  0
  128.9117  135.8346  158.2834 C   0  0  0  0  0  0  0  0  0  0  0  0
  130.7133  133.4054  159.5475 C   0  0  0  0  0  0  0  0  0  0  0  0
  130.9975  133.2986  158.1989 C   0  0  0  0  0  0  0  0  0  0  0  0
  131.4731  132.1069  157.6849 C   0  0  0  0  0  0  0  0  0  0  0  0
  131.6539  131.0178  158.5171 C   0  0  0  0  0  0  0  0  0  0  0  0
  131.3652  131.1217  159.8645 C   0  0  0  0  0  0  0  0  0  0  0  0
  130.8945  132.3163  160.3807 C   0  0  0  0  0  0  0  0  0  0  0  0
  130.5309  132.4475  162.0731 Cl  0  0  0  0  0  0  0  0  0  0  0  0
  132.4537  135.4136  160.5267 C   0  0  0  0  0  0  0  0  0  0  0  0
  133.4894  136.5085  160.2616 C   0  0  0  0  0  0  0  0  0  0  0  0
  133.0098  141.0327  163.4174 H   0  0  0  0  0  0  0  0  0  0  0  0
  131.9426  139.7825  162.7341 H   0  0  0  0  0  0  0  0  0  0  0  0
  133.6950  138.0725  163.1263 H   0  0  0  0  0  0  0  0  0  0  0  0
  134.7620  139.3226  163.8096 H   0  0  0  0  0  0  0  0  0  0  0  0
  136.5299  141.5997  160.1196 H   0  0  0  0  0  0  0  0  0  0  0  0
  135.6321  140.4037  158.1649 H   0  0  0  0  0  0  0  0  0  0  0  0
  133.9709  138.6145  158.4701 H   0  0  0  0  0  0  0  0  0  0  0  0
  131.8521  138.2559  159.0762 H   0  0  0  0  0  0  0  0  0  0  0  0
  131.3446  139.0812  160.5699 H   0  0  0  0  0  0  0  0  0  0  0  0
  129.7426  137.2890  159.9376 H   0  0  0  0  0  0  0  0  0  0  0  0
  130.5350  136.9316  161.4909 H   0  0  0  0  0  0  0  0  0  0  0  0
  127.6958  134.0250  160.8572 H   0  0  0  0  0  0  0  0  0  0  0  0
  125.5746  134.6226  159.7586 H   0  0  0  0  0  0  0  0  0  0  0  0
  125.5912  135.9890  157.7103 H   0  0  0  0  0  0  0  0  0  0  0  0
  127.7285  136.7654  156.7655 H   0  0  0  0  0  0  0  0  0  0  0  0
  129.8491  136.1750  157.8689 H   0  0  0  0  0  0  0  0  0  0  0  0
  130.8519  134.1476  157.5475 H   0  0  0  0  0  0  0  0  0  0  0  0
  131.6995  132.0253  156.6321 H   0  0  0  0  0  0  0  0  0  0  0  0
  132.0213  130.0854  158.1141 H   0  0  0  0  0  0  0  0  0  0  0  0
  131.5066  130.2708  160.5144 H   0  0  0  0  0  0  0  0  0  0  0  0
  132.2914  135.3190  161.6004 H   0  0  0  0  0  0  0  0  0  0  0  0
  132.8175  134.4660  160.1294 H   0  0  0  0  0  0  0  0  0  0  0  0
  133.6619  136.5942  159.1888 H   0  0  0  0  0  0  0  0  0  0  0  0
  134.4242  136.2540  160.7611 H   0  0  0  0  0  0  0  0  0  0  0  0
  1  2  1  0
  2  3  1  0
  2 33  1  0
  2 34  1  0
  3  4  1  0
  3 35  1  0
  3 36  1  0
  4 10  2  0
  4  5  1  0
  5  6  1  0
  5  7  2  0
  7  8  1  0
  7 37  1  0
  8  9  2  0
  8 38  1  0
  9 10  1  0
  9 39  1  0
 10 11  1  0
 11 32  1  0
 11 12  1  0
 12 13  1  0
 12 40  1  0
 12 41  1  0
 13 14  1  0
 13 42  1  0
 13 43  1  0
 14 15  1  0
 14 16  1  0
 14 31  1  0
 16 17  1  1
 16 18  1  0
 16 24  1  0
 18 23  1  0
 18 19  2  0
 19 20  1  0
 19 44  1  0
 20 21  2  0
 20 45  1  0
 21 22  1  0
 21 46  1  0
 22 23  2  0
 22 47  1  0
 23 48  1  0
 24 29  1  0
 24 25  2  0
 25 26  1  0
 25 49  1  0
 26 27  2  0
 26 50  1  0
 27 28  1  0
 27 51  1  0
 28 29  2  0
 28 52  1  0
 29 30  1  0
 31 32  1  0
 31 53  1  0
 31 54  1  0
 32 55  1  0
 32 56  1  0
M  CHG  1  14   1
M  END
>  <DOCK_score>  (1) 
-57.374413

>  <SMILES>  (1) 
ClCCc1c(Cl)cccc1N1CC[NH+]([C@@H](c2ccccc2)c2ccccc2Cl)CC1

$$$$
