c1ccc([C@@H](c2cccnc2)[NH+]2CCN(c3cccc4cc[nH]c34)CC2)cc1
     RDKit          3D

 53 57  0  0  1  0  0  0  0  0999 V2000
  126.2604  135.5222  157.8175 C   0  0  0  0  0  0  0  0  0  0  0  0
  126.1611  134.3813  158.5916 C   0  0  0  0  0  0  0  0  0  0  0  0
  127.3048  133.7621  159.0599 C   0  0  0  0  0  0  0  0  0  0  0  0
  128.5479  134.2831  158.7531 C   0  0  0  0  0  0  0  0  0  0  0  0
  129.7947  133.6079  159.2636 C   0  0  1  0  0  0  0  0  0  0  0  0
  129.5783  133.1131  160.2104 H   0  0  0  0  0  0  0  0  0  0  0  0
  130.2606  132.5868  158.2580 C   0  0  0  0  0  0  0  0  0  0  0  0
  130.5988  132.9734  156.9699 C   0  0  0  0  0  0  0  0  0  0  0  0
  131.0222  131.9999  156.0784 C   0  0  0  0  0  0  0  0  0  0  0  0
  131.0927  130.6854  156.5001 C   0  0  0  0  0  0  0  0  0  0  0  0
  130.7630  130.3540  157.7331 N   0  0  0  0  0  0  0  0  0  0  0  0
  130.3616  131.2543  158.6094 C   0  0  0  0  0  0  0  0  0  0  0  0
  130.8477  134.6122  159.4654 N   0  0  0  0  0  0  0  0  0  0  0  0
  131.0480  135.0701  158.5889 H   0  0  0  0  0  0  0  0  0  0  0  0
  132.0630  133.9534  159.9622 C   0  0  0  0  0  0  0  0  0  0  0  0
  133.1661  134.9962  160.1550 C   0  0  0  0  0  0  0  0  0  0  0  0
  132.7125  136.0134  161.1142 N   0  0  0  0  0  0  0  0  0  0  0  0
  133.7165  136.9559  161.3573 C   0  0  0  0  0  0  0  0  0  0  0  0
  134.2080  137.1339  162.6390 C   0  0  0  0  0  0  0  0  0  0  0  0
  135.2090  138.0615  162.8885 C   0  0  0  0  0  0  0  0  0  0  0  0
  135.7178  138.8249  161.8759 C   0  0  0  0  0  0  0  0  0  0  0  0
  135.2332  138.6680  160.5742 C   0  0  0  0  0  0  0  0  0  0  0  0
  135.5441  139.3007  159.2901 C   0  0  0  0  0  0  0  0  0  0  0  0
  134.7469  138.7346  158.3699 C   0  0  0  0  0  0  0  0  0  0  0  0
  133.9512  137.7916  158.9597 N   0  0  0  0  0  0  0  0  0  0  0  0
  133.2931  137.2494  158.4975 H   0  0  0  0  0  0  0  0  0  0  0  0
  134.2247  137.7266  160.3092 C   0  0  0  0  0  0  0  0  0  0  0  0
  131.4823  136.6643  160.6418 C   0  0  0  0  0  0  0  0  0  0  0  0
  130.3930  135.6078  160.4449 C   0  0  0  0  0  0  0  0  0  0  0  0
  128.6470  135.4267  157.9829 C   0  0  0  0  0  0  0  0  0  0  0  0
  127.5034  136.0435  157.5111 C   0  0  0  0  0  0  0  0  0  0  0  0
  125.3668  136.0061  157.4516 H   0  0  0  0  0  0  0  0  0  0  0  0
  125.1898  133.9740  158.8310 H   0  0  0  0  0  0  0  0  0  0  0  0
  127.2272  132.8709  159.6651 H   0  0  0  0  0  0  0  0  0  0  0  0
  130.5343  134.0086  156.6685 H   0  0  0  0  0  0  0  0  0  0  0  0
  131.2939  132.2650  155.0674 H   0  0  0  0  0  0  0  0  0  0  0  0
  131.4213  129.9209  155.8117 H   0  0  0  0  0  0  0  0  0  0  0  0
  130.1047  130.9457  159.6119 H   0  0  0  0  0  0  0  0  0  0  0  0
  131.8500  133.4693  160.9153 H   0  0  0  0  0  0  0  0  0  0  0  0
  132.3918  133.2058  159.2405 H   0  0  0  0  0  0  0  0  0  0  0  0
  133.3889  135.4710  159.1995 H   0  0  0  0  0  0  0  0  0  0  0  0
  134.0636  134.5103  160.5377 H   0  0  0  0  0  0  0  0  0  0  0  0
  133.8123  136.5419  163.4511 H   0  0  0  0  0  0  0  0  0  0  0  0
  135.5857  138.1853  163.8932 H   0  0  0  0  0  0  0  0  0  0  0  0
  136.4933  139.5480  162.0808 H   0  0  0  0  0  0  0  0  0  0  0  0
  136.2756  140.0760  159.1165 H   0  0  0  0  0  0  0  0  0  0  0  0
  134.7351  138.9870  157.3199 H   0  0  0  0  0  0  0  0  0  0  0  0
  131.6774  137.1666  159.6942 H   0  0  0  0  0  0  0  0  0  0  0  0
  131.1510  137.3953  161.3794 H   0  0  0  0  0  0  0  0  0  0  0  0
  129.4839  136.0866  160.0811 H   0  0  0  0  0  0  0  0  0  0  0  0
  130.1886  135.1152  161.3956 H   0  0  0  0  0  0  0  0  0  0  0  0
  129.6181  135.8363  157.7469 H   0  0  0  0  0  0  0  0  0  0  0  0
  127.5811  136.9347  156.9059 H   0  0  0  0  0  0  0  0  0  0  0  0
  1 31  2  0
  1  2  1  0
  1 32  1  0
  2  3  2  0
  2 33  1  0
  3  4  1  0
  3 34  1  0
  4  5  1  0
  4 30  2  0
  5  6  1  1
  5  7  1  0
  5 13  1  0
  7 12  1  0
  7  8  2  0
  8  9  1  0
  8 35  1  0
  9 10  2  0
  9 36  1  0
 10 11  1  0
 10 37  1  0
 11 12  2  0
 12 38  1  0
 13 14  1  0
 13 29  1  0
 13 15  1  0
 15 16  1  0
 15 39  1  0
 15 40  1  0
 16 17  1  0
 16 41  1  0
 16 42  1  0
 17 18  1  0
 17 28  1  0
 18 27  1  0
 18 19  2  0
 19 20  1  0
 19 43  1  0
 20 21  2  0
 20 44  1  0
 21 22  1  0
 21 45  1  0
 22 27  2  0
 22 23  1  0
 23 24  2  0
 23 46  1  0
 24 25  1  0
 24 47  1  0
 25 26  1  0
 25 27  1  0
 28 29  1  0
 28 48  1  0
 28 49  1  0
 29 50  1  0
 29 51  1  0
 30 31  1  0
 30 52  1  0
 31 53  1  0
M  CHG  1  13   1
M  END
>  <DOCK_score>  (1) 
-60.910782

>  <SMILES>  (1) 
c1ccc([C@@H](c2cccnc2)[NH+]2CCN(c3cccc4cc[nH]c34)CC2)cc1

$$$$
