Nc1ccc(-c2c[nH]c(N[C@H](c3ccccc3)c3ccc(-c4ccncc4)cc3)[nH+]2)cc1
     RDKit          3D

 56 60  0  0  1  0  0  0  0  0999 V2000
  131.9431  129.9754  151.7919 N   0  0  0  0  0  0  0  0  0  0  0  0
  131.5472  130.5513  153.0013 C   0  0  0  0  0  0  0  0  0  0  0  0
  131.2442  131.9067  153.0583 C   0  0  0  0  0  0  0  0  0  0  0  0
  130.8536  132.4774  154.2513 C   0  0  0  0  0  0  0  0  0  0  0  0
  130.7621  131.6939  155.4006 C   0  0  0  0  0  0  0  0  0  0  0  0
  130.3426  132.3057  156.6852 C   0  0  0  0  0  0  0  0  0  0  0  0
  129.6717  131.6817  157.6848 C   0  0  0  0  0  0  0  0  0  0  0  0
  129.4881  132.6101  158.6820 N   0  0  0  0  0  0  0  0  0  0  0  0
  129.0390  132.4626  159.5291 H   0  0  0  0  0  0  0  0  0  0  0  0
  130.0529  133.7744  158.2612 C   0  0  0  0  0  0  0  0  0  0  0  0
  130.0843  134.9598  158.9757 N   0  0  0  0  0  0  0  0  0  0  0  0
  129.0066  135.2772  159.9159 C   0  0  2  0  0  0  0  0  0  0  0  0
  128.9573  134.5070  160.6857 H   0  0  0  0  0  0  0  0  0  0  0  0
  127.6947  135.3327  159.1763 C   0  0  0  0  0  0  0  0  0  0  0  0
  126.5215  134.9935  159.8237 C   0  0  0  0  0  0  0  0  0  0  0  0
  125.3176  135.0485  159.1464 C   0  0  0  0  0  0  0  0  0  0  0  0
  125.2882  135.4341  157.8192 C   0  0  0  0  0  0  0  0  0  0  0  0
  126.4621  135.7683  157.1704 C   0  0  0  0  0  0  0  0  0  0  0  0
  127.6655  135.7174  157.8488 C   0  0  0  0  0  0  0  0  0  0  0  0
  129.2778  136.6130  160.5586 C   0  0  0  0  0  0  0  0  0  0  0  0
  129.9754  137.5838  159.8626 C   0  0  0  0  0  0  0  0  0  0  0  0
  130.2271  138.8086  160.4466 C   0  0  0  0  0  0  0  0  0  0  0  0
  129.7772  139.0667  161.7396 C   0  0  0  0  0  0  0  0  0  0  0  0
  130.0448  140.3817  162.3724 C   0  0  0  0  0  0  0  0  0  0  0  0
  129.1589  140.9200  163.3108 C   0  0  0  0  0  0  0  0  0  0  0  0
  129.4485  142.1435  163.8792 C   0  0  0  0  0  0  0  0  0  0  0  0
  130.5379  142.8070  163.5399 N   0  0  0  0  0  0  0  0  0  0  0  0
  131.3959  142.3364  162.6561 C   0  0  0  0  0  0  0  0  0  0  0  0
  131.1857  141.1179  162.0437 C   0  0  0  0  0  0  0  0  0  0  0  0
  129.0797  138.0828  162.4388 C   0  0  0  0  0  0  0  0  0  0  0  0
  128.8288  136.8636  161.8427 C   0  0  0  0  0  0  0  0  0  0  0  0
  130.5574  133.5902  157.0655 N   0  0  0  0  0  0  0  0  0  0  0  0
  131.0133  134.2642  156.5375 H   0  0  0  0  0  0  0  0  0  0  0  0
  131.0710  130.3358  155.3422 C   0  0  0  0  0  0  0  0  0  0  0  0
  131.4561  129.7682  154.1460 C   0  0  0  0  0  0  0  0  0  0  0  0
  132.0065  130.5213  150.9926 H   0  0  0  0  0  0  0  0  0  0  0  0
  132.1546  129.0296  151.7513 H   0  0  0  0  0  0  0  0  0  0  0  0
  131.3153  132.5133  152.1677 H   0  0  0  0  0  0  0  0  0  0  0  0
  130.6184  133.5305  154.2949 H   0  0  0  0  0  0  0  0  0  0  0  0
  129.3439  130.6527  157.6953 H   0  0  0  0  0  0  0  0  0  0  0  0
  130.8199  135.5803  158.8537 H   0  0  0  0  0  0  0  0  0  0  0  0
  126.5450  134.6886  160.8595 H   0  0  0  0  0  0  0  0  0  0  0  0
  124.4005  134.7878  159.6535 H   0  0  0  0  0  0  0  0  0  0  0  0
  124.3479  135.4746  157.2894 H   0  0  0  0  0  0  0  0  0  0  0  0
  126.4391  136.0694  156.1336 H   0  0  0  0  0  0  0  0  0  0  0  0
  128.5827  135.9785  157.3419 H   0  0  0  0  0  0  0  0  0  0  0  0
  130.3234  137.3828  158.8602 H   0  0  0  0  0  0  0  0  0  0  0  0
  130.7722  139.5658  159.9024 H   0  0  0  0  0  0  0  0  0  0  0  0
  128.2632  140.3848  163.5892 H   0  0  0  0  0  0  0  0  0  0  0  0
  128.7725  142.5659  164.6078 H   0  0  0  0  0  0  0  0  0  0  0  0
  132.2749  142.9128  162.4080 H   0  0  0  0  0  0  0  0  0  0  0  0
  131.8922  140.7392  161.3200 H   0  0  0  0  0  0  0  0  0  0  0  0
  128.7326  138.2759  163.4430 H   0  0  0  0  0  0  0  0  0  0  0  0
  128.2846  136.1021  162.3817 H   0  0  0  0  0  0  0  0  0  0  0  0
  131.0047  129.7278  156.2323 H   0  0  0  0  0  0  0  0  0  0  0  0
  131.6916  128.7152  154.0995 H   0  0  0  0  0  0  0  0  0  0  0  0
  1  2  1  0
  1 36  1  0
  1 37  1  0
  2 35  2  0
  2  3  1  0
  3  4  2  0
  3 38  1  0
  4  5  1  0
  4 39  1  0
  5  6  1  0
  5 34  2  0
  6 32  1  0
  6  7  2  0
  7  8  1  0
  7 40  1  0
  8  9  1  0
  8 10  1  0
 10 11  1  0
 10 32  2  0
 11 12  1  0
 11 41  1  0
 12 13  1  1
 12 14  1  0
 12 20  1  0
 14 19  1  0
 14 15  2  0
 15 16  1  0
 15 42  1  0
 16 17  2  0
 16 43  1  0
 17 18  1  0
 17 44  1  0
 18 19  2  0
 18 45  1  0
 19 46  1  0
 20 31  1  0
 20 21  2  0
 21 22  1  0
 21 47  1  0
 22 23  2  0
 22 48  1  0
 23 24  1  0
 23 30  1  0
 24 29  1  0
 24 25  2  0
 25 26  1  0
 25 49  1  0
 26 27  2  0
 26 50  1  0
 27 28  1  0
 28 29  2  0
 28 51  1  0
 29 52  1  0
 30 31  2  0
 30 53  1  0
 31 54  1  0
 32 33  1  0
 34 35  1  0
 34 55  1  0
 35 56  1  0
M  CHG  1  32   1
M  END
>  <DOCK_score>  (1) 
-68.720909

>  <SMILES>  (1) 
Nc1ccc(-c2c[nH]c(N[C@H](c3ccccc3)c3ccc(-c4ccncc4)cc3)[nH+]2)cc1

$$$$
