O=C(c1cccc2c[nH+]cn12)N1C[C@H]1CNc1ncnc2c1ncn2-c1cccc2cnccc12
     RDKit          3D

 55 61  0  0  1  0  0  0  0  0999 V2000
  129.7919  131.8232  160.8214 O   0  0  0  0  0  0  0  0  0  0  0  0
  129.8949  132.9220  160.3085 C   0  0  0  0  0  0  0  0  0  0  0  0
  130.6302  133.9877  160.9984 C   0  0  0  0  0  0  0  0  0  0  0  0
  130.2235  134.4072  162.2331 C   0  0  0  0  0  0  0  0  0  0  0  0
  130.9170  135.4225  162.9012 C   0  0  0  0  0  0  0  0  0  0  0  0
  132.0062  136.0012  162.3203 C   0  0  0  0  0  0  0  0  0  0  0  0
  132.4254  135.5702  161.0491 C   0  0  0  0  0  0  0  0  0  0  0  0
  133.4590  135.9385  160.2088 C   0  0  0  0  0  0  0  0  0  0  0  0
  133.3825  135.1701  159.1231 N   0  0  0  0  0  0  0  0  0  0  0  0
  133.9879  135.2132  158.3663 H   0  0  0  0  0  0  0  0  0  0  0  0
  132.3604  134.3562  159.2242 C   0  0  0  0  0  0  0  0  0  0  0  0
  131.7381  134.5620  160.3991 N   0  0  0  0  0  0  0  0  0  0  0  0
  129.3333  133.1599  159.1065 N   0  0  0  0  0  0  0  0  0  0  0  0
  128.5541  132.6607  157.9709 C   0  0  0  0  0  0  0  0  0  0  0  0
  129.0714  134.0999  158.0140 C   0  0  1  0  0  0  0  0  0  0  0  0
  129.9033  134.3582  157.3587 H   0  0  0  0  0  0  0  0  0  0  0  0
  128.0518  135.2139  158.2595 C   0  0  0  0  0  0  0  0  0  0  0  0
  128.6840  136.2961  159.0179 N   0  0  0  0  0  0  0  0  0  0  0  0
  128.1831  136.6575  160.2564 C   0  0  0  0  0  0  0  0  0  0  0  0
  127.1293  136.0330  160.7723 N   0  0  0  0  0  0  0  0  0  0  0  0
  126.6448  136.3707  161.9533 C   0  0  0  0  0  0  0  0  0  0  0  0
  127.1687  137.3332  162.6830 N   0  0  0  0  0  0  0  0  0  0  0  0
  128.2241  138.0138  162.2493 C   0  0  0  0  0  0  0  0  0  0  0  0
  128.7803  137.6892  161.0001 C   0  0  0  0  0  0  0  0  0  0  0  0
  129.8349  138.5169  160.8044 N   0  0  0  0  0  0  0  0  0  0  0  0
  129.9629  139.3080  161.8300 C   0  0  0  0  0  0  0  0  0  0  0  0
  128.9873  139.0423  162.7478 N   0  0  0  0  0  0  0  0  0  0  0  0
  128.8067  139.6884  163.9754 C   0  0  0  0  0  0  0  0  0  0  0  0
  129.8106  139.6831  164.9206 C   0  0  0  0  0  0  0  0  0  0  0  0
  129.6400  140.3231  166.1447 C   0  0  0  0  0  0  0  0  0  0  0  0
  128.4809  140.9725  166.4454 C   0  0  0  0  0  0  0  0  0  0  0  0
  127.4346  141.0013  165.5105 C   0  0  0  0  0  0  0  0  0  0  0  0
  126.2205  141.6574  165.7723 C   0  0  0  0  0  0  0  0  0  0  0  0
  125.2696  141.6587  164.8678 N   0  0  0  0  0  0  0  0  0  0  0  0
  125.3969  141.0595  163.6918 C   0  0  0  0  0  0  0  0  0  0  0  0
  126.5345  140.3965  163.3422 C   0  0  0  0  0  0  0  0  0  0  0  0
  127.6002  140.3566  164.2575 C   0  0  0  0  0  0  0  0  0  0  0  0
  129.3609  133.9519  162.6970 H   0  0  0  0  0  0  0  0  0  0  0  0
  130.5890  135.7481  163.8773 H   0  0  0  0  0  0  0  0  0  0  0  0
  132.5433  136.7855  162.8329 H   0  0  0  0  0  0  0  0  0  0  0  0
  134.2001  136.6999  160.4025 H   0  0  0  0  0  0  0  0  0  0  0  0
  132.0632  133.6326  158.4795 H   0  0  0  0  0  0  0  0  0  0  0  0
  127.4860  132.5026  158.1208 H   0  0  0  0  0  0  0  0  0  0  0  0
  129.0415  131.9685  157.2845 H   0  0  0  0  0  0  0  0  0  0  0  0
  127.6972  135.5992  157.3035 H   0  0  0  0  0  0  0  0  0  0  0  0
  127.2095  134.8171  158.8262 H   0  0  0  0  0  0  0  0  0  0  0  0
  129.4536  136.7595  158.6521 H   0  0  0  0  0  0  0  0  0  0  0  0
  125.7870  135.8370  162.3352 H   0  0  0  0  0  0  0  0  0  0  0  0
  130.7232  140.0678  161.9357 H   0  0  0  0  0  0  0  0  0  0  0  0
  130.7404  139.1763  164.7084 H   0  0  0  0  0  0  0  0  0  0  0  0
  130.4411  140.3050  166.8689 H   0  0  0  0  0  0  0  0  0  0  0  0
  128.3672  141.4635  167.4007 H   0  0  0  0  0  0  0  0  0  0  0  0
  126.0695  142.1596  166.7164 H   0  0  0  0  0  0  0  0  0  0  0  0
  124.5754  141.0977  162.9916 H   0  0  0  0  0  0  0  0  0  0  0  0
  126.6175  139.9151  162.3791 H   0  0  0  0  0  0  0  0  0  0  0  0
  1  2  2  0
  2  3  1  0
  2 13  1  0
  3 12  1  0
  3  4  2  0
  4  5  1  0
  4 38  1  0
  5  6  2  0
  5 39  1  0
  6  7  1  0
  6 40  1  0
  7 12  1  0
  7  8  2  0
  8  9  1  0
  8 41  1  0
  9 10  1  0
  9 11  2  0
 11 12  1  0
 11 42  1  0
 13 15  1  0
 13 14  1  0
 14 15  1  0
 14 43  1  0
 14 44  1  0
 15 16  1  6
 15 17  1  0
 17 18  1  0
 17 45  1  0
 17 46  1  0
 18 19  1  0
 18 47  1  0
 19 24  1  0
 19 20  2  0
 20 21  1  0
 21 22  2  0
 21 48  1  0
 22 23  1  0
 23 27  1  0
 23 24  2  0
 24 25  1  0
 25 26  2  0
 26 27  1  0
 26 49  1  0
 27 28  1  0
 28 37  1  0
 28 29  2  0
 29 30  1  0
 29 50  1  0
 30 31  2  0
 30 51  1  0
 31 32  1  0
 31 52  1  0
 32 37  2  0
 32 33  1  0
 33 34  2  0
 33 53  1  0
 34 35  1  0
 35 36  2  0
 35 54  1  0
 36 37  1  0
 36 55  1  0
M  CHG  1   9   1
M  END
>  <DOCK_score>  (1) 
-41.967308

>  <SMILES>  (1) 
O=C(c1cccc2c[nH+]cn12)N1C[C@H]1CNc1ncnc2c1ncn2-c1cccc2cnccc12

$$$$
