CCc1ccc(-c2c[nH]c(NC(CC3=C[C@H]4C=CC3CC4)c3ccccc3)[nH+]2)cc1
     RDKit          3D

 60 64  0  0  1  0  0  0  0  0999 V2000
  130.5007  128.5381  151.3261 C   0  0  0  0  0  0  0  0  0  0  0  0
  131.5910  129.5456  151.6973 C   0  0  0  0  0  0  0  0  0  0  0  0
  131.2197  130.2351  152.9850 C   0  0  0  0  0  0  0  0  0  0  0  0
  131.6239  129.7000  154.1949 C   0  0  0  0  0  0  0  0  0  0  0  0
  131.2866  130.3274  155.3770 C   0  0  0  0  0  0  0  0  0  0  0  0
  130.5372  131.5022  155.3500 C   0  0  0  0  0  0  0  0  0  0  0  0
  130.1716  132.1811  156.6171 C   0  0  0  0  0  0  0  0  0  0  0  0
  129.4374  131.6482  157.6250 C   0  0  0  0  0  0  0  0  0  0  0  0
  129.3435  132.6099  158.6015 N   0  0  0  0  0  0  0  0  0  0  0  0
  128.8809  132.5240  159.4497 H   0  0  0  0  0  0  0  0  0  0  0  0
  130.0169  133.7061  158.1579 C   0  0  0  0  0  0  0  0  0  0  0  0
  130.1595  134.8984  158.8470 N   0  0  0  0  0  0  0  0  0  0  0  0
  129.1154  135.3368  159.7763 C   0  0  1  0  0  0  0  0  0  0  0  0
  129.5170  136.6744  160.4006 C   0  0  0  0  0  0  0  0  0  0  0  0
  130.8164  136.5110  161.1460 C   0  0  0  0  0  0  0  0  0  0  0  0
  131.9195  137.1983  160.8486 C   0  0  0  0  0  0  0  0  0  0  0  0
  133.1091  136.8653  161.7445 C   0  0  1  0  0  0  0  0  0  0  0  0
  133.9866  137.4719  161.5204 H   0  0  0  0  0  0  0  0  0  0  0  0
  132.6310  137.0553  163.1812 C   0  0  0  0  0  0  0  0  0  0  0  0
  131.5302  136.3642  163.4748 C   0  0  0  0  0  0  0  0  0  0  0  0
  130.9953  135.5383  162.3083 C   0  0  2  0  0  0  0  0  0  0  0  0
  132.1187  134.5671  161.9027 C   0  0  0  0  0  0  0  0  0  0  0  0
  133.3838  135.3614  161.5652 C   0  0  0  0  0  0  0  0  0  0  0  0
  127.8158  135.5003  159.0309 C   0  0  0  0  0  0  0  0  0  0  0  0
  126.6146  135.2877  159.6813 C   0  0  0  0  0  0  0  0  0  0  0  0
  125.4224  135.4414  158.9987 C   0  0  0  0  0  0  0  0  0  0  0  0
  125.4315  135.7995  157.6636 C   0  0  0  0  0  0  0  0  0  0  0  0
  126.6329  136.0069  157.0118 C   0  0  0  0  0  0  0  0  0  0  0  0
  127.8250  135.8569  157.6955 C   0  0  0  0  0  0  0  0  0  0  0  0
  130.5129  133.4451  156.9731 N   0  0  0  0  0  0  0  0  0  0  0  0
  131.0394  134.0579  156.4362 H   0  0  0  0  0  0  0  0  0  0  0  0
  130.1279  132.0336  154.1283 C   0  0  0  0  0  0  0  0  0  0  0  0
  130.4759  131.4008  152.9523 C   0  0  0  0  0  0  0  0  0  0  0  0
  130.7691  128.0389  150.3950 H   0  0  0  0  0  0  0  0  0  0  0  0
  130.4039  127.7978  152.1203 H   0  0  0  0  0  0  0  0  0  0  0  0
  129.5523  129.0599  151.1983 H   0  0  0  0  0  0  0  0  0  0  0  0
  131.6878  130.2853  150.9035 H   0  0  0  0  0  0  0  0  0  0  0  0
  132.5394  129.0231  151.8255 H   0  0  0  0  0  0  0  0  0  0  0  0
  132.2043  128.7894  154.2145 H   0  0  0  0  0  0  0  0  0  0  0  0
  131.6030  129.9090  156.3210 H   0  0  0  0  0  0  0  0  0  0  0  0
  129.0110  130.6564  157.6556 H   0  0  0  0  0  0  0  0  0  0  0  0
  130.9509  135.4435  158.7144 H   0  0  0  0  0  0  0  0  0  0  0  0
  128.9920  134.5915  160.5621 H   0  0  0  0  0  0  0  0  0  0  0  0
  129.6402  137.4197  159.6147 H   0  0  0  0  0  0  0  0  0  0  0  0
  128.7400  137.0008  161.0919 H   0  0  0  0  0  0  0  0  0  0  0  0
  131.9657  137.9247  160.0507 H   0  0  0  0  0  0  0  0  0  0  0  0
  133.1373  137.6903  163.8931 H   0  0  0  0  0  0  0  0  0  0  0  0
  131.0603  136.3867  164.4469 H   0  0  0  0  0  0  0  0  0  0  0  0
  130.0675  135.0249  162.5603 H   0  0  0  0  0  0  0  0  0  0  0  0
  132.3264  133.8868  162.7286 H   0  0  0  0  0  0  0  0  0  0  0  0
  131.8059  133.9940  161.0300 H   0  0  0  0  0  0  0  0  0  0  0  0
  133.6712  135.1651  160.5323 H   0  0  0  0  0  0  0  0  0  0  0  0
  134.1916  135.0578  162.2311 H   0  0  0  0  0  0  0  0  0  0  0  0
  126.6075  135.0046  160.7236 H   0  0  0  0  0  0  0  0  0  0  0  0
  124.4839  135.2791  159.5077 H   0  0  0  0  0  0  0  0  0  0  0  0
  124.5002  135.9170  157.1295 H   0  0  0  0  0  0  0  0  0  0  0  0
  126.6402  136.2864  155.9686 H   0  0  0  0  0  0  0  0  0  0  0  0
  128.7635  136.0190  157.1863 H   0  0  0  0  0  0  0  0  0  0  0  0
  129.5432  132.9413  154.1018 H   0  0  0  0  0  0  0  0  0  0  0  0
  130.1628  131.8140  152.0048 H   0  0  0  0  0  0  0  0  0  0  0  0
  1  2  1  0
  1 34  1  0
  1 35  1  0
  1 36  1  0
  2  3  1  0
  2 37  1  0
  2 38  1  0
  3 33  2  0
  3  4  1  0
  4  5  2  0
  4 39  1  0
  5  6  1  0
  5 40  1  0
  6  7  1  0
  6 32  2  0
  7 30  1  0
  7  8  2  0
  8  9  1  0
  8 41  1  0
  9 10  1  0
  9 11  1  0
 11 12  1  0
 11 30  2  0
 12 13  1  0
 12 42  1  0
 13 14  1  0
 13 24  1  0
 13 43  1  1
 14 15  1  0
 14 44  1  0
 14 45  1  0
 15 21  1  0
 15 16  2  0
 16 17  1  0
 16 46  1  0
 17 18  1  6
 17 23  1  0
 17 19  1  0
 19 20  2  0
 19 47  1  0
 20 21  1  0
 20 48  1  0
 21 22  1  0
 21 49  1  1
 22 23  1  0
 22 50  1  0
 22 51  1  0
 23 52  1  0
 23 53  1  0
 24 29  1  0
 24 25  2  0
 25 26  1  0
 25 54  1  0
 26 27  2  0
 26 55  1  0
 27 28  1  0
 27 56  1  0
 28 29  2  0
 28 57  1  0
 29 58  1  0
 30 31  1  0
 32 33  1  0
 32 59  1  0
 33 60  1  0
M  CHG  1  30   1
M  END
>  <DOCK_score>  (1) 
-62.262615

>  <SMILES>  (1) 
CCc1ccc(-c2c[nH]c(NC(CC3=C[C@H]4C=CC3CC4)c3ccccc3)[nH+]2)cc1

$$$$
