Nc1ccc(-c2c[nH]c(N[C@@H](CC(=O)c3ccn(-c4ccc(O)cc4)n3)c3ccccc3)[nH+]2)cc1
     RDKit          3D

 60 64  0  0  1  0  0  0  0  0999 V2000
  131.7489  129.4604  152.1736 N   0  0  0  0  0  0  0  0  0  0  0  0
  131.3649  130.1506  153.3259 C   0  0  0  0  0  0  0  0  0  0  0  0
  130.5795  131.2923  153.2214 C   0  0  0  0  0  0  0  0  0  0  0  0
  130.1994  131.9753  154.3575 C   0  0  0  0  0  0  0  0  0  0  0  0
  130.6034  131.5195  155.6114 C   0  0  0  0  0  0  0  0  0  0  0  0
  130.1956  132.2525  156.8350 C   0  0  0  0  0  0  0  0  0  0  0  0
  129.4595  131.7512  157.8573 C   0  0  0  0  0  0  0  0  0  0  0  0
  129.3163  132.7617  158.7785 N   0  0  0  0  0  0  0  0  0  0  0  0
  128.8380  132.7081  159.6207 H   0  0  0  0  0  0  0  0  0  0  0  0
  129.9699  133.8509  158.2906 C   0  0  0  0  0  0  0  0  0  0  0  0
  130.0656  135.0816  158.9174 N   0  0  0  0  0  0  0  0  0  0  0  0
  128.9899  135.5397  159.8000 C   0  0  1  0  0  0  0  0  0  0  0  0
  128.8690  134.8342  160.6221 H   0  0  0  0  0  0  0  0  0  0  0  0
  129.3420  136.9195  160.3596 C   0  0  0  0  0  0  0  0  0  0  0  0
  130.6286  136.8319  161.1395 C   0  0  0  0  0  0  0  0  0  0  0  0
  131.6899  137.0118  160.5806 O   0  0  0  0  0  0  0  0  0  0  0  0
  130.5974  136.5285  162.5765 C   0  0  0  0  0  0  0  0  0  0  0  0
  131.7171  136.4142  163.4384 C   0  0  0  0  0  0  0  0  0  0  0  0
  131.2083  136.1225  164.6573 C   0  0  0  0  0  0  0  0  0  0  0  0
  129.8562  136.0757  164.5278 N   0  0  0  0  0  0  0  0  0  0  0  0
  128.9592  135.8043  165.5696 C   0  0  0  0  0  0  0  0  0  0  0  0
  127.5925  135.7877  165.3231 C   0  0  0  0  0  0  0  0  0  0  0  0
  126.7097  135.5152  166.3486 C   0  0  0  0  0  0  0  0  0  0  0  0
  127.1869  135.2691  167.6283 C   0  0  0  0  0  0  0  0  0  0  0  0
  126.3168  135.0064  168.6389 O   0  0  0  0  0  0  0  0  0  0  0  0
  128.5520  135.2909  167.8765 C   0  0  0  0  0  0  0  0  0  0  0  0
  129.4361  135.5576  166.8505 C   0  0  0  0  0  0  0  0  0  0  0  0
  129.5202  136.3109  163.3102 N   0  0  0  0  0  0  0  0  0  0  0  0
  127.7032  135.6274  159.0201 C   0  0  0  0  0  0  0  0  0  0  0  0
  126.4941  135.4167  159.6559 C   0  0  0  0  0  0  0  0  0  0  0  0
  125.3135  135.5010  158.9415 C   0  0  0  0  0  0  0  0  0  0  0  0
  125.3430  135.7879  157.5895 C   0  0  0  0  0  0  0  0  0  0  0  0
  126.5526  135.9934  156.9527 C   0  0  0  0  0  0  0  0  0  0  0  0
  127.7327  135.9128  157.6680 C   0  0  0  0  0  0  0  0  0  0  0  0
  130.4891  133.5445  157.1267 N   0  0  0  0  0  0  0  0  0  0  0  0
  131.0033  134.1450  156.5647 H   0  0  0  0  0  0  0  0  0  0  0  0
  131.3957  130.3770  155.7135 C   0  0  0  0  0  0  0  0  0  0  0  0
  131.7682  129.6938  154.5751 C   0  0  0  0  0  0  0  0  0  0  0  0
  131.4672  129.7779  151.3015 H   0  0  0  0  0  0  0  0  0  0  0  0
  132.2967  128.6629  152.2457 H   0  0  0  0  0  0  0  0  0  0  0  0
  130.2672  131.6453  152.2497 H   0  0  0  0  0  0  0  0  0  0  0  0
  129.5889  132.8623  154.2758 H   0  0  0  0  0  0  0  0  0  0  0  0
  129.0616  130.7500  157.9334 H   0  0  0  0  0  0  0  0  0  0  0  0
  130.8449  135.6405  158.7722 H   0  0  0  0  0  0  0  0  0  0  0  0
  128.5416  137.2604  161.0162 H   0  0  0  0  0  0  0  0  0  0  0  0
  129.4628  137.6249  159.5376 H   0  0  0  0  0  0  0  0  0  0  0  0
  132.7582  136.5310  163.1758 H   0  0  0  0  0  0  0  0  0  0  0  0
  131.7712  135.9597  165.5646 H   0  0  0  0  0  0  0  0  0  0  0  0
  127.2208  135.9834  164.3282 H   0  0  0  0  0  0  0  0  0  0  0  0
  125.6471  135.4980  166.1561 H   0  0  0  0  0  0  0  0  0  0  0  0
  126.7421  134.8480  169.4929 H   0  0  0  0  0  0  0  0  0  0  0  0
  128.9229  135.0995  168.8726 H   0  0  0  0  0  0  0  0  0  0  0  0
  130.4986  135.5742  167.0437 H   0  0  0  0  0  0  0  0  0  0  0  0
  126.4713  135.1893  160.7115 H   0  0  0  0  0  0  0  0  0  0  0  0
  124.3686  135.3400  159.4389 H   0  0  0  0  0  0  0  0  0  0  0  0
  124.4209  135.8511  157.0307 H   0  0  0  0  0  0  0  0  0  0  0  0
  126.5755  136.2171  155.8965 H   0  0  0  0  0  0  0  0  0  0  0  0
  128.6778  136.0734  157.1705 H   0  0  0  0  0  0  0  0  0  0  0  0
  131.7135  130.0247  156.6836 H   0  0  0  0  0  0  0  0  0  0  0  0
  132.3784  128.8061  154.6540 H   0  0  0  0  0  0  0  0  0  0  0  0
  1  2  1  0
  1 39  1  0
  1 40  1  0
  2 38  2  0
  2  3  1  0
  3  4  2  0
  3 41  1  0
  4  5  1  0
  4 42  1  0
  5  6  1  0
  5 37  2  0
  6 35  1  0
  6  7  2  0
  7  8  1  0
  7 43  1  0
  8  9  1  0
  8 10  1  0
 10 11  1  0
 10 35  2  0
 11 12  1  0
 11 44  1  0
 12 13  1  1
 12 14  1  0
 12 29  1  0
 14 15  1  0
 14 45  1  0
 14 46  1  0
 15 16  2  0
 15 17  1  0
 17 28  2  0
 17 18  1  0
 18 19  2  0
 18 47  1  0
 19 20  1  0
 19 48  1  0
 20 21  1  0
 20 28  1  0
 21 27  1  0
 21 22  2  0
 22 23  1  0
 22 49  1  0
 23 24  2  0
 23 50  1  0
 24 25  1  0
 24 26  1  0
 25 51  1  0
 26 27  2  0
 26 52  1  0
 27 53  1  0
 29 34  1  0
 29 30  2  0
 30 31  1  0
 30 54  1  0
 31 32  2  0
 31 55  1  0
 32 33  1  0
 32 56  1  0
 33 34  2  0
 33 57  1  0
 34 58  1  0
 35 36  1  0
 37 38  1  0
 37 59  1  0
 38 60  1  0
M  CHG  1  35   1
M  END
>  <DOCK_score>  (1) 
-61.587139

>  <SMILES>  (1) 
Nc1ccc(-c2c[nH]c(N[C@@H](CC(=O)c3ccn(-c4ccc(O)cc4)n3)c3ccccc3)[nH+]2)cc1

$$$$
