O=C1CC[C@H]([NH+]=C(NC2CC=CC2)N[C@@H]2CC=C(c3ccc(F)cc3)CC2)CN1
     RDKit          3D

 59 62  0  0  1  0  0  0  0  0999 V2000
  124.2275  134.0569  161.1542 O   0  0  0  0  0  0  0  0  0  0  0  0
  125.3925  134.2551  160.8816 C   0  0  0  0  0  0  0  0  0  0  0  0
  126.2034  133.1078  160.3513 C   0  0  0  0  0  0  0  0  0  0  0  0
  127.6960  133.4197  160.4839 C   0  0  0  0  0  0  0  0  0  0  0  0
  127.9504  134.8222  159.9184 C   0  0  2  0  0  0  0  0  0  0  0  0
  127.5337  134.8953  158.9138 H   0  0  0  0  0  0  0  0  0  0  0  0
  129.3919  135.0796  159.8723 N   0  0  0  0  0  0  0  0  0  0  0  0
  129.7680  135.8225  160.3698 H   0  0  0  0  0  0  0  0  0  0  0  0
  130.1688  134.3105  159.1627 C   0  0  0  0  0  0  0  0  0  0  0  0
  129.6835  133.6998  158.0306 N   0  0  0  0  0  0  0  0  0  0  0  0
  130.5568  132.8352  157.2328 C   0  0  0  0  0  0  0  0  0  0  0  0
  130.0344  132.7042  155.7834 C   0  0  0  0  0  0  0  0  0  0  0  0
  130.3164  131.2696  155.4018 C   0  0  0  0  0  0  0  0  0  0  0  0
  130.5599  130.5416  156.4573 C   0  0  0  0  0  0  0  0  0  0  0  0
  130.4810  131.3692  157.7191 C   0  0  0  0  0  0  0  0  0  0  0  0
  131.4738  134.1097  159.5464 N   0  0  0  0  0  0  0  0  0  0  0  0
  131.9909  134.7603  160.7527 C   0  0  2  0  0  0  0  0  0  0  0  0
  131.1842  134.8972  161.4729 H   0  0  0  0  0  0  0  0  0  0  0  0
  132.5899  136.1201  160.3870 C   0  0  0  0  0  0  0  0  0  0  0  0
  133.3441  136.6823  161.5565 C   0  0  0  0  0  0  0  0  0  0  0  0
  133.7442  135.9667  162.5797 C   0  0  0  0  0  0  0  0  0  0  0  0
  134.4926  136.6494  163.6559 C   0  0  0  0  0  0  0  0  0  0  0  0
  133.9946  136.6559  164.9595 C   0  0  0  0  0  0  0  0  0  0  0  0
  134.6967  137.2949  165.9601 C   0  0  0  0  0  0  0  0  0  0  0  0
  135.8918  137.9344  165.6715 C   0  0  0  0  0  0  0  0  0  0  0  0
  136.5727  138.5638  166.6541 F   0  0  0  0  0  0  0  0  0  0  0  0
  136.3935  137.9258  164.3799 C   0  0  0  0  0  0  0  0  0  0  0  0
  135.6994  137.2898  163.3720 C   0  0  0  0  0  0  0  0  0  0  0  0
  133.4815  134.4962  162.7252 C   0  0  0  0  0  0  0  0  0  0  0  0
  133.0939  133.8939  161.3729 C   0  0  0  0  0  0  0  0  0  0  0  0
  127.2750  135.8476  160.8298 C   0  0  0  0  0  0  0  0  0  0  0  0
  125.8850  135.4802  161.0691 N   0  0  0  0  0  0  0  0  0  0  0  0
  125.9701  132.2068  160.9186 H   0  0  0  0  0  0  0  0  0  0  0  0
  125.9590  132.9464  159.3014 H   0  0  0  0  0  0  0  0  0  0  0  0
  128.2754  132.6869  159.9223 H   0  0  0  0  0  0  0  0  0  0  0  0
  127.9849  133.3897  161.5344 H   0  0  0  0  0  0  0  0  0  0  0  0
  128.7628  133.8413  157.7599 H   0  0  0  0  0  0  0  0  0  0  0  0
  131.5840  133.1997  157.2479 H   0  0  0  0  0  0  0  0  0  0  0  0
  128.9634  132.9036  155.7463 H   0  0  0  0  0  0  0  0  0  0  0  0
  130.5714  133.3853  155.1232 H   0  0  0  0  0  0  0  0  0  0  0  0
  130.3168  130.8957  154.3885 H   0  0  0  0  0  0  0  0  0  0  0  0
  130.7882  129.4863  156.4324 H   0  0  0  0  0  0  0  0  0  0  0  0
  131.3216  131.1427  158.3750 H   0  0  0  0  0  0  0  0  0  0  0  0
  129.5381  131.1888  158.2354 H   0  0  0  0  0  0  0  0  0  0  0  0
  132.0520  133.5373  159.0182 H   0  0  0  0  0  0  0  0  0  0  0  0
  133.2656  136.0013  159.5401 H   0  0  0  0  0  0  0  0  0  0  0  0
  131.7879  136.8069  160.1159 H   0  0  0  0  0  0  0  0  0  0  0  0
  133.5747  137.7374  161.5531 H   0  0  0  0  0  0  0  0  0  0  0  0
  133.0613  136.1614  165.1847 H   0  0  0  0  0  0  0  0  0  0  0  0
  134.3123  137.3007  166.9693 H   0  0  0  0  0  0  0  0  0  0  0  0
  137.3277  138.4219  164.1611 H   0  0  0  0  0  0  0  0  0  0  0  0
  136.0893  137.2873  162.3649 H   0  0  0  0  0  0  0  0  0  0  0  0
  134.3804  134.0034  163.0958 H   0  0  0  0  0  0  0  0  0  0  0  0
  132.6673  134.3428  163.4334 H   0  0  0  0  0  0  0  0  0  0  0  0
  133.9629  133.8811  160.7151 H   0  0  0  0  0  0  0  0  0  0  0  0
  132.7281  132.8772  161.5162 H   0  0  0  0  0  0  0  0  0  0  0  0
  127.8056  135.8889  161.7810 H   0  0  0  0  0  0  0  0  0  0  0  0
  127.3119  136.8292  160.3573 H   0  0  0  0  0  0  0  0  0  0  0  0
  125.2803  136.1698  161.3849 H   0  0  0  0  0  0  0  0  0  0  0  0
  1  2  2  0
  2 32  1  0
  2  3  1  0
  3  4  1  0
  3 33  1  0
  3 34  1  0
  4  5  1  0
  4 35  1  0
  4 36  1  0
  5  6  1  6
  5  7  1  0
  5 31  1  0
  7  8  1  0
  9  7  2  0
  9 10  1  0
  9 16  1  0
 10 11  1  0
 10 37  1  0
 11 15  1  0
 11 12  1  0
 11 38  1  0
 12 13  1  0
 12 39  1  0
 12 40  1  0
 13 14  2  0
 13 41  1  0
 14 15  1  0
 14 42  1  0
 15 43  1  0
 15 44  1  0
 16 17  1  0
 16 45  1  0
 17 18  1  1
 17 30  1  0
 17 19  1  0
 19 20  1  0
 19 46  1  0
 19 47  1  0
 20 21  2  0
 20 48  1  0
 21 22  1  0
 21 29  1  0
 22 28  1  0
 22 23  2  0
 23 24  1  0
 23 49  1  0
 24 25  2  0
 24 50  1  0
 25 26  1  0
 25 27  1  0
 27 28  2  0
 27 51  1  0
 28 52  1  0
 29 30  1  0
 29 53  1  0
 29 54  1  0
 30 55  1  0
 30 56  1  0
 31 32  1  0
 31 57  1  0
 31 58  1  0
 32 59  1  0
M  CHG  1   7   1
M  END
>  <DOCK_score>  (1) 
-42.608025

>  <SMILES>  (1) 
O=C1CC[C@H]([NH+]=C(NC2CC=CC2)N[C@@H]2CC=C(c3ccc(F)cc3)CC2)CN1

$$$$
