O=C1CC[C@H](Nc2ccc(C[C@H](NC3=[NH+]CC(O)CN3)c3ccccc3)cc2)CN1
     RDKit          3D

 60 63  0  0  1  0  0  0  0  0999 V2000
  131.2099  138.0724  166.7355 O   0  0  0  0  0  0  0  0  0  0  0  0
  130.2282  137.8022  166.0764 C   0  0  0  0  0  0  0  0  0  0  0  0
  129.3229  136.7084  166.5654 C   0  0  0  0  0  0  0  0  0  0  0  0
  128.4241  136.2268  165.4238 C   0  0  0  0  0  0  0  0  0  0  0  0
  127.7968  137.4533  164.7505 C   0  0  2  0  0  0  0  0  0  0  0  0
  127.3222  138.0816  165.5043 H   0  0  0  0  0  0  0  0  0  0  0  0
  126.7994  137.0189  163.7692 N   0  0  0  0  0  0  0  0  0  0  0  0
  127.1808  136.2067  162.6987 C   0  0  0  0  0  0  0  0  0  0  0  0
  127.1457  134.8241  162.8270 C   0  0  0  0  0  0  0  0  0  0  0  0
  127.5188  134.0240  161.7649 C   0  0  0  0  0  0  0  0  0  0  0  0
  127.9370  134.5979  160.5783 C   0  0  0  0  0  0  0  0  0  0  0  0
  128.3483  133.7217  159.4233 C   0  0  0  0  0  0  0  0  0  0  0  0
  129.8475  133.4298  159.5132 C   0  0  2  0  0  0  0  0  0  0  0  0
  130.0624  132.9187  160.4517 H   0  0  0  0  0  0  0  0  0  0  0  0
  130.5942  134.6891  159.4609 N   0  0  0  0  0  0  0  0  0  0  0  0
  131.4041  135.0480  160.5033 C   0  0  0  0  0  0  0  0  0  0  0  0
  131.0792  134.6450  161.7225 N   0  0  0  0  0  0  0  0  0  0  0  0
  130.2789  134.1112  161.8474 H   0  0  0  0  0  0  0  0  0  0  0  0
  131.9027  134.9816  162.8850 C   0  0  0  0  0  0  0  0  0  0  0  0
  132.6095  136.3169  162.6255 C   0  0  1  0  0  0  0  0  0  0  0  0
  133.5123  136.6003  163.6963 O   0  0  0  0  0  0  0  0  0  0  0  0
  133.3881  136.2047  161.3098 C   0  0  0  0  0  0  0  0  0  0  0  0
  132.4732  135.7865  160.2465 N   0  0  0  0  0  0  0  0  0  0  0  0
  130.2589  132.5536  158.3582 C   0  0  0  0  0  0  0  0  0  0  0  0
  130.2238  131.1778  158.4876 C   0  0  0  0  0  0  0  0  0  0  0  0
  130.5960  130.3740  157.4264 C   0  0  0  0  0  0  0  0  0  0  0  0
  131.0141  130.9461  156.2394 C   0  0  0  0  0  0  0  0  0  0  0  0
  131.0542  132.3221  156.1118 C   0  0  0  0  0  0  0  0  0  0  0  0
  130.6766  133.1257  157.1712 C   0  0  0  0  0  0  0  0  0  0  0  0
  127.9780  135.9740  160.4489 C   0  0  0  0  0  0  0  0  0  0  0  0
  127.6013  136.7799  161.5054 C   0  0  0  0  0  0  0  0  0  0  0  0
  128.8970  138.2468  164.0484 C   0  0  0  0  0  0  0  0  0  0  0  0
  130.0108  138.4920  164.9560 N   0  0  0  0  0  0  0  0  0  0  0  0
  129.9249  135.8754  166.9285 H   0  0  0  0  0  0  0  0  0  0  0  0
  128.7038  137.0873  167.3785 H   0  0  0  0  0  0  0  0  0  0  0  0
  129.0189  135.6733  164.6972 H   0  0  0  0  0  0  0  0  0  0  0  0
  127.6389  135.5838  165.8214 H   0  0  0  0  0  0  0  0  0  0  0  0
  125.8743  137.2953  163.8628 H   0  0  0  0  0  0  0  0  0  0  0  0
  126.8234  134.3752  163.7549 H   0  0  0  0  0  0  0  0  0  0  0  0
  127.4878  132.9488  161.8626 H   0  0  0  0  0  0  0  0  0  0  0  0
  127.7928  132.7846  159.4622 H   0  0  0  0  0  0  0  0  0  0  0  0
  128.1332  134.2328  158.4849 H   0  0  0  0  0  0  0  0  0  0  0  0
  130.5143  135.2687  158.6871 H   0  0  0  0  0  0  0  0  0  0  0  0
  132.6461  134.2012  163.0476 H   0  0  0  0  0  0  0  0  0  0  0  0
  131.2684  135.0702  163.7668 H   0  0  0  0  0  0  0  0  0  0  0  0
  131.8705  137.1142  162.5478 H   0  0  0  0  0  0  0  0  0  0  0  0
  134.0051  137.4252  163.5873 H   0  0  0  0  0  0  0  0  0  0  0  0
  134.1826  135.4664  161.4183 H   0  0  0  0  0  0  0  0  0  0  0  0
  133.8216  137.1725  161.0578 H   0  0  0  0  0  0  0  0  0  0  0  0
  132.6543  136.0562  159.3326 H   0  0  0  0  0  0  0  0  0  0  0  0
  129.9017  130.7308  159.4166 H   0  0  0  0  0  0  0  0  0  0  0  0
  130.5644  129.2991  157.5259 H   0  0  0  0  0  0  0  0  0  0  0  0
  131.3092  130.3182  155.4117 H   0  0  0  0  0  0  0  0  0  0  0  0
  131.3809  132.7690  155.1844 H   0  0  0  0  0  0  0  0  0  0  0  0
  130.7082  134.2007  157.0715 H   0  0  0  0  0  0  0  0  0  0  0  0
  128.3054  136.4191  159.5211 H   0  0  0  0  0  0  0  0  0  0  0  0
  127.6333  137.8547  161.4036 H   0  0  0  0  0  0  0  0  0  0  0  0
  128.4940  139.2002  163.7069 H   0  0  0  0  0  0  0  0  0  0  0  0
  129.2517  137.6799  163.1878 H   0  0  0  0  0  0  0  0  0  0  0  0
  130.6306  139.2042  164.7332 H   0  0  0  0  0  0  0  0  0  0  0  0
  1  2  2  0
  2 33  1  0
  2  3  1  0
  3  4  1  0
  3 34  1  0
  3 35  1  0
  4  5  1  0
  4 36  1  0
  4 37  1  0
  5  6  1  1
  5  7  1  0
  5 32  1  0
  7  8  1  0
  7 38  1  0
  8 31  1  0
  8  9  2  0
  9 10  1  0
  9 39  1  0
 10 11  2  0
 10 40  1  0
 11 12  1  0
 11 30  1  0
 12 13  1  0
 12 41  1  0
 12 42  1  0
 13 14  1  1
 13 15  1  0
 13 24  1  0
 15 43  1  0
 16 15  1  0
 16 23  2  0
 16 17  1  0
 17 18  1  0
 17 19  1  0
 19 20  1  0
 19 44  1  0
 19 45  1  0
 20 21  1  0
 20 22  1  0
 20 46  1  6
 21 47  1  0
 22 23  1  0
 22 48  1  0
 22 49  1  0
 23 50  1  0
 24 29  1  0
 24 25  2  0
 25 26  1  0
 25 51  1  0
 26 27  2  0
 26 52  1  0
 27 28  1  0
 27 53  1  0
 28 29  2  0
 28 54  1  0
 29 55  1  0
 30 31  2  0
 30 56  1  0
 31 57  1  0
 32 33  1  0
 32 58  1  0
 32 59  1  0
 33 60  1  0
M  CHG  1  23   1
M  END
>  <DOCK_score>  (1) 
-44.12315

>  <SMILES>  (1) 
O=C1CC[C@H](Nc2ccc(C[C@H](NC3=[NH+]CC(O)CN3)c3ccccc3)cc2)CN1

$$$$
