c1ccc(-c2ccc(-c3c[nH]c(N[C@H](c4ccccc4)c4cncc5ccccc45)[nH+]3)cc2)cc1
     RDKit          3D

 60 65  0  0  1  0  0  0  0  0999 V2000
  130.3889  128.7351  151.3738 C   0  0  0  0  0  0  0  0  0  0  0  0
  129.6581  129.9057  151.4689 C   0  0  0  0  0  0  0  0  0  0  0  0
  129.6948  130.6528  152.6286 C   0  0  0  0  0  0  0  0  0  0  0  0
  130.4698  130.2256  153.7056 C   0  0  0  0  0  0  0  0  0  0  0  0
  130.5137  131.0244  154.9543 C   0  0  0  0  0  0  0  0  0  0  0  0
  130.3454  132.4077  154.9033 C   0  0  0  0  0  0  0  0  0  0  0  0
  130.3864  133.1499  156.0629 C   0  0  0  0  0  0  0  0  0  0  0  0
  130.5964  132.5175  157.2885 C   0  0  0  0  0  0  0  0  0  0  0  0
  130.6413  133.3161  158.5366 C   0  0  0  0  0  0  0  0  0  0  0  0
  130.2782  132.8882  159.7718 C   0  0  0  0  0  0  0  0  0  0  0  0
  130.4777  133.9398  160.6324 N   0  0  0  0  0  0  0  0  0  0  0  0
  130.3077  133.9408  161.5874 H   0  0  0  0  0  0  0  0  0  0  0  0
  130.9571  134.9806  159.8979 C   0  0  0  0  0  0  0  0  0  0  0  0
  131.2887  136.2306  160.3918 N   0  0  0  0  0  0  0  0  0  0  0  0
  131.1322  136.5193  161.8194 C   0  0  2  0  0  0  0  0  0  0  0  0
  130.2095  136.0668  162.1827 H   0  0  0  0  0  0  0  0  0  0  0  0
  131.0757  138.0109  162.0271 C   0  0  0  0  0  0  0  0  0  0  0  0
  132.2397  138.7217  162.2528 C   0  0  0  0  0  0  0  0  0  0  0  0
  132.1885  140.0906  162.4388 C   0  0  0  0  0  0  0  0  0  0  0  0
  130.9724  140.7471  162.4088 C   0  0  0  0  0  0  0  0  0  0  0  0
  129.8081  140.0356  162.1879 C   0  0  0  0  0  0  0  0  0  0  0  0
  129.8597  138.6674  161.9974 C   0  0  0  0  0  0  0  0  0  0  0  0
  132.3033  135.9504  162.5784 C   0  0  0  0  0  0  0  0  0  0  0  0
  133.2978  135.2868  161.9258 C   0  0  0  0  0  0  0  0  0  0  0  0
  134.3386  134.7769  162.5695 N   0  0  0  0  0  0  0  0  0  0  0  0
  134.4867  134.8730  163.8703 C   0  0  0  0  0  0  0  0  0  0  0  0
  133.5173  135.5388  164.6372 C   0  0  0  0  0  0  0  0  0  0  0  0
  133.6290  135.6688  166.0304 C   0  0  0  0  0  0  0  0  0  0  0  0
  132.6651  136.3382  166.7212 C   0  0  0  0  0  0  0  0  0  0  0  0
  131.5606  136.8841  166.0696 C   0  0  0  0  0  0  0  0  0  0  0  0
  131.4161  136.7729  164.7197 C   0  0  0  0  0  0  0  0  0  0  0  0
  132.3942  136.0992  163.9740 C   0  0  0  0  0  0  0  0  0  0  0  0
  131.0583  134.6025  158.6471 N   0  0  0  0  0  0  0  0  0  0  0  0
  131.3780  135.1550  157.9167 H   0  0  0  0  0  0  0  0  0  0  0  0
  130.7642  131.1337  157.3394 C   0  0  0  0  0  0  0  0  0  0  0  0
  130.7236  130.3920  156.1795 C   0  0  0  0  0  0  0  0  0  0  0  0
  131.2078  129.0476  153.6023 C   0  0  0  0  0  0  0  0  0  0  0  0
  131.1597  128.3061  152.4393 C   0  0  0  0  0  0  0  0  0  0  0  0
  130.3578  128.1539  150.4641 H   0  0  0  0  0  0  0  0  0  0  0  0
  129.0580  130.2358  150.6338 H   0  0  0  0  0  0  0  0  0  0  0  0
  129.1244  131.5670  152.7015 H   0  0  0  0  0  0  0  0  0  0  0  0
  130.1831  132.8974  153.9545 H   0  0  0  0  0  0  0  0  0  0  0  0
  130.2606  134.2218  156.0229 H   0  0  0  0  0  0  0  0  0  0  0  0
  129.9035  131.9084  160.0291 H   0  0  0  0  0  0  0  0  0  0  0  0
  131.6247  136.9153  159.7925 H   0  0  0  0  0  0  0  0  0  0  0  0
  133.1894  138.2081  162.2803 H   0  0  0  0  0  0  0  0  0  0  0  0
  133.0982  140.6466  162.6111 H   0  0  0  0  0  0  0  0  0  0  0  0
  130.9320  141.8161  162.5576 H   0  0  0  0  0  0  0  0  0  0  0  0
  128.8579  140.5486  162.1644 H   0  0  0  0  0  0  0  0  0  0  0  0
  128.9499  138.1115  161.8252 H   0  0  0  0  0  0  0  0  0  0  0  0
  133.2365  135.1724  160.8536 H   0  0  0  0  0  0  0  0  0  0  0  0
  135.3524  134.4407  164.3495 H   0  0  0  0  0  0  0  0  0  0  0  0
  134.4793  135.2513  166.5494 H   0  0  0  0  0  0  0  0  0  0  0  0
  132.7541  136.4410  167.7926 H   0  0  0  0  0  0  0  0  0  0  0  0
  130.8073  137.4030  166.6438 H   0  0  0  0  0  0  0  0  0  0  0  0
  130.5552  137.2007  164.2274 H   0  0  0  0  0  0  0  0  0  0  0  0
  130.9268  130.6439  158.2880 H   0  0  0  0  0  0  0  0  0  0  0  0
  130.8539  129.3205  156.2188 H   0  0  0  0  0  0  0  0  0  0  0  0
  131.8136  128.7141  154.4319 H   0  0  0  0  0  0  0  0  0  0  0  0
  131.7283  127.3913  152.3595 H   0  0  0  0  0  0  0  0  0  0  0  0
  1 38  2  0
  1  2  1  0
  1 39  1  0
  2  3  2  0
  2 40  1  0
  3  4  1  0
  3 41  1  0
  4  5  1  0
  4 37  2  0
  5 36  1  0
  5  6  2  0
  6  7  1  0
  6 42  1  0
  7  8  2  0
  7 43  1  0
  8  9  1  0
  8 35  1  0
  9 33  1  0
  9 10  2  0
 10 11  1  0
 10 44  1  0
 11 12  1  0
 11 13  1  0
 13 14  1  0
 13 33  2  0
 14 15  1  0
 14 45  1  0
 15 16  1  1
 15 17  1  0
 15 23  1  0
 17 22  1  0
 17 18  2  0
 18 19  1  0
 18 46  1  0
 19 20  2  0
 19 47  1  0
 20 21  1  0
 20 48  1  0
 21 22  2  0
 21 49  1  0
 22 50  1  0
 23 32  1  0
 23 24  2  0
 24 25  1  0
 24 51  1  0
 25 26  2  0
 26 27  1  0
 26 52  1  0
 27 32  2  0
 27 28  1  0
 28 29  2  0
 28 53  1  0
 29 30  1  0
 29 54  1  0
 30 31  2  0
 30 55  1  0
 31 32  1  0
 31 56  1  0
 33 34  1  0
 35 36  2  0
 35 57  1  0
 36 58  1  0
 37 38  1  0
 37 59  1  0
 38 60  1  0
M  CHG  1  33   1
M  END
>  <DOCK_score>  (1) 
-57.704891

>  <SMILES>  (1) 
c1ccc(-c2ccc(-c3c[nH]c(N[C@H](c4ccccc4)c4cncc5ccccc45)[nH+]3)cc2)cc1

$$$$
