CCc1ccc(-c2c[nH]c(Nc3ccccc3Nc3ccccc3N)[nH+]2)cc1
     RDKit          3D

 52 55  0  0  1  0  0  0  0  0999 V2000
  130.0649  128.5410  150.8842 C   0  0  0  0  0  0  0  0  0  0  0  0
  131.1778  129.5512  151.1694 C   0  0  0  0  0  0  0  0  0  0  0  0
  130.8830  130.2728  152.4591 C   0  0  0  0  0  0  0  0  0  0  0  0
  131.3542  129.7648  153.6559 C   0  0  0  0  0  0  0  0  0  0  0  0
  131.0922  130.4241  154.8396 C   0  0  0  0  0  0  0  0  0  0  0  0
  130.3415  131.5984  154.8287 C   0  0  0  0  0  0  0  0  0  0  0  0
  130.0518  132.3087  156.0982 C   0  0  0  0  0  0  0  0  0  0  0  0
  129.3844  131.7994  157.1635 C   0  0  0  0  0  0  0  0  0  0  0  0
  129.3422  132.7870  158.1167 N   0  0  0  0  0  0  0  0  0  0  0  0
  128.9299  132.7229  158.9925 H   0  0  0  0  0  0  0  0  0  0  0  0
  129.9857  133.8724  157.6059 C   0  0  0  0  0  0  0  0  0  0  0  0
  130.1643  135.0832  158.2539 N   0  0  0  0  0  0  0  0  0  0  0  0
  129.2178  135.5244  159.1869 C   0  0  0  0  0  0  0  0  0  0  0  0
  127.8870  135.1575  159.0543 C   0  0  0  0  0  0  0  0  0  0  0  0
  126.9542  135.5941  159.9765 C   0  0  0  0  0  0  0  0  0  0  0  0
  127.3436  136.3975  161.0327 C   0  0  0  0  0  0  0  0  0  0  0  0
  128.6678  136.7683  161.1730 C   0  0  0  0  0  0  0  0  0  0  0  0
  129.6118  136.3298  160.2559 C   0  0  0  0  0  0  0  0  0  0  0  0
  130.9539  136.6988  160.3992 N   0  0  0  0  0  0  0  0  0  0  0  0
  131.4843  136.9288  161.6742 C   0  0  0  0  0  0  0  0  0  0  0  0
  132.0081  138.1721  161.9956 C   0  0  0  0  0  0  0  0  0  0  0  0
  132.5313  138.3970  163.2555 C   0  0  0  0  0  0  0  0  0  0  0  0
  132.5351  137.3850  164.1977 C   0  0  0  0  0  0  0  0  0  0  0  0
  132.0151  136.1424  163.8858 C   0  0  0  0  0  0  0  0  0  0  0  0
  131.4826  135.9098  162.6269 C   0  0  0  0  0  0  0  0  0  0  0  0
  130.9502  134.6542  162.3109 N   0  0  0  0  0  0  0  0  0  0  0  0
  130.4125  133.5806  156.4013 N   0  0  0  0  0  0  0  0  0  0  0  0
  130.9057  134.1793  155.8190 H   0  0  0  0  0  0  0  0  0  0  0  0
  129.8643  132.1030  153.6201 C   0  0  0  0  0  0  0  0  0  0  0  0
  130.1371  131.4381  152.4420 C   0  0  0  0  0  0  0  0  0  0  0  0
  130.0116  127.8200  151.6998 H   0  0  0  0  0  0  0  0  0  0  0  0
  129.1123  129.0639  150.7986 H   0  0  0  0  0  0  0  0  0  0  0  0
  130.2779  128.0193  149.9513 H   0  0  0  0  0  0  0  0  0  0  0  0
  132.1301  129.0290  151.2545 H   0  0  0  0  0  0  0  0  0  0  0  0
  131.2310  130.2729  150.3534 H   0  0  0  0  0  0  0  0  0  0  0  0
  131.9320  128.8523  153.6637 H   0  0  0  0  0  0  0  0  0  0  0  0
  131.4644  130.0287  155.7731 H   0  0  0  0  0  0  0  0  0  0  0  0
  128.9660  130.8072  157.2460 H   0  0  0  0  0  0  0  0  0  0  0  0
  130.9451  135.6257  158.0616 H   0  0  0  0  0  0  0  0  0  0  0  0
  127.5791  134.5307  158.2304 H   0  0  0  0  0  0  0  0  0  0  0  0
  125.9184  135.3074  159.8717 H   0  0  0  0  0  0  0  0  0  0  0  0
  126.6107  136.7365  161.7498 H   0  0  0  0  0  0  0  0  0  0  0  0
  128.9683  137.3959  161.9990 H   0  0  0  0  0  0  0  0  0  0  0  0
  131.5168  136.7952  159.6152 H   0  0  0  0  0  0  0  0  0  0  0  0
  132.0074  138.9647  161.2619 H   0  0  0  0  0  0  0  0  0  0  0  0
  132.9388  139.3658  163.5042 H   0  0  0  0  0  0  0  0  0  0  0  0
  132.9458  137.5657  165.1801 H   0  0  0  0  0  0  0  0  0  0  0  0
  132.0200  135.3542  164.6242 H   0  0  0  0  0  0  0  0  0  0  0  0
  130.5819  134.4917  161.4283 H   0  0  0  0  0  0  0  0  0  0  0  0
  130.9497  133.9466  162.9744 H   0  0  0  0  0  0  0  0  0  0  0  0
  129.2817  133.0123  153.6060 H   0  0  0  0  0  0  0  0  0  0  0  0
  129.7676  131.8281  151.5051 H   0  0  0  0  0  0  0  0  0  0  0  0
  1  2  1  0
  1 31  1  0
  1 32  1  0
  1 33  1  0
  2  3  1  0
  2 34  1  0
  2 35  1  0
  3 30  2  0
  3  4  1  0
  4  5  2  0
  4 36  1  0
  5  6  1  0
  5 37  1  0
  6  7  1  0
  6 29  2  0
  7 27  1  0
  7  8  2  0
  8  9  1  0
  8 38  1  0
  9 10  1  0
  9 11  1  0
 11 12  1  0
 11 27  2  0
 12 13  1  0
 12 39  1  0
 13 18  1  0
 13 14  2  0
 14 15  1  0
 14 40  1  0
 15 16  2  0
 15 41  1  0
 16 17  1  0
 16 42  1  0
 17 18  2  0
 17 43  1  0
 18 19  1  0
 19 20  1  0
 19 44  1  0
 20 25  1  0
 20 21  2  0
 21 22  1  0
 21 45  1  0
 22 23  2  0
 22 46  1  0
 23 24  1  0
 23 47  1  0
 24 25  2  0
 24 48  1  0
 25 26  1  0
 26 49  1  0
 26 50  1  0
 27 28  1  0
 29 30  1  0
 29 51  1  0
 30 52  1  0
M  CHG  1  27   1
M  END
>  <DOCK_score>  (1) 
-62.199799

>  <SMILES>  (1) 
CCc1ccc(-c2c[nH]c(Nc3ccccc3Nc3ccccc3N)[nH+]2)cc1

$$$$
