c1ccc2c(NC3CC[C@H](c4ccc(Nc5ccc(NC6=[NH+]CCN6)cc5)cc4)C3)cccc2c1
     RDKit          3D

 67 72  0  0  1  0  0  0  0  0999 V2000
  135.2519  136.2345  166.9247 C   0  0  0  0  0  0  0  0  0  0  0  0
  134.0740  135.6483  166.4660 C   0  0  0  0  0  0  0  0  0  0  0  0
  132.9557  135.6232  167.2425 C   0  0  0  0  0  0  0  0  0  0  0  0
  132.9865  136.1952  168.5237 C   0  0  0  0  0  0  0  0  0  0  0  0
  131.8482  136.1831  169.3589 C   0  0  0  0  0  0  0  0  0  0  0  0
  130.6621  135.5971  168.9220 N   0  0  0  0  0  0  0  0  0  0  0  0
  129.4417  136.4013  168.8208 C   0  0  2  0  0  0  0  0  0  0  0  0
  128.1834  135.5013  168.8960 C   0  0  0  0  0  0  0  0  0  0  0  0
  127.0869  136.3244  168.1892 C   0  0  0  0  0  0  0  0  0  0  0  0
  127.8101  137.3035  167.2478 C   0  0  2  0  0  0  0  0  0  0  0  0
  127.5762  138.3310  167.5266 H   0  0  0  0  0  0  0  0  0  0  0  0
  127.3972  137.0494  165.8209 C   0  0  0  0  0  0  0  0  0  0  0  0
  127.6281  135.8131  165.2456 C   0  0  0  0  0  0  0  0  0  0  0  0
  127.2458  135.5751  163.9401 C   0  0  0  0  0  0  0  0  0  0  0  0
  126.6386  136.5827  163.2011 C   0  0  0  0  0  0  0  0  0  0  0  0
  126.2553  136.3468  161.8790 N   0  0  0  0  0  0  0  0  0  0  0  0
  127.2141  135.9865  160.9256 C   0  0  0  0  0  0  0  0  0  0  0  0
  126.8595  135.1744  159.8560 C   0  0  0  0  0  0  0  0  0  0  0  0
  127.8048  134.8224  158.9134 C   0  0  0  0  0  0  0  0  0  0  0  0
  129.1124  135.2719  159.0402 C   0  0  0  0  0  0  0  0  0  0  0  0
  130.0731  134.9104  158.0857 N   0  0  0  0  0  0  0  0  0  0  0  0
  129.9668  133.7153  157.4258 C   0  0  0  0  0  0  0  0  0  0  0  0
  129.4120  132.6447  157.9707 N   0  0  0  0  0  0  0  0  0  0  0  0
  129.0369  132.5997  158.8641 H   0  0  0  0  0  0  0  0  0  0  0  0
  129.4509  131.5344  157.0062 C   0  0  0  0  0  0  0  0  0  0  0  0
  130.1493  132.1508  155.7772 C   0  0  0  0  0  0  0  0  0  0  0  0
  130.4155  133.5365  156.1939 N   0  0  0  0  0  0  0  0  0  0  0  0
  129.4684  136.0797  160.1118 C   0  0  0  0  0  0  0  0  0  0  0  0
  128.5223  136.4360  161.0520 C   0  0  0  0  0  0  0  0  0  0  0  0
  126.4133  137.8253  163.7804 C   0  0  0  0  0  0  0  0  0  0  0  0
  126.7933  138.0548  165.0880 C   0  0  0  0  0  0  0  0  0  0  0  0
  129.3209  137.0411  167.4154 C   0  0  0  0  0  0  0  0  0  0  0  0
  131.9196  136.7605  170.6085 C   0  0  0  0  0  0  0  0  0  0  0  0
  133.1017  137.3435  171.0563 C   0  0  0  0  0  0  0  0  0  0  0  0
  134.2155  137.3651  170.2738 C   0  0  0  0  0  0  0  0  0  0  0  0
  134.1832  136.7919  168.9910 C   0  0  0  0  0  0  0  0  0  0  0  0
  135.3180  136.7990  168.1614 C   0  0  0  0  0  0  0  0  0  0  0  0
  136.1252  136.2415  166.2892 H   0  0  0  0  0  0  0  0  0  0  0  0
  134.0477  135.2072  165.4806 H   0  0  0  0  0  0  0  0  0  0  0  0
  132.0495  135.1655  166.8742 H   0  0  0  0  0  0  0  0  0  0  0  0
  130.6444  134.6567  168.6850 H   0  0  0  0  0  0  0  0  0  0  0  0
  129.4197  137.1665  169.5968 H   0  0  0  0  0  0  0  0  0  0  0  0
  128.3542  134.5621  168.3698 H   0  0  0  0  0  0  0  0  0  0  0  0
  127.9100  135.3138  169.9344 H   0  0  0  0  0  0  0  0  0  0  0  0
  126.5020  136.8769  168.9247 H   0  0  0  0  0  0  0  0  0  0  0  0
  126.4363  135.6654  167.6142 H   0  0  0  0  0  0  0  0  0  0  0  0
  128.1039  135.0317  165.8194 H   0  0  0  0  0  0  0  0  0  0  0  0
  127.4229  134.6083  163.4927 H   0  0  0  0  0  0  0  0  0  0  0  0
  125.3238  136.4331  161.6211 H   0  0  0  0  0  0  0  0  0  0  0  0
  125.8432  134.8213  159.7597 H   0  0  0  0  0  0  0  0  0  0  0  0
  127.5282  134.1940  158.0797 H   0  0  0  0  0  0  0  0  0  0  0  0
  130.8133  135.5069  157.8927 H   0  0  0  0  0  0  0  0  0  0  0  0
  128.4429  131.2074  156.7511 H   0  0  0  0  0  0  0  0  0  0  0  0
  130.0341  130.7031  157.4025 H   0  0  0  0  0  0  0  0  0  0  0  0
  129.4891  132.1307  154.9102 H   0  0  0  0  0  0  0  0  0  0  0  0
  131.0817  131.6284  155.5633 H   0  0  0  0  0  0  0  0  0  0  0  0
  130.8515  134.2122  155.6514 H   0  0  0  0  0  0  0  0  0  0  0  0
  130.4855  136.4292  160.2101 H   0  0  0  0  0  0  0  0  0  0  0  0
  128.7991  137.0643  161.8856 H   0  0  0  0  0  0  0  0  0  0  0  0
  125.9418  138.6109  163.2086 H   0  0  0  0  0  0  0  0  0  0  0  0
  126.6184  139.0205  165.5390 H   0  0  0  0  0  0  0  0  0  0  0  0
  129.8777  137.9771  167.3733 H   0  0  0  0  0  0  0  0  0  0  0  0
  129.6754  136.3505  166.6502 H   0  0  0  0  0  0  0  0  0  0  0  0
  131.0502  136.7566  171.2489 H   0  0  0  0  0  0  0  0  0  0  0  0
  133.1356  137.7863  172.0407 H   0  0  0  0  0  0  0  0  0  0  0  0
  135.1232  137.8227  170.6384 H   0  0  0  0  0  0  0  0  0  0  0  0
  136.2375  137.2505  168.5035 H   0  0  0  0  0  0  0  0  0  0  0  0
  1 37  2  0
  1  2  1  0
  1 38  1  0
  2  3  2  0
  2 39  1  0
  3  4  1  0
  3 40  1  0
  4 36  2  0
  4  5  1  0
  5  6  1  0
  5 33  2  0
  6  7  1  0
  6 41  1  0
  7 32  1  0
  7  8  1  0
  7 42  1  1
  8  9  1  0
  8 43  1  0
  8 44  1  0
  9 10  1  0
  9 45  1  0
  9 46  1  0
 10 11  1  1
 10 12  1  0
 10 32  1  0
 12 31  1  0
 12 13  2  0
 13 14  1  0
 13 47  1  0
 14 15  2  0
 14 48  1  0
 15 16  1  0
 15 30  1  0
 16 17  1  0
 16 49  1  0
 17 29  1  0
 17 18  2  0
 18 19  1  0
 18 50  1  0
 19 20  2  0
 19 51  1  0
 20 21  1  0
 20 28  1  0
 21 22  1  0
 21 52  1  0
 22 27  2  0
 22 23  1  0
 23 24  1  0
 23 25  1  0
 25 26  1  0
 25 53  1  0
 25 54  1  0
 26 27  1  0
 26 55  1  0
 26 56  1  0
 27 57  1  0
 28 29  2  0
 28 58  1  0
 29 59  1  0
 30 31  2  0
 30 60  1  0
 31 61  1  0
 32 62  1  0
 32 63  1  0
 33 34  1  0
 33 64  1  0
 34 35  2  0
 34 65  1  0
 35 36  1  0
 35 66  1  0
 36 37  1  0
 37 67  1  0
M  CHG  1  27   1
M  END
>  <DOCK_score>  (1) 
-50.197243

>  <SMILES>  (1) 
c1ccc2c(NC3CC[C@H](c4ccc(Nc5ccc(NC6=[NH+]CCN6)cc5)cc4)C3)cccc2c1

$$$$
