Cn1nccc1[C@@H](Nc1[nH]cc(-c2ccc(N)cc2)[nH+]1)c1ccc2c(c1)C=CC2
     RDKit          3D

 52 56  0  0  1  0  0  0  0  0999 V2000
  127.9187  133.9503  162.2746 C   0  0  0  0  0  0  0  0  0  0  0  0
  127.5784  134.7346  161.0850 N   0  0  0  0  0  0  0  0  0  0  0  0
  126.3141  135.2504  160.7718 N   0  0  0  0  0  0  0  0  0  0  0  0
  126.4041  135.8905  159.6342 C   0  0  0  0  0  0  0  0  0  0  0  0
  127.7276  135.8073  159.1896 C   0  0  0  0  0  0  0  0  0  0  0  0
  128.4273  135.0875  160.0970 C   0  0  0  0  0  0  0  0  0  0  0  0
  129.8932  134.7465  160.0211 C   0  0  1  0  0  0  0  0  0  0  0  0
  130.0716  133.7962  160.5244 H   0  0  0  0  0  0  0  0  0  0  0  0
  130.2975  134.6388  158.6172 N   0  0  0  0  0  0  0  0  0  0  0  0
  130.2175  133.4201  157.9652 C   0  0  0  0  0  0  0  0  0  0  0  0
  129.7769  132.2553  158.5136 N   0  0  0  0  0  0  0  0  0  0  0  0
  129.4653  132.1304  159.4236 H   0  0  0  0  0  0  0  0  0  0  0  0
  129.8555  131.2883  157.5395 C   0  0  0  0  0  0  0  0  0  0  0  0
  130.3414  131.8904  156.4260 C   0  0  0  0  0  0  0  0  0  0  0  0
  130.5963  131.2350  155.1198 C   0  0  0  0  0  0  0  0  0  0  0  0
  129.9296  131.6734  153.9768 C   0  0  0  0  0  0  0  0  0  0  0  0
  130.1720  131.0661  152.7628 C   0  0  0  0  0  0  0  0  0  0  0  0
  131.0718  130.0101  152.6803 C   0  0  0  0  0  0  0  0  0  0  0  0
  131.3111  129.3930  151.4500 N   0  0  0  0  0  0  0  0  0  0  0  0
  131.7336  129.5676  153.8195 C   0  0  0  0  0  0  0  0  0  0  0  0
  131.4985  130.1758  155.0346 C   0  0  0  0  0  0  0  0  0  0  0  0
  130.5486  133.1992  156.7162 N   0  0  0  0  0  0  0  0  0  0  0  0
  130.8895  133.8651  156.0987 H   0  0  0  0  0  0  0  0  0  0  0  0
  130.6964  135.8297  160.6936 C   0  0  0  0  0  0  0  0  0  0  0  0
  130.1451  136.5446  161.7422 C   0  0  0  0  0  0  0  0  0  0  0  0
  130.8776  137.5412  162.3645 C   0  0  0  0  0  0  0  0  0  0  0  0
  132.1557  137.8209  161.9400 C   0  0  0  0  0  0  0  0  0  0  0  0
  132.7235  137.1065  160.8834 C   0  0  0  0  0  0  0  0  0  0  0  0
  131.9771  136.1028  160.2608 C   0  0  0  0  0  0  0  0  0  0  0  0
  134.0878  137.6121  160.6435 C   0  0  0  0  0  0  0  0  0  0  0  0
  134.3879  138.5865  161.4843 C   0  0  0  0  0  0  0  0  0  0  0  0
  133.1985  138.8164  162.3870 C   0  0  0  0  0  0  0  0  0  0  0  0
  128.2314  134.6211  163.0748 H   0  0  0  0  0  0  0  0  0  0  0  0
  127.0462  133.3819  162.5970 H   0  0  0  0  0  0  0  0  0  0  0  0
  128.7317  133.2642  162.0370 H   0  0  0  0  0  0  0  0  0  0  0  0
  125.5967  136.3987  159.1279 H   0  0  0  0  0  0  0  0  0  0  0  0
  128.1212  136.2394  158.2814 H   0  0  0  0  0  0  0  0  0  0  0  0
  130.6213  135.4215  158.1443 H   0  0  0  0  0  0  0  0  0  0  0  0
  129.5826  130.2484  157.6417 H   0  0  0  0  0  0  0  0  0  0  0  0
  129.2268  132.4909  154.0413 H   0  0  0  0  0  0  0  0  0  0  0  0
  129.6591  131.4086  151.8762 H   0  0  0  0  0  0  0  0  0  0  0  0
  131.9394  128.6556  151.3918 H   0  0  0  0  0  0  0  0  0  0  0  0
  130.8499  129.7007  150.6549 H   0  0  0  0  0  0  0  0  0  0  0  0
  132.4324  128.7469  153.7530 H   0  0  0  0  0  0  0  0  0  0  0  0
  132.0134  129.8319  155.9195 H   0  0  0  0  0  0  0  0  0  0  0  0
  129.1415  136.3251  162.0756 H   0  0  0  0  0  0  0  0  0  0  0  0
  130.4443  138.1016  163.1798 H   0  0  0  0  0  0  0  0  0  0  0  0
  132.4022  135.5420  159.4416 H   0  0  0  0  0  0  0  0  0  0  0  0
  134.7539  137.2354  159.8815 H   0  0  0  0  0  0  0  0  0  0  0  0
  135.3229  139.1258  161.5200 H   0  0  0  0  0  0  0  0  0  0  0  0
  132.8249  139.8334  162.2674 H   0  0  0  0  0  0  0  0  0  0  0  0
  133.4717  138.6353  163.4267 H   0  0  0  0  0  0  0  0  0  0  0  0
  1  2  1  0
  1 33  1  0
  1 34  1  0
  1 35  1  0
  2  6  1  0
  2  3  1  0
  3  4  2  0
  4  5  1  0
  4 36  1  0
  5  6  2  0
  5 37  1  0
  6  7  1  0
  7  8  1  1
  7  9  1  0
  7 24  1  0
  9 38  1  0
 10  9  1  0
 10 22  2  0
 10 11  1  0
 11 12  1  0
 11 13  1  0
 13 14  2  0
 13 39  1  0
 14 15  1  0
 14 22  1  0
 15 21  1  0
 15 16  2  0
 16 17  1  0
 16 40  1  0
 17 18  2  0
 17 41  1  0
 18 19  1  0
 18 20  1  0
 19 42  1  0
 19 43  1  0
 20 21  2  0
 20 44  1  0
 21 45  1  0
 22 23  1  0
 24 29  1  0
 24 25  2  0
 25 26  1  0
 25 46  1  0
 26 27  2  0
 26 47  1  0
 27 32  1  0
 27 28  1  0
 28 29  2  0
 28 30  1  0
 29 48  1  0
 30 31  2  0
 30 49  1  0
 31 32  1  0
 31 50  1  0
 32 51  1  0
 32 52  1  0
M  CHG  1  22   1
M  END
>  <DOCK_score>  (1) 
-55.121845

>  <SMILES>  (1) 
Cn1nccc1[C@@H](Nc1[nH]cc(-c2ccc(N)cc2)[nH+]1)c1ccc2c(c1)C=CC2

$$$$
