[NH3+][C@H](Cc1cccc(-c2ccc(-c3ccccc3)cc2O)c1)C(=O)Nc1cccc(O)c1
     RDKit          3D

 57 60  0  0  1  0  0  0  0  0999 V2000
  130.3855  133.7019  156.6525 N   0  0  0  0  0  0  0  0  0  0  0  0
  130.3575  132.7042  156.5047 H   0  0  0  0  0  0  0  0  0  0  0  0
  129.6414  134.1403  156.1308 H   0  0  0  0  0  0  0  0  0  0  0  0
  131.2740  134.0634  156.3395 H   0  0  0  0  0  0  0  0  0  0  0  0
  130.2163  133.9900  158.0831 C   0  0  2  0  0  0  0  0  0  0  0  0
  130.2466  135.0677  158.2427 H   0  0  0  0  0  0  0  0  0  0  0  0
  131.3447  133.3253  158.8741 C   0  0  0  0  0  0  0  0  0  0  0  0
  131.1709  133.6207  160.3417 C   0  0  0  0  0  0  0  0  0  0  0  0
  130.4244  132.7670  161.1342 C   0  0  0  0  0  0  0  0  0  0  0  0
  130.2653  133.0287  162.4830 C   0  0  0  0  0  0  0  0  0  0  0  0
  130.8419  134.1503  163.0437 C   0  0  0  0  0  0  0  0  0  0  0  0
  131.5904  135.0171  162.2490 C   0  0  0  0  0  0  0  0  0  0  0  0
  132.2119  136.2238  162.8454 C   0  0  0  0  0  0  0  0  0  0  0  0
  133.5957  136.3880  162.8054 C   0  0  0  0  0  0  0  0  0  0  0  0
  134.1732  137.5115  163.3544 C   0  0  0  0  0  0  0  0  0  0  0  0
  133.3766  138.4823  163.9618 C   0  0  0  0  0  0  0  0  0  0  0  0
  134.0024  139.6886  164.5565 C   0  0  0  0  0  0  0  0  0  0  0  0
  133.4038  140.3229  165.6436 C   0  0  0  0  0  0  0  0  0  0  0  0
  133.9936  141.4411  166.1970 C   0  0  0  0  0  0  0  0  0  0  0  0
  135.1705  141.9392  165.6676 C   0  0  0  0  0  0  0  0  0  0  0  0
  135.7661  141.3170  164.5853 C   0  0  0  0  0  0  0  0  0  0  0  0
  135.1882  140.1947  164.0273 C   0  0  0  0  0  0  0  0  0  0  0  0
  131.9936  138.3208  164.0090 C   0  0  0  0  0  0  0  0  0  0  0  0
  131.4106  137.1961  163.4537 C   0  0  0  0  0  0  0  0  0  0  0  0
  130.0624  137.0355  163.4992 O   0  0  0  0  0  0  0  0  0  0  0  0
  131.7520  134.7451  160.8911 C   0  0  0  0  0  0  0  0  0  0  0  0
  128.8893  133.4500  158.5506 C   0  0  0  0  0  0  0  0  0  0  0  0
  128.4115  132.4708  158.0181 O   0  0  0  0  0  0  0  0  0  0  0  0
  128.2335  134.0554  159.5605 N   0  0  0  0  0  0  0  0  0  0  0  0
  127.0013  133.5542  159.9946 C   0  0  0  0  0  0  0  0  0  0  0  0
  126.7254  132.1969  159.8862 C   0  0  0  0  0  0  0  0  0  0  0  0
  125.5115  131.7013  160.3206 C   0  0  0  0  0  0  0  0  0  0  0  0
  124.5638  132.5554  160.8524 C   0  0  0  0  0  0  0  0  0  0  0  0
  124.8318  133.9129  160.9577 C   0  0  0  0  0  0  0  0  0  0  0  0
  123.8990  134.7513  161.4808 O   0  0  0  0  0  0  0  0  0  0  0  0
  126.0513  134.4130  160.5287 C   0  0  0  0  0  0  0  0  0  0  0  0
  132.3044  133.7157  158.5360 H   0  0  0  0  0  0  0  0  0  0  0  0
  131.3143  132.2474  158.7146 H   0  0  0  0  0  0  0  0  0  0  0  0
  129.9674  131.8907  160.6987 H   0  0  0  0  0  0  0  0  0  0  0  0
  129.6852  132.3565  163.0977 H   0  0  0  0  0  0  0  0  0  0  0  0
  130.7137  134.3559  164.0962 H   0  0  0  0  0  0  0  0  0  0  0  0
  134.2151  135.6355  162.3402 H   0  0  0  0  0  0  0  0  0  0  0  0
  135.2451  137.6386  163.3192 H   0  0  0  0  0  0  0  0  0  0  0  0
  132.4825  139.9376  166.0549 H   0  0  0  0  0  0  0  0  0  0  0  0
  133.5332  141.9308  167.0425 H   0  0  0  0  0  0  0  0  0  0  0  0
  135.6264  142.8169  166.1014 H   0  0  0  0  0  0  0  0  0  0  0  0
  136.6847  141.7103  164.1757 H   0  0  0  0  0  0  0  0  0  0  0  0
  135.6542  139.7095  163.1823 H   0  0  0  0  0  0  0  0  0  0  0  0
  131.3773  139.0726  164.4795 H   0  0  0  0  0  0  0  0  0  0  0  0
  129.7493  136.2193  163.0858 H   0  0  0  0  0  0  0  0  0  0  0  0
  132.3305  135.4134  160.2706 H   0  0  0  0  0  0  0  0  0  0  0  0
  128.6156  134.8387  159.9863 H   0  0  0  0  0  0  0  0  0  0  0  0
  127.4624  131.5282  159.4667 H   0  0  0  0  0  0  0  0  0  0  0  0
  125.3006  130.6452  160.2400 H   0  0  0  0  0  0  0  0  0  0  0  0
  123.6136  132.1657  161.1867 H   0  0  0  0  0  0  0  0  0  0  0  0
  124.1764  135.6772  161.5133 H   0  0  0  0  0  0  0  0  0  0  0  0
  126.2618  135.4692  160.6102 H   0  0  0  0  0  0  0  0  0  0  0  0
  1  2  1  0
  1  3  1  0
  1  4  1  0
  1  5  1  0
  5  6  1  6
  5  7  1  0
  5 27  1  0
  7  8  1  0
  7 37  1  0
  7 38  1  0
  8 26  1  0
  8  9  2  0
  9 10  1  0
  9 39  1  0
 10 11  2  0
 10 40  1  0
 11 12  1  0
 11 41  1  0
 12 13  1  0
 12 26  2  0
 13 24  1  0
 13 14  2  0
 14 15  1  0
 14 42  1  0
 15 16  2  0
 15 43  1  0
 16 17  1  0
 16 23  1  0
 17 22  1  0
 17 18  2  0
 18 19  1  0
 18 44  1  0
 19 20  2  0
 19 45  1  0
 20 21  1  0
 20 46  1  0
 21 22  2  0
 21 47  1  0
 22 48  1  0
 23 24  2  0
 23 49  1  0
 24 25  1  0
 25 50  1  0
 26 51  1  0
 27 28  2  0
 27 29  1  0
 29 30  1  0
 29 52  1  0
 30 36  1  0
 30 31  2  0
 31 32  1  0
 31 53  1  0
 32 33  2  0
 32 54  1  0
 33 34  1  0
 33 55  1  0
 34 35  1  0
 34 36  2  0
 35 56  1  0
 36 57  1  0
M  CHG  1   1   1
M  END
>  <DOCK_score>  (1) 
-47.507336

>  <SMILES>  (1) 
[NH3+][C@H](Cc1cccc(-c2ccc(-c3ccccc3)cc2O)c1)C(=O)Nc1cccc(O)c1

$$$$
