CCc1ccc(-c2c[nH]c(N[C@@H](c3cccc4c3CCC4)c3cccc4ccccc34)[nH+]2)cc1
     RDKit          3D

 64 69  0  0  1  0  0  0  0  0999 V2000
  129.6958  129.1335  150.7143 C   0  0  0  0  0  0  0  0  0  0  0  0
  131.0372  129.6571  151.2296 C   0  0  0  0  0  0  0  0  0  0  0  0
  130.8345  130.3336  152.5610 C   0  0  0  0  0  0  0  0  0  0  0  0
  130.9352  129.6002  153.7289 C   0  0  0  0  0  0  0  0  0  0  0  0
  130.7554  130.2155  154.9511 C   0  0  0  0  0  0  0  0  0  0  0  0
  130.4617  131.5768  155.0065 C   0  0  0  0  0  0  0  0  0  0  0  0
  130.2622  132.2425  156.3169 C   0  0  0  0  0  0  0  0  0  0  0  0
  129.7820  131.6597  157.4433 C   0  0  0  0  0  0  0  0  0  0  0  0
  129.7617  132.6291  158.4162 N   0  0  0  0  0  0  0  0  0  0  0  0
  129.4673  132.5164  159.3336 H   0  0  0  0  0  0  0  0  0  0  0  0
  130.2306  133.7771  157.8556 C   0  0  0  0  0  0  0  0  0  0  0  0
  130.3692  134.9927  158.5033 N   0  0  0  0  0  0  0  0  0  0  0  0
  129.9958  135.1176  159.9144 C   0  0  1  0  0  0  0  0  0  0  0  0
  130.3111  134.2247  160.4540 H   0  0  0  0  0  0  0  0  0  0  0  0
  130.6707  136.3275  160.5074 C   0  0  0  0  0  0  0  0  0  0  0  0
  130.0392  137.5557  160.4699 C   0  0  0  0  0  0  0  0  0  0  0  0
  130.6553  138.6649  161.0181 C   0  0  0  0  0  0  0  0  0  0  0  0
  131.9056  138.5452  161.5934 C   0  0  0  0  0  0  0  0  0  0  0  0
  132.5424  137.3163  161.6269 C   0  0  0  0  0  0  0  0  0  0  0  0
  131.9239  136.2056  161.0830 C   0  0  0  0  0  0  0  0  0  0  0  0
  132.8166  134.9936  161.2425 C   0  0  0  0  0  0  0  0  0  0  0  0
  133.8457  135.3891  162.3228 C   0  0  0  0  0  0  0  0  0  0  0  0
  133.8927  136.9261  162.1888 C   0  0  0  0  0  0  0  0  0  0  0  0
  128.5008  135.2709  160.0268 C   0  0  0  0  0  0  0  0  0  0  0  0
  127.7273  135.2764  158.9066 C   0  0  0  0  0  0  0  0  0  0  0  0
  126.3438  135.4170  158.9907 C   0  0  0  0  0  0  0  0  0  0  0  0
  125.7250  135.5524  160.1958 C   0  0  0  0  0  0  0  0  0  0  0  0
  126.4902  135.5509  161.3741 C   0  0  0  0  0  0  0  0  0  0  0  0
  125.8873  135.6888  162.6362 C   0  0  0  0  0  0  0  0  0  0  0  0
  126.6605  135.6831  163.7560 C   0  0  0  0  0  0  0  0  0  0  0  0
  128.0446  135.5429  163.6717 C   0  0  0  0  0  0  0  0  0  0  0  0
  128.6632  135.4075  162.4671 C   0  0  0  0  0  0  0  0  0  0  0  0
  127.8973  135.4028  161.2888 C   0  0  0  0  0  0  0  0  0  0  0  0
  130.5334  133.5409  156.6024 N   0  0  0  0  0  0  0  0  0  0  0  0
  130.8923  134.1909  155.9782 H   0  0  0  0  0  0  0  0  0  0  0  0
  130.3566  132.3103  153.8260 C   0  0  0  0  0  0  0  0  0  0  0  0
  130.5436  131.6857  152.6097 C   0  0  0  0  0  0  0  0  0  0  0  0
  129.8423  128.6442  149.7513 H   0  0  0  0  0  0  0  0  0  0  0  0
  129.2876  128.4170  151.4273 H   0  0  0  0  0  0  0  0  0  0  0  0
  129.0011  129.9654  150.5972 H   0  0  0  0  0  0  0  0  0  0  0  0
  131.7320  128.8260  151.3464 H   0  0  0  0  0  0  0  0  0  0  0  0
  131.4456  130.3743  150.5163 H   0  0  0  0  0  0  0  0  0  0  0  0
  131.1585  128.5445  153.6846 H   0  0  0  0  0  0  0  0  0  0  0  0
  130.8383  129.6423  155.8627 H   0  0  0  0  0  0  0  0  0  0  0  0
  129.4740  130.6304  157.5540 H   0  0  0  0  0  0  0  0  0  0  0  0
  130.7135  135.7618  158.0228 H   0  0  0  0  0  0  0  0  0  0  0  0
  129.0637  137.6483  160.0161 H   0  0  0  0  0  0  0  0  0  0  0  0
  130.1616  139.6251  160.9928 H   0  0  0  0  0  0  0  0  0  0  0  0
  132.3880  139.4131  162.0181 H   0  0  0  0  0  0  0  0  0  0  0  0
  132.2327  134.1346  161.5730 H   0  0  0  0  0  0  0  0  0  0  0  0
  133.3217  134.7697  160.3029 H   0  0  0  0  0  0  0  0  0  0  0  0
  133.4986  135.0971  163.3140 H   0  0  0  0  0  0  0  0  0  0  0  0
  134.8197  134.9487  162.1098 H   0  0  0  0  0  0  0  0  0  0  0  0
  134.0433  137.3864  163.1653 H   0  0  0  0  0  0  0  0  0  0  0  0
  134.6883  137.2218  161.5051 H   0  0  0  0  0  0  0  0  0  0  0  0
  128.1934  135.1706  157.9380 H   0  0  0  0  0  0  0  0  0  0  0  0
  125.7533  135.4189  158.0865 H   0  0  0  0  0  0  0  0  0  0  0  0
  124.6516  135.6601  160.2456 H   0  0  0  0  0  0  0  0  0  0  0  0
  124.8160  135.7991  162.7168 H   0  0  0  0  0  0  0  0  0  0  0  0
  126.1946  135.7892  164.7245 H   0  0  0  0  0  0  0  0  0  0  0  0
  128.6351  135.5419  164.5760 H   0  0  0  0  0  0  0  0  0  0  0  0
  129.7367  135.2996  162.4174 H   0  0  0  0  0  0  0  0  0  0  0  0
  130.1289  133.3654  153.8630 H   0  0  0  0  0  0  0  0  0  0  0  0
  130.4627  132.2531  151.6943 H   0  0  0  0  0  0  0  0  0  0  0  0
  1  2  1  0
  1 38  1  0
  1 39  1  0
  1 40  1  0
  2  3  1  0
  2 41  1  0
  2 42  1  0
  3 37  2  0
  3  4  1  0
  4  5  2  0
  4 43  1  0
  5  6  1  0
  5 44  1  0
  6  7  1  0
  6 36  2  0
  7 34  1  0
  7  8  2  0
  8  9  1  0
  8 45  1  0
  9 10  1  0
  9 11  1  0
 11 12  1  0
 11 34  2  0
 12 13  1  0
 12 46  1  0
 13 14  1  1
 13 15  1  0
 13 24  1  0
 15 20  1  0
 15 16  2  0
 16 17  1  0
 16 47  1  0
 17 18  2  0
 17 48  1  0
 18 19  1  0
 18 49  1  0
 19 23  1  0
 19 20  2  0
 20 21  1  0
 21 22  1  0
 21 50  1  0
 21 51  1  0
 22 23  1  0
 22 52  1  0
 22 53  1  0
 23 54  1  0
 23 55  1  0
 24 33  1  0
 24 25  2  0
 25 26  1  0
 25 56  1  0
 26 27  2  0
 26 57  1  0
 27 28  1  0
 27 58  1  0
 28 33  2  0
 28 29  1  0
 29 30  2  0
 29 59  1  0
 30 31  1  0
 30 60  1  0
 31 32  2  0
 31 61  1  0
 32 33  1  0
 32 62  1  0
 34 35  1  0
 36 37  1  0
 36 63  1  0
 37 64  1  0
M  CHG  1  34   1
M  END
>  <DOCK_score>  (1) 
-62.429691

>  <SMILES>  (1) 
CCc1ccc(-c2c[nH]c(N[C@@H](c3cccc4c3CCC4)c3cccc4ccccc34)[nH+]2)cc1

$$$$
