CCc1ccc(-c2c[nH]c(NC[C@@H](Nc3cc(O)cc(O)c3)c3ccnn3C)[nH+]2)cc1
     RDKit          3D

 58 61  0  0  1  0  0  0  0  0999 V2000
  126.6991  139.9738  166.5030 C   0  0  0  0  0  0  0  0  0  0  0  0
  126.0439  140.0822  165.1246 C   0  0  0  0  0  0  0  0  0  0  0  0
  126.9373  139.4442  164.0922 C   0  0  0  0  0  0  0  0  0  0  0  0
  126.7987  138.0997  163.7975 C   0  0  0  0  0  0  0  0  0  0  0  0
  127.6108  137.5111  162.8495 C   0  0  0  0  0  0  0  0  0  0  0  0
  128.5789  138.2717  162.1960 C   0  0  0  0  0  0  0  0  0  0  0  0
  129.4579  137.6439  161.1795 C   0  0  0  0  0  0  0  0  0  0  0  0
  129.9993  138.2623  160.1009 C   0  0  0  0  0  0  0  0  0  0  0  0
  130.7422  137.3200  159.4322 N   0  0  0  0  0  0  0  0  0  0  0  0
  131.2528  137.4617  158.6198 H   0  0  0  0  0  0  0  0  0  0  0  0
  130.6260  136.1500  160.1176 C   0  0  0  0  0  0  0  0  0  0  0  0
  131.2207  134.9492  159.7697 N   0  0  0  0  0  0  0  0  0  0  0  0
  131.0117  133.7605  160.6002 C   0  0  0  0  0  0  0  0  0  0  0  0
  129.7803  133.0009  160.1026 C   0  0  1  0  0  0  0  0  0  0  0  0
  129.6248  132.1165  160.7206 H   0  0  0  0  0  0  0  0  0  0  0  0
  128.6034  133.8692  160.1880 N   0  0  0  0  0  0  0  0  0  0  0  0
  127.3407  133.3144  160.4077 C   0  0  0  0  0  0  0  0  0  0  0  0
  127.0541  132.0358  159.9481 C   0  0  0  0  0  0  0  0  0  0  0  0
  125.8018  131.4842  160.1704 C   0  0  0  0  0  0  0  0  0  0  0  0
  125.5226  130.2313  159.7243 O   0  0  0  0  0  0  0  0  0  0  0  0
  124.8323  132.2127  160.8433 C   0  0  0  0  0  0  0  0  0  0  0  0
  125.1160  133.4919  161.2981 C   0  0  0  0  0  0  0  0  0  0  0  0
  124.1649  134.2051  161.9566 O   0  0  0  0  0  0  0  0  0  0  0  0
  126.3693  134.0432  161.0809 C   0  0  0  0  0  0  0  0  0  0  0  0
  129.9928  132.5822  158.6707 C   0  0  0  0  0  0  0  0  0  0  0  0
  129.6631  133.3003  157.5722 C   0  0  0  0  0  0  0  0  0  0  0  0
  130.0294  132.5563  156.4459 C   0  0  0  0  0  0  0  0  0  0  0  0
  130.5527  131.4285  156.8535 N   0  0  0  0  0  0  0  0  0  0  0  0
  130.5407  131.4214  158.2542 N   0  0  0  0  0  0  0  0  0  0  0  0
  131.0350  130.3440  159.1148 C   0  0  0  0  0  0  0  0  0  0  0  0
  129.8579  136.3475  161.1611 N   0  0  0  0  0  0  0  0  0  0  0  0
  129.6140  135.6743  161.8155 H   0  0  0  0  0  0  0  0  0  0  0  0
  128.7175  139.6246  162.5008 C   0  0  0  0  0  0  0  0  0  0  0  0
  127.8967  140.2037  163.4471 C   0  0  0  0  0  0  0  0  0  0  0  0
  127.6613  140.4854  166.4892 H   0  0  0  0  0  0  0  0  0  0  0  0
  126.0528  140.4353  167.2496 H   0  0  0  0  0  0  0  0  0  0  0  0
  126.8496  138.9234  166.7521 H   0  0  0  0  0  0  0  0  0  0  0  0
  125.0815  139.5705  165.1384 H   0  0  0  0  0  0  0  0  0  0  0  0
  125.8933  141.1326  164.8754 H   0  0  0  0  0  0  0  0  0  0  0  0
  126.0508  137.5106  164.3071 H   0  0  0  0  0  0  0  0  0  0  0  0
  127.4987  136.4625  162.6168 H   0  0  0  0  0  0  0  0  0  0  0  0
  129.8725  139.2980  159.8225 H   0  0  0  0  0  0  0  0  0  0  0  0
  131.7757  134.8950  158.9760 H   0  0  0  0  0  0  0  0  0  0  0  0
  131.8873  133.1144  160.5366 H   0  0  0  0  0  0  0  0  0  0  0  0
  130.8579  134.0633  161.6359 H   0  0  0  0  0  0  0  0  0  0  0  0
  128.7013  134.8294  160.0920 H   0  0  0  0  0  0  0  0  0  0  0  0
  127.8078  131.4698  159.4208 H   0  0  0  0  0  0  0  0  0  0  0  0
  124.6253  129.9328  159.9260 H   0  0  0  0  0  0  0  0  0  0  0  0
  123.8557  131.7838  161.0129 H   0  0  0  0  0  0  0  0  0  0  0  0
  124.4550  135.0847  162.2346 H   0  0  0  0  0  0  0  0  0  0  0  0
  126.5899  135.0394  161.4350 H   0  0  0  0  0  0  0  0  0  0  0  0
  129.2009  134.2764  157.5663 H   0  0  0  0  0  0  0  0  0  0  0  0
  129.8991  132.8588  155.4174 H   0  0  0  0  0  0  0  0  0  0  0  0
  130.2269  129.6412  159.3177 H   0  0  0  0  0  0  0  0  0  0  0  0
  131.8513  129.8239  158.6134 H   0  0  0  0  0  0  0  0  0  0  0  0
  131.3948  130.7648  160.0537 H   0  0  0  0  0  0  0  0  0  0  0  0
  129.4662  140.2186  161.9978 H   0  0  0  0  0  0  0  0  0  0  0  0
  128.0032  141.2520  163.6841 H   0  0  0  0  0  0  0  0  0  0  0  0
  1  2  1  0
  1 35  1  0
  1 36  1  0
  1 37  1  0
  2  3  1  0
  2 38  1  0
  2 39  1  0
  3 34  2  0
  3  4  1  0
  4  5  2  0
  4 40  1  0
  5  6  1  0
  5 41  1  0
  6  7  1  0
  6 33  2  0
  7 31  1  0
  7  8  2  0
  8  9  1  0
  8 42  1  0
  9 10  1  0
  9 11  1  0
 11 12  1  0
 11 31  2  0
 12 13  1  0
 12 43  1  0
 13 14  1  0
 13 44  1  0
 13 45  1  0
 14 15  1  1
 14 16  1  0
 14 25  1  0
 16 17  1  0
 16 46  1  0
 17 24  1  0
 17 18  2  0
 18 19  1  0
 18 47  1  0
 19 20  1  0
 19 21  2  0
 20 48  1  0
 21 22  1  0
 21 49  1  0
 22 23  1  0
 22 24  2  0
 23 50  1  0
 24 51  1  0
 25 29  1  0
 25 26  2  0
 26 27  1  0
 26 52  1  0
 27 28  2  0
 27 53  1  0
 28 29  1  0
 29 30  1  0
 30 54  1  0
 30 55  1  0
 30 56  1  0
 31 32  1  0
 33 34  1  0
 33 57  1  0
 34 58  1  0
M  CHG  1  31   1
M  END
>  <DOCK_score>  (1) 
-49.710979

>  <SMILES>  (1) 
CCc1ccc(-c2c[nH]c(NC[C@@H](Nc3cc(O)cc(O)c3)c3ccnn3C)[nH+]2)cc1

$$$$
