COc1ccc(-n2cc(CN3CCC([NH+]4CC=CC4)CC3)c([C@H](O)CCCCCl)n2)cc1F
     RDKit          3D

 68 71  0  0  1  0  0  0  0  0999 V2000
  136.3021  137.4906  164.7658 C   0  0  0  0  0  0  0  0  0  0  0  0
  135.6310  136.2447  164.9644 O   0  0  0  0  0  0  0  0  0  0  0  0
  134.3612  136.1445  164.4878 C   0  0  0  0  0  0  0  0  0  0  0  0
  133.2883  136.4898  165.2955 C   0  0  0  0  0  0  0  0  0  0  0  0
  131.9988  136.3943  164.8102 C   0  0  0  0  0  0  0  0  0  0  0  0
  131.7749  135.9407  163.5173 C   0  0  0  0  0  0  0  0  0  0  0  0
  130.4646  135.8378  163.0270 N   0  0  0  0  0  0  0  0  0  0  0  0
  130.1077  135.4177  161.7924 C   0  0  0  0  0  0  0  0  0  0  0  0
  128.7573  135.4644  161.7159 C   0  0  0  0  0  0  0  0  0  0  0  0
  127.9234  135.0844  160.5195 C   0  0  0  0  0  0  0  0  0  0  0  0
  128.8042  134.6479  159.4277 N   0  0  0  0  0  0  0  0  0  0  0  0
  128.1498  134.8174  158.1240 C   0  0  0  0  0  0  0  0  0  0  0  0
  129.1437  134.4918  157.0069 C   0  0  0  0  0  0  0  0  0  0  0  0
  129.6329  133.0501  157.1696 C   0  0  0  0  0  0  0  0  0  0  0  0
  130.6312  132.7506  156.1345 N   0  0  0  0  0  0  0  0  0  0  0  0
  131.4217  133.3731  156.2104 H   0  0  0  0  0  0  0  0  0  0  0  0
  131.0635  131.3351  156.2160 C   0  0  0  0  0  0  0  0  0  0  0  0
  131.2918  130.9033  154.7858 C   0  0  0  0  0  0  0  0  0  0  0  0
  130.7059  131.7493  153.9760 C   0  0  0  0  0  0  0  0  0  0  0  0
  130.0270  132.8314  154.7834 C   0  0  0  0  0  0  0  0  0  0  0  0
  130.2666  132.8877  158.5540 C   0  0  0  0  0  0  0  0  0  0  0  0
  129.2402  133.2598  159.6264 C   0  0  0  0  0  0  0  0  0  0  0  0
  128.2720  135.9278  162.9434 C   0  0  0  0  0  0  0  0  0  0  0  0
  126.8222  136.1345  163.2990 C   0  0  2  0  0  0  0  0  0  0  0  0
  126.2888  135.1878  163.2138 H   0  0  0  0  0  0  0  0  0  0  0  0
  126.2442  137.0888  162.4062 O   0  0  0  0  0  0  0  0  0  0  0  0
  126.7180  136.6513  164.7352 C   0  0  0  0  0  0  0  0  0  0  0  0
  126.8590  135.4804  165.7100 C   0  0  0  0  0  0  0  0  0  0  0  0
  126.7547  135.9973  167.1463 C   0  0  0  0  0  0  0  0  0  0  0  0
  126.8956  134.8264  168.1211 C   0  0  0  0  0  0  0  0  0  0  0  0
  126.7728  135.4355  169.8137 Cl  0  0  0  0  0  0  0  0  0  0  0  0
  129.2945  136.1566  163.7281 N   0  0  0  0  0  0  0  0  0  0  0  0
  132.8482  135.5942  162.7078 C   0  0  0  0  0  0  0  0  0  0  0  0
  134.1392  135.6958  163.1918 C   0  0  0  0  0  0  0  0  0  0  0  0
  135.1844  135.3586  162.4051 F   0  0  0  0  0  0  0  0  0  0  0  0
  136.3727  137.6990  163.6983 H   0  0  0  0  0  0  0  0  0  0  0  0
  135.7418  138.2872  165.2552 H   0  0  0  0  0  0  0  0  0  0  0  0
  137.3036  137.4358  165.1923 H   0  0  0  0  0  0  0  0  0  0  0  0
  133.4614  136.8382  166.3030 H   0  0  0  0  0  0  0  0  0  0  0  0
  131.1640  136.6680  165.4383 H   0  0  0  0  0  0  0  0  0  0  0  0
  130.7797  135.1021  161.0081 H   0  0  0  0  0  0  0  0  0  0  0  0
  127.2494  134.2716  160.7896 H   0  0  0  0  0  0  0  0  0  0  0  0
  127.3411  135.9465  160.1939 H   0  0  0  0  0  0  0  0  0  0  0  0
  127.2946  134.1450  158.0567 H   0  0  0  0  0  0  0  0  0  0  0  0
  127.8104  135.8479  158.0193 H   0  0  0  0  0  0  0  0  0  0  0  0
  129.9927  135.1730  157.0651 H   0  0  0  0  0  0  0  0  0  0  0  0
  128.6534  134.6027  156.0398 H   0  0  0  0  0  0  0  0  0  0  0  0
  128.7898  132.3661  157.0726 H   0  0  0  0  0  0  0  0  0  0  0  0
  131.9886  131.2549  156.7869 H   0  0  0  0  0  0  0  0  0  0  0  0
  130.2827  130.7276  156.6737 H   0  0  0  0  0  0  0  0  0  0  0  0
  131.8512  130.0318  154.4793 H   0  0  0  0  0  0  0  0  0  0  0  0
  130.7074  131.6837  152.8979 H   0  0  0  0  0  0  0  0  0  0  0  0
  128.9545  132.6454  154.8377 H   0  0  0  0  0  0  0  0  0  0  0  0
  130.2181  133.8097  154.3423 H   0  0  0  0  0  0  0  0  0  0  0  0
  131.1334  133.5436  158.6368 H   0  0  0  0  0  0  0  0  0  0  0  0
  130.5785  131.8525  158.6924 H   0  0  0  0  0  0  0  0  0  0  0  0
  129.6928  133.1590  160.6129 H   0  0  0  0  0  0  0  0  0  0  0  0
  128.3799  132.5946  159.5520 H   0  0  0  0  0  0  0  0  0  0  0  0
  125.3100  137.2714  162.5766 H   0  0  0  0  0  0  0  0  0  0  0  0
  127.5119  137.3751  164.9196 H   0  0  0  0  0  0  0  0  0  0  0  0
  125.7494  137.1298  164.8798 H   0  0  0  0  0  0  0  0  0  0  0  0
  126.0650  134.7567  165.5258 H   0  0  0  0  0  0  0  0  0  0  0  0
  127.8276  135.0020  165.5655 H   0  0  0  0  0  0  0  0  0  0  0  0
  127.5486  136.7210  167.3306 H   0  0  0  0  0  0  0  0  0  0  0  0
  125.7861  136.4758  167.2909 H   0  0  0  0  0  0  0  0  0  0  0  0
  126.1018  134.1026  167.9369 H   0  0  0  0  0  0  0  0  0  0  0  0
  127.8643  134.3479  167.9766 H   0  0  0  0  0  0  0  0  0  0  0  0
  132.6748  135.2459  161.7004 H   0  0  0  0  0  0  0  0  0  0  0  0
  1  2  1  0
  1 36  1  0
  1 37  1  0
  1 38  1  0
  2  3  1  0
  3 34  2  0
  3  4  1  0
  4  5  2  0
  4 39  1  0
  5  6  1  0
  5 40  1  0
  6  7  1  0
  6 33  2  0
  7 32  1  0
  7  8  1  0
  8  9  2  0
  8 41  1  0
  9 10  1  0
  9 23  1  0
 10 11  1  0
 10 42  1  0
 10 43  1  0
 11 22  1  0
 11 12  1  0
 12 13  1  0
 12 44  1  0
 12 45  1  0
 13 14  1  0
 13 46  1  0
 13 47  1  0
 14 15  1  0
 14 21  1  0
 14 48  1  0
 15 16  1  0
 15 20  1  0
 15 17  1  0
 17 18  1  0
 17 49  1  0
 17 50  1  0
 18 19  2  0
 18 51  1  0
 19 20  1  0
 19 52  1  0
 20 53  1  0
 20 54  1  0
 21 22  1  0
 21 55  1  0
 21 56  1  0
 22 57  1  0
 22 58  1  0
 23 24  1  0
 23 32  2  0
 24 25  1  1
 24 26  1  0
 24 27  1  0
 26 59  1  0
 27 28  1  0
 27 60  1  0
 27 61  1  0
 28 29  1  0
 28 62  1  0
 28 63  1  0
 29 30  1  0
 29 64  1  0
 29 65  1  0
 30 31  1  0
 30 66  1  0
 30 67  1  0
 33 34  1  0
 33 68  1  0
 34 35  1  0
M  CHG  1  15   1
M  END
>  <DOCK_score>  (1) 
-41.631172

>  <SMILES>  (1) 
COc1ccc(-n2cc(CN3CCC([NH+]4CC=CC4)CC3)c([C@H](O)CCCCCl)n2)cc1F

$$$$
