O=C1CC[C@H]([NH+]=C(N[C@H]2C[C@@H](Br)C2)N[C@H]2C[C@@H](Br)C2)CN1
     RDKit          3D

 44 46  0  0  1  0  0  0  0  0999 V2000
  123.7249  133.5804  161.1272 O   0  0  0  0  0  0  0  0  0  0  0  0
  124.8687  133.9369  160.9388 C   0  0  0  0  0  0  0  0  0  0  0  0
  125.7697  133.0410  160.1383 C   0  0  0  0  0  0  0  0  0  0  0  0
  127.2320  133.4256  160.3768 C   0  0  0  0  0  0  0  0  0  0  0  0
  127.3676  134.9437  160.2082 C   0  0  2  0  0  0  0  0  0  0  0  0
  126.9407  135.2449  159.2516 H   0  0  0  0  0  0  0  0  0  0  0  0
  128.7828  135.3193  160.2587 N   0  0  0  0  0  0  0  0  0  0  0  0
  129.0981  135.9312  160.9423 H   0  0  0  0  0  0  0  0  0  0  0  0
  129.6181  134.8315  159.3852 C   0  0  0  0  0  0  0  0  0  0  0  0
  129.1711  133.9642  158.4164 N   0  0  0  0  0  0  0  0  0  0  0  0
  130.0686  132.9371  157.8822 C   0  0  1  0  0  0  0  0  0  0  0  0
  130.6342  133.2785  157.0153 H   0  0  0  0  0  0  0  0  0  0  0  0
  130.9361  132.2583  158.9554 C   0  0  0  0  0  0  0  0  0  0  0  0
  130.6874  130.9371  158.2085 C   0  0  1  0  0  0  0  0  0  0  0  0
  131.4228  130.7299  157.4311 H   0  0  0  0  0  0  0  0  0  0  0  0
  130.3839  129.4037  159.4008 Br  0  0  0  0  0  0  0  0  0  0  0  0
  129.3906  131.5719  157.6790 C   0  0  0  0  0  0  0  0  0  0  0  0
  130.9462  135.1837  159.4326 N   0  0  0  0  0  0  0  0  0  0  0  0
  131.5699  135.5187  160.7152 C   0  0  1  0  0  0  0  0  0  0  0  0
  131.1192  134.9910  161.5556 H   0  0  0  0  0  0  0  0  0  0  0  0
  133.1056  135.4425  160.6918 C   0  0  0  0  0  0  0  0  0  0  0  0
  133.1036  136.7146  161.5558 C   0  0  1  0  0  0  0  0  0  0  0  0
  133.0737  136.5150  162.6269 H   0  0  0  0  0  0  0  0  0  0  0  0
  134.4996  138.0066  161.0587 Br  0  0  0  0  0  0  0  0  0  0  0  0
  131.7269  137.0308  160.9475 C   0  0  0  0  0  0  0  0  0  0  0  0
  126.6131  135.6321  161.3463 C   0  0  0  0  0  0  0  0  0  0  0  0
  125.2592  135.1033  161.4539 N   0  0  0  0  0  0  0  0  0  0  0  0
  125.5360  133.1457  159.0788 H   0  0  0  0  0  0  0  0  0  0  0  0
  125.6131  132.0063  160.4431 H   0  0  0  0  0  0  0  0  0  0  0  0
  127.8680  132.9176  159.6519 H   0  0  0  0  0  0  0  0  0  0  0  0
  127.5262  133.1407  161.3869 H   0  0  0  0  0  0  0  0  0  0  0  0
  128.2614  134.0327  158.0868 H   0  0  0  0  0  0  0  0  0  0  0  0
  131.9780  132.5783  158.9413 H   0  0  0  0  0  0  0  0  0  0  0  0
  130.4974  132.2853  159.9528 H   0  0  0  0  0  0  0  0  0  0  0  0
  128.5293  131.4112  158.3275 H   0  0  0  0  0  0  0  0  0  0  0  0
  129.1848  131.3377  156.6345 H   0  0  0  0  0  0  0  0  0  0  0  0
  131.4700  135.2107  158.6167 H   0  0  0  0  0  0  0  0  0  0  0  0
  133.5072  134.5678  161.2035 H   0  0  0  0  0  0  0  0  0  0  0  0
  133.5350  135.5885  159.7006 H   0  0  0  0  0  0  0  0  0  0  0  0
  131.7793  137.6110  160.0264 H   0  0  0  0  0  0  0  0  0  0  0  0
  131.0154  137.4383  161.6657 H   0  0  0  0  0  0  0  0  0  0  0  0
  127.1420  135.4617  162.2840 H   0  0  0  0  0  0  0  0  0  0  0  0
  126.5671  136.7035  161.1518 H   0  0  0  0  0  0  0  0  0  0  0  0
  124.6008  135.6332  161.9300 H   0  0  0  0  0  0  0  0  0  0  0  0
  1  2  2  0
  2 27  1  0
  2  3  1  0
  3  4  1  0
  3 28  1  0
  3 29  1  0
  4  5  1  0
  4 30  1  0
  4 31  1  0
  5  6  1  6
  5  7  1  0
  5 26  1  0
  7  8  1  0
  9  7  2  0
  9 10  1  0
  9 18  1  1
 10 11  1  0
 10 32  1  0
 11 12  1  6
 11 17  1  0
 11 13  1  0
 13 14  1  0
 13 33  1  0
 13 34  1  0
 14 15  1  6
 14 16  1  0
 14 17  1  0
 17 35  1  0
 17 36  1  0
 18 19  1  0
 18 37  1  0
 19 20  1  1
 19 25  1  0
 19 21  1  0
 21 22  1  0
 21 38  1  0
 21 39  1  0
 22 23  1  1
 22 24  1  0
 22 25  1  0
 25 40  1  0
 25 41  1  0
 26 27  1  0
 26 42  1  0
 26 43  1  0
 27 44  1  0
M  CHG  1   7   1
M  END
>  <DOCK_score>  (1) 
-45.622379

>  <SMILES>  (1) 
O=C1CC[C@H]([NH+]=C(N[C@H]2C[C@@H](Br)C2)N[C@H]2C[C@@H](Br)C2)CN1

$$$$
