Cc1c(N)cccc1C[NH2+]Cc1cc2c(C#Cc3cncc4ccccc34)cccc2[nH]1
     RDKit          3D

 57 61  0  0  0  0  0  0  0  0999 V2000
  129.6005  134.5890  157.5156 C   0  0  0  0  0  0  0  0  0  0  0  0
  130.4671  133.4746  158.0433 C   0  0  0  0  0  0  0  0  0  0  0  0
  130.7422  132.3705  157.2460 C   0  0  0  0  0  0  0  0  0  0  0  0
  130.2159  132.2912  155.9547 N   0  0  0  0  0  0  0  0  0  0  0  0
  131.5412  131.3457  157.7362 C   0  0  0  0  0  0  0  0  0  0  0  0
  132.0596  131.4271  159.0138 C   0  0  0  0  0  0  0  0  0  0  0  0
  131.7838  132.5274  159.8046 C   0  0  0  0  0  0  0  0  0  0  0  0
  130.9932  133.5524  159.3175 C   0  0  0  0  0  0  0  0  0  0  0  0
  130.7005  134.7524  160.1807 C   0  0  0  0  0  0  0  0  0  0  0  0
  131.7287  135.7778  159.9587 N   0  0  0  0  0  0  0  0  0  0  0  0
  132.6344  135.4035  160.1990 H   0  0  0  0  0  0  0  0  0  0  0  0
  131.7253  136.0529  158.9879 H   0  0  0  0  0  0  0  0  0  0  0  0
  131.4433  136.9476  160.8001 C   0  0  0  0  0  0  0  0  0  0  0  0
  132.4982  137.9995  160.5722 C   0  0  0  0  0  0  0  0  0  0  0  0
  133.1112  138.7017  161.5414 C   0  0  0  0  0  0  0  0  0  0  0  0
  134.0550  139.6026  160.8842 C   0  0  0  0  0  0  0  0  0  0  0  0
  134.9720  140.5693  161.3477 C   0  0  0  0  0  0  0  0  0  0  0  0
  135.1131  140.8188  162.7507 C   0  0  0  0  0  0  0  0  0  0  0  0
  135.2288  141.0233  163.9009 C   0  0  0  0  0  0  0  0  0  0  0  0
  135.3698  141.2727  165.3039 C   0  0  0  0  0  0  0  0  0  0  0  0
  136.2742  142.2174  165.7808 C   0  0  0  0  0  0  0  0  0  0  0  0
  136.4013  142.4534  167.0751 N   0  0  0  0  0  0  0  0  0  0  0  0
  135.7144  141.8268  168.0004 C   0  0  0  0  0  0  0  0  0  0  0  0
  134.7710  140.8446  167.6590 C   0  0  0  0  0  0  0  0  0  0  0  0
  134.0228  140.1588  168.6289 C   0  0  0  0  0  0  0  0  0  0  0  0
  133.1214  139.2153  168.2372 C   0  0  0  0  0  0  0  0  0  0  0  0
  132.9301  138.9188  166.8898 C   0  0  0  0  0  0  0  0  0  0  0  0
  133.6406  139.5659  165.9212 C   0  0  0  0  0  0  0  0  0  0  0  0
  134.5725  140.5392  166.2881 C   0  0  0  0  0  0  0  0  0  0  0  0
  135.7406  141.2783  160.4254 C   0  0  0  0  0  0  0  0  0  0  0  0
  135.6014  141.0344  159.0705 C   0  0  0  0  0  0  0  0  0  0  0  0
  134.7058  140.0917  158.6091 C   0  0  0  0  0  0  0  0  0  0  0  0
  133.9253  139.3672  159.5053 C   0  0  0  0  0  0  0  0  0  0  0  0
  132.9705  138.3867  159.3487 N   0  0  0  0  0  0  0  0  0  0  0  0
  132.6770  138.0250  158.4979 H   0  0  0  0  0  0  0  0  0  0  0  0
  128.5576  134.3837  157.7570 H   0  0  0  0  0  0  0  0  0  0  0  0
  129.9009  135.5311  157.9743 H   0  0  0  0  0  0  0  0  0  0  0  0
  129.7163  134.6582  156.4339 H   0  0  0  0  0  0  0  0  0  0  0  0
  129.6577  133.0074  155.6134 H   0  0  0  0  0  0  0  0  0  0  0  0
  130.4087  131.5198  155.3989 H   0  0  0  0  0  0  0  0  0  0  0  0
  131.7566  130.4859  157.1191 H   0  0  0  0  0  0  0  0  0  0  0  0
  132.6807  130.6304  159.3958 H   0  0  0  0  0  0  0  0  0  0  0  0
  132.1904  132.5885  160.8033 H   0  0  0  0  0  0  0  0  0  0  0  0
  129.7221  135.1567  159.9213 H   0  0  0  0  0  0  0  0  0  0  0  0
  130.7042  134.4552  161.2294 H   0  0  0  0  0  0  0  0  0  0  0  0
  130.4650  137.3521  160.5404 H   0  0  0  0  0  0  0  0  0  0  0  0
  131.4469  136.6506  161.8488 H   0  0  0  0  0  0  0  0  0  0  0  0
  132.9398  138.6146  162.6042 H   0  0  0  0  0  0  0  0  0  0  0  0
  136.8802  142.7717  165.0794 H   0  0  0  0  0  0  0  0  0  0  0  0
  135.8766  142.0701  169.0401 H   0  0  0  0  0  0  0  0  0  0  0  0
  134.1602  140.3779  169.6776 H   0  0  0  0  0  0  0  0  0  0  0  0
  132.5460  138.6883  168.9839 H   0  0  0  0  0  0  0  0  0  0  0  0
  132.2093  138.1656  166.6078 H   0  0  0  0  0  0  0  0  0  0  0  0
  133.4838  139.3273  164.8796 H   0  0  0  0  0  0  0  0  0  0  0  0
  136.4462  142.0201  160.7693 H   0  0  0  0  0  0  0  0  0  0  0  0
  136.2014  141.5896  158.3648 H   0  0  0  0  0  0  0  0  0  0  0  0
  134.6104  139.9149  157.5480 H   0  0  0  0  0  0  0  0  0  0  0  0
  1  2  1  0
  1 36  1  0
  1 37  1  0
  1 38  1  0
  2  8  2  0
  2  3  1  0
  3  4  1  0
  3  5  2  0
  4 39  1  0
  4 40  1  0
  5  6  1  0
  5 41  1  0
  6  7  2  0
  6 42  1  0
  7  8  1  0
  7 43  1  0
  8  9  1  0
  9 10  1  0
  9 44  1  0
  9 45  1  0
 10 11  1  0
 10 12  1  0
 10 13  1  0
 13 14  1  0
 13 46  1  0
 13 47  1  0
 14 34  1  0
 14 15  2  0
 15 16  1  0
 15 48  1  0
 16 33  2  0
 16 17  1  0
 17 18  1  0
 17 30  2  0
 18 19  3  0
 19 20  1  0
 20 29  1  0
 20 21  2  0
 21 22  1  0
 21 49  1  0
 22 23  2  0
 23 24  1  0
 23 50  1  0
 24 29  2  0
 24 25  1  0
 25 26  2  0
 25 51  1  0
 26 27  1  0
 26 52  1  0
 27 28  2  0
 27 53  1  0
 28 29  1  0
 28 54  1  0
 30 31  1  0
 30 55  1  0
 31 32  2  0
 31 56  1  0
 32 33  1  0
 32 57  1  0
 33 34  1  0
 34 35  1  0
M  CHG  1  10   1
M  END
>  <DOCK_score>  (1) 
-56.020325

>  <SMILES>  (1) 
Cc1c(N)cccc1C[NH2+]Cc1cc2c(C#Cc3cncc4ccccc34)cccc2[nH]1

$$$$
