O=C1Cc2ccccc2C1[C@@H](Nc1[nH]cc(-c2ccc(C3=CCC=CC3)cc2)[nH+]1)C1CCCC1
     RDKit          3D

 66 71  0  0  1  0  0  0  0  0999 V2000
  129.4575  137.9033  159.8455 O   0  0  0  0  0  0  0  0  0  0  0  0
  128.9732  136.8315  160.1193 C   0  0  0  0  0  0  0  0  0  0  0  0
  127.7852  136.1716  159.4608 C   0  0  0  0  0  0  0  0  0  0  0  0
  127.5666  134.8484  160.1525 C   0  0  0  0  0  0  0  0  0  0  0  0
  126.6127  133.8672  159.9287 C   0  0  0  0  0  0  0  0  0  0  0  0
  126.6032  132.7191  160.6955 C   0  0  0  0  0  0  0  0  0  0  0  0
  127.5476  132.5467  161.6904 C   0  0  0  0  0  0  0  0  0  0  0  0
  128.4977  133.5229  161.9145 C   0  0  0  0  0  0  0  0  0  0  0  0
  128.5092  134.6758  161.1486 C   0  0  0  0  0  0  0  0  0  0  0  0
  129.4287  135.8714  161.1921 C   0  0  1  0  0  0  0  0  0  0  0  0
  130.8682  135.4308  160.9191 C   0  0  1  0  0  0  0  0  0  0  0  0
  131.0723  134.5039  161.4549 H   0  0  0  0  0  0  0  0  0  0  0  0
  131.0480  135.2137  159.4814 N   0  0  0  0  0  0  0  0  0  0  0  0
  130.8072  133.9648  158.9348 C   0  0  0  0  0  0  0  0  0  0  0  0
  130.4072  132.8615  159.6241 N   0  0  0  0  0  0  0  0  0  0  0  0
  130.2415  132.8092  160.5784 H   0  0  0  0  0  0  0  0  0  0  0  0
  130.2788  131.8366  158.7189 C   0  0  0  0  0  0  0  0  0  0  0  0
  130.6129  132.3403  157.5040 C   0  0  0  0  0  0  0  0  0  0  0  0
  130.6263  131.5936  156.2237 C   0  0  0  0  0  0  0  0  0  0  0  0
  129.8094  132.0030  155.1693 C   0  0  0  0  0  0  0  0  0  0  0  0
  129.8250  131.3128  153.9780 C   0  0  0  0  0  0  0  0  0  0  0  0
  130.6511  130.1967  153.8287 C   0  0  0  0  0  0  0  0  0  0  0  0
  130.6649  129.4528  152.5528 C   0  0  0  0  0  0  0  0  0  0  0  0
  130.4125  130.1055  151.4386 C   0  0  0  0  0  0  0  0  0  0  0  0
  130.4096  129.4399  150.0950 C   0  0  0  0  0  0  0  0  0  0  0  0
  130.2410  127.9564  150.2273 C   0  0  0  0  0  0  0  0  0  0  0  0
  130.4844  127.3119  151.3267 C   0  0  0  0  0  0  0  0  0  0  0  0
  130.9602  127.9831  152.5794 C   0  0  0  0  0  0  0  0  0  0  0  0
  131.4647  129.7844  154.8866 C   0  0  0  0  0  0  0  0  0  0  0  0
  131.4516  130.4784  156.0755 C   0  0  0  0  0  0  0  0  0  0  0  0
  130.9324  133.6488  157.6690 N   0  0  0  0  0  0  0  0  0  0  0  0
  131.2092  134.2536  156.9629 H   0  0  0  0  0  0  0  0  0  0  0  0
  131.8334  136.5184  161.3951 C   0  0  0  0  0  0  0  0  0  0  0  0
  133.2914  136.0573  161.1908 C   0  0  0  0  0  0  0  0  0  0  0  0
  134.0428  136.6163  162.4245 C   0  0  0  0  0  0  0  0  0  0  0  0
  133.0112  136.4329  163.5652 C   0  0  0  0  0  0  0  0  0  0  0  0
  131.6553  136.7572  162.9048 C   0  0  0  0  0  0  0  0  0  0  0  0
  126.9018  136.7997  159.5751 H   0  0  0  0  0  0  0  0  0  0  0  0
  127.9904  136.0097  158.4028 H   0  0  0  0  0  0  0  0  0  0  0  0
  125.8747  134.0014  159.1518 H   0  0  0  0  0  0  0  0  0  0  0  0
  125.8588  131.9570  160.5187 H   0  0  0  0  0  0  0  0  0  0  0  0
  127.5419  131.6495  162.2917 H   0  0  0  0  0  0  0  0  0  0  0  0
  129.2354  133.3876  162.6916 H   0  0  0  0  0  0  0  0  0  0  0  0
  129.3670  136.3508  162.1692 H   0  0  0  0  0  0  0  0  0  0  0  0
  131.3355  135.9448  158.9127 H   0  0  0  0  0  0  0  0  0  0  0  0
  129.9749  130.8227  158.9337 H   0  0  0  0  0  0  0  0  0  0  0  0
  129.1678  132.8637  155.2861 H   0  0  0  0  0  0  0  0  0  0  0  0
  129.1957  131.6322  153.1605 H   0  0  0  0  0  0  0  0  0  0  0  0
  130.2032  131.1637  151.4936 H   0  0  0  0  0  0  0  0  0  0  0  0
  131.3512  129.6484  149.5869 H   0  0  0  0  0  0  0  0  0  0  0  0
  129.5876  129.8415  149.5026 H   0  0  0  0  0  0  0  0  0  0  0  0
  129.9008  127.3982  149.3674 H   0  0  0  0  0  0  0  0  0  0  0  0
  130.3377  126.2419  151.3396 H   0  0  0  0  0  0  0  0  0  0  0  0
  132.0358  127.8366  152.6768 H   0  0  0  0  0  0  0  0  0  0  0  0
  130.4594  127.5338  153.4368 H   0  0  0  0  0  0  0  0  0  0  0  0
  132.1037  128.9213  154.7720 H   0  0  0  0  0  0  0  0  0  0  0  0
  132.0807  130.1598  156.8936 H   0  0  0  0  0  0  0  0  0  0  0  0
  131.6532  137.4431  160.8470 H   0  0  0  0  0  0  0  0  0  0  0  0
  133.3479  134.9690  161.1704 H   0  0  0  0  0  0  0  0  0  0  0  0
  133.6995  136.4788  160.2722 H   0  0  0  0  0  0  0  0  0  0  0  0
  134.2822  137.6705  162.2860 H   0  0  0  0  0  0  0  0  0  0  0  0
  134.9447  136.0370  162.6225 H   0  0  0  0  0  0  0  0  0  0  0  0
  133.2150  137.1284  164.3793 H   0  0  0  0  0  0  0  0  0  0  0  0
  133.0226  135.4051  163.9283 H   0  0  0  0  0  0  0  0  0  0  0  0
  131.3895  137.7980  163.0894 H   0  0  0  0  0  0  0  0  0  0  0  0
  130.8806  136.0989  163.2980 H   0  0  0  0  0  0  0  0  0  0  0  0
  1  2  2  0
  2 10  1  0
  2  3  1  0
  3  4  1  0
  3 38  1  0
  3 39  1  0
  4  9  2  0
  4  5  1  0
  5  6  2  0
  5 40  1  0
  6  7  1  0
  6 41  1  0
  7  8  2  0
  7 42  1  0
  8  9  1  0
  8 43  1  0
  9 10  1  0
 10 11  1  0
 10 44  1  1
 11 12  1  1
 11 13  1  0
 11 33  1  0
 13 45  1  0
 14 13  1  0
 14 31  2  0
 14 15  1  0
 15 16  1  0
 15 17  1  0
 17 18  2  0
 17 46  1  0
 18 19  1  0
 18 31  1  0
 19 30  1  0
 19 20  2  0
 20 21  1  0
 20 47  1  0
 21 22  2  0
 21 48  1  0
 22 23  1  0
 22 29  1  0
 23 28  1  0
 23 24  2  0
 24 25  1  0
 24 49  1  0
 25 26  1  0
 25 50  1  0
 25 51  1  0
 26 27  2  0
 26 52  1  0
 27 28  1  0
 27 53  1  0
 28 54  1  0
 28 55  1  0
 29 30  2  0
 29 56  1  0
 30 57  1  0
 31 32  1  0
 33 37  1  0
 33 34  1  0
 33 58  1  0
 34 35  1  0
 34 59  1  0
 34 60  1  0
 35 36  1  0
 35 61  1  0
 35 62  1  0
 36 37  1  0
 36 63  1  0
 36 64  1  0
 37 65  1  0
 37 66  1  0
M  CHG  1  31   1
M  END
>  <DOCK_score>  (1) 
-59.60667

>  <SMILES>  (1) 
O=C1Cc2ccccc2C1[C@@H](Nc1[nH]cc(-c2ccc(C3=CCC=CC3)cc2)[nH+]1)C1CCCC1

$$$$
