C[C@@H](Nc1[nH]cc(-c2ccc(N)cc2)[nH+]1)c1ccc2cccc3c2c1CC3
     RDKit          3D

 50 54  0  0  1  0  0  0  0  0999 V2000
  127.4515  136.0452  158.7853 C   0  0  0  0  0  0  0  0  0  0  0  0
  128.7486  135.9990  159.5956 C   0  0  1  0  0  0  0  0  0  0  0  0
  128.6183  135.3383  160.4526 H   0  0  0  0  0  0  0  0  0  0  0  0
  129.8342  135.4951  158.7509 N   0  0  0  0  0  0  0  0  0  0  0  0
  129.7454  134.2327  158.1895 C   0  0  0  0  0  0  0  0  0  0  0  0
  129.0856  133.1709  158.7269 N   0  0  0  0  0  0  0  0  0  0  0  0
  128.5975  133.1619  159.5652 H   0  0  0  0  0  0  0  0  0  0  0  0
  129.2388  132.1129  157.8625 C   0  0  0  0  0  0  0  0  0  0  0  0
  129.9826  132.5608  156.8210 C   0  0  0  0  0  0  0  0  0  0  0  0
  130.3977  131.7658  155.6391 C   0  0  0  0  0  0  0  0  0  0  0  0
  130.0029  132.1575  154.3609 C   0  0  0  0  0  0  0  0  0  0  0  0
  130.3951  131.4207  153.2632 C   0  0  0  0  0  0  0  0  0  0  0  0
  131.1733  130.2813  153.4318 C   0  0  0  0  0  0  0  0  0  0  0  0
  131.5642  129.5329  152.3190 N   0  0  0  0  0  0  0  0  0  0  0  0
  131.5632  129.8860  154.7057 C   0  0  0  0  0  0  0  0  0  0  0  0
  131.1786  130.6232  155.8057 C   0  0  0  0  0  0  0  0  0  0  0  0
  130.2827  133.8633  157.0524 N   0  0  0  0  0  0  0  0  0  0  0  0
  130.8076  134.4319  156.4675 H   0  0  0  0  0  0  0  0  0  0  0  0
  129.0893  137.3856  160.0775 C   0  0  0  0  0  0  0  0  0  0  0  0
  129.8851  138.2195  159.2882 C   0  0  0  0  0  0  0  0  0  0  0  0
  130.2244  139.4838  159.6744 C   0  0  0  0  0  0  0  0  0  0  0  0
  129.7568  139.9632  160.9092 C   0  0  0  0  0  0  0  0  0  0  0  0
  130.0340  141.2425  161.4186 C   0  0  0  0  0  0  0  0  0  0  0  0
  129.5202  141.5923  162.6338 C   0  0  0  0  0  0  0  0  0  0  0  0
  128.7295  140.7227  163.3889 C   0  0  0  0  0  0  0  0  0  0  0  0
  128.4419  139.4759  162.9243 C   0  0  0  0  0  0  0  0  0  0  0  0
  128.9580  139.1058  161.6864 C   0  0  0  0  0  0  0  0  0  0  0  0
  128.6156  137.8209  161.2771 C   0  0  0  0  0  0  0  0  0  0  0  0
  127.7531  137.2177  162.3587 C   0  0  0  0  0  0  0  0  0  0  0  0
  127.6328  138.3118  163.4420 C   0  0  0  0  0  0  0  0  0  0  0  0
  126.6436  136.4201  159.4139 H   0  0  0  0  0  0  0  0  0  0  0  0
  127.5816  136.7059  157.9284 H   0  0  0  0  0  0  0  0  0  0  0  0
  127.2048  135.0423  158.4369 H   0  0  0  0  0  0  0  0  0  0  0  0
  130.6152  136.0459  158.5850 H   0  0  0  0  0  0  0  0  0  0  0  0
  128.8396  131.1172  157.9869 H   0  0  0  0  0  0  0  0  0  0  0  0
  129.3942  133.0400  154.2299 H   0  0  0  0  0  0  0  0  0  0  0  0
  130.0931  131.7262  152.2724 H   0  0  0  0  0  0  0  0  0  0  0  0
  132.1075  128.7380  152.4356 H   0  0  0  0  0  0  0  0  0  0  0  0
  131.2923  129.8084  151.4294 H   0  0  0  0  0  0  0  0  0  0  0  0
  132.1680  129.0003  154.8344 H   0  0  0  0  0  0  0  0  0  0  0  0
  131.4821  130.3156  156.7955 H   0  0  0  0  0  0  0  0  0  0  0  0
  130.2446  137.8506  158.3390 H   0  0  0  0  0  0  0  0  0  0  0  0
  130.8412  140.1048  159.0417 H   0  0  0  0  0  0  0  0  0  0  0  0
  130.6427  141.9371  160.8589 H   0  0  0  0  0  0  0  0  0  0  0  0
  129.7325  142.5761  163.0254 H   0  0  0  0  0  0  0  0  0  0  0  0
  128.3443  141.0413  164.3462 H   0  0  0  0  0  0  0  0  0  0  0  0
  126.7688  136.9689  161.9621 H   0  0  0  0  0  0  0  0  0  0  0  0
  128.2307  136.3289  162.7711 H   0  0  0  0  0  0  0  0  0  0  0  0
  126.5894  138.5981  163.5755 H   0  0  0  0  0  0  0  0  0  0  0  0
  128.0502  137.9578  164.3846 H   0  0  0  0  0  0  0  0  0  0  0  0
  1  2  1  0
  1 31  1  0
  1 32  1  0
  1 33  1  0
  2  3  1  1
  2  4  1  0
  2 19  1  0
  4 34  1  0
  5  4  1  0
  5 17  2  0
  5  6  1  0
  6  7  1  0
  6  8  1  0
  8  9  2  0
  8 35  1  0
  9 10  1  0
  9 17  1  0
 10 16  1  0
 10 11  2  0
 11 12  1  0
 11 36  1  0
 12 13  2  0
 12 37  1  0
 13 14  1  0
 13 15  1  0
 14 38  1  0
 14 39  1  0
 15 16  2  0
 15 40  1  0
 16 41  1  0
 17 18  1  0
 19 28  1  0
 19 20  2  0
 20 21  1  0
 20 42  1  0
 21 22  2  0
 21 43  1  0
 22 27  1  0
 22 23  1  0
 23 24  2  0
 23 44  1  0
 24 25  1  0
 24 45  1  0
 25 26  2  0
 25 46  1  0
 26 30  1  0
 26 27  1  0
 27 28  2  0
 28 29  1  0
 29 30  1  0
 29 47  1  0
 29 48  1  0
 30 49  1  0
 30 50  1  0
M  CHG  1  17   1
M  END
>  <DOCK_score>  (1) 
-56.857323

>  <SMILES>  (1) 
C[C@@H](Nc1[nH]cc(-c2ccc(N)cc2)[nH+]1)c1ccc2cccc3c2c1CC3

$$$$
