CCc1ccc(-c2c[nH]c(N[C@H](c3ccccc3)C3CCC3)[nH+]2)cc1
     RDKit          3D

 51 54  0  0  1  0  0  0  0  0999 V2000
  130.1551  129.0633  151.3502 C   0  0  0  0  0  0  0  0  0  0  0  0
  131.4566  129.6572  151.8928 C   0  0  0  0  0  0  0  0  0  0  0  0
  131.1865  130.3418  153.2079 C   0  0  0  0  0  0  0  0  0  0  0  0
  131.2890  129.6294  154.3892 C   0  0  0  0  0  0  0  0  0  0  0  0
  131.0483  130.2526  155.5968 C   0  0  0  0  0  0  0  0  0  0  0  0
  130.6903  131.5993  155.6239 C   0  0  0  0  0  0  0  0  0  0  0  0
  130.4250  132.2733  156.9183 C   0  0  0  0  0  0  0  0  0  0  0  0
  129.9425  131.6844  158.0406 C   0  0  0  0  0  0  0  0  0  0  0  0
  129.8504  132.6657  158.9975 N   0  0  0  0  0  0  0  0  0  0  0  0
  129.5369  132.5522  159.9084 H   0  0  0  0  0  0  0  0  0  0  0  0
  130.2798  133.8265  158.4316 C   0  0  0  0  0  0  0  0  0  0  0  0
  130.3441  135.0563  159.0639 N   0  0  0  0  0  0  0  0  0  0  0  0
  129.9278  135.1834  160.4628 C   0  0  2  0  0  0  0  0  0  0  0  0
  130.2701  134.3139  161.0240 H   0  0  0  0  0  0  0  0  0  0  0  0
  128.4249  135.2675  160.5339 C   0  0  0  0  0  0  0  0  0  0  0  0
  127.7570  134.7798  161.6417 C   0  0  0  0  0  0  0  0  0  0  0  0
  126.3786  134.8608  161.7088 C   0  0  0  0  0  0  0  0  0  0  0  0
  125.6674  135.4213  160.6644 C   0  0  0  0  0  0  0  0  0  0  0  0
  126.3349  135.9042  159.5544 C   0  0  0  0  0  0  0  0  0  0  0  0
  127.7136  135.8271  159.4890 C   0  0  0  0  0  0  0  0  0  0  0  0
  130.5384  136.4511  161.0634 C   0  0  0  0  0  0  0  0  0  0  0  0
  130.1652  137.7346  160.3032 C   0  0  0  0  0  0  0  0  0  0  0  0
  131.6161  138.1937  160.5242 C   0  0  0  0  0  0  0  0  0  0  0  0
  131.9893  136.7051  160.6215 C   0  0  0  0  0  0  0  0  0  0  0  0
  130.6278  133.5868  157.1909 N   0  0  0  0  0  0  0  0  0  0  0  0
  130.9729  134.2441  156.5665 H   0  0  0  0  0  0  0  0  0  0  0  0
  130.5831  132.3106  154.4300 C   0  0  0  0  0  0  0  0  0  0  0  0
  130.8316  131.6785  153.2286 C   0  0  0  0  0  0  0  0  0  0  0  0
  129.7615  128.3386  152.0630 H   0  0  0  0  0  0  0  0  0  0  0  0
  129.4262  129.8600  151.2021 H   0  0  0  0  0  0  0  0  0  0  0  0
  130.3505  128.5681  150.3990 H   0  0  0  0  0  0  0  0  0  0  0  0
  132.1856  128.8604  152.0409 H   0  0  0  0  0  0  0  0  0  0  0  0
  131.8502  130.3818  151.1800 H   0  0  0  0  0  0  0  0  0  0  0  0
  131.5618  128.5847  154.3667 H   0  0  0  0  0  0  0  0  0  0  0  0
  131.1332  129.6968  156.5190 H   0  0  0  0  0  0  0  0  0  0  0  0
  129.6803  130.6435  158.1591 H   0  0  0  0  0  0  0  0  0  0  0  0
  130.6650  135.8339  158.5808 H   0  0  0  0  0  0  0  0  0  0  0  0
  128.3124  134.3385  162.4561 H   0  0  0  0  0  0  0  0  0  0  0  0
  125.8571  134.4839  162.5762 H   0  0  0  0  0  0  0  0  0  0  0  0
  124.5903  135.4822  160.7156 H   0  0  0  0  0  0  0  0  0  0  0  0
  125.7793  136.3421  158.7383 H   0  0  0  0  0  0  0  0  0  0  0  0
  128.2351  136.2044  158.6217 H   0  0  0  0  0  0  0  0  0  0  0  0
  130.3916  136.5220  162.1412 H   0  0  0  0  0  0  0  0  0  0  0  0
  129.9157  137.5649  159.2559 H   0  0  0  0  0  0  0  0  0  0  0  0
  129.4290  138.3500  160.8204 H   0  0  0  0  0  0  0  0  0  0  0  0
  131.7636  138.7425  161.4544 H   0  0  0  0  0  0  0  0  0  0  0  0
  132.0510  138.6974  159.6610 H   0  0  0  0  0  0  0  0  0  0  0  0
  132.7258  136.4892  161.3955 H   0  0  0  0  0  0  0  0  0  0  0  0
  132.2385  136.2538  159.6610 H   0  0  0  0  0  0  0  0  0  0  0  0
  130.3058  133.3544  154.4451 H   0  0  0  0  0  0  0  0  0  0  0  0
  130.7485  132.2286  152.3029 H   0  0  0  0  0  0  0  0  0  0  0  0
  1  2  1  0
  1 29  1  0
  1 30  1  0
  1 31  1  0
  2  3  1  0
  2 32  1  0
  2 33  1  0
  3 28  2  0
  3  4  1  0
  4  5  2  0
  4 34  1  0
  5  6  1  0
  5 35  1  0
  6  7  1  0
  6 27  2  0
  7 25  1  0
  7  8  2  0
  8  9  1  0
  8 36  1  0
  9 10  1  0
  9 11  1  0
 11 12  1  0
 11 25  2  0
 12 13  1  0
 12 37  1  0
 13 14  1  1
 13 15  1  0
 13 21  1  0
 15 20  1  0
 15 16  2  0
 16 17  1  0
 16 38  1  0
 17 18  2  0
 17 39  1  0
 18 19  1  0
 18 40  1  0
 19 20  2  0
 19 41  1  0
 20 42  1  0
 21 24  1  0
 21 22  1  0
 21 43  1  0
 22 23  1  0
 22 44  1  0
 22 45  1  0
 23 24  1  0
 23 46  1  0
 23 47  1  0
 24 48  1  0
 24 49  1  0
 25 26  1  0
 27 28  1  0
 27 50  1  0
 28 51  1  0
M  CHG  1  25   1
M  END
>  <DOCK_score>  (1) 
-55.993977

>  <SMILES>  (1) 
CCc1ccc(-c2c[nH]c(N[C@H](c3ccccc3)C3CCC3)[nH+]2)cc1

$$$$
