CCc1ccc(-c2c[nH]c(N[C@@H](CC)c3ccnn3C)[nH+]2)cc1
     RDKit          3D

 47 49  0  0  1  0  0  0  0  0999 V2000
  130.4660  128.3619  151.7787 C   0  0  0  0  0  0  0  0  0  0  0  0
  131.5364  129.4170  152.0649 C   0  0  0  0  0  0  0  0  0  0  0  0
  131.1862  130.1577  153.3297 C   0  0  0  0  0  0  0  0  0  0  0  0
  131.6460  129.6945  154.5488 C   0  0  0  0  0  0  0  0  0  0  0  0
  131.3333  130.3719  155.7100 C   0  0  0  0  0  0  0  0  0  0  0  0
  130.5429  131.5184  155.6534 C   0  0  0  0  0  0  0  0  0  0  0  0
  130.1988  132.2476  156.8984 C   0  0  0  0  0  0  0  0  0  0  0  0
  129.5245  131.7403  157.9600 C   0  0  0  0  0  0  0  0  0  0  0  0
  129.4250  132.7485  158.8878 N   0  0  0  0  0  0  0  0  0  0  0  0
  128.9942  132.6907  159.7549 H   0  0  0  0  0  0  0  0  0  0  0  0
  130.0420  133.8433  158.3655 C   0  0  0  0  0  0  0  0  0  0  0  0
  130.1625  135.0743  158.9874 N   0  0  0  0  0  0  0  0  0  0  0  0
  129.1337  135.5233  159.9287 C   0  0  1  0  0  0  0  0  0  0  0  0
  129.0643  134.8162  160.7555 H   0  0  0  0  0  0  0  0  0  0  0  0
  129.5052  136.9055  160.4694 C   0  0  0  0  0  0  0  0  0  0  0  0
  130.8540  136.8265  161.1874 C   0  0  0  0  0  0  0  0  0  0  0  0
  127.8051  135.6010  159.2216 C   0  0  0  0  0  0  0  0  0  0  0  0
  127.6145  135.8712  157.9094 C   0  0  0  0  0  0  0  0  0  0  0  0
  126.2383  135.8460  157.6604 C   0  0  0  0  0  0  0  0  0  0  0  0
  125.6243  135.5784  158.7844 N   0  0  0  0  0  0  0  0  0  0  0  0
  126.5923  135.4196  159.7847 N   0  0  0  0  0  0  0  0  0  0  0  0
  126.3334  135.1114  161.1933 C   0  0  0  0  0  0  0  0  0  0  0  0
  130.5081  133.5384  157.1791 N   0  0  0  0  0  0  0  0  0  0  0  0
  130.9945  134.1403  156.5942 H   0  0  0  0  0  0  0  0  0  0  0  0
  130.0775  131.9776  154.4225 C   0  0  0  0  0  0  0  0  0  0  0  0
  130.4012  131.2955  153.2672 C   0  0  0  0  0  0  0  0  0  0  0  0
  130.4184  127.6586  152.6100 H   0  0  0  0  0  0  0  0  0  0  0  0
  129.4982  128.8488  151.6587 H   0  0  0  0  0  0  0  0  0  0  0  0
  130.7192  127.8263  150.8638 H   0  0  0  0  0  0  0  0  0  0  0  0
  132.5038  128.9307  152.1843 H   0  0  0  0  0  0  0  0  0  0  0  0
  131.5837  130.1209  151.2330 H   0  0  0  0  0  0  0  0  0  0  0  0
  132.2544  128.8033  154.5920 H   0  0  0  0  0  0  0  0  0  0  0  0
  131.6968  130.0118  156.6611 H   0  0  0  0  0  0  0  0  0  0  0  0
  129.1392  130.7361  158.0572 H   0  0  0  0  0  0  0  0  0  0  0  0
  130.9282  135.6395  158.7999 H   0  0  0  0  0  0  0  0  0  0  0  0
  129.5746  137.6123  159.6427 H   0  0  0  0  0  0  0  0  0  0  0  0
  128.7398  137.2393  161.1698 H   0  0  0  0  0  0  0  0  0  0  0  0
  131.1188  137.8111  161.5725 H   0  0  0  0  0  0  0  0  0  0  0  0
  130.7847  136.1194  162.0141 H   0  0  0  0  0  0  0  0  0  0  0  0
  131.6195  136.4924  160.4870 H   0  0  0  0  0  0  0  0  0  0  0  0
  128.3883  136.0688  157.1823 H   0  0  0  0  0  0  0  0  0  0  0  0
  125.7641  136.0210  156.7060 H   0  0  0  0  0  0  0  0  0  0  0  0
  126.2164  136.0395  161.7527 H   0  0  0  0  0  0  0  0  0  0  0  0
  125.4208  134.5209  161.2743 H   0  0  0  0  0  0  0  0  0  0  0  0
  127.1704  134.5444  161.6008 H   0  0  0  0  0  0  0  0  0  0  0  0
  129.4645  132.8655  154.3728 H   0  0  0  0  0  0  0  0  0  0  0  0
  130.0409  131.6503  152.3129 H   0  0  0  0  0  0  0  0  0  0  0  0
  1  2  1  0
  1 27  1  0
  1 28  1  0
  1 29  1  0
  2  3  1  0
  2 30  1  0
  2 31  1  0
  3 26  2  0
  3  4  1  0
  4  5  2  0
  4 32  1  0
  5  6  1  0
  5 33  1  0
  6  7  1  0
  6 25  2  0
  7 23  1  0
  7  8  2  0
  8  9  1  0
  8 34  1  0
  9 10  1  0
  9 11  1  0
 11 12  1  0
 11 23  2  0
 12 13  1  0
 12 35  1  0
 13 14  1  1
 13 15  1  0
 13 17  1  0
 15 16  1  0
 15 36  1  0
 15 37  1  0
 16 38  1  0
 16 39  1  0
 16 40  1  0
 17 21  1  0
 17 18  2  0
 18 19  1  0
 18 41  1  0
 19 20  2  0
 19 42  1  0
 20 21  1  0
 21 22  1  0
 22 43  1  0
 22 44  1  0
 22 45  1  0
 23 24  1  0
 25 26  1  0
 25 46  1  0
 26 47  1  0
M  CHG  1  23   1
M  END
>  <DOCK_score>  (1) 
-56.515617

>  <SMILES>  (1) 
CCc1ccc(-c2c[nH]c(N[C@@H](CC)c3ccnn3C)[nH+]2)cc1

$$$$
