C=C[C@@H](Nc1[nH]cc(-c2ccc(CC)cc2)[nH+]1)C1=CCCC1
     RDKit          3D

 46 48  0  0  1  0  0  0  0  0999 V2000
  127.8215  136.3818  157.6480 C   0  0  0  0  0  0  0  0  0  0  0  0
  127.7664  136.1478  158.9357 C   0  0  0  0  0  0  0  0  0  0  0  0
  129.0385  136.0052  159.7310 C   0  0  1  0  0  0  0  0  0  0  0  0
  128.8687  135.3302  160.5700 H   0  0  0  0  0  0  0  0  0  0  0  0
  130.0929  135.4607  158.8719 N   0  0  0  0  0  0  0  0  0  0  0  0
  129.9299  134.2215  158.2767 C   0  0  0  0  0  0  0  0  0  0  0  0
  129.2128  133.1843  158.7887 N   0  0  0  0  0  0  0  0  0  0  0  0
  128.7279  133.1804  159.6289 H   0  0  0  0  0  0  0  0  0  0  0  0
  129.3018  132.1441  157.8960 C   0  0  0  0  0  0  0  0  0  0  0  0
  130.0701  132.5751  156.8649 C   0  0  0  0  0  0  0  0  0  0  0  0
  130.4406  131.7876  155.6637 C   0  0  0  0  0  0  0  0  0  0  0  0
  130.0750  132.2338  154.3948 C   0  0  0  0  0  0  0  0  0  0  0  0
  130.4228  131.4974  153.2807 C   0  0  0  0  0  0  0  0  0  0  0  0
  131.1330  130.3183  153.4218 C   0  0  0  0  0  0  0  0  0  0  0  0
  131.5100  129.5184  152.2015 C   0  0  0  0  0  0  0  0  0  0  0  0
  130.3963  128.5190  151.8826 C   0  0  0  0  0  0  0  0  0  0  0  0
  131.4935  129.8681  154.6786 C   0  0  0  0  0  0  0  0  0  0  0  0
  131.1560  130.5993  155.7994 C   0  0  0  0  0  0  0  0  0  0  0  0
  130.4449  133.8519  157.1295 N   0  0  0  0  0  0  0  0  0  0  0  0
  131.0031  134.4038  156.5596 H   0  0  0  0  0  0  0  0  0  0  0  0
  129.4606  137.3554  160.2500 C   0  0  0  0  0  0  0  0  0  0  0  0
  130.2445  138.1802  159.6104 C   0  0  0  0  0  0  0  0  0  0  0  0
  130.4670  139.4460  160.4050 C   0  0  0  0  0  0  0  0  0  0  0  0
  129.3524  139.4400  161.4770 C   0  0  0  0  0  0  0  0  0  0  0  0
  129.0373  137.9297  161.5819 C   0  0  0  0  0  0  0  0  0  0  0  0
  126.9098  136.4841  157.0783 H   0  0  0  0  0  0  0  0  0  0  0  0
  128.7788  136.4724  157.1563 H   0  0  0  0  0  0  0  0  0  0  0  0
  126.8090  136.0572  159.4277 H   0  0  0  0  0  0  0  0  0  0  0  0
  130.9053  135.9686  158.7202 H   0  0  0  0  0  0  0  0  0  0  0  0
  128.8469  131.1698  157.9958 H   0  0  0  0  0  0  0  0  0  0  0  0
  129.5203  133.1538  154.2837 H   0  0  0  0  0  0  0  0  0  0  0  0
  130.1397  131.8420  152.2970 H   0  0  0  0  0  0  0  0  0  0  0  0
  132.4381  128.9806  152.3918 H   0  0  0  0  0  0  0  0  0  0  0  0
  131.6472  130.1914  151.3542 H   0  0  0  0  0  0  0  0  0  0  0  0
  130.2588  127.8466  152.7294 H   0  0  0  0  0  0  0  0  0  0  0  0
  129.4681  129.0574  151.6918 H   0  0  0  0  0  0  0  0  0  0  0  0
  130.6690  127.9406  150.9999 H   0  0  0  0  0  0  0  0  0  0  0  0
  132.0438  128.9448  154.7830 H   0  0  0  0  0  0  0  0  0  0  0  0
  131.4420  130.2491  156.7803 H   0  0  0  0  0  0  0  0  0  0  0  0
  130.6756  137.9844  158.6398 H   0  0  0  0  0  0  0  0  0  0  0  0
  130.3719  140.3219  159.7632 H   0  0  0  0  0  0  0  0  0  0  0  0
  131.4488  139.4257  160.8780 H   0  0  0  0  0  0  0  0  0  0  0  0
  128.4803  139.9991  161.1377 H   0  0  0  0  0  0  0  0  0  0  0  0
  129.7202  139.8299  162.4259 H   0  0  0  0  0  0  0  0  0  0  0  0
  127.9700  137.7746  161.7404 H   0  0  0  0  0  0  0  0  0  0  0  0
  129.6117  137.4773  162.3903 H   0  0  0  0  0  0  0  0  0  0  0  0
  1  2  2  0
  1 26  1  0
  1 27  1  0
  2  3  1  0
  2 28  1  0
  3  4  1  1
  3  5  1  0
  3 21  1  0
  5 29  1  0
  6  5  1  0
  6 19  2  0
  6  7  1  0
  7  8  1  0
  7  9  1  0
  9 10  2  0
  9 30  1  0
 10 11  1  0
 10 19  1  0
 11 18  1  0
 11 12  2  0
 12 13  1  0
 12 31  1  0
 13 14  2  0
 13 32  1  0
 14 15  1  0
 14 17  1  0
 15 16  1  0
 15 33  1  0
 15 34  1  0
 16 35  1  0
 16 36  1  0
 16 37  1  0
 17 18  2  0
 17 38  1  0
 18 39  1  0
 19 20  1  0
 21 25  1  0
 21 22  2  0
 22 23  1  0
 22 40  1  0
 23 24  1  0
 23 41  1  0
 23 42  1  0
 24 25  1  0
 24 43  1  0
 24 44  1  0
 25 45  1  0
 25 46  1  0
M  CHG  1  19   1
M  END
>  <DOCK_score>  (1) 
-57.163754

>  <SMILES>  (1) 
C=C[C@@H](Nc1[nH]cc(-c2ccc(CC)cc2)[nH+]1)C1=CCCC1

$$$$
