Cc1n[nH]cc1C[NH2+]Cc1c[nH]nc1[C@H]1C[C@H](O)C1
     RDKit          3D

 39 41  0  0  1  0  0  0  0  0999 V2000
  133.8636  140.0646  162.7144 C   0  0  0  0  0  0  0  0  0  0  0  0
  133.9956  139.7939  161.2378 C   0  0  0  0  0  0  0  0  0  0  0  0
  134.7151  140.4863  160.3922 N   0  0  0  0  0  0  0  0  0  0  0  0
  134.5695  139.9135  159.1222 N   0  0  0  0  0  0  0  0  0  0  0  0
  134.9911  140.2225  158.3050 H   0  0  0  0  0  0  0  0  0  0  0  0
  133.7434  138.8526  159.2371 C   0  0  0  0  0  0  0  0  0  0  0  0
  133.3695  138.7597  160.5344 C   0  0  0  0  0  0  0  0  0  0  0  0
  132.4469  137.7214  161.1190 C   0  0  0  0  0  0  0  0  0  0  0  0
  131.9976  136.8119  160.0566 N   0  0  0  0  0  0  0  0  0  0  0  0
  132.7973  136.3565  159.6431 H   0  0  0  0  0  0  0  0  0  0  0  0
  131.5068  137.3378  159.3490 H   0  0  0  0  0  0  0  0  0  0  0  0
  131.0981  135.7998  160.6266 C   0  0  0  0  0  0  0  0  0  0  0  0
  130.6371  134.8668  159.5367 C   0  0  0  0  0  0  0  0  0  0  0  0
  131.4192  134.3044  158.5864 C   0  0  0  0  0  0  0  0  0  0  0  0
  130.6301  133.5379  157.8048 N   0  0  0  0  0  0  0  0  0  0  0  0
  130.9192  133.0143  157.0411 H   0  0  0  0  0  0  0  0  0  0  0  0
  129.3196  133.6324  158.2907 N   0  0  0  0  0  0  0  0  0  0  0  0
  129.3260  134.4241  159.3323 C   0  0  0  0  0  0  0  0  0  0  0  0
  128.1271  134.7983  160.1653 C   0  0  1  0  0  0  0  0  0  0  0  0
  128.3820  135.0063  161.2044 H   0  0  0  0  0  0  0  0  0  0  0  0
  127.2400  135.8755  159.5191 C   0  0  0  0  0  0  0  0  0  0  0  0
  126.0309  135.0751  160.0313 C   0  0  2  0  0  0  0  0  0  0  0  0
  125.2058  135.0280  159.3207 H   0  0  0  0  0  0  0  0  0  0  0  0
  125.6124  135.4485  161.3457 O   0  0  0  0  0  0  0  0  0  0  0  0
  126.9396  133.8349  160.0032 C   0  0  0  0  0  0  0  0  0  0  0  0
  134.6363  139.5177  163.2545 H   0  0  0  0  0  0  0  0  0  0  0  0
  133.9776  141.1328  162.8997 H   0  0  0  0  0  0  0  0  0  0  0  0
  132.8813  139.7392  163.0571 H   0  0  0  0  0  0  0  0  0  0  0  0
  133.4339  138.1969  158.4368 H   0  0  0  0  0  0  0  0  0  0  0  0
  131.5830  138.2133  161.5658 H   0  0  0  0  0  0  0  0  0  0  0  0
  132.9772  137.1534  161.8835 H   0  0  0  0  0  0  0  0  0  0  0  0
  130.2341  136.2918  161.0733 H   0  0  0  0  0  0  0  0  0  0  0  0
  131.6283  135.2319  161.3911 H   0  0  0  0  0  0  0  0  0  0  0  0
  132.4841  134.4442  158.4735 H   0  0  0  0  0  0  0  0  0  0  0  0
  127.3403  136.8580  159.9802 H   0  0  0  0  0  0  0  0  0  0  0  0
  127.3137  135.9074  158.4320 H   0  0  0  0  0  0  0  0  0  0  0  0
  125.0407  136.2280  161.3697 H   0  0  0  0  0  0  0  0  0  0  0  0
  126.9312  133.3089  159.0485 H   0  0  0  0  0  0  0  0  0  0  0  0
  126.7973  133.1700  160.8551 H   0  0  0  0  0  0  0  0  0  0  0  0
  1  2  1  0
  1 26  1  0
  1 27  1  0
  1 28  1  0
  2  7  1  0
  2  3  2  0
  3  4  1  0
  4  5  1  0
  4  6  1  0
  6  7  2  0
  6 29  1  0
  7  8  1  0
  8  9  1  0
  8 30  1  0
  8 31  1  0
  9 10  1  0
  9 11  1  0
  9 12  1  0
 12 13  1  0
 12 32  1  0
 12 33  1  0
 13 18  1  0
 13 14  2  0
 14 15  1  0
 14 34  1  0
 15 16  1  0
 15 17  1  0
 17 18  2  0
 18 19  1  0
 19 20  1  1
 19 25  1  0
 19 21  1  0
 21 22  1  0
 21 35  1  0
 21 36  1  0
 22 23  1  6
 22 24  1  0
 22 25  1  0
 24 37  1  0
 25 38  1  0
 25 39  1  0
M  CHG  1   9   1
M  END
>  <DOCK_score>  (1) 
-43.03759

>  <SMILES>  (1) 
Cc1n[nH]cc1C[NH2+]Cc1c[nH]nc1[C@H]1C[C@H](O)C1

$$$$
