Oc1cccc(CNC2=C[C@H]([NH2+]C3CC=CCC3)CCC2)c1
     RDKit          3D

 49 51  0  0  1  0  0  0  0  0999 V2000
  124.0769  134.9244  161.9626 O   0  0  0  0  0  0  0  0  0  0  0  0
  124.7860  134.2601  161.0125 C   0  0  0  0  0  0  0  0  0  0  0  0
  124.6455  132.8867  160.8741 C   0  0  0  0  0  0  0  0  0  0  0  0
  125.3678  132.2137  159.9079 C   0  0  0  0  0  0  0  0  0  0  0  0
  126.2259  132.9085  159.0754 C   0  0  0  0  0  0  0  0  0  0  0  0
  126.3720  134.2760  159.2151 C   0  0  0  0  0  0  0  0  0  0  0  0
  127.3127  135.0292  158.3101 C   0  0  0  0  0  0  0  0  0  0  0  0
  128.1116  135.9644  159.1059 N   0  0  0  0  0  0  0  0  0  0  0  0
  129.2152  135.5066  159.8146 C   0  0  0  0  0  0  0  0  0  0  0  0
  130.2077  136.3295  160.0029 C   0  0  0  0  0  0  0  0  0  0  0  0
  131.4569  135.9815  160.7585 C   0  0  2  0  0  0  0  0  0  0  0  0
  131.4131  136.4253  161.7531 H   0  0  0  0  0  0  0  0  0  0  0  0
  132.6239  136.5106  160.0401 N   0  0  0  0  0  0  0  0  0  0  0  0
  132.4957  136.3801  159.0479 H   0  0  0  0  0  0  0  0  0  0  0  0
  133.4537  136.0205  160.3393 H   0  0  0  0  0  0  0  0  0  0  0  0
  132.7698  137.9431  160.3307 C   0  0  2  0  0  0  0  0  0  0  0  0
  133.6495  138.5975  159.2633 C   0  0  0  0  0  0  0  0  0  0  0  0
  134.0247  139.9883  159.6841 C   0  0  0  0  0  0  0  0  0  0  0  0
  133.9302  140.4292  160.8974 C   0  0  0  0  0  0  0  0  0  0  0  0
  133.4230  139.6144  162.0509 C   0  0  0  0  0  0  0  0  0  0  0  0
  133.4457  138.1263  161.6955 C   0  0  0  0  0  0  0  0  0  0  0  0
  131.5860  134.4621  160.8863 C   0  0  0  0  0  0  0  0  0  0  0  0
  130.2546  133.9030  161.4032 C   0  0  0  0  0  0  0  0  0  0  0  0
  129.1944  134.0923  160.3161 C   0  0  0  0  0  0  0  0  0  0  0  0
  125.6518  134.9539  160.1800 C   0  0  0  0  0  0  0  0  0  0  0  0
  124.2420  135.8771  161.9823 H   0  0  0  0  0  0  0  0  0  0  0  0
  123.9718  132.3444  161.5209 H   0  0  0  0  0  0  0  0  0  0  0  0
  125.2584  131.1447  159.7995 H   0  0  0  0  0  0  0  0  0  0  0  0
  126.7862  132.3812  158.3175 H   0  0  0  0  0  0  0  0  0  0  0  0
  126.7376  135.5829  157.5680 H   0  0  0  0  0  0  0  0  0  0  0  0
  127.9737  134.3245  157.8058 H   0  0  0  0  0  0  0  0  0  0  0  0
  127.8700  136.9034  159.1379 H   0  0  0  0  0  0  0  0  0  0  0  0
  130.1240  137.3247  159.5917 H   0  0  0  0  0  0  0  0  0  0  0  0
  131.7880  138.4166  160.3415 H   0  0  0  0  0  0  0  0  0  0  0  0
  134.5542  138.0047  159.1276 H   0  0  0  0  0  0  0  0  0  0  0  0
  133.1023  138.6423  158.3216 H   0  0  0  0  0  0  0  0  0  0  0  0
  134.3963  140.6634  158.9275 H   0  0  0  0  0  0  0  0  0  0  0  0
  134.2351  141.4468  161.0915 H   0  0  0  0  0  0  0  0  0  0  0  0
  132.4013  139.9148  162.2840 H   0  0  0  0  0  0  0  0  0  0  0  0
  134.0556  139.7877  162.9216 H   0  0  0  0  0  0  0  0  0  0  0  0
  132.9021  137.5605  162.4523 H   0  0  0  0  0  0  0  0  0  0  0  0
  134.4771  137.7777  161.6433 H   0  0  0  0  0  0  0  0  0  0  0  0
  131.8105  134.0303  159.9110 H   0  0  0  0  0  0  0  0  0  0  0  0
  132.3827  134.2200  161.5896 H   0  0  0  0  0  0  0  0  0  0  0  0
  130.3648  132.8419  161.6266 H   0  0  0  0  0  0  0  0  0  0  0  0
  129.9580  134.4383  162.3053 H   0  0  0  0  0  0  0  0  0  0  0  0
  129.3998  133.4127  159.4891 H   0  0  0  0  0  0  0  0  0  0  0  0
  128.2103  133.8694  160.7284 H   0  0  0  0  0  0  0  0  0  0  0  0
  125.7631  136.0229  160.2860 H   0  0  0  0  0  0  0  0  0  0  0  0
  1  2  1  0
  1 26  1  0
  2 25  2  0
  2  3  1  0
  3  4  2  0
  3 27  1  0
  4  5  1  0
  4 28  1  0
  5  6  2  0
  5 29  1  0
  6  7  1  0
  6 25  1  0
  7  8  1  0
  7 30  1  0
  7 31  1  0
  8  9  1  0
  8 32  1  0
  9 24  1  0
  9 10  2  0
 10 11  1  0
 10 33  1  0
 11 12  1  1
 11 13  1  0
 11 22  1  0
 13 14  1  0
 13 15  1  0
 13 16  1  0
 16 21  1  0
 16 17  1  0
 16 34  1  1
 17 18  1  0
 17 35  1  0
 17 36  1  0
 18 19  2  0
 18 37  1  0
 19 20  1  0
 19 38  1  0
 20 21  1  0
 20 39  1  0
 20 40  1  0
 21 41  1  0
 21 42  1  0
 22 23  1  0
 22 43  1  0
 22 44  1  0
 23 24  1  0
 23 45  1  0
 23 46  1  0
 24 47  1  0
 24 48  1  0
 25 49  1  0
M  CHG  1  13   1
M  END
>  <DOCK_score>  (1) 
-43.163185

>  <SMILES>  (1) 
Oc1cccc(CNC2=C[C@H]([NH2+]C3CC=CCC3)CCC2)c1

$$$$
