O=C1CC[C@H](NC(NC2CC=CC2)=[NH+]CCc2ccccc2Br)CN1
     RDKit          3D

 51 53  0  0  1  0  0  0  0  0999 V2000
  123.8443  133.6216  161.7256 O   0  0  0  0  0  0  0  0  0  0  0  0
  124.9887  133.9427  161.4845 C   0  0  0  0  0  0  0  0  0  0  0  0
  125.9334  132.8867  160.9870 C   0  0  0  0  0  0  0  0  0  0  0  0
  127.3793  133.3589  161.1582 C   0  0  0  0  0  0  0  0  0  0  0  0
  127.4969  134.7773  160.5877 C   0  0  2  0  0  0  0  0  0  0  0  0
  127.1036  134.7992  159.5713 H   0  0  0  0  0  0  0  0  0  0  0  0
  128.9030  135.1888  160.5794 N   0  0  0  0  0  0  0  0  0  0  0  0
  129.6882  134.9311  159.4807 C   0  0  0  0  0  0  0  0  0  0  0  0
  129.1540  134.2873  158.3896 N   0  0  0  0  0  0  0  0  0  0  0  0
  130.0056  133.4441  157.5472 C   0  0  0  0  0  0  0  0  0  0  0  0
  131.0266  132.6573  158.4014 C   0  0  0  0  0  0  0  0  0  0  0  0
  131.1319  131.3069  157.7316 C   0  0  0  0  0  0  0  0  0  0  0  0
  130.1316  131.1069  156.9174 C   0  0  0  0  0  0  0  0  0  0  0  0
  129.1924  132.2904  156.9083 C   0  0  0  0  0  0  0  0  0  0  0  0
  130.9391  135.2973  159.4733 N   0  0  0  0  0  0  0  0  0  0  0  0
  131.3718  135.5285  158.6365 H   0  0  0  0  0  0  0  0  0  0  0  0
  131.6914  135.3598  160.7287 C   0  0  0  0  0  0  0  0  0  0  0  0
  133.1243  135.8140  160.4426 C   0  0  0  0  0  0  0  0  0  0  0  0
  133.8982  135.8783  161.7340 C   0  0  0  0  0  0  0  0  0  0  0  0
  134.5911  134.7687  162.1807 C   0  0  0  0  0  0  0  0  0  0  0  0
  135.3015  134.8278  163.3650 C   0  0  0  0  0  0  0  0  0  0  0  0
  135.3189  135.9965  164.1036 C   0  0  0  0  0  0  0  0  0  0  0  0
  134.6264  137.1062  163.6578 C   0  0  0  0  0  0  0  0  0  0  0  0
  133.9200  137.0494  162.4697 C   0  0  0  0  0  0  0  0  0  0  0  0
  132.9781  138.5697  161.8555 Br  0  0  0  0  0  0  0  0  0  0  0  0
  126.6892  135.7290  161.4710 C   0  0  0  0  0  0  0  0  0  0  0  0
  125.3407  135.2148  161.6749 N   0  0  0  0  0  0  0  0  0  0  0  0
  125.7826  131.9690  161.5555 H   0  0  0  0  0  0  0  0  0  0  0  0
  125.7380  132.6939  159.9322 H   0  0  0  0  0  0  0  0  0  0  0  0
  128.0501  132.6898  160.6194 H   0  0  0  0  0  0  0  0  0  0  0  0
  127.6398  133.3662  162.2165 H   0  0  0  0  0  0  0  0  0  0  0  0
  129.2801  135.6428  161.3492 H   0  0  0  0  0  0  0  0  0  0  0  0
  128.2131  134.3915  158.1776 H   0  0  0  0  0  0  0  0  0  0  0  0
  130.5090  134.0379  156.7842 H   0  0  0  0  0  0  0  0  0  0  0  0
  130.6623  132.5471  159.4227 H   0  0  0  0  0  0  0  0  0  0  0  0
  131.9937  133.1602  158.3962 H   0  0  0  0  0  0  0  0  0  0  0  0
  131.9299  130.6000  157.9041 H   0  0  0  0  0  0  0  0  0  0  0  0
  129.9932  130.2127  156.3276 H   0  0  0  0  0  0  0  0  0  0  0  0
  128.9118  132.5447  155.8861 H   0  0  0  0  0  0  0  0  0  0  0  0
  128.3043  132.0750  157.5026 H   0  0  0  0  0  0  0  0  0  0  0  0
  131.2133  136.0694  161.4039 H   0  0  0  0  0  0  0  0  0  0  0  0
  131.7087  134.3731  161.1915 H   0  0  0  0  0  0  0  0  0  0  0  0
  133.6025  135.1043  159.7674 H   0  0  0  0  0  0  0  0  0  0  0  0
  133.1070  136.8007  159.9797 H   0  0  0  0  0  0  0  0  0  0  0  0
  134.5778  133.8557  161.6041 H   0  0  0  0  0  0  0  0  0  0  0  0
  135.8427  133.9607  163.7137 H   0  0  0  0  0  0  0  0  0  0  0  0
  135.8735  136.0420  165.0293 H   0  0  0  0  0  0  0  0  0  0  0  0
  134.6404  138.0192  164.2347 H   0  0  0  0  0  0  0  0  0  0  0  0
  127.1850  135.8328  162.4362 H   0  0  0  0  0  0  0  0  0  0  0  0
  126.6335  136.7061  160.9911 H   0  0  0  0  0  0  0  0  0  0  0  0
  124.6564  135.8369  161.9678 H   0  0  0  0  0  0  0  0  0  0  0  0
  1  2  2  0
  2 27  1  0
  2  3  1  0
  3  4  1  0
  3 28  1  0
  3 29  1  0
  4  5  1  0
  4 30  1  0
  4 31  1  0
  5  6  1  6
  5  7  1  0
  5 26  1  0
  7 32  1  0
  8  7  1  0
  8  9  1  0
  8 15  2  0
  9 10  1  0
  9 33  1  0
 10 14  1  0
 10 11  1  0
 10 34  1  0
 11 12  1  0
 11 35  1  0
 11 36  1  0
 12 13  2  0
 12 37  1  0
 13 14  1  0
 13 38  1  0
 14 39  1  0
 14 40  1  0
 15 16  1  0
 15 17  1  0
 17 18  1  0
 17 41  1  0
 17 42  1  0
 18 19  1  0
 18 43  1  0
 18 44  1  0
 19 24  1  0
 19 20  2  0
 20 21  1  0
 20 45  1  0
 21 22  2  0
 21 46  1  0
 22 23  1  0
 22 47  1  0
 23 24  2  0
 23 48  1  0
 24 25  1  0
 26 27  1  0
 26 49  1  0
 26 50  1  0
 27 51  1  0
M  CHG  1  15   1
M  END
>  <DOCK_score>  (1) 
-48.143234

>  <SMILES>  (1) 
O=C1CC[C@H](NC(NC2CC=CC2)=[NH+]CCc2ccccc2Br)CN1

$$$$
