Fc1ccc(NCc2ccccc2N2CC[NH+]([C@H](c3ccccc3)c3ccc(F)cc3)CC2)cc1
     RDKit          3D

 65 69  0  0  1  0  0  0  0  0999 V2000
  128.9357  142.5903  164.7910 F   0  0  0  0  0  0  0  0  0  0  0  0
  129.7358  141.5645  164.4265 C   0  0  0  0  0  0  0  0  0  0  0  0
  131.0551  141.8056  164.0820 C   0  0  0  0  0  0  0  0  0  0  0  0
  131.8747  140.7586  163.7086 C   0  0  0  0  0  0  0  0  0  0  0  0
  131.3750  139.4631  163.6791 C   0  0  0  0  0  0  0  0  0  0  0  0
  132.2029  138.4016  163.3015 N   0  0  0  0  0  0  0  0  0  0  0  0
  133.6590  138.5515  163.3605 C   0  0  0  0  0  0  0  0  0  0  0  0
  134.1631  139.0825  162.0433 C   0  0  0  0  0  0  0  0  0  0  0  0
  135.0925  140.1041  162.0196 C   0  0  0  0  0  0  0  0  0  0  0  0
  135.5548  140.5923  160.8116 C   0  0  0  0  0  0  0  0  0  0  0  0
  135.0890  140.0598  159.6231 C   0  0  0  0  0  0  0  0  0  0  0  0
  134.1642  139.0346  159.6397 C   0  0  0  0  0  0  0  0  0  0  0  0
  133.6934  138.5455  160.8517 C   0  0  0  0  0  0  0  0  0  0  0  0
  132.7538  137.5121  160.8720 N   0  0  0  0  0  0  0  0  0  0  0  0
  133.3091  136.2840  160.2857 C   0  0  0  0  0  0  0  0  0  0  0  0
  132.2720  135.1628  160.3811 C   0  0  0  0  0  0  0  0  0  0  0  0
  131.0534  135.5606  159.6641 N   0  0  0  0  0  0  0  0  0  0  0  0
  131.2767  135.7439  158.6973 H   0  0  0  0  0  0  0  0  0  0  0  0
  130.0647  134.4767  159.7404 C   0  0  2  0  0  0  0  0  0  0  0  0
  129.8235  134.2779  160.7847 H   0  0  0  0  0  0  0  0  0  0  0  0
  130.6345  133.2318  159.1107 C   0  0  0  0  0  0  0  0  0  0  0  0
  130.4449  132.9901  157.7629 C   0  0  0  0  0  0  0  0  0  0  0  0
  130.9714  131.8504  157.1843 C   0  0  0  0  0  0  0  0  0  0  0  0
  131.6796  130.9477  157.9555 C   0  0  0  0  0  0  0  0  0  0  0  0
  131.8647  131.1868  159.3043 C   0  0  0  0  0  0  0  0  0  0  0  0
  131.3419  132.3288  159.8820 C   0  0  0  0  0  0  0  0  0  0  0  0
  128.8143  134.8845  159.0049 C   0  0  0  0  0  0  0  0  0  0  0  0
  127.5859  134.3922  159.4050 C   0  0  0  0  0  0  0  0  0  0  0  0
  126.4379  134.7700  158.7346 C   0  0  0  0  0  0  0  0  0  0  0  0
  126.5195  135.6333  157.6552 C   0  0  0  0  0  0  0  0  0  0  0  0
  125.3985  135.9989  156.9959 F   0  0  0  0  0  0  0  0  0  0  0  0
  127.7509  136.1213  157.2520 C   0  0  0  0  0  0  0  0  0  0  0  0
  128.8969  135.7462  157.9270 C   0  0  0  0  0  0  0  0  0  0  0  0
  130.4971  136.7743  160.2764 C   0  0  0  0  0  0  0  0  0  0  0  0
  131.5193  137.9089  160.1801 C   0  0  0  0  0  0  0  0  0  0  0  0
  130.0500  139.2244  164.0200 C   0  0  0  0  0  0  0  0  0  0  0  0
  129.2352  140.2739  164.3974 C   0  0  0  0  0  0  0  0  0  0  0  0
  131.4433  142.8132  164.1050 H   0  0  0  0  0  0  0  0  0  0  0  0
  132.9036  140.9471  163.4393 H   0  0  0  0  0  0  0  0  0  0  0  0
  131.8132  137.5659  163.0005 H   0  0  0  0  0  0  0  0  0  0  0  0
  134.1163  137.5826  163.5605 H   0  0  0  0  0  0  0  0  0  0  0  0
  133.9206  139.2480  164.1570 H   0  0  0  0  0  0  0  0  0  0  0  0
  135.4581  140.5221  162.9459 H   0  0  0  0  0  0  0  0  0  0  0  0
  136.2809  141.3917  160.7959 H   0  0  0  0  0  0  0  0  0  0  0  0
  135.4525  140.4434  158.6811 H   0  0  0  0  0  0  0  0  0  0  0  0
  133.8043  138.6162  158.7112 H   0  0  0  0  0  0  0  0  0  0  0  0
  134.2081  135.9952  160.8302 H   0  0  0  0  0  0  0  0  0  0  0  0
  133.5584  136.4609  159.2395 H   0  0  0  0  0  0  0  0  0  0  0  0
  132.6766  134.2547  159.9340 H   0  0  0  0  0  0  0  0  0  0  0  0
  132.0331  134.9769  161.4282 H   0  0  0  0  0  0  0  0  0  0  0  0
  129.8885  133.6935  157.1611 H   0  0  0  0  0  0  0  0  0  0  0  0
  130.8271  131.6637  156.1304 H   0  0  0  0  0  0  0  0  0  0  0  0
  132.0886  130.0560  157.5040 H   0  0  0  0  0  0  0  0  0  0  0  0
  132.4180  130.4816  159.9069 H   0  0  0  0  0  0  0  0  0  0  0  0
  131.4866  132.5155  160.9358 H   0  0  0  0  0  0  0  0  0  0  0  0
  127.5230  133.7153  160.2442 H   0  0  0  0  0  0  0  0  0  0  0  0
  125.4779  134.3884  159.0499 H   0  0  0  0  0  0  0  0  0  0  0  0
  127.8158  136.7944  156.4100 H   0  0  0  0  0  0  0  0  0  0  0  0
  129.8576  136.1267  157.6126 H   0  0  0  0  0  0  0  0  0  0  0  0
  130.2673  136.5801  161.3240 H   0  0  0  0  0  0  0  0  0  0  0  0
  129.5857  137.0610  159.7516 H   0  0  0  0  0  0  0  0  0  0  0  0
  131.1125  138.8056  160.6478 H   0  0  0  0  0  0  0  0  0  0  0  0
  131.7391  138.1125  159.1322 H   0  0  0  0  0  0  0  0  0  0  0  0
  129.6580  138.2184  163.9935 H   0  0  0  0  0  0  0  0  0  0  0  0
  128.2057  140.0883  164.6657 H   0  0  0  0  0  0  0  0  0  0  0  0
  1  2  1  0
  2 37  2  0
  2  3  1  0
  3  4  2  0
  3 38  1  0
  4  5  1  0
  4 39  1  0
  5  6  1  0
  5 36  2  0
  6  7  1  0
  6 40  1  0
  7  8  1  0
  7 41  1  0
  7 42  1  0
  8 13  1  0
  8  9  2  0
  9 10  1  0
  9 43  1  0
 10 11  2  0
 10 44  1  0
 11 12  1  0
 11 45  1  0
 12 13  2  0
 12 46  1  0
 13 14  1  0
 14 35  1  0
 14 15  1  0
 15 16  1  0
 15 47  1  0
 15 48  1  0
 16 17  1  0
 16 49  1  0
 16 50  1  0
 17 18  1  0
 17 19  1  0
 17 34  1  0
 19 20  1  1
 19 21  1  0
 19 27  1  0
 21 26  1  0
 21 22  2  0
 22 23  1  0
 22 51  1  0
 23 24  2  0
 23 52  1  0
 24 25  1  0
 24 53  1  0
 25 26  2  0
 25 54  1  0
 26 55  1  0
 27 33  1  0
 27 28  2  0
 28 29  1  0
 28 56  1  0
 29 30  2  0
 29 57  1  0
 30 31  1  0
 30 32  1  0
 32 33  2  0
 32 58  1  0
 33 59  1  0
 34 35  1  0
 34 60  1  0
 34 61  1  0
 35 62  1  0
 35 63  1  0
 36 37  1  0
 36 64  1  0
 37 65  1  0
M  CHG  1  17   1
M  END
>  <DOCK_score>  (1) 
-60.184162

>  <SMILES>  (1) 
Fc1ccc(NCc2ccccc2N2CC[NH+]([C@H](c3ccccc3)c3ccc(F)cc3)CC2)cc1

$$$$
