CCc1ccc(-c2c[nH]c(N[C@H](Cc3cccc4ccccc34)c3ccnn3C)[nH+]2)cc1
     RDKit          3D

 60 64  0  0  1  0  0  0  0  0999 V2000
  130.1904  128.9219  151.4005 C   0  0  0  0  0  0  0  0  0  0  0  0
  131.4784  129.5119  151.9783 C   0  0  0  0  0  0  0  0  0  0  0  0
  131.1582  130.2882  153.2297 C   0  0  0  0  0  0  0  0  0  0  0  0
  131.1717  129.6516  154.4577 C   0  0  0  0  0  0  0  0  0  0  0  0
  130.8848  130.3588  155.6076 C   0  0  0  0  0  0  0  0  0  0  0  0
  130.5699  131.7142  155.5286 C   0  0  0  0  0  0  0  0  0  0  0  0
  130.2553  132.4785  156.7603 C   0  0  0  0  0  0  0  0  0  0  0  0
  129.6922  131.9782  157.8880 C   0  0  0  0  0  0  0  0  0  0  0  0
  129.5792  133.0219  158.7740 N   0  0  0  0  0  0  0  0  0  0  0  0
  129.2121  132.9770  159.6707 H   0  0  0  0  0  0  0  0  0  0  0  0
  130.0770  134.1304  158.1613 C   0  0  0  0  0  0  0  0  0  0  0  0
  130.1461  135.3964  158.7170 N   0  0  0  0  0  0  0  0  0  0  0  0
  129.1511  135.8175  159.7063 C   0  0  2  0  0  0  0  0  0  0  0  0
  129.0067  136.8959  159.6401 H   0  0  0  0  0  0  0  0  0  0  0  0
  129.6413  135.4538  161.1094 C   0  0  0  0  0  0  0  0  0  0  0  0
  130.9481  136.1533  161.3819 C   0  0  0  0  0  0  0  0  0  0  0  0
  132.1260  135.5529  161.0576 C   0  0  0  0  0  0  0  0  0  0  0  0
  133.3439  136.1843  161.3016 C   0  0  0  0  0  0  0  0  0  0  0  0
  133.3913  137.4196  161.8714 C   0  0  0  0  0  0  0  0  0  0  0  0
  132.1959  138.0707  162.2198 C   0  0  0  0  0  0  0  0  0  0  0  0
  132.2046  139.3465  162.8094 C   0  0  0  0  0  0  0  0  0  0  0  0
  131.0263  139.9535  163.1183 C   0  0  0  0  0  0  0  0  0  0  0  0
  129.8081  139.3219  162.8745 C   0  0  0  0  0  0  0  0  0  0  0  0
  129.7608  138.0845  162.3099 C   0  0  0  0  0  0  0  0  0  0  0  0
  130.9568  137.4307  161.9668 C   0  0  0  0  0  0  0  0  0  0  0  0
  127.8444  135.1179  159.4338 C   0  0  0  0  0  0  0  0  0  0  0  0
  127.1890  134.2927  160.2826 C   0  0  0  0  0  0  0  0  0  0  0  0
  126.0220  133.8585  159.6455 C   0  0  0  0  0  0  0  0  0  0  0  0
  125.9783  134.4035  158.4568 N   0  0  0  0  0  0  0  0  0  0  0  0
  127.1154  135.2070  158.3018 N   0  0  0  0  0  0  0  0  0  0  0  0
  127.4546  136.0011  157.1182 C   0  0  0  0  0  0  0  0  0  0  0  0
  130.4853  133.8005  156.9603 N   0  0  0  0  0  0  0  0  0  0  0  0
  130.8858  134.4054  156.3164 H   0  0  0  0  0  0  0  0  0  0  0  0
  130.5524  132.3490  154.2878 C   0  0  0  0  0  0  0  0  0  0  0  0
  130.8464  131.6332  153.1452 C   0  0  0  0  0  0  0  0  0  0  0  0
  129.7344  128.2568  152.1340 H   0  0  0  0  0  0  0  0  0  0  0  0
  129.4972  129.7280  151.1606 H   0  0  0  0  0  0  0  0  0  0  0  0
  130.4221  128.3603  150.4955 H   0  0  0  0  0  0  0  0  0  0  0  0
  132.1717  128.7056  152.2183 H   0  0  0  0  0  0  0  0  0  0  0  0
  131.9344  130.1769  151.2448 H   0  0  0  0  0  0  0  0  0  0  0  0
  131.4111  128.6002  154.5172 H   0  0  0  0  0  0  0  0  0  0  0  0
  130.9001  129.8620  156.5665 H   0  0  0  0  0  0  0  0  0  0  0  0
  129.3901  130.9552  158.0570 H   0  0  0  0  0  0  0  0  0  0  0  0
  130.8535  136.0047  158.4514 H   0  0  0  0  0  0  0  0  0  0  0  0
  128.9010  135.7672  161.8454 H   0  0  0  0  0  0  0  0  0  0  0  0
  129.7856  134.3754  161.1756 H   0  0  0  0  0  0  0  0  0  0  0  0
  132.1163  134.5728  160.6040 H   0  0  0  0  0  0  0  0  0  0  0  0
  134.2643  135.6859  161.0350 H   0  0  0  0  0  0  0  0  0  0  0  0
  134.3426  137.8967  162.0548 H   0  0  0  0  0  0  0  0  0  0  0  0
  133.1411  139.8478  163.0047 H   0  0  0  0  0  0  0  0  0  0  0  0
  131.0357  140.9357  163.5670 H   0  0  0  0  0  0  0  0  0  0  0  0
  128.8876  139.8220  163.1372 H   0  0  0  0  0  0  0  0  0  0  0  0
  128.8094  137.6073  162.1269 H   0  0  0  0  0  0  0  0  0  0  0  0
  127.5105  134.0177  161.2763 H   0  0  0  0  0  0  0  0  0  0  0  0
  125.2846  133.1886  160.0625 H   0  0  0  0  0  0  0  0  0  0  0  0
  128.0489  135.3965  156.4332 H   0  0  0  0  0  0  0  0  0  0  0  0
  126.5391  136.3204  156.6204 H   0  0  0  0  0  0  0  0  0  0  0  0
  128.0282  136.8773  157.4208 H   0  0  0  0  0  0  0  0  0  0  0  0
  130.3089  133.3992  154.2208 H   0  0  0  0  0  0  0  0  0  0  0  0
  130.8329  132.1240  152.1833 H   0  0  0  0  0  0  0  0  0  0  0  0
  1  2  1  0
  1 36  1  0
  1 37  1  0
  1 38  1  0
  2  3  1  0
  2 39  1  0
  2 40  1  0
  3 35  2  0
  3  4  1  0
  4  5  2  0
  4 41  1  0
  5  6  1  0
  5 42  1  0
  6  7  1  0
  6 34  2  0
  7 32  1  0
  7  8  2  0
  8  9  1  0
  8 43  1  0
  9 10  1  0
  9 11  1  0
 11 12  1  0
 11 32  2  0
 12 13  1  0
 12 44  1  0
 13 14  1  1
 13 15  1  0
 13 26  1  0
 15 16  1  0
 15 45  1  0
 15 46  1  0
 16 25  1  0
 16 17  2  0
 17 18  1  0
 17 47  1  0
 18 19  2  0
 18 48  1  0
 19 20  1  0
 19 49  1  0
 20 25  2  0
 20 21  1  0
 21 22  2  0
 21 50  1  0
 22 23  1  0
 22 51  1  0
 23 24  2  0
 23 52  1  0
 24 25  1  0
 24 53  1  0
 26 30  1  0
 26 27  2  0
 27 28  1  0
 27 54  1  0
 28 29  2  0
 28 55  1  0
 29 30  1  0
 30 31  1  0
 31 56  1  0
 31 57  1  0
 31 58  1  0
 32 33  1  0
 34 35  1  0
 34 59  1  0
 35 60  1  0
M  CHG  1  32   1
M  END
>  <DOCK_score>  (1) 
-57.758244

>  <SMILES>  (1) 
CCc1ccc(-c2c[nH]c(N[C@H](Cc3cccc4ccccc34)c3ccnn3C)[nH+]2)cc1

$$$$
