O=C1CC[C@H]([NH+]=C(NCc2ccccc2)N[C@H]2C[C@@H](O)C2)CN1
     RDKit          3D

 48 50  0  0  1  0  0  0  0  0999 V2000
  123.4710  133.8172  161.4461 O   0  0  0  0  0  0  0  0  0  0  0  0
  124.6580  133.9963  161.2740 C   0  0  0  0  0  0  0  0  0  0  0  0
  125.4839  132.8487  160.7677 C   0  0  0  0  0  0  0  0  0  0  0  0
  126.9677  133.1199  161.0285 C   0  0  0  0  0  0  0  0  0  0  0  0
  127.2957  134.5345  160.5356 C   0  0  2  0  0  0  0  0  0  0  0  0
  126.9618  134.6490  159.5044 H   0  0  0  0  0  0  0  0  0  0  0  0
  128.7415  134.7587  160.6120 N   0  0  0  0  0  0  0  0  0  0  0  0
  129.1333  135.1256  161.4198 H   0  0  0  0  0  0  0  0  0  0  0  0
  129.5011  134.4650  159.5943 C   0  0  0  0  0  0  0  0  0  0  0  0
  128.9453  133.9448  158.4494 N   0  0  0  0  0  0  0  0  0  0  0  0
  129.5660  134.2083  157.1488 C   0  0  0  0  0  0  0  0  0  0  0  0
  129.9635  132.9034  156.5081 C   0  0  0  0  0  0  0  0  0  0  0  0
  129.9729  132.7842  155.1310 C   0  0  0  0  0  0  0  0  0  0  0  0
  130.3421  131.5887  154.5434 C   0  0  0  0  0  0  0  0  0  0  0  0
  130.6918  130.5093  155.3330 C   0  0  0  0  0  0  0  0  0  0  0  0
  130.6773  130.6270  156.7103 C   0  0  0  0  0  0  0  0  0  0  0  0
  130.3132  131.8241  157.2979 C   0  0  0  0  0  0  0  0  0  0  0  0
  130.8577  134.6752  159.6656 N   0  0  0  0  0  0  0  0  0  0  0  0
  131.4499  135.2294  160.8856 C   0  0  1  0  0  0  0  0  0  0  0  0
  130.7711  135.8904  161.4242 H   0  0  0  0  0  0  0  0  0  0  0  0
  132.1201  134.1731  161.7800 C   0  0  0  0  0  0  0  0  0  0  0  0
  133.4089  134.4231  160.9794 C   0  0  1  0  0  0  0  0  0  0  0  0
  134.3095  134.4330  161.5935 H   0  0  0  0  0  0  0  0  0  0  0  0
  133.5349  133.5930  159.8231 O   0  0  0  0  0  0  0  0  0  0  0  0
  132.8541  135.8246  160.6743 C   0  0  0  0  0  0  0  0  0  0  0  0
  126.5719  135.5465  161.4246 C   0  0  0  0  0  0  0  0  0  0  0  0
  125.1601  135.2018  161.5441 N   0  0  0  0  0  0  0  0  0  0  0  0
  125.3204  132.7296  159.6967 H   0  0  0  0  0  0  0  0  0  0  0  0
  125.1868  131.9353  161.2832 H   0  0  0  0  0  0  0  0  0  0  0  0
  127.5741  132.3931  160.4880 H   0  0  0  0  0  0  0  0  0  0  0  0
  127.1719  133.0470  162.0966 H   0  0  0  0  0  0  0  0  0  0  0  0
  128.1424  133.4032  158.5027 H   0  0  0  0  0  0  0  0  0  0  0  0
  128.8552  134.7271  156.5055 H   0  0  0  0  0  0  0  0  0  0  0  0
  130.4508  134.8295  157.2876 H   0  0  0  0  0  0  0  0  0  0  0  0
  129.6954  133.6262  154.5141 H   0  0  0  0  0  0  0  0  0  0  0  0
  130.3532  131.4966  153.4673 H   0  0  0  0  0  0  0  0  0  0  0  0
  130.9761  129.5739  154.8739 H   0  0  0  0  0  0  0  0  0  0  0  0
  130.9502  129.7837  157.3272 H   0  0  0  0  0  0  0  0  0  0  0  0
  130.3015  131.9159  158.3739 H   0  0  0  0  0  0  0  0  0  0  0  0
  131.4229  134.4566  158.9082 H   0  0  0  0  0  0  0  0  0  0  0  0
  131.7134  133.1701  161.6507 H   0  0  0  0  0  0  0  0  0  0  0  0
  132.1917  134.4690  162.8267 H   0  0  0  0  0  0  0  0  0  0  0  0
  134.3435  133.7457  159.3154 H   0  0  0  0  0  0  0  0  0  0  0  0
  133.1259  136.5734  161.4182 H   0  0  0  0  0  0  0  0  0  0  0  0
  133.0413  136.1553  159.6527 H   0  0  0  0  0  0  0  0  0  0  0  0
  127.0260  135.5452  162.4155 H   0  0  0  0  0  0  0  0  0  0  0  0
  126.6673  136.5414  160.9894 H   0  0  0  0  0  0  0  0  0  0  0  0
  124.5471  135.8945  161.8362 H   0  0  0  0  0  0  0  0  0  0  0  0
  1  2  2  0
  2 27  1  0
  2  3  1  0
  3  4  1  0
  3 28  1  0
  3 29  1  0
  4  5  1  0
  4 30  1  0
  4 31  1  0
  5  6  1  6
  5  7  1  0
  5 26  1  0
  7  8  1  0
  9  7  2  0
  9 10  1  0
  9 18  1  0
 10 11  1  0
 10 32  1  0
 11 12  1  0
 11 33  1  0
 11 34  1  0
 12 17  1  0
 12 13  2  0
 13 14  1  0
 13 35  1  0
 14 15  2  0
 14 36  1  0
 15 16  1  0
 15 37  1  0
 16 17  2  0
 16 38  1  0
 17 39  1  0
 18 19  1  0
 18 40  1  0
 19 20  1  1
 19 25  1  0
 19 21  1  0
 21 22  1  0
 21 41  1  0
 21 42  1  0
 22 23  1  1
 22 24  1  0
 22 25  1  0
 24 43  1  0
 25 44  1  0
 25 45  1  0
 26 27  1  0
 26 46  1  0
 26 47  1  0
 27 48  1  0
M  CHG  1   7   1
M  END
>  <DOCK_score>  (1) 
-47.91642

>  <SMILES>  (1) 
O=C1CC[C@H]([NH+]=C(NCc2ccccc2)N[C@H]2C[C@@H](O)C2)CN1

$$$$
