CCc1ccc(-c2c[nH]c(N[C@H](c3ccc(N)cc3)C3CC(O)C3(C)C)[nH+]2)cc1
     RDKit          3D

 60 63  0  0  1  0  0  0  0  0999 V2000
  129.5770  129.2510  151.3431 C   0  0  0  0  0  0  0  0  0  0  0  0
  130.8280  130.0937  151.5981 C   0  0  0  0  0  0  0  0  0  0  0  0
  130.7503  130.7050  152.9734 C   0  0  0  0  0  0  0  0  0  0  0  0
  131.2688  130.0249  154.0599 C   0  0  0  0  0  0  0  0  0  0  0  0
  131.2048  130.5819  155.3211 C   0  0  0  0  0  0  0  0  0  0  0  0
  130.6072  131.8283  155.4998 C   0  0  0  0  0  0  0  0  0  0  0  0
  130.5311  132.4300  156.8535 C   0  0  0  0  0  0  0  0  0  0  0  0
  129.9017  131.8965  157.9297 C   0  0  0  0  0  0  0  0  0  0  0  0
  130.0795  132.7744  158.9712 N   0  0  0  0  0  0  0  0  0  0  0  0
  129.7463  132.6678  159.8758 H   0  0  0  0  0  0  0  0  0  0  0  0
  130.8058  133.8238  158.4982 C   0  0  0  0  0  0  0  0  0  0  0  0
  131.1965  134.9303  159.2328 N   0  0  0  0  0  0  0  0  0  0  0  0
  130.8269  135.0389  160.6462 C   0  0  2  0  0  0  0  0  0  0  0  0
  131.2448  134.1963  161.1969 H   0  0  0  0  0  0  0  0  0  0  0  0
  129.3253  135.0280  160.7751 C   0  0  0  0  0  0  0  0  0  0  0  0
  128.5727  136.0089  160.1556 C   0  0  0  0  0  0  0  0  0  0  0  0
  127.1962  135.9986  160.2669 C   0  0  0  0  0  0  0  0  0  0  0  0
  126.5686  135.0081  161.0115 C   0  0  0  0  0  0  0  0  0  0  0  0
  125.1770  134.9984  161.1311 N   0  0  0  0  0  0  0  0  0  0  0  0
  127.3280  134.0277  161.6373 C   0  0  0  0  0  0  0  0  0  0  0  0
  128.7038  134.0406  161.5171 C   0  0  0  0  0  0  0  0  0  0  0  0
  131.3784  136.3463  161.2186 C   0  0  1  0  0  0  0  0  0  0  0  0
  131.0962  136.5292  162.7191 C   0  0  0  0  0  0  0  0  0  0  0  0
  132.5184  137.1025  162.8363 C   0  0  1  0  0  0  0  0  0  0  0  0
  133.2099  136.6817  164.0141 O   0  0  0  0  0  0  0  0  0  0  0  0
  132.8696  136.2765  161.5877 C   0  0  0  0  0  0  0  0  0  0  0  0
  133.3566  134.8615  161.9058 C   0  0  0  0  0  0  0  0  0  0  0  0
  133.7800  137.0122  160.6023 C   0  0  0  0  0  0  0  0  0  0  0  0
  131.0737  133.6144  157.2324 N   0  0  0  0  0  0  0  0  0  0  0  0
  131.5794  134.2107  156.6584 H   0  0  0  0  0  0  0  0  0  0  0  0
  130.0816  132.5072  154.4019 C   0  0  0  0  0  0  0  0  0  0  0  0
  130.1554  131.9427  153.1448 C   0  0  0  0  0  0  0  0  0  0  0  0
  128.6922  129.8839  151.4100 H   0  0  0  0  0  0  0  0  0  0  0  0
  129.6331  128.8089  150.3484 H   0  0  0  0  0  0  0  0  0  0  0  0
  129.5145  128.4592  152.0896 H   0  0  0  0  0  0  0  0  0  0  0  0
  131.7127  129.4614  151.5309 H   0  0  0  0  0  0  0  0  0  0  0  0
  130.8904  130.8862  150.8513 H   0  0  0  0  0  0  0  0  0  0  0  0
  131.7283  129.0575  153.9207 H   0  0  0  0  0  0  0  0  0  0  0  0
  131.6140  130.0516  156.1682 H   0  0  0  0  0  0  0  0  0  0  0  0
  129.3654  130.9597  157.9624 H   0  0  0  0  0  0  0  0  0  0  0  0
  131.7148  135.6336  158.8116 H   0  0  0  0  0  0  0  0  0  0  0  0
  129.0617  136.7813  159.5806 H   0  0  0  0  0  0  0  0  0  0  0  0
  126.6086  136.7624  159.7790 H   0  0  0  0  0  0  0  0  0  0  0  0
  124.7399  134.3064  161.6519 H   0  0  0  0  0  0  0  0  0  0  0  0
  124.6476  135.6835  160.6939 H   0  0  0  0  0  0  0  0  0  0  0  0
  126.8433  133.2563  162.2173 H   0  0  0  0  0  0  0  0  0  0  0  0
  129.2949  133.2788  162.0038 H   0  0  0  0  0  0  0  0  0  0  0  0
  131.1167  137.2159  160.6159 H   0  0  0  0  0  0  0  0  0  0  0  0
  130.3133  137.2574  162.9307 H   0  0  0  0  0  0  0  0  0  0  0  0
  130.9585  135.5902  163.2552 H   0  0  0  0  0  0  0  0  0  0  0  0
  132.5695  138.1796  162.6777 H   0  0  0  0  0  0  0  0  0  0  0  0
  134.1707  136.7783  163.9617 H   0  0  0  0  0  0  0  0  0  0  0  0
  133.4014  134.2772  160.9867 H   0  0  0  0  0  0  0  0  0  0  0  0
  134.3493  134.9108  162.3535 H   0  0  0  0  0  0  0  0  0  0  0  0
  132.6664  134.3880  162.6041 H   0  0  0  0  0  0  0  0  0  0  0  0
  133.5023  138.0657  160.5682 H   0  0  0  0  0  0  0  0  0  0  0  0
  134.8165  136.9200  160.9268 H   0  0  0  0  0  0  0  0  0  0  0  0
  133.6696  136.5750  159.6099 H   0  0  0  0  0  0  0  0  0  0  0  0
  129.6170  133.4732  154.5349 H   0  0  0  0  0  0  0  0  0  0  0  0
  129.7485  132.4680  152.2934 H   0  0  0  0  0  0  0  0  0  0  0  0
  1  2  1  0
  1 33  1  0
  1 34  1  0
  1 35  1  0
  2  3  1  0
  2 36  1  0
  2 37  1  0
  3 32  2  0
  3  4  1  0
  4  5  2  0
  4 38  1  0
  5  6  1  0
  5 39  1  0
  6  7  1  0
  6 31  2  0
  7 29  1  0
  7  8  2  0
  8  9  1  0
  8 40  1  0
  9 10  1  0
  9 11  1  0
 11 12  1  0
 11 29  2  0
 12 13  1  0
 12 41  1  0
 13 14  1  1
 13 15  1  0
 13 22  1  0
 15 21  1  0
 15 16  2  0
 16 17  1  0
 16 42  1  0
 17 18  2  0
 17 43  1  0
 18 19  1  0
 18 20  1  0
 19 44  1  0
 19 45  1  0
 20 21  2  0
 20 46  1  0
 21 47  1  0
 22 26  1  0
 22 23  1  0
 22 48  1  6
 23 24  1  0
 23 49  1  0
 23 50  1  0
 24 25  1  0
 24 26  1  0
 24 51  1  6
 25 52  1  0
 26 27  1  0
 26 28  1  0
 27 53  1  0
 27 54  1  0
 27 55  1  0
 28 56  1  0
 28 57  1  0
 28 58  1  0
 29 30  1  0
 31 32  1  0
 31 59  1  0
 32 60  1  0
M  CHG  1  29   1
M  END
>  <DOCK_score>  (1) 
-58.842995

>  <SMILES>  (1) 
CCc1ccc(-c2c[nH]c(N[C@H](c3ccc(N)cc3)C3CC(O)C3(C)C)[nH+]2)cc1

$$$$
