Oc1ccc(C[C@H](Nc2[nH]cc(-c3ccc(-c4ccccc4)cc3)[nH+]2)[C@@H](O)c2ccccc2)cc1
     RDKit          3D

 63 67  0  0  1  0  0  0  0  0999 V2000
  135.9985  134.9702  166.5445 O   0  0  0  0  0  0  0  0  0  0  0  0
  135.4014  135.3232  165.3758 C   0  0  0  0  0  0  0  0  0  0  0  0
  134.7268  136.5314  165.2775 C   0  0  0  0  0  0  0  0  0  0  0  0
  134.1202  136.8877  164.0886 C   0  0  0  0  0  0  0  0  0  0  0  0
  134.1844  136.0411  162.9974 C   0  0  0  0  0  0  0  0  0  0  0  0
  133.5161  136.4293  161.7037 C   0  0  0  0  0  0  0  0  0  0  0  0
  132.0743  135.9174  161.7008 C   0  0  2  0  0  0  0  0  0  0  0  0
  132.0414  134.9214  162.1424 H   0  0  0  0  0  0  0  0  0  0  0  0
  131.5802  135.8573  160.3230 N   0  0  0  0  0  0  0  0  0  0  0  0
  131.1655  134.6496  159.7885 C   0  0  0  0  0  0  0  0  0  0  0  0
  130.6159  133.6199  160.4886 N   0  0  0  0  0  0  0  0  0  0  0  0
  130.4465  133.6003  161.4435 H   0  0  0  0  0  0  0  0  0  0  0  0
  130.3460  132.6135  159.5937 C   0  0  0  0  0  0  0  0  0  0  0  0
  130.7381  133.0567  158.3729 C   0  0  0  0  0  0  0  0  0  0  0  0
  130.6399  132.3052  157.0989 C   0  0  0  0  0  0  0  0  0  0  0  0
  130.4616  132.9901  155.8968 C   0  0  0  0  0  0  0  0  0  0  0  0
  130.3747  132.2919  154.7127 C   0  0  0  0  0  0  0  0  0  0  0  0
  130.4548  130.8995  154.7167 C   0  0  0  0  0  0  0  0  0  0  0  0
  130.3551  130.1476  153.4423 C   0  0  0  0  0  0  0  0  0  0  0  0
  131.0207  128.9320  153.2934 C   0  0  0  0  0  0  0  0  0  0  0  0
  130.9207  128.2345  152.1067 C   0  0  0  0  0  0  0  0  0  0  0  0
  130.1701  128.7445  151.0627 C   0  0  0  0  0  0  0  0  0  0  0  0
  129.5113  129.9528  151.2032 C   0  0  0  0  0  0  0  0  0  0  0  0
  129.6001  130.6566  152.3870 C   0  0  0  0  0  0  0  0  0  0  0  0
  130.6283  130.2143  155.9189 C   0  0  0  0  0  0  0  0  0  0  0  0
  130.7200  130.9125  157.1025 C   0  0  0  0  0  0  0  0  0  0  0  0
  131.2321  134.3115  158.5240 N   0  0  0  0  0  0  0  0  0  0  0  0
  131.5808  134.8684  157.8104 H   0  0  0  0  0  0  0  0  0  0  0  0
  131.1945  136.8664  162.5172 C   0  0  1  0  0  0  0  0  0  0  0  0
  131.7367  137.1906  163.4055 H   0  0  0  0  0  0  0  0  0  0  0  0
  130.8573  138.0052  161.7227 O   0  0  0  0  0  0  0  0  0  0  0  0
  129.9341  136.1515  162.9312 C   0  0  0  0  0  0  0  0  0  0  0  0
  128.8164  136.1946  162.1187 C   0  0  0  0  0  0  0  0  0  0  0  0
  127.6616  135.5353  162.4964 C   0  0  0  0  0  0  0  0  0  0  0  0
  127.6216  134.8407  163.6909 C   0  0  0  0  0  0  0  0  0  0  0  0
  128.7374  134.8020  164.5057 C   0  0  0  0  0  0  0  0  0  0  0  0
  129.8936  135.4576  164.1260 C   0  0  0  0  0  0  0  0  0  0  0  0
  134.8561  134.8363  163.0929 C   0  0  0  0  0  0  0  0  0  0  0  0
  135.4648  134.4756  164.2794 C   0  0  0  0  0  0  0  0  0  0  0  0
  135.9001  135.6244  167.2498 H   0  0  0  0  0  0  0  0  0  0  0  0
  134.6757  137.1929  166.1298 H   0  0  0  0  0  0  0  0  0  0  0  0
  133.5950  137.8282  164.0115 H   0  0  0  0  0  0  0  0  0  0  0  0
  133.5164  137.5150  161.6061 H   0  0  0  0  0  0  0  0  0  0  0  0
  134.0596  135.9893  160.8677 H   0  0  0  0  0  0  0  0  0  0  0  0
  131.5436  136.6638  159.7852 H   0  0  0  0  0  0  0  0  0  0  0  0
  129.9056  131.6534  159.8188 H   0  0  0  0  0  0  0  0  0  0  0  0
  130.3954  134.0681  155.8942 H   0  0  0  0  0  0  0  0  0  0  0  0
  130.2405  132.8225  153.7818 H   0  0  0  0  0  0  0  0  0  0  0  0
  131.6106  128.5352  154.1063 H   0  0  0  0  0  0  0  0  0  0  0  0
  131.4327  127.2906  151.9918 H   0  0  0  0  0  0  0  0  0  0  0  0
  130.0984  128.1975  150.1344 H   0  0  0  0  0  0  0  0  0  0  0  0
  128.9267  130.3462  150.3849 H   0  0  0  0  0  0  0  0  0  0  0  0
  129.0860  131.6002  152.4952 H   0  0  0  0  0  0  0  0  0  0  0  0
  130.6902  129.1360  155.9217 H   0  0  0  0  0  0  0  0  0  0  0  0
  130.8542  130.3818  158.0336 H   0  0  0  0  0  0  0  0  0  0  0  0
  131.6219  138.5141  161.4203 H   0  0  0  0  0  0  0  0  0  0  0  0
  128.8466  136.7405  161.1874 H   0  0  0  0  0  0  0  0  0  0  0  0
  126.7899  135.5653  161.8595 H   0  0  0  0  0  0  0  0  0  0  0  0
  126.7183  134.3278  163.9871 H   0  0  0  0  0  0  0  0  0  0  0  0
  128.7061  134.2592  165.4390 H   0  0  0  0  0  0  0  0  0  0  0  0
  130.7654  135.4274  164.7628 H   0  0  0  0  0  0  0  0  0  0  0  0
  134.9046  134.1766  162.2392 H   0  0  0  0  0  0  0  0  0  0  0  0
  135.9890  133.5343  164.3537 H   0  0  0  0  0  0  0  0  0  0  0  0
  1  2  1  0
  1 40  1  0
  2 39  2  0
  2  3  1  0
  3  4  2  0
  3 41  1  0
  4  5  1  0
  4 42  1  0
  5  6  1  0
  5 38  2  0
  6  7  1  0
  6 43  1  0
  6 44  1  0
  7  8  1  1
  7  9  1  0
  7 29  1  0
  9 45  1  0
 10  9  1  0
 10 27  2  0
 10 11  1  0
 11 12  1  0
 11 13  1  0
 13 14  2  0
 13 46  1  0
 14 15  1  0
 14 27  1  0
 15 26  1  0
 15 16  2  0
 16 17  1  0
 16 47  1  0
 17 18  2  0
 17 48  1  0
 18 19  1  0
 18 25  1  0
 19 24  1  0
 19 20  2  0
 20 21  1  0
 20 49  1  0
 21 22  2  0
 21 50  1  0
 22 23  1  0
 22 51  1  0
 23 24  2  0
 23 52  1  0
 24 53  1  0
 25 26  2  0
 25 54  1  0
 26 55  1  0
 27 28  1  0
 29 30  1  1
 29 31  1  0
 29 32  1  0
 31 56  1  0
 32 37  1  0
 32 33  2  0
 33 34  1  0
 33 57  1  0
 34 35  2  0
 34 58  1  0
 35 36  1  0
 35 59  1  0
 36 37  2  0
 36 60  1  0
 37 61  1  0
 38 39  1  0
 38 62  1  0
 39 63  1  0
M  CHG  1  27   1
M  END
>  <DOCK_score>  (1) 
-57.716545

>  <SMILES>  (1) 
Oc1ccc(C[C@H](Nc2[nH]cc(-c3ccc(-c4ccccc4)cc3)[nH+]2)[C@@H](O)c2ccccc2)cc1

$$$$
