CCc1ccc(-c2c[nH]c(NC3c4ccccc4OC[C@@H]3C=C3CC(c4ccccc4)=CC3=O)[nH+]2)cc1
     RDKit          3D

 67 72  0  0  1  0  0  0  0  0999 V2000
  131.9441  129.6916  152.2725 C   0  0  0  0  0  0  0  0  0  0  0  0
  130.5277  129.6773  152.8495 C   0  0  0  0  0  0  0  0  0  0  0  0
  130.4942  130.4872  154.1200 C   0  0  0  0  0  0  0  0  0  0  0  0
  130.2101  131.8393  154.0679 C   0  0  0  0  0  0  0  0  0  0  0  0
  130.1734  132.5849  155.2286 C   0  0  0  0  0  0  0  0  0  0  0  0
  130.4335  131.9745  156.4543 C   0  0  0  0  0  0  0  0  0  0  0  0
  130.4007  132.7718  157.7048 C   0  0  0  0  0  0  0  0  0  0  0  0
  130.0721  132.3105  158.9369 C   0  0  0  0  0  0  0  0  0  0  0  0
  130.1721  133.3740  159.8006 N   0  0  0  0  0  0  0  0  0  0  0  0
  129.9991  133.3573  160.7549 H   0  0  0  0  0  0  0  0  0  0  0  0
  130.5592  134.4551  159.0703 C   0  0  0  0  0  0  0  0  0  0  0  0
  130.7738  135.7292  159.5675 N   0  0  0  0  0  0  0  0  0  0  0  0
  130.0166  136.1986  160.7304 C   0  0  1  0  0  0  0  0  0  0  0  0
  128.6628  135.5353  160.7489 C   0  0  0  0  0  0  0  0  0  0  0  0
  127.9672  135.4070  159.5580 C   0  0  0  0  0  0  0  0  0  0  0  0
  126.7230  134.8079  159.5385 C   0  0  0  0  0  0  0  0  0  0  0  0
  126.1664  134.3328  160.7117 C   0  0  0  0  0  0  0  0  0  0  0  0
  126.8551  134.4566  161.9008 C   0  0  0  0  0  0  0  0  0  0  0  0
  128.1094  135.0585  161.9241 C   0  0  0  0  0  0  0  0  0  0  0  0
  128.7602  135.1549  163.1125 O   0  0  0  0  0  0  0  0  0  0  0  0
  129.8463  136.0777  163.2059 C   0  0  0  0  0  0  0  0  0  0  0  0
  130.7793  135.8474  162.0104 C   0  0  2  0  0  0  0  0  0  0  0  0
  131.0869  134.8022  161.9796 H   0  0  0  0  0  0  0  0  0  0  0  0
  131.9933  136.7314  162.1371 C   0  0  0  0  0  0  0  0  0  0  0  0
  133.0816  136.2822  162.7575 C   0  0  0  0  0  0  0  0  0  0  0  0
  134.3862  137.0188  162.9736 C   0  0  0  0  0  0  0  0  0  0  0  0
  135.2789  136.0654  163.7285 C   0  0  0  0  0  0  0  0  0  0  0  0
  136.6541  136.3534  164.1642 C   0  0  0  0  0  0  0  0  0  0  0  0
  137.1648  135.7564  165.3218 C   0  0  0  0  0  0  0  0  0  0  0  0
  138.4563  136.0278  165.7207 C   0  0  0  0  0  0  0  0  0  0  0  0
  139.2437  136.8966  164.9851 C   0  0  0  0  0  0  0  0  0  0  0  0
  138.7442  137.4954  163.8416 C   0  0  0  0  0  0  0  0  0  0  0  0
  137.4564  137.2304  163.4263 C   0  0  0  0  0  0  0  0  0  0  0  0
  134.6245  134.9103  163.9365 C   0  0  0  0  0  0  0  0  0  0  0  0
  133.2775  134.9568  163.3764 C   0  0  0  0  0  0  0  0  0  0  0  0
  132.4570  134.0576  163.4138 O   0  0  0  0  0  0  0  0  0  0  0  0
  130.6997  134.0901  157.8193 N   0  0  0  0  0  0  0  0  0  0  0  0
  130.9722  134.6705  157.0912 H   0  0  0  0  0  0  0  0  0  0  0  0
  130.7241  130.6122  156.5006 C   0  0  0  0  0  0  0  0  0  0  0  0
  130.7528  129.8754  155.3341 C   0  0  0  0  0  0  0  0  0  0  0  0
  131.9682  129.1059  151.3536 H   0  0  0  0  0  0  0  0  0  0  0  0
  132.6359  129.2607  152.9963 H   0  0  0  0  0  0  0  0  0  0  0  0
  132.2375  130.7189  152.0564 H   0  0  0  0  0  0  0  0  0  0  0  0
  129.8354  130.1075  152.1263 H   0  0  0  0  0  0  0  0  0  0  0  0
  130.2338  128.6494  153.0661 H   0  0  0  0  0  0  0  0  0  0  0  0
  130.0132  132.3122  153.1170 H   0  0  0  0  0  0  0  0  0  0  0  0
  129.9474  133.6402  155.1868 H   0  0  0  0  0  0  0  0  0  0  0  0
  129.7867  131.3002  159.1906 H   0  0  0  0  0  0  0  0  0  0  0  0
  131.4255  136.3110  159.1459 H   0  0  0  0  0  0  0  0  0  0  0  0
  129.8902  137.2796  160.6687 H   0  0  0  0  0  0  0  0  0  0  0  0
  128.3997  135.7776  158.6404 H   0  0  0  0  0  0  0  0  0  0  0  0
  126.1853  134.7101  158.6071 H   0  0  0  0  0  0  0  0  0  0  0  0
  125.1931  133.8648  160.6974 H   0  0  0  0  0  0  0  0  0  0  0  0
  126.4191  134.0857  162.8166 H   0  0  0  0  0  0  0  0  0  0  0  0
  129.4640  137.0982  163.1828 H   0  0  0  0  0  0  0  0  0  0  0  0
  130.3910  135.9108  164.1351 H   0  0  0  0  0  0  0  0  0  0  0  0
  131.9799  137.7294  161.7244 H   0  0  0  0  0  0  0  0  0  0  0  0
  134.8351  137.2776  162.0146 H   0  0  0  0  0  0  0  0  0  0  0  0
  134.2161  137.9187  163.5645 H   0  0  0  0  0  0  0  0  0  0  0  0
  136.5502  135.0814  165.8990 H   0  0  0  0  0  0  0  0  0  0  0  0
  138.8535  135.5644  166.6118 H   0  0  0  0  0  0  0  0  0  0  0  0
  140.2533  137.1080  165.3049 H   0  0  0  0  0  0  0  0  0  0  0  0
  139.3646  138.1726  163.2731 H   0  0  0  0  0  0  0  0  0  0  0  0
  137.0683  137.6982  162.5337 H   0  0  0  0  0  0  0  0  0  0  0  0
  135.0414  134.0576  164.4520 H   0  0  0  0  0  0  0  0  0  0  0  0
  130.9260  130.1341  157.4477 H   0  0  0  0  0  0  0  0  0  0  0  0
  130.9776  128.8196  155.3689 H   0  0  0  0  0  0  0  0  0  0  0  0
  1  2  1  0
  1 41  1  0
  1 42  1  0
  1 43  1  0
  2  3  1  0
  2 44  1  0
  2 45  1  0
  3 40  2  0
  3  4  1  0
  4  5  2  0
  4 46  1  0
  5  6  1  0
  5 47  1  0
  6  7  1  0
  6 39  2  0
  7 37  1  0
  7  8  2  0
  8  9  1  0
  8 48  1  0
  9 10  1  0
  9 11  1  0
 11 12  1  0
 11 37  2  0
 12 13  1  0
 12 49  1  0
 13 22  1  0
 13 14  1  0
 13 50  1  6
 14 19  1  0
 14 15  2  0
 15 16  1  0
 15 51  1  0
 16 17  2  0
 16 52  1  0
 17 18  1  0
 17 53  1  0
 18 19  2  0
 18 54  1  0
 19 20  1  0
 20 21  1  0
 21 22  1  0
 21 55  1  0
 21 56  1  0
 22 23  1  6
 22 24  1  0
 24 25  2  0
 24 57  1  0
 25 35  1  0
 25 26  1  0
 26 27  1  0
 26 58  1  0
 26 59  1  0
 27 28  1  0
 27 34  2  0
 28 33  1  0
 28 29  2  0
 29 30  1  0
 29 60  1  0
 30 31  2  0
 30 61  1  0
 31 32  1  0
 31 62  1  0
 32 33  2  0
 32 63  1  0
 33 64  1  0
 34 35  1  0
 34 65  1  0
 35 36  2  0
 37 38  1  0
 39 40  1  0
 39 66  1  0
 40 67  1  0
M  CHG  1  37   1
M  END
>  <DOCK_score>  (1) 
-56.017399

>  <SMILES>  (1) 
CCc1ccc(-c2c[nH]c(NC3c4ccccc4OC[C@@H]3C=C3CC(c4ccccc4)=CC3=O)[nH+]2)cc1

$$$$
