C1=CC2CCC1C[C@@H]2C[NH2+]Cc1c[nH]nc1-c1ccc(Nc2c[nH]c3ccccc23)o1
     RDKit          3D

 59 64  0  0  1  0  0  0  0  0999 V2000
  133.6646  140.2829  161.0102 C   0  0  0  0  0  0  0  0  0  0  0  0
  133.5003  139.4718  162.0518 C   0  0  0  0  0  0  0  0  0  0  0  0
  134.2551  138.1564  161.9298 C   0  0  2  0  0  0  0  0  0  0  0  0
  135.7451  138.4868  161.7665 C   0  0  0  0  0  0  0  0  0  0  0  0
  135.9338  139.4197  160.5684 C   0  0  0  0  0  0  0  0  0  0  0  0
  134.5706  139.7148  159.9277 C   0  0  1  0  0  0  0  0  0  0  0  0
  133.9629  138.3881  159.4547 C   0  0  0  0  0  0  0  0  0  0  0  0
  133.7742  137.4551  160.6529 C   0  0  2  0  0  0  0  0  0  0  0  0
  134.3530  136.5444  160.4988 H   0  0  0  0  0  0  0  0  0  0  0  0
  132.2927  137.0997  160.7938 C   0  0  0  0  0  0  0  0  0  0  0  0
  131.9494  136.0424  159.8335 N   0  0  0  0  0  0  0  0  0  0  0  0
  132.5106  135.2246  160.0188 H   0  0  0  0  0  0  0  0  0  0  0  0
  132.1294  136.3684  158.8958 H   0  0  0  0  0  0  0  0  0  0  0  0
  130.5270  135.7011  159.9687 C   0  0  0  0  0  0  0  0  0  0  0  0
  130.1747  134.6164  158.9836 C   0  0  0  0  0  0  0  0  0  0  0  0
  131.0203  134.0325  158.1077 C   0  0  0  0  0  0  0  0  0  0  0  0
  130.3235  133.1166  157.4006 N   0  0  0  0  0  0  0  0  0  0  0  0
  130.6789  132.5494  156.6985 H   0  0  0  0  0  0  0  0  0  0  0  0
  128.9993  133.1269  157.8570 N   0  0  0  0  0  0  0  0  0  0  0  0
  128.9038  134.0276  158.8153 C   0  0  0  0  0  0  0  0  0  0  0  0
  127.6815  134.3648  159.5735 C   0  0  0  0  0  0  0  0  0  0  0  0
  126.4588  133.7944  159.4076 C   0  0  0  0  0  0  0  0  0  0  0  0
  125.5931  134.4072  160.3342 C   0  0  0  0  0  0  0  0  0  0  0  0
  126.3257  135.3261  161.0127 C   0  0  0  0  0  0  0  0  0  0  0  0
  125.8532  136.1577  162.0201 N   0  0  0  0  0  0  0  0  0  0  0  0
  126.7177  136.5826  163.0443 C   0  0  0  0  0  0  0  0  0  0  0  0
  127.7754  135.9069  163.5323 C   0  0  0  0  0  0  0  0  0  0  0  0
  128.3771  136.6413  164.5272 N   0  0  0  0  0  0  0  0  0  0  0  0
  129.1592  136.3637  165.0294 H   0  0  0  0  0  0  0  0  0  0  0  0
  127.7047  137.8295  164.7032 C   0  0  0  0  0  0  0  0  0  0  0  0
  127.8872  138.9138  165.5565 C   0  0  0  0  0  0  0  0  0  0  0  0
  127.0257  139.9866  165.4934 C   0  0  0  0  0  0  0  0  0  0  0  0
  125.9771  139.9999  164.5835 C   0  0  0  0  0  0  0  0  0  0  0  0
  125.7770  138.9440  163.7397 C   0  0  0  0  0  0  0  0  0  0  0  0
  126.6386  137.8468  163.7857 C   0  0  0  0  0  0  0  0  0  0  0  0
  127.5873  135.2920  160.5498 O   0  0  0  0  0  0  0  0  0  0  0  0
  133.1984  141.2545  160.9395 H   0  0  0  0  0  0  0  0  0  0  0  0
  132.8877  139.7238  162.9048 H   0  0  0  0  0  0  0  0  0  0  0  0
  134.0931  137.5237  162.8024 H   0  0  0  0  0  0  0  0  0  0  0  0
  136.3055  137.5665  161.6020 H   0  0  0  0  0  0  0  0  0  0  0  0
  136.1091  138.9772  162.6694 H   0  0  0  0  0  0  0  0  0  0  0  0
  136.5838  138.9421  159.8351 H   0  0  0  0  0  0  0  0  0  0  0  0
  136.3875  140.3528  160.9026 H   0  0  0  0  0  0  0  0  0  0  0  0
  134.6772  140.4097  159.0947 H   0  0  0  0  0  0  0  0  0  0  0  0
  134.6310  137.9200  158.7317 H   0  0  0  0  0  0  0  0  0  0  0  0
  132.9969  138.5778  158.9865 H   0  0  0  0  0  0  0  0  0  0  0  0
  131.6864  137.9832  160.5937 H   0  0  0  0  0  0  0  0  0  0  0  0
  132.0983  136.7476  161.8069 H   0  0  0  0  0  0  0  0  0  0  0  0
  129.9208  136.5846  159.7685 H   0  0  0  0  0  0  0  0  0  0  0  0
  130.3325  135.3490  160.9818 H   0  0  0  0  0  0  0  0  0  0  0  0
  132.0691  134.2615  157.9896 H   0  0  0  0  0  0  0  0  0  0  0  0
  126.2014  133.0175  158.7028 H   0  0  0  0  0  0  0  0  0  0  0  0
  124.5448  134.1892  160.4760 H   0  0  0  0  0  0  0  0  0  0  0  0
  124.9268  136.4452  162.0169 H   0  0  0  0  0  0  0  0  0  0  0  0
  128.1019  134.9346  163.1935 H   0  0  0  0  0  0  0  0  0  0  0  0
  128.7013  138.9137  166.2660 H   0  0  0  0  0  0  0  0  0  0  0  0
  127.1688  140.8268  166.1566 H   0  0  0  0  0  0  0  0  0  0  0  0
  125.3127  140.8506  164.5442 H   0  0  0  0  0  0  0  0  0  0  0  0
  124.9574  138.9603  163.0365 H   0  0  0  0  0  0  0  0  0  0  0  0
  1  6  1  0
  1  2  2  0
  1 37  1  0
  2  3  1  0
  2 38  1  0
  3  8  1  0
  3  4  1  0
  3 39  1  1
  4  5  1  0
  4 40  1  0
  4 41  1  0
  5  6  1  0
  5 42  1  0
  5 43  1  0
  6  7  1  0
  6 44  1  6
  7  8  1  0
  7 45  1  0
  7 46  1  0
  8  9  1  6
  8 10  1  0
 10 11  1  0
 10 47  1  0
 10 48  1  0
 11 12  1  0
 11 13  1  0
 11 14  1  0
 14 15  1  0
 14 49  1  0
 14 50  1  0
 15 20  1  0
 15 16  2  0
 16 17  1  0
 16 51  1  0
 17 18  1  0
 17 19  1  0
 19 20  2  0
 20 21  1  0
 21 36  1  0
 21 22  2  0
 22 23  1  0
 22 52  1  0
 23 24  2  0
 23 53  1  0
 24 25  1  0
 24 36  1  0
 25 26  1  0
 25 54  1  0
 26 35  1  0
 26 27  2  0
 27 28  1  0
 27 55  1  0
 28 29  1  0
 28 30  1  0
 30 35  2  0
 30 31  1  0
 31 32  2  0
 31 56  1  0
 32 33  1  0
 32 57  1  0
 33 34  2  0
 33 58  1  0
 34 35  1  0
 34 59  1  0
M  CHG  1  11   1
M  END
>  <DOCK_score>  (1) 
-50.109924

>  <SMILES>  (1) 
C1=CC2CCC1C[C@@H]2C[NH2+]Cc1c[nH]nc1-c1ccc(Nc2c[nH]c3ccccc23)o1

$$$$
