O=C1CC[C@H](NC(NC2CCC2)=[NH+][C@@H]2COC[C@H]2O)CN1
     RDKit          3D

 46 48  0  0  1  0  0  0  0  0999 V2000
  123.8595  133.6605  162.1074 O   0  0  0  0  0  0  0  0  0  0  0  0
  124.9686  134.0007  161.7532 C   0  0  0  0  0  0  0  0  0  0  0  0
  126.0046  132.9347  161.5400 C   0  0  0  0  0  0  0  0  0  0  0  0
  127.4053  133.5595  161.5299 C   0  0  0  0  0  0  0  0  0  0  0  0
  127.3857  134.7687  160.5870 C   0  0  2  0  0  0  0  0  0  0  0  0
  126.9864  134.4701  159.6177 H   0  0  0  0  0  0  0  0  0  0  0  0
  128.7468  135.2840  160.4202 N   0  0  0  0  0  0  0  0  0  0  0  0
  129.5454  134.8018  159.4102 C   0  0  0  0  0  0  0  0  0  0  0  0
  129.0666  133.8362  158.5568 N   0  0  0  0  0  0  0  0  0  0  0  0
  129.9176  133.3224  157.4806 C   0  0  0  0  0  0  0  0  0  0  0  0
  129.4994  131.9315  156.9754 C   0  0  0  0  0  0  0  0  0  0  0  0
  131.0002  131.5972  156.8973 C   0  0  0  0  0  0  0  0  0  0  0  0
  131.2153  132.6667  157.9812 C   0  0  0  0  0  0  0  0  0  0  0  0
  130.7564  135.2604  159.2619 N   0  0  0  0  0  0  0  0  0  0  0  0
  131.1601  135.2877  158.3802 H   0  0  0  0  0  0  0  0  0  0  0  0
  131.5080  135.7346  160.4265 C   0  0  2  0  0  0  0  0  0  0  0  0
  131.2031  135.1940  161.3225 H   0  0  0  0  0  0  0  0  0  0  0  0
  131.3114  137.2552  160.6150 C   0  0  0  0  0  0  0  0  0  0  0  0
  132.5976  137.7415  161.0571 O   0  0  0  0  0  0  0  0  0  0  0  0
  133.5685  137.0236  160.2647 C   0  0  0  0  0  0  0  0  0  0  0  0
  133.0270  135.5787  160.1907 C   0  0  1  0  0  0  0  0  0  0  0  0
  133.2188  135.1489  159.2076 H   0  0  0  0  0  0  0  0  0  0  0  0
  133.6124  134.7716  161.2143 O   0  0  0  0  0  0  0  0  0  0  0  0
  126.4970  135.8541  161.1956 C   0  0  0  0  0  0  0  0  0  0  0  0
  125.2025  135.3012  161.5735 N   0  0  0  0  0  0  0  0  0  0  0  0
  125.9413  132.2021  162.3446 H   0  0  0  0  0  0  0  0  0  0  0  0
  125.8246  132.4406  160.5853 H   0  0  0  0  0  0  0  0  0  0  0  0
  128.1345  132.8305  161.1766 H   0  0  0  0  0  0  0  0  0  0  0  0
  127.6681  133.8836  162.5368 H   0  0  0  0  0  0  0  0  0  0  0  0
  129.0846  135.9654  161.0223 H   0  0  0  0  0  0  0  0  0  0  0  0
  128.1653  133.4951  158.6671 H   0  0  0  0  0  0  0  0  0  0  0  0
  130.0746  134.0478  156.6823 H   0  0  0  0  0  0  0  0  0  0  0  0
  128.9589  131.3422  157.7161 H   0  0  0  0  0  0  0  0  0  0  0  0
  129.0043  131.9501  156.0045 H   0  0  0  0  0  0  0  0  0  0  0  0
  131.4532  131.8499  155.9386 H   0  0  0  0  0  0  0  0  0  0  0  0
  131.2426  130.5869  157.2267 H   0  0  0  0  0  0  0  0  0  0  0  0
  132.1034  133.2781  157.8212 H   0  0  0  0  0  0  0  0  0  0  0  0
  131.1452  132.2802  158.9980 H   0  0  0  0  0  0  0  0  0  0  0  0
  131.0336  137.7220  159.6701 H   0  0  0  0  0  0  0  0  0  0  0  0
  130.5519  137.4486  161.3725 H   0  0  0  0  0  0  0  0  0  0  0  0
  134.5428  137.0391  160.7530 H   0  0  0  0  0  0  0  0  0  0  0  0
  133.6369  137.4549  159.2660 H   0  0  0  0  0  0  0  0  0  0  0  0
  134.5655  134.6410  161.1154 H   0  0  0  0  0  0  0  0  0  0  0  0
  126.9849  136.2656  162.0793 H   0  0  0  0  0  0  0  0  0  0  0  0
  126.3495  136.6503  160.4658 H   0  0  0  0  0  0  0  0  0  0  0  0
  124.4649  135.9178  161.7026 H   0  0  0  0  0  0  0  0  0  0  0  0
  1  2  2  0
  2 25  1  0
  2  3  1  0
  3  4  1  0
  3 26  1  0
  3 27  1  0
  4  5  1  0
  4 28  1  0
  4 29  1  0
  5  6  1  6
  5  7  1  0
  5 24  1  0
  7 30  1  0
  8  7  1  0
  8  9  1  0
  8 14  2  0
  9 10  1  0
  9 31  1  0
 10 13  1  0
 10 11  1  0
 10 32  1  0
 11 12  1  0
 11 33  1  0
 11 34  1  0
 12 13  1  0
 12 35  1  0
 12 36  1  0
 13 37  1  0
 13 38  1  0
 14 15  1  0
 14 16  1  0
 16 17  1  1
 16 21  1  0
 16 18  1  0
 18 19  1  0
 18 39  1  0
 18 40  1  0
 19 20  1  0
 20 21  1  0
 20 41  1  0
 20 42  1  0
 21 22  1  6
 21 23  1  0
 23 43  1  0
 24 25  1  0
 24 44  1  0
 24 45  1  0
 25 46  1  0
M  CHG  1  14   1
M  END
>  <DOCK_score>  (1) 
-45.715954

>  <SMILES>  (1) 
O=C1CC[C@H](NC(NC2CCC2)=[NH+][C@@H]2COC[C@H]2O)CN1

$$$$
