Nc1ccc(-c2c[nH]c(Nc3cc(NCc4nc5ccccc5[nH]4)cc4c3CCC4)[nH+]2)cc1
     RDKit          3D

 59 64  0  0  1  0  0  0  0  0999 V2000
  131.0409  130.0944  151.5141 N   0  0  0  0  0  0  0  0  0  0  0  0
  130.9258  130.6529  152.7895 C   0  0  0  0  0  0  0  0  0  0  0  0
  130.7762  132.0271  152.9341 C   0  0  0  0  0  0  0  0  0  0  0  0
  130.6623  132.5808  154.1919 C   0  0  0  0  0  0  0  0  0  0  0  0
  130.6976  131.7609  155.3188 C   0  0  0  0  0  0  0  0  0  0  0  0
  130.5758  132.3542  156.6731 C   0  0  0  0  0  0  0  0  0  0  0  0
  130.0339  131.7536  157.7616 C   0  0  0  0  0  0  0  0  0  0  0  0
  130.1243  132.6512  158.7985 N   0  0  0  0  0  0  0  0  0  0  0  0
  129.8205  132.5100  159.7088 H   0  0  0  0  0  0  0  0  0  0  0  0
  130.7192  133.7743  158.3120 C   0  0  0  0  0  0  0  0  0  0  0  0
  130.9959  134.9206  159.0392 N   0  0  0  0  0  0  0  0  0  0  0  0
  130.6577  134.9874  160.3937 C   0  0  0  0  0  0  0  0  0  0  0  0
  131.6465  135.1923  161.3444 C   0  0  0  0  0  0  0  0  0  0  0  0
  131.3074  135.2581  162.6882 C   0  0  0  0  0  0  0  0  0  0  0  0
  132.2984  135.4638  163.6506 N   0  0  0  0  0  0  0  0  0  0  0  0
  131.9387  135.5332  165.0691 C   0  0  0  0  0  0  0  0  0  0  0  0
  133.1809  135.7597  165.8919 C   0  0  0  0  0  0  0  0  0  0  0  0
  133.9302  134.8175  166.3852 N   0  0  0  0  0  0  0  0  0  0  0  0
  134.9639  135.3688  167.0717 C   0  0  0  0  0  0  0  0  0  0  0  0
  136.0442  134.8352  167.7797 C   0  0  0  0  0  0  0  0  0  0  0  0
  136.9420  135.6700  168.3823 C   0  0  0  0  0  0  0  0  0  0  0  0
  136.7990  137.0474  168.2920 C   0  0  0  0  0  0  0  0  0  0  0  0
  135.7437  137.5961  167.5950 C   0  0  0  0  0  0  0  0  0  0  0  0
  134.8186  136.7633  166.9801 C   0  0  0  0  0  0  0  0  0  0  0  0
  133.6816  136.9792  166.2276 N   0  0  0  0  0  0  0  0  0  0  0  0
  133.3088  137.8408  165.9833 H   0  0  0  0  0  0  0  0  0  0  0  0
  129.9814  135.1135  163.0745 C   0  0  0  0  0  0  0  0  0  0  0  0
  128.9947  134.9139  162.1245 C   0  0  0  0  0  0  0  0  0  0  0  0
  129.3291  134.8478  160.7854 C   0  0  0  0  0  0  0  0  0  0  0  0
  128.0829  134.6181  159.9574 C   0  0  0  0  0  0  0  0  0  0  0  0
  127.0200  134.1164  160.9577 C   0  0  0  0  0  0  0  0  0  0  0  0
  127.5005  134.7335  162.2883 C   0  0  0  0  0  0  0  0  0  0  0  0
  130.9822  133.5948  157.0404 N   0  0  0  0  0  0  0  0  0  0  0  0
  131.4029  134.2447  156.4559 H   0  0  0  0  0  0  0  0  0  0  0  0
  130.8530  130.3835  155.1716 C   0  0  0  0  0  0  0  0  0  0  0  0
  130.9607  129.8336  153.9116 C   0  0  0  0  0  0  0  0  0  0  0  0
  131.0164  130.6655  150.7306 H   0  0  0  0  0  0  0  0  0  0  0  0
  131.1454  129.1354  151.4125 H   0  0  0  0  0  0  0  0  0  0  0  0
  130.7492  132.6619  152.0608 H   0  0  0  0  0  0  0  0  0  0  0  0
  130.5457  133.6485  154.3037 H   0  0  0  0  0  0  0  0  0  0  0  0
  129.6116  130.7605  157.8053 H   0  0  0  0  0  0  0  0  0  0  0  0
  131.4243  135.6767  158.6085 H   0  0  0  0  0  0  0  0  0  0  0  0
  132.6770  135.2999  161.0397 H   0  0  0  0  0  0  0  0  0  0  0  0
  133.2248  135.5610  163.3800 H   0  0  0  0  0  0  0  0  0  0  0  0
  131.4687  134.5971  165.3709 H   0  0  0  0  0  0  0  0  0  0  0  0
  131.2426  136.3568  165.2277 H   0  0  0  0  0  0  0  0  0  0  0  0
  136.1677  133.7648  167.8522 H   0  0  0  0  0  0  0  0  0  0  0  0
  137.7738  135.2538  168.9312 H   0  0  0  0  0  0  0  0  0  0  0  0
  137.5196  137.6939  168.7706 H   0  0  0  0  0  0  0  0  0  0  0  0
  135.6371  138.6686  167.5276 H   0  0  0  0  0  0  0  0  0  0  0  0
  129.7182  135.1608  164.1210 H   0  0  0  0  0  0  0  0  0  0  0  0
  127.7580  135.5509  159.4963 H   0  0  0  0  0  0  0  0  0  0  0  0
  128.2699  133.8630  159.1938 H   0  0  0  0  0  0  0  0  0  0  0  0
  127.0224  133.0278  161.0121 H   0  0  0  0  0  0  0  0  0  0  0  0
  126.0296  134.4873  160.6939 H   0  0  0  0  0  0  0  0  0  0  0  0
  127.2896  134.0571  163.1167 H   0  0  0  0  0  0  0  0  0  0  0  0
  127.0193  135.6970  162.4557 H   0  0  0  0  0  0  0  0  0  0  0  0
  130.8849  129.7470  156.0435 H   0  0  0  0  0  0  0  0  0  0  0  0
  131.0771  128.7660  153.7968 H   0  0  0  0  0  0  0  0  0  0  0  0
  1  2  1  0
  1 37  1  0
  1 38  1  0
  2 36  2  0
  2  3  1  0
  3  4  2  0
  3 39  1  0
  4  5  1  0
  4 40  1  0
  5  6  1  0
  5 35  2  0
  6 33  1  0
  6  7  2  0
  7  8  1  0
  7 41  1  0
  8  9  1  0
  8 10  1  0
 10 11  1  0
 10 33  2  0
 11 12  1  0
 11 42  1  0
 12 29  1  0
 12 13  2  0
 13 14  1  0
 13 43  1  0
 14 15  1  0
 14 27  2  0
 15 16  1  0
 15 44  1  0
 16 17  1  0
 16 45  1  0
 16 46  1  0
 17 25  1  0
 17 18  2  0
 18 19  1  0
 19 24  2  0
 19 20  1  0
 20 21  2  0
 20 47  1  0
 21 22  1  0
 21 48  1  0
 22 23  2  0
 22 49  1  0
 23 24  1  0
 23 50  1  0
 24 25  1  0
 25 26  1  0
 27 28  1  0
 27 51  1  0
 28 32  1  0
 28 29  2  0
 29 30  1  0
 30 31  1  0
 30 52  1  0
 30 53  1  0
 31 32  1  0
 31 54  1  0
 31 55  1  0
 32 56  1  0
 32 57  1  0
 33 34  1  0
 35 36  1  0
 35 58  1  0
 36 59  1  0
M  CHG  1  33   1
M  END
>  <DOCK_score>  (1) 
-57.943878

>  <SMILES>  (1) 
Nc1ccc(-c2c[nH]c(Nc3cc(NCc4nc5ccccc5[nH]4)cc4c3CCC4)[nH+]2)cc1

$$$$
