C[C@@H]([NH2+]Cc1c[nH]nc1-c1ccc(NCCCC2C=CCC2)o1)c1cc2ccccc2[nH]1
     RDKit          3D

 64 68  0  0  1  0  0  0  0  0999 V2000
  130.4621  139.4036  159.9573 C   0  0  0  0  0  0  0  0  0  0  0  0
  131.1691  138.2469  160.6666 C   0  0  1  0  0  0  0  0  0  0  0  0
  130.7332  138.1064  161.6557 H   0  0  0  0  0  0  0  0  0  0  0  0
  131.0057  137.0170  159.8801 N   0  0  0  0  0  0  0  0  0  0  0  0
  130.0682  136.9770  159.5092 H   0  0  0  0  0  0  0  0  0  0  0  0
  131.6688  137.0136  159.1196 H   0  0  0  0  0  0  0  0  0  0  0  0
  131.2420  135.8503  160.7410 C   0  0  0  0  0  0  0  0  0  0  0  0
  131.0744  134.5886  159.9341 C   0  0  0  0  0  0  0  0  0  0  0  0
  132.0447  133.9502  159.2455 C   0  0  0  0  0  0  0  0  0  0  0  0
  131.4966  132.8629  158.6610 N   0  0  0  0  0  0  0  0  0  0  0  0
  131.9639  132.2195  158.1054 H   0  0  0  0  0  0  0  0  0  0  0  0
  130.1358  132.8284  158.9906 N   0  0  0  0  0  0  0  0  0  0  0  0
  129.8745  133.8675  159.7590 C   0  0  0  0  0  0  0  0  0  0  0  0
  128.5589  134.2149  160.3346 C   0  0  0  0  0  0  0  0  0  0  0  0
  127.4066  133.5137  160.1680 C   0  0  0  0  0  0  0  0  0  0  0  0
  126.4053  134.1971  160.8858 C   0  0  0  0  0  0  0  0  0  0  0  0
  126.9942  135.2790  161.4539 C   0  0  0  0  0  0  0  0  0  0  0  0
  126.3591  136.2243  162.2509 N   0  0  0  0  0  0  0  0  0  0  0  0
  127.1203  137.3482  162.8019 C   0  0  0  0  0  0  0  0  0  0  0  0
  127.6919  136.9569  164.1662 C   0  0  0  0  0  0  0  0  0  0  0  0
  126.5464  136.6022  165.1163 C   0  0  0  0  0  0  0  0  0  0  0  0
  127.1180  136.2109  166.4805 C   0  0  2  0  0  0  0  0  0  0  0  0
  127.5104  134.7518  166.4881 C   0  0  0  0  0  0  0  0  0  0  0  0
  127.1040  134.1632  167.5822 C   0  0  0  0  0  0  0  0  0  0  0  0
  126.3778  135.1330  168.4852 C   0  0  0  0  0  0  0  0  0  0  0  0
  126.0325  136.3344  167.5749 C   0  0  0  0  0  0  0  0  0  0  0  0
  128.2963  135.2798  161.1213 O   0  0  0  0  0  0  0  0  0  0  0  0
  132.6360  138.5637  160.8046 C   0  0  0  0  0  0  0  0  0  0  0  0
  133.2981  138.6572  161.9685 C   0  0  0  0  0  0  0  0  0  0  0  0
  134.6908  138.9750  161.6446 C   0  0  0  0  0  0  0  0  0  0  0  0
  135.8401  139.1903  162.4080 C   0  0  0  0  0  0  0  0  0  0  0  0
  137.0215  139.4832  161.7876 C   0  0  0  0  0  0  0  0  0  0  0  0
  137.0891  139.5679  160.4034 C   0  0  0  0  0  0  0  0  0  0  0  0
  135.9678  139.3589  159.6313 C   0  0  0  0  0  0  0  0  0  0  0  0
  134.7541  139.0597  160.2419 C   0  0  0  0  0  0  0  0  0  0  0  0
  133.4890  138.8047  159.7621 N   0  0  0  0  0  0  0  0  0  0  0  0
  133.2395  138.7969  158.8248 H   0  0  0  0  0  0  0  0  0  0  0  0
  130.5833  140.3162  160.5408 H   0  0  0  0  0  0  0  0  0  0  0  0
  130.8980  139.5442  158.9682 H   0  0  0  0  0  0  0  0  0  0  0  0
  129.4012  139.1744  159.8575 H   0  0  0  0  0  0  0  0  0  0  0  0
  132.2548  135.8935  161.1417 H   0  0  0  0  0  0  0  0  0  0  0  0
  130.5258  135.8541  161.5626 H   0  0  0  0  0  0  0  0  0  0  0  0
  133.0786  134.2547  159.1759 H   0  0  0  0  0  0  0  0  0  0  0  0
  127.2824  132.6065  159.5953 H   0  0  0  0  0  0  0  0  0  0  0  0
  125.3666  133.9135  160.9684 H   0  0  0  0  0  0  0  0  0  0  0  0
  125.4120  136.1398  162.4421 H   0  0  0  0  0  0  0  0  0  0  0  0
  127.9364  137.6010  162.1250 H   0  0  0  0  0  0  0  0  0  0  0  0
  126.4634  138.2104  162.9170 H   0  0  0  0  0  0  0  0  0  0  0  0
  128.3488  136.0948  164.0511 H   0  0  0  0  0  0  0  0  0  0  0  0
  128.2582  137.7932  164.5761 H   0  0  0  0  0  0  0  0  0  0  0  0
  125.8895  137.4643  165.2313 H   0  0  0  0  0  0  0  0  0  0  0  0
  125.9800  135.7660  164.7063 H   0  0  0  0  0  0  0  0  0  0  0  0
  127.9766  136.8363  166.7252 H   0  0  0  0  0  0  0  0  0  0  0  0
  128.0528  134.2610  165.6936 H   0  0  0  0  0  0  0  0  0  0  0  0
  127.2677  133.1206  167.8115 H   0  0  0  0  0  0  0  0  0  0  0  0
  127.0263  135.4497  169.3021 H   0  0  0  0  0  0  0  0  0  0  0  0
  125.4674  134.6788  168.8762 H   0  0  0  0  0  0  0  0  0  0  0  0
  126.1277  137.2757  168.1162 H   0  0  0  0  0  0  0  0  0  0  0  0
  125.0343  136.2296  167.1495 H   0  0  0  0  0  0  0  0  0  0  0  0
  132.8831  138.5216  162.9564 H   0  0  0  0  0  0  0  0  0  0  0  0
  135.7951  139.1255  163.4851 H   0  0  0  0  0  0  0  0  0  0  0  0
  137.9101  139.6498  162.3785 H   0  0  0  0  0  0  0  0  0  0  0  0
  138.0305  139.7997  159.9274 H   0  0  0  0  0  0  0  0  0  0  0  0
  136.0308  139.4267  158.5552 H   0  0  0  0  0  0  0  0  0  0  0  0
  1  2  1  0
  1 38  1  0
  1 39  1  0
  1 40  1  0
  2  3  1  1
  2  4  1  0
  2 28  1  0
  4  5  1  0
  4  6  1  0
  4  7  1  0
  7  8  1  0
  7 41  1  0
  7 42  1  0
  8 13  1  0
  8  9  2  0
  9 10  1  0
  9 43  1  0
 10 11  1  0
 10 12  1  0
 12 13  2  0
 13 14  1  0
 14 27  1  0
 14 15  2  0
 15 16  1  0
 15 44  1  0
 16 17  2  0
 16 45  1  0
 17 18  1  0
 17 27  1  0
 18 19  1  0
 18 46  1  0
 19 20  1  0
 19 47  1  0
 19 48  1  0
 20 21  1  0
 20 49  1  0
 20 50  1  0
 21 22  1  0
 21 51  1  0
 21 52  1  0
 22 26  1  0
 22 23  1  0
 22 53  1  1
 23 24  2  0
 23 54  1  0
 24 25  1  0
 24 55  1  0
 25 26  1  0
 25 56  1  0
 25 57  1  0
 26 58  1  0
 26 59  1  0
 28 36  1  0
 28 29  2  0
 29 30  1  0
 29 60  1  0
 30 35  2  0
 30 31  1  0
 31 32  2  0
 31 61  1  0
 32 33  1  0
 32 62  1  0
 33 34  2  0
 33 63  1  0
 34 35  1  0
 34 64  1  0
 35 36  1  0
 36 37  1  0
M  CHG  1   4   1
M  END
>  <DOCK_score>  (1) 
-53.455433

>  <SMILES>  (1) 
C[C@@H]([NH2+]Cc1c[nH]nc1-c1ccc(NCCCC2C=CCC2)o1)c1cc2ccccc2[nH]1

$$$$
