CNC(NC)=[NH+]Cc1cc(Cl)cc(Nc2cccc(C)c2C)c1
     RDKit          3D

 47 48  0  0  0  0  0  0  0  0999 V2000
  130.4962  131.6477  156.3681 C   0  0  0  0  0  0  0  0  0  0  0  0
  131.1394  132.3399  157.4876 N   0  0  0  0  0  0  0  0  0  0  0  0
  130.4917  132.4424  158.6960 C   0  0  0  0  0  0  0  0  0  0  0  0
  131.0953  133.0919  159.7466 N   0  0  0  0  0  0  0  0  0  0  0  0
  132.4289  133.6749  159.5786 C   0  0  0  0  0  0  0  0  0  0  0  0
  129.3053  131.9237  158.8455 N   0  0  0  0  0  0  0  0  0  0  0  0
  128.7035  131.8626  158.0872 H   0  0  0  0  0  0  0  0  0  0  0  0
  128.8807  131.4329  160.1589 C   0  0  0  0  0  0  0  0  0  0  0  0
  127.6550  132.1878  160.6050 C   0  0  0  0  0  0  0  0  0  0  0  0
  126.5817  131.5040  161.1462 C   0  0  0  0  0  0  0  0  0  0  0  0
  125.4543  132.1933  161.5571 C   0  0  0  0  0  0  0  0  0  0  0  0
  124.1095  131.3306  162.2359 Cl  0  0  0  0  0  0  0  0  0  0  0  0
  125.3984  133.5686  161.4278 C   0  0  0  0  0  0  0  0  0  0  0  0
  126.4751  134.2574  160.8845 C   0  0  0  0  0  0  0  0  0  0  0  0
  126.4221  135.6472  160.7519 N   0  0  0  0  0  0  0  0  0  0  0  0
  127.5061  136.3385  160.2052 C   0  0  0  0  0  0  0  0  0  0  0  0
  127.9268  136.0619  158.9101 C   0  0  0  0  0  0  0  0  0  0  0  0
  128.9983  136.7472  158.3727 C   0  0  0  0  0  0  0  0  0  0  0  0
  129.6524  137.7089  159.1224 C   0  0  0  0  0  0  0  0  0  0  0  0
  129.2359  137.9868  160.4107 C   0  0  0  0  0  0  0  0  0  0  0  0
  129.9512  139.0356  161.2228 C   0  0  0  0  0  0  0  0  0  0  0  0
  128.1622  137.3080  160.9530 C   0  0  0  0  0  0  0  0  0  0  0  0
  127.7055  137.6160  162.3557 C   0  0  0  0  0  0  0  0  0  0  0  0
  127.6030  133.5609  160.4679 C   0  0  0  0  0  0  0  0  0  0  0  0
  130.2213  130.6385  156.6746 H   0  0  0  0  0  0  0  0  0  0  0  0
  129.6010  132.1933  156.0697 H   0  0  0  0  0  0  0  0  0  0  0  0
  131.1876  131.5964  155.5271 H   0  0  0  0  0  0  0  0  0  0  0  0
  132.0223  132.7258  157.3764 H   0  0  0  0  0  0  0  0  0  0  0  0
  130.6383  133.1642  160.5992 H   0  0  0  0  0  0  0  0  0  0  0  0
  132.3825  134.4833  158.8488 H   0  0  0  0  0  0  0  0  0  0  0  0
  132.7768  134.0674  160.5340 H   0  0  0  0  0  0  0  0  0  0  0  0
  133.1190  132.9078  159.2277 H   0  0  0  0  0  0  0  0  0  0  0  0
  129.6834  131.5846  160.8805 H   0  0  0  0  0  0  0  0  0  0  0  0
  128.6483  130.3701  160.0920 H   0  0  0  0  0  0  0  0  0  0  0  0
  126.6236  130.4296  161.2488 H   0  0  0  0  0  0  0  0  0  0  0  0
  124.5186  134.1065  161.7485 H   0  0  0  0  0  0  0  0  0  0  0  0
  125.6312  136.1316  161.0357 H   0  0  0  0  0  0  0  0  0  0  0  0
  127.4166  135.3113  158.3246 H   0  0  0  0  0  0  0  0  0  0  0  0
  129.3258  136.5327  157.3662 H   0  0  0  0  0  0  0  0  0  0  0  0
  130.4897  138.2435  158.6989 H   0  0  0  0  0  0  0  0  0  0  0  0
  129.4829  140.0056  161.0568 H   0  0  0  0  0  0  0  0  0  0  0  0
  129.8913  138.7793  162.2806 H   0  0  0  0  0  0  0  0  0  0  0  0
  130.9970  139.0800  160.9185 H   0  0  0  0  0  0  0  0  0  0  0  0
  128.2361  136.9746  163.0594 H   0  0  0  0  0  0  0  0  0  0  0  0
  127.9166  138.6603  162.5855 H   0  0  0  0  0  0  0  0  0  0  0  0
  126.6336  137.4355  162.4367 H   0  0  0  0  0  0  0  0  0  0  0  0
  128.4401  134.0934  160.0414 H   0  0  0  0  0  0  0  0  0  0  0  0
  1  2  1  0
  1 25  1  0
  1 26  1  0
  1 27  1  0
  2  3  1  0
  2 28  1  0
  3  4  1  0
  3  6  2  0
  4  5  1  0
  4 29  1  0
  5 30  1  0
  5 31  1  0
  5 32  1  0
  6  7  1  0
  6  8  1  0
  8  9  1  0
  8 33  1  0
  8 34  1  0
  9 24  2  0
  9 10  1  0
 10 11  2  0
 10 35  1  0
 11 12  1  0
 11 13  1  0
 13 14  2  0
 13 36  1  0
 14 15  1  0
 14 24  1  0
 15 16  1  0
 15 37  1  0
 16 22  1  0
 16 17  2  0
 17 18  1  0
 17 38  1  0
 18 19  2  0
 18 39  1  0
 19 20  1  0
 19 40  1  0
 20 21  1  0
 20 22  2  0
 21 41  1  0
 21 42  1  0
 21 43  1  0
 22 23  1  0
 23 44  1  0
 23 45  1  0
 23 46  1  0
 24 47  1  0
M  CHG  1   6   1
M  END
>  <DOCK_score>  (1) 
-44.411221

>  <SMILES>  (1) 
CNC(NC)=[NH+]Cc1cc(Cl)cc(Nc2cccc(C)c2C)c1

$$$$
