CCC=Cc1c[nH]c(NC(c2ccccc2)c2ccccc2)[nH+]1
     RDKit          3D

 45 47  0  0  1  0  0  0  0  0999 V2000
  130.2609  130.9919  152.5891 C   0  0  0  0  0  0  0  0  0  0  0  0
  131.4781  131.5319  153.3426 C   0  0  0  0  0  0  0  0  0  0  0  0
  131.0202  132.2663  154.5763 C   0  0  0  0  0  0  0  0  0  0  0  0
  130.8782  131.6136  155.7223 C   0  0  0  0  0  0  0  0  0  0  0  0
  130.4293  132.3336  156.9316 C   0  0  0  0  0  0  0  0  0  0  0  0
  129.7137  131.8047  157.9581 C   0  0  0  0  0  0  0  0  0  0  0  0
  129.5197  132.8134  158.8693 N   0  0  0  0  0  0  0  0  0  0  0  0
  129.0447  132.7424  159.7120 H   0  0  0  0  0  0  0  0  0  0  0  0
  130.1137  133.9321  158.3708 C   0  0  0  0  0  0  0  0  0  0  0  0
  130.1422  135.1716  158.9863 N   0  0  0  0  0  0  0  0  0  0  0  0
  129.0427  135.5785  159.8648 C   0  0  0  0  0  0  0  0  0  0  0  0
  129.3149  136.9593  160.4036 C   0  0  0  0  0  0  0  0  0  0  0  0
  128.8293  137.3249  161.6452 C   0  0  0  0  0  0  0  0  0  0  0  0
  129.0829  138.5899  162.1414 C   0  0  0  0  0  0  0  0  0  0  0  0
  129.8135  139.4928  161.3919 C   0  0  0  0  0  0  0  0  0  0  0  0
  130.2947  139.1290  160.1480 C   0  0  0  0  0  0  0  0  0  0  0  0
  130.0454  137.8622  159.6540 C   0  0  0  0  0  0  0  0  0  0  0  0
  127.7536  135.5890  159.0844 C   0  0  0  0  0  0  0  0  0  0  0  0
  126.5573  135.3186  159.7222 C   0  0  0  0  0  0  0  0  0  0  0  0
  125.3742  135.3328  159.0073 C   0  0  0  0  0  0  0  0  0  0  0  0
  125.3886  135.6073  157.6525 C   0  0  0  0  0  0  0  0  0  0  0  0
  126.5855  135.8725  157.0137 C   0  0  0  0  0  0  0  0  0  0  0  0
  127.7679  135.8633  157.7296 C   0  0  0  0  0  0  0  0  0  0  0  0
  130.6590  133.6416  157.2151 N   0  0  0  0  0  0  0  0  0  0  0  0
  131.1489  134.2616  156.6526 H   0  0  0  0  0  0  0  0  0  0  0  0
  129.7078  130.3091  153.2341 H   0  0  0  0  0  0  0  0  0  0  0  0
  129.6155  131.8212  152.2996 H   0  0  0  0  0  0  0  0  0  0  0  0
  130.5921  130.4608  151.6969 H   0  0  0  0  0  0  0  0  0  0  0  0
  132.0312  132.2146  152.6975 H   0  0  0  0  0  0  0  0  0  0  0  0
  132.1235  130.7024  153.6320 H   0  0  0  0  0  0  0  0  0  0  0  0
  130.8075  133.3240  154.5273 H   0  0  0  0  0  0  0  0  0  0  0  0
  131.0909  130.5558  155.7712 H   0  0  0  0  0  0  0  0  0  0  0  0
  129.3675  130.7852  158.0432 H   0  0  0  0  0  0  0  0  0  0  0  0
  130.8880  135.7724  158.8327 H   0  0  0  0  0  0  0  0  0  0  0  0
  128.9601  134.8750  160.6933 H   0  0  0  0  0  0  0  0  0  0  0  0
  128.2548  136.6210  162.2290 H   0  0  0  0  0  0  0  0  0  0  0  0
  128.7067  138.8742  163.1130 H   0  0  0  0  0  0  0  0  0  0  0  0
  130.0080  140.4825  161.7776 H   0  0  0  0  0  0  0  0  0  0  0  0
  130.8650  139.8344  159.5622 H   0  0  0  0  0  0  0  0  0  0  0  0
  130.4211  137.5781  158.6821 H   0  0  0  0  0  0  0  0  0  0  0  0
  126.5466  135.0998  160.7797 H   0  0  0  0  0  0  0  0  0  0  0  0
  124.4393  135.1253  159.5063 H   0  0  0  0  0  0  0  0  0  0  0  0
  124.4648  135.6142  157.0931 H   0  0  0  0  0  0  0  0  0  0  0  0
  126.5966  136.0866  155.9552 H   0  0  0  0  0  0  0  0  0  0  0  0
  128.7029  136.0703  157.2304 H   0  0  0  0  0  0  0  0  0  0  0  0
  1  2  1  0
  1 26  1  0
  1 27  1  0
  1 28  1  0
  2  3  1  0
  2 29  1  0
  2 30  1  0
  3  4  2  0
  3 31  1  0
  4  5  1  0
  4 32  1  0
  5 24  1  0
  5  6  2  0
  6  7  1  0
  6 33  1  0
  7  8  1  0
  7  9  1  0
  9 10  1  0
  9 24  2  0
 10 11  1  0
 10 34  1  0
 11 12  1  0
 11 18  1  0
 11 35  1  0
 12 17  1  0
 12 13  2  0
 13 14  1  0
 13 36  1  0
 14 15  2  0
 14 37  1  0
 15 16  1  0
 15 38  1  0
 16 17  2  0
 16 39  1  0
 17 40  1  0
 18 23  1  0
 18 19  2  0
 19 20  1  0
 19 41  1  0
 20 21  2  0
 20 42  1  0
 21 22  1  0
 21 43  1  0
 22 23  2  0
 22 44  1  0
 23 45  1  0
 24 25  1  0
M  CHG  1  24   1
M  END
>  <DOCK_score>  (1) 
-59.25423

>  <SMILES>  (1) 
CCC=Cc1c[nH]c(NC(c2ccccc2)c2ccccc2)[nH+]1

$$$$
