CC=C[C@H](Nc1[nH]cc(-c2ccc(-c3ccccc3)cc2)[nH+]1)c1cncc2ccccc12
     RDKit          3D

 57 61  0  0  1  0  0  0  0  0999 V2000
  132.3070  134.7742  164.7001 C   0  0  0  0  0  0  0  0  0  0  0  0
  131.3876  135.6317  163.8691 C   0  0  0  0  0  0  0  0  0  0  0  0
  131.7298  135.9683  162.6502 C   0  0  0  0  0  0  0  0  0  0  0  0
  130.8103  136.8257  161.8193 C   0  0  2  0  0  0  0  0  0  0  0  0
  129.7768  136.6385  162.1106 H   0  0  0  0  0  0  0  0  0  0  0  0
  130.9852  136.4982  160.4021 N   0  0  0  0  0  0  0  0  0  0  0  0
  130.7392  135.2119  159.9536 C   0  0  0  0  0  0  0  0  0  0  0  0
  130.3382  134.1659  160.7266 N   0  0  0  0  0  0  0  0  0  0  0  0
  130.1743  134.1877  161.6824 H   0  0  0  0  0  0  0  0  0  0  0  0
  130.2080  133.0740  159.9037 C   0  0  0  0  0  0  0  0  0  0  0  0
  130.5331  133.4836  158.6518 C   0  0  0  0  0  0  0  0  0  0  0  0
  130.5368  132.6416  157.4317 C   0  0  0  0  0  0  0  0  0  0  0  0
  130.2699  133.2143  156.1881 C   0  0  0  0  0  0  0  0  0  0  0  0
  130.2737  132.4319  155.0546 C   0  0  0  0  0  0  0  0  0  0  0  0
  130.5439  131.0666  155.1506 C   0  0  0  0  0  0  0  0  0  0  0  0
  130.5483  130.2248  153.9296 C   0  0  0  0  0  0  0  0  0  0  0  0
  131.3744  129.1046  153.8553 C   0  0  0  0  0  0  0  0  0  0  0  0
  131.3708  128.3220  152.7186 C   0  0  0  0  0  0  0  0  0  0  0  0
  130.5566  128.6530  151.6503 C   0  0  0  0  0  0  0  0  0  0  0  0
  129.7385  129.7665  151.7164 C   0  0  0  0  0  0  0  0  0  0  0  0
  129.7303  130.5537  152.8499 C   0  0  0  0  0  0  0  0  0  0  0  0
  130.8055  130.4933  156.3941 C   0  0  0  0  0  0  0  0  0  0  0  0
  130.8075  131.2764  157.5271 C   0  0  0  0  0  0  0  0  0  0  0  0
  130.8598  134.7991  158.7155 N   0  0  0  0  0  0  0  0  0  0  0  0
  131.1364  135.3470  157.9643 H   0  0  0  0  0  0  0  0  0  0  0  0
  131.1398  138.2790  162.0433 C   0  0  0  0  0  0  0  0  0  0  0  0
  130.2040  139.1350  162.5403 C   0  0  0  0  0  0  0  0  0  0  0  0
  130.4697  140.4166  162.7521 N   0  0  0  0  0  0  0  0  0  0  0  0
  131.6390  140.9526  162.4904 C   0  0  0  0  0  0  0  0  0  0  0  0
  132.6720  140.1575  161.9691 C   0  0  0  0  0  0  0  0  0  0  0  0
  133.9396  140.6825  161.6721 C   0  0  0  0  0  0  0  0  0  0  0  0
  134.9036  139.8637  161.1676 C   0  0  0  0  0  0  0  0  0  0  0  0
  134.6528  138.5115  160.9408 C   0  0  0  0  0  0  0  0  0  0  0  0
  133.4351  137.9673  161.2171 C   0  0  0  0  0  0  0  0  0  0  0  0
  132.4180  138.7802  161.7377 C   0  0  0  0  0  0  0  0  0  0  0  0
  131.8570  134.6001  165.6774 H   0  0  0  0  0  0  0  0  0  0  0  0
  132.4663  133.8197  164.1981 H   0  0  0  0  0  0  0  0  0  0  0  0
  133.2631  135.2825  164.8258 H   0  0  0  0  0  0  0  0  0  0  0  0
  130.4468  135.9684  164.2785 H   0  0  0  0  0  0  0  0  0  0  0  0
  132.6706  135.6314  162.2408 H   0  0  0  0  0  0  0  0  0  0  0  0
  131.2734  137.1825  159.7781 H   0  0  0  0  0  0  0  0  0  0  0  0
  129.9050  132.0797  160.1970 H   0  0  0  0  0  0  0  0  0  0  0  0
  130.0598  134.2711  156.1142 H   0  0  0  0  0  0  0  0  0  0  0  0
  130.0673  132.8754  154.0916 H   0  0  0  0  0  0  0  0  0  0  0  0
  132.0133  128.8475  154.6872 H   0  0  0  0  0  0  0  0  0  0  0  0
  132.0077  127.4517  152.6613 H   0  0  0  0  0  0  0  0  0  0  0  0
  130.5598  128.0399  150.7613 H   0  0  0  0  0  0  0  0  0  0  0  0
  129.1053  130.0206  150.8792 H   0  0  0  0  0  0  0  0  0  0  0  0
  129.0914  131.4231  152.9004 H   0  0  0  0  0  0  0  0  0  0  0  0
  131.0109  129.4355  156.4684 H   0  0  0  0  0  0  0  0  0  0  0  0
  131.0141  130.8328  158.4899 H   0  0  0  0  0  0  0  0  0  0  0  0
  129.2190  138.7581  162.7726 H   0  0  0  0  0  0  0  0  0  0  0  0
  131.8062  142.0033  162.6761 H   0  0  0  0  0  0  0  0  0  0  0  0
  134.1488  141.7284  161.8421 H   0  0  0  0  0  0  0  0  0  0  0  0
  135.8783  140.2688  160.9391 H   0  0  0  0  0  0  0  0  0  0  0  0
  135.4365  137.8855  160.5401 H   0  0  0  0  0  0  0  0  0  0  0  0
  133.2543  136.9180  161.0365 H   0  0  0  0  0  0  0  0  0  0  0  0
  1  2  1  0
  1 36  1  0
  1 37  1  0
  1 38  1  0
  2  3  2  0
  2 39  1  0
  3  4  1  0
  3 40  1  0
  4  5  1  1
  4  6  1  0
  4 26  1  0
  6 41  1  0
  7  6  1  0
  7 24  2  0
  7  8  1  0
  8  9  1  0
  8 10  1  0
 10 11  2  0
 10 42  1  0
 11 12  1  0
 11 24  1  0
 12 23  1  0
 12 13  2  0
 13 14  1  0
 13 43  1  0
 14 15  2  0
 14 44  1  0
 15 16  1  0
 15 22  1  0
 16 21  1  0
 16 17  2  0
 17 18  1  0
 17 45  1  0
 18 19  2  0
 18 46  1  0
 19 20  1  0
 19 47  1  0
 20 21  2  0
 20 48  1  0
 21 49  1  0
 22 23  2  0
 22 50  1  0
 23 51  1  0
 24 25  1  0
 26 35  1  0
 26 27  2  0
 27 28  1  0
 27 52  1  0
 28 29  2  0
 29 30  1  0
 29 53  1  0
 30 35  2  0
 30 31  1  0
 31 32  2  0
 31 54  1  0
 32 33  1  0
 32 55  1  0
 33 34  2  0
 33 56  1  0
 34 35  1  0
 34 57  1  0
M  CHG  1  24   1
M  END
>  <DOCK_score>  (1) 
-58.906548

>  <SMILES>  (1) 
CC=C[C@H](Nc1[nH]cc(-c2ccc(-c3ccccc3)cc2)[nH+]1)c1cncc2ccccc12

$$$$
