CCc1ccc(-c2c[nH]c(N[C@H](C=Cc3cccc(C)c3C)c3ccccc3C)[nH+]2)cc1
     RDKit          3D

 64 67  0  0  1  0  0  0  0  0999 V2000
  129.9848  128.5309  151.4077 C   0  0  0  0  0  0  0  0  0  0  0  0
  131.1709  129.4380  151.7410 C   0  0  0  0  0  0  0  0  0  0  0  0
  130.8541  130.2471  152.9723 C   0  0  0  0  0  0  0  0  0  0  0  0
  131.1776  129.7534  154.2228 C   0  0  0  0  0  0  0  0  0  0  0  0
  130.8951  130.4923  155.3537 C   0  0  0  0  0  0  0  0  0  0  0  0
  130.2724  131.7335  155.2343 C   0  0  0  0  0  0  0  0  0  0  0  0
  129.9612  132.5299  156.4464 C   0  0  0  0  0  0  0  0  0  0  0  0
  129.1657  132.1419  157.4738 C   0  0  0  0  0  0  0  0  0  0  0  0
  129.1522  133.1746  158.3795 N   0  0  0  0  0  0  0  0  0  0  0  0
  128.6695  133.1948  159.2207 H   0  0  0  0  0  0  0  0  0  0  0  0
  129.9406  134.1644  157.8787 C   0  0  0  0  0  0  0  0  0  0  0  0
  130.1922  135.3814  158.4887 N   0  0  0  0  0  0  0  0  0  0  0  0
  129.5863  135.6893  159.7865 C   0  0  2  0  0  0  0  0  0  0  0  0
  128.5004  135.6593  159.6967 H   0  0  0  0  0  0  0  0  0  0  0  0
  130.0158  137.0648  160.2276 C   0  0  0  0  0  0  0  0  0  0  0  0
  131.1144  137.2150  160.9542 C   0  0  0  0  0  0  0  0  0  0  0  0
  131.5357  138.5641  161.3869 C   0  0  0  0  0  0  0  0  0  0  0  0
  130.6960  139.3364  162.1907 C   0  0  0  0  0  0  0  0  0  0  0  0
  131.0952  140.5948  162.5910 C   0  0  0  0  0  0  0  0  0  0  0  0
  132.3252  141.0915  162.1975 C   0  0  0  0  0  0  0  0  0  0  0  0
  133.1623  140.3310  161.4011 C   0  0  0  0  0  0  0  0  0  0  0  0
  134.5000  140.8801  160.9772 C   0  0  0  0  0  0  0  0  0  0  0  0
  132.7771  139.0687  160.9982 C   0  0  0  0  0  0  0  0  0  0  0  0
  133.6930  138.2389  160.1358 C   0  0  0  0  0  0  0  0  0  0  0  0
  130.0348  134.6725  160.8043 C   0  0  0  0  0  0  0  0  0  0  0  0
  131.2741  134.0722  160.6819 C   0  0  0  0  0  0  0  0  0  0  0  0
  131.6856  133.1398  161.6156 C   0  0  0  0  0  0  0  0  0  0  0  0
  130.8576  132.8073  162.6717 C   0  0  0  0  0  0  0  0  0  0  0  0
  129.6187  133.4078  162.7943 C   0  0  0  0  0  0  0  0  0  0  0  0
  129.2093  134.3443  161.8632 C   0  0  0  0  0  0  0  0  0  0  0  0
  127.8609  135.0032  161.9999 C   0  0  0  0  0  0  0  0  0  0  0  0
  130.4269  133.7731  156.7261 N   0  0  0  0  0  0  0  0  0  0  0  0
  131.0226  134.2907  156.1621 H   0  0  0  0  0  0  0  0  0  0  0  0
  129.9435  132.2238  153.9718 C   0  0  0  0  0  0  0  0  0  0  0  0
  130.2359  131.4787  152.8474 C   0  0  0  0  0  0  0  0  0  0  0  0
  129.1005  129.1410  151.2242 H   0  0  0  0  0  0  0  0  0  0  0  0
  130.2138  127.9458  150.5170 H   0  0  0  0  0  0  0  0  0  0  0  0
  129.7954  127.8591  152.2449 H   0  0  0  0  0  0  0  0  0  0  0  0
  132.0550  128.8284  151.9239 H   0  0  0  0  0  0  0  0  0  0  0  0
  131.3601  130.1104  150.9032 H   0  0  0  0  0  0  0  0  0  0  0  0
  131.6558  128.7894  154.3144 H   0  0  0  0  0  0  0  0  0  0  0  0
  131.1523  130.1078  156.3296 H   0  0  0  0  0  0  0  0  0  0  0  0
  128.6426  131.2012  157.5628 H   0  0  0  0  0  0  0  0  0  0  0  0
  130.7698  136.0301  158.0569 H   0  0  0  0  0  0  0  0  0  0  0  0
  129.4286  137.9284  159.9518 H   0  0  0  0  0  0  0  0  0  0  0  0
  131.7016  136.3516  161.2301 H   0  0  0  0  0  0  0  0  0  0  0  0
  129.7356  138.9497  162.4983 H   0  0  0  0  0  0  0  0  0  0  0  0
  130.4463  141.1933  163.2133 H   0  0  0  0  0  0  0  0  0  0  0  0
  132.6331  142.0773  162.5135 H   0  0  0  0  0  0  0  0  0  0  0  0
  135.2547  140.6085  161.7152 H   0  0  0  0  0  0  0  0  0  0  0  0
  134.7732  140.4632  160.0077 H   0  0  0  0  0  0  0  0  0  0  0  0
  134.4398  141.9658  160.9018 H   0  0  0  0  0  0  0  0  0  0  0  0
  133.4860  138.4425  159.0853 H   0  0  0  0  0  0  0  0  0  0  0  0
  134.7295  138.4927  160.3576 H   0  0  0  0  0  0  0  0  0  0  0  0
  133.5260  137.1815  160.3410 H   0  0  0  0  0  0  0  0  0  0  0  0
  131.9209  134.3321  159.8569 H   0  0  0  0  0  0  0  0  0  0  0  0
  132.6537  132.6709  161.5200 H   0  0  0  0  0  0  0  0  0  0  0  0
  131.1789  132.0786  163.4011 H   0  0  0  0  0  0  0  0  0  0  0  0
  128.9720  133.1483  163.6194 H   0  0  0  0  0  0  0  0  0  0  0  0
  127.1127  134.4130  161.4709 H   0  0  0  0  0  0  0  0  0  0  0  0
  127.5935  135.0679  163.0546 H   0  0  0  0  0  0  0  0  0  0  0  0
  127.9014  136.0055  161.5732 H   0  0  0  0  0  0  0  0  0  0  0  0
  129.4607  133.1849  153.8734 H   0  0  0  0  0  0  0  0  0  0  0  0
  129.9813  131.8575  151.8686 H   0  0  0  0  0  0  0  0  0  0  0  0
  1  2  1  0
  1 36  1  0
  1 37  1  0
  1 38  1  0
  2  3  1  0
  2 39  1  0
  2 40  1  0
  3 35  2  0
  3  4  1  0
  4  5  2  0
  4 41  1  0
  5  6  1  0
  5 42  1  0
  6  7  1  0
  6 34  2  0
  7 32  1  0
  7  8  2  0
  8  9  1  0
  8 43  1  0
  9 10  1  0
  9 11  1  0
 11 12  1  0
 11 32  2  0
 12 13  1  0
 12 44  1  0
 13 14  1  6
 13 15  1  0
 13 25  1  0
 15 16  2  0
 15 45  1  0
 16 17  1  0
 16 46  1  0
 17 23  1  0
 17 18  2  0
 18 19  1  0
 18 47  1  0
 19 20  2  0
 19 48  1  0
 20 21  1  0
 20 49  1  0
 21 22  1  0
 21 23  2  0
 22 50  1  0
 22 51  1  0
 22 52  1  0
 23 24  1  0
 24 53  1  0
 24 54  1  0
 24 55  1  0
 25 30  1  0
 25 26  2  0
 26 27  1  0
 26 56  1  0
 27 28  2  0
 27 57  1  0
 28 29  1  0
 28 58  1  0
 29 30  2  0
 29 59  1  0
 30 31  1  0
 31 60  1  0
 31 61  1  0
 31 62  1  0
 32 33  1  0
 34 35  1  0
 34 63  1  0
 35 64  1  0
M  CHG  1  32   1
M  END
>  <DOCK_score>  (1) 
-63.020985

>  <SMILES>  (1) 
CCc1ccc(-c2c[nH]c(N[C@H](C=Cc3cccc(C)c3C)c3ccccc3C)[nH+]2)cc1

$$$$
