O=C1CCC(NC(NC2CC2)=[NH+][C@H]2COc3cc(N4CCC(Cl)CC4)ccc3C2)CN1
     RDKit          3D

 64 68  0  0  1  0  0  0  0  0999 V2000
  123.6699  133.7547  161.5982 O   0  0  0  0  0  0  0  0  0  0  0  0
  124.8215  134.0251  161.3309 C   0  0  0  0  0  0  0  0  0  0  0  0
  125.7286  132.9127  160.8891 C   0  0  0  0  0  0  0  0  0  0  0  0
  127.1899  133.3481  161.0225 C   0  0  0  0  0  0  0  0  0  0  0  0
  127.3465  134.7268  160.3695 C   0  0  2  0  0  0  0  0  0  0  0  0
  128.7645  135.0924  160.3273 N   0  0  0  0  0  0  0  0  0  0  0  0
  129.5314  134.7468  159.2399 C   0  0  0  0  0  0  0  0  0  0  0  0
  128.9676  134.0580  158.1921 N   0  0  0  0  0  0  0  0  0  0  0  0
  129.7849  133.6897  157.0333 C   0  0  0  0  0  0  0  0  0  0  0  0
  129.7548  132.2276  156.5837 C   0  0  0  0  0  0  0  0  0  0  0  0
  130.9965  132.7891  157.2809 C   0  0  0  0  0  0  0  0  0  0  0  0
  130.7930  135.0722  159.2023 N   0  0  0  0  0  0  0  0  0  0  0  0
  131.2253  135.2407  158.3504 H   0  0  0  0  0  0  0  0  0  0  0  0
  131.5582  135.1833  160.4466 C   0  0  1  0  0  0  0  0  0  0  0  0
  130.9126  134.9605  161.2960 H   0  0  0  0  0  0  0  0  0  0  0  0
  132.7356  134.2005  160.4191 C   0  0  0  0  0  0  0  0  0  0  0  0
  133.3990  134.2572  161.6826 O   0  0  0  0  0  0  0  0  0  0  0  0
  133.7228  135.4811  162.1754 C   0  0  0  0  0  0  0  0  0  0  0  0
  134.6633  135.5558  163.1963 C   0  0  0  0  0  0  0  0  0  0  0  0
  135.0139  136.7856  163.7320 C   0  0  0  0  0  0  0  0  0  0  0  0
  135.9584  136.8592  164.7581 N   0  0  0  0  0  0  0  0  0  0  0  0
  135.4730  136.1858  165.9695 C   0  0  0  0  0  0  0  0  0  0  0  0
  136.4657  136.4107  167.1124 C   0  0  0  0  0  0  0  0  0  0  0  0
  137.8342  135.8540  166.7100 C   0  0  0  0  0  0  0  0  0  0  0  0
  139.0265  136.1793  168.0229 Cl  0  0  0  0  0  0  0  0  0  0  0  0
  138.2950  136.5370  165.4195 C   0  0  0  0  0  0  0  0  0  0  0  0
  137.2492  136.3085  164.3257 C   0  0  0  0  0  0  0  0  0  0  0  0
  134.4222  137.9449  163.2448 C   0  0  0  0  0  0  0  0  0  0  0  0
  133.4906  137.8677  162.2303 C   0  0  0  0  0  0  0  0  0  0  0  0
  133.1389  136.6400  161.6925 C   0  0  0  0  0  0  0  0  0  0  0  0
  132.1187  136.6011  160.5826 C   0  0  0  0  0  0  0  0  0  0  0  0
  126.5765  135.7529  161.2017 C   0  0  0  0  0  0  0  0  0  0  0  0
  125.2147  135.2942  161.4448 N   0  0  0  0  0  0  0  0  0  0  0  0
  125.5181  132.6655  159.8485 H   0  0  0  0  0  0  0  0  0  0  0  0
  125.5542  132.0346  161.5108 H   0  0  0  0  0  0  0  0  0  0  0  0
  127.8348  132.6281  160.5188 H   0  0  0  0  0  0  0  0  0  0  0  0
  127.4600  133.4086  162.0769 H   0  0  0  0  0  0  0  0  0  0  0  0
  126.9457  134.6991  159.3563 H   0  0  0  0  0  0  0  0  0  0  0  0
  129.1623  135.5784  161.0667 H   0  0  0  0  0  0  0  0  0  0  0  0
  128.0288  133.8159  158.2200 H   0  0  0  0  0  0  0  0  0  0  0  0
  129.8743  134.4524  156.2596 H   0  0  0  0  0  0  0  0  0  0  0  0
  129.1272  131.5397  157.1502 H   0  0  0  0  0  0  0  0  0  0  0  0
  129.8250  132.0282  155.5144 H   0  0  0  0  0  0  0  0  0  0  0  0
  131.8830  132.9589  156.6698 H   0  0  0  0  0  0  0  0  0  0  0  0
  131.1860  132.4709  158.3060 H   0  0  0  0  0  0  0  0  0  0  0  0
  132.3665  133.1901  160.2433 H   0  0  0  0  0  0  0  0  0  0  0  0
  133.4299  134.4813  159.6270 H   0  0  0  0  0  0  0  0  0  0  0  0
  135.1217  134.6537  163.5735 H   0  0  0  0  0  0  0  0  0  0  0  0
  134.5011  136.5939  166.2470 H   0  0  0  0  0  0  0  0  0  0  0  0
  135.3765  135.1172  165.7772 H   0  0  0  0  0  0  0  0  0  0  0  0
  136.1128  135.8978  168.0071 H   0  0  0  0  0  0  0  0  0  0  0  0
  136.5523  137.4781  167.3151 H   0  0  0  0  0  0  0  0  0  0  0  0
  137.7562  134.7794  166.5457 H   0  0  0  0  0  0  0  0  0  0  0  0
  139.2491  136.1143  165.1047 H   0  0  0  0  0  0  0  0  0  0  0  0
  138.4102  137.6066  165.5949 H   0  0  0  0  0  0  0  0  0  0  0  0
  137.1444  135.2394  164.1411 H   0  0  0  0  0  0  0  0  0  0  0  0
  137.5675  136.8057  163.4094 H   0  0  0  0  0  0  0  0  0  0  0  0
  134.6917  138.9050  163.6596 H   0  0  0  0  0  0  0  0  0  0  0  0
  133.0319  138.7699  161.8532 H   0  0  0  0  0  0  0  0  0  0  0  0
  132.5910  136.8960  159.6454 H   0  0  0  0  0  0  0  0  0  0  0  0
  131.3072  137.2915  160.8125 H   0  0  0  0  0  0  0  0  0  0  0  0
  127.0839  135.8969  162.1557 H   0  0  0  0  0  0  0  0  0  0  0  0
  126.5470  136.7019  160.6662 H   0  0  0  0  0  0  0  0  0  0  0  0
  124.5527  135.9534  161.7058 H   0  0  0  0  0  0  0  0  0  0  0  0
  1  2  2  0
  2 33  1  0
  2  3  1  0
  3  4  1  0
  3 34  1  0
  3 35  1  0
  4  5  1  0
  4 36  1  0
  4 37  1  0
  5  6  1  0
  5 32  1  0
  5 38  1  6
  6 39  1  0
  7  6  1  0
  7  8  1  0
  7 12  2  0
  8  9  1  0
  8 40  1  0
  9 11  1  0
  9 10  1  0
  9 41  1  0
 10 11  1  0
 10 42  1  0
 10 43  1  0
 11 44  1  0
 11 45  1  0
 12 13  1  0
 12 14  1  0
 14 15  1  1
 14 31  1  0
 14 16  1  0
 16 17  1  0
 16 46  1  0
 16 47  1  0
 17 18  1  0
 18 30  2  0
 18 19  1  0
 19 20  2  0
 19 48  1  0
 20 21  1  0
 20 28  1  0
 21 27  1  0
 21 22  1  0
 22 23  1  0
 22 49  1  0
 22 50  1  0
 23 24  1  0
 23 51  1  0
 23 52  1  0
 24 25  1  0
 24 26  1  0
 24 53  1  0
 26 27  1  0
 26 54  1  0
 26 55  1  0
 27 56  1  0
 27 57  1  0
 28 29  2  0
 28 58  1  0
 29 30  1  0
 29 59  1  0
 30 31  1  0
 31 60  1  0
 31 61  1  0
 32 33  1  0
 32 62  1  0
 32 63  1  0
 33 64  1  0
M  CHG  1  12   1
M  END
>  <DOCK_score>  (1) 
-51.970566

>  <SMILES>  (1) 
O=C1CCC(NC(NC2CC2)=[NH+][C@H]2COc3cc(N4CCC(Cl)CC4)ccc3C2)CN1

$$$$
