O[C@H]1C[C@@H]([NH+]=C(NCc2cccs2)N[C@@H]2COC3(CCC3)C2)C1
     RDKit          3D

 49 52  0  0  1  0  0  0  0  0999 V2000
  123.9453  134.7969  161.0892 O   0  0  0  0  0  0  0  0  0  0  0  0
  125.1838  134.0916  160.9858 C   0  0  1  0  0  0  0  0  0  0  0  0
  125.0614  133.0102  161.0470 H   0  0  0  0  0  0  0  0  0  0  0  0
  126.0587  134.5453  159.8030 C   0  0  0  0  0  0  0  0  0  0  0  0
  127.2649  134.4101  160.7474 C   0  0  1  0  0  0  0  0  0  0  0  0
  127.7125  133.4162  160.7442 H   0  0  0  0  0  0  0  0  0  0  0  0
  128.2537  135.4799  160.5931 N   0  0  0  0  0  0  0  0  0  0  0  0
  128.1784  136.2898  161.1217 H   0  0  0  0  0  0  0  0  0  0  0  0
  129.2347  135.3434  159.7459 C   0  0  0  0  0  0  0  0  0  0  0  0
  129.3416  134.1955  158.9969 N   0  0  0  0  0  0  0  0  0  0  0  0
  130.4443  134.0423  158.0447 C   0  0  0  0  0  0  0  0  0  0  0  0
  130.7967  132.5828  157.9147 C   0  0  0  0  0  0  0  0  0  0  0  0
  130.2596  131.7377  157.0335 C   0  0  0  0  0  0  0  0  0  0  0  0
  130.7411  130.4416  157.1003 C   0  0  0  0  0  0  0  0  0  0  0  0
  131.6690  130.2341  158.0357 C   0  0  0  0  0  0  0  0  0  0  0  0
  131.9795  131.7336  158.9011 S   0  0  0  0  0  0  0  0  0  0  0  0
  130.1627  136.3476  159.6013 N   0  0  0  0  0  0  0  0  0  0  0  0
  130.4861  137.2151  160.7367 C   0  0  2  0  0  0  0  0  0  0  0  0
  129.9044  136.9287  161.6128 H   0  0  0  0  0  0  0  0  0  0  0  0
  130.2332  138.6962  160.3756 C   0  0  0  0  0  0  0  0  0  0  0  0
  131.3034  139.4266  161.0178 O   0  0  0  0  0  0  0  0  0  0  0  0
  132.4684  138.6071  160.8561 C   0  0  0  0  0  0  0  0  0  0  0  0
  133.2933  138.8692  159.5966 C   0  0  0  0  0  0  0  0  0  0  0  0
  134.1317  139.8369  160.4516 C   0  0  0  0  0  0  0  0  0  0  0  0
  133.6884  139.0192  161.6786 C   0  0  0  0  0  0  0  0  0  0  0  0
  132.0004  137.1575  161.0488 C   0  0  0  0  0  0  0  0  0  0  0  0
  126.2842  134.6403  161.9093 C   0  0  0  0  0  0  0  0  0  0  0  0
  124.0079  135.7361  160.8681 H   0  0  0  0  0  0  0  0  0  0  0  0
  125.8658  135.5699  159.4850 H   0  0  0  0  0  0  0  0  0  0  0  0
  126.0727  133.8390  158.9729 H   0  0  0  0  0  0  0  0  0  0  0  0
  128.6870  133.4871  159.0990 H   0  0  0  0  0  0  0  0  0  0  0  0
  131.3129  134.5953  158.4025 H   0  0  0  0  0  0  0  0  0  0  0  0
  130.1415  134.4309  157.0724 H   0  0  0  0  0  0  0  0  0  0  0  0
  129.5064  132.0416  156.3216 H   0  0  0  0  0  0  0  0  0  0  0  0
  130.3914  129.6576  156.4447 H   0  0  0  0  0  0  0  0  0  0  0  0
  132.1525  129.2891  158.2343 H   0  0  0  0  0  0  0  0  0  0  0  0
  130.6033  136.4814  158.7477 H   0  0  0  0  0  0  0  0  0  0  0  0
  130.2748  138.8352  159.2953 H   0  0  0  0  0  0  0  0  0  0  0  0
  129.2674  139.0210  160.7632 H   0  0  0  0  0  0  0  0  0  0  0  0
  133.8494  137.9988  159.2488 H   0  0  0  0  0  0  0  0  0  0  0  0
  132.7332  139.3613  158.8014 H   0  0  0  0  0  0  0  0  0  0  0  0
  133.7544  140.8595  160.4497 H   0  0  0  0  0  0  0  0  0  0  0  0
  135.2019  139.7806  160.2534 H   0  0  0  0  0  0  0  0  0  0  0  0
  133.4442  139.6310  162.5470 H   0  0  0  0  0  0  0  0  0  0  0  0
  134.3558  138.1908  161.9164 H   0  0  0  0  0  0  0  0  0  0  0  0
  132.1676  136.8346  162.0764 H   0  0  0  0  0  0  0  0  0  0  0  0
  132.5101  136.4922  160.3518 H   0  0  0  0  0  0  0  0  0  0  0  0
  126.4800  134.0107  162.7772 H   0  0  0  0  0  0  0  0  0  0  0  0
  126.1530  135.6910  162.1683 H   0  0  0  0  0  0  0  0  0  0  0  0
  1  2  1  0
  1 28  1  0
  2  3  1  6
  2 27  1  0
  2  4  1  0
  4  5  1  0
  4 29  1  0
  4 30  1  0
  5  6  1  1
  5  7  1  0
  5 27  1  0
  7  8  1  0
  9  7  2  0
  9 10  1  0
  9 17  1  0
 10 11  1  0
 10 31  1  0
 11 12  1  0
 11 32  1  0
 11 33  1  0
 12 16  1  0
 12 13  2  0
 13 14  1  0
 13 34  1  0
 14 15  2  0
 14 35  1  0
 15 16  1  0
 15 36  1  0
 17 18  1  0
 17 37  1  0
 18 19  1  1
 18 26  1  0
 18 20  1  0
 20 21  1  0
 20 38  1  0
 20 39  1  0
 21 22  1  0
 22 25  1  0
 22 23  1  0
 22 26  1  0
 23 24  1  0
 23 40  1  0
 23 41  1  0
 24 25  1  0
 24 42  1  0
 24 43  1  0
 25 44  1  0
 25 45  1  0
 26 46  1  0
 26 47  1  0
 27 48  1  0
 27 49  1  0
M  CHG  1   7   1
M  END
>  <DOCK_score>  (1) 
-46.828762

>  <SMILES>  (1) 
O[C@H]1C[C@@H]([NH+]=C(NCc2cccs2)N[C@@H]2COC3(CCC3)C2)C1

$$$$
