CC(C)(Oc1ccc(C[NH+]2CCN([C@@H](Cc3ccccc3)C(F)F)CC2)cc1)C(F)(F)F
     RDKit          3D

 62 64  0  0  1  0  0  0  0  0999 V2000
  137.4586  140.3797  161.6586 C   0  0  0  0  0  0  0  0  0  0  0  0
  136.0340  139.8255  161.7242 C   0  0  0  0  0  0  0  0  0  0  0  0
  135.0345  140.9584  161.4823 C   0  0  0  0  0  0  0  0  0  0  0  0
  135.8670  138.8209  160.7217 O   0  0  0  0  0  0  0  0  0  0  0  0
  134.6491  138.2230  160.6442 C   0  0  0  0  0  0  0  0  0  0  0  0
  133.6644  138.7556  159.8248 C   0  0  0  0  0  0  0  0  0  0  0  0
  132.4270  138.1463  159.7480 C   0  0  0  0  0  0  0  0  0  0  0  0
  132.1694  137.0066  160.4874 C   0  0  0  0  0  0  0  0  0  0  0  0
  130.8184  136.3442  160.4022 C   0  0  0  0  0  0  0  0  0  0  0  0
  130.8296  135.3460  159.3245 N   0  0  0  0  0  0  0  0  0  0  0  0
  131.3428  135.7091  158.5354 H   0  0  0  0  0  0  0  0  0  0  0  0
  131.4741  134.1161  159.8034 C   0  0  0  0  0  0  0  0  0  0  0  0
  131.5025  133.0824  158.6754 C   0  0  0  0  0  0  0  0  0  0  0  0
  130.1276  132.7981  158.2406 N   0  0  0  0  0  0  0  0  0  0  0  0
  130.1089  131.7662  157.1953 C   0  0  1  0  0  0  0  0  0  0  0  0
  129.1679  131.8205  156.6479 H   0  0  0  0  0  0  0  0  0  0  0  0
  131.2739  131.9966  156.2305 C   0  0  0  0  0  0  0  0  0  0  0  0
  130.9954  131.2898  154.9290 C   0  0  0  0  0  0  0  0  0  0  0  0
  131.4134  129.9846  154.7480 C   0  0  0  0  0  0  0  0  0  0  0  0
  131.1538  129.3347  153.5558 C   0  0  0  0  0  0  0  0  0  0  0  0
  130.4855  129.9935  152.5408 C   0  0  0  0  0  0  0  0  0  0  0  0
  130.0723  131.3004  152.7199 C   0  0  0  0  0  0  0  0  0  0  0  0
  130.3272  131.9486  153.9140 C   0  0  0  0  0  0  0  0  0  0  0  0
  130.2455  130.3852  157.8394 C   0  0  0  0  0  0  0  0  0  0  0  0
  131.5898  130.1419  158.1404 F   0  0  0  0  0  0  0  0  0  0  0  0
  129.4891  130.3422  159.0154 F   0  0  0  0  0  0  0  0  0  0  0  0
  129.4612  134.0251  157.7816 C   0  0  0  0  0  0  0  0  0  0  0  0
  129.4496  135.0510  158.9170 C   0  0  0  0  0  0  0  0  0  0  0  0
  133.1471  136.4771  161.3092 C   0  0  0  0  0  0  0  0  0  0  0  0
  134.3881  137.0793  161.3848 C   0  0  0  0  0  0  0  0  0  0  0  0
  135.7875  139.2142  163.1049 C   0  0  0  0  0  0  0  0  0  0  0  0
  135.9509  140.1978  164.0863 F   0  0  0  0  0  0  0  0  0  0  0  0
  134.4850  138.7074  163.1649 F   0  0  0  0  0  0  0  0  0  0  0  0
  136.7016  138.1784  163.3261 F   0  0  0  0  0  0  0  0  0  0  0  0
  137.7122  140.6082  160.6235 H   0  0  0  0  0  0  0  0  0  0  0  0
  137.5230  141.2879  162.2578 H   0  0  0  0  0  0  0  0  0  0  0  0
  138.1554  139.6374  162.0479 H   0  0  0  0  0  0  0  0  0  0  0  0
  134.0506  140.6582  161.8428 H   0  0  0  0  0  0  0  0  0  0  0  0
  135.3604  141.8507  162.0166 H   0  0  0  0  0  0  0  0  0  0  0  0
  134.9802  141.1734  160.4151 H   0  0  0  0  0  0  0  0  0  0  0  0
  133.8651  139.6461  159.2476 H   0  0  0  0  0  0  0  0  0  0  0  0
  131.6602  138.5605  159.1102 H   0  0  0  0  0  0  0  0  0  0  0  0
  130.0576  137.0961  160.1932 H   0  0  0  0  0  0  0  0  0  0  0  0
  130.5939  135.8537  161.3495 H   0  0  0  0  0  0  0  0  0  0  0  0
  130.9126  133.7168  160.6481 H   0  0  0  0  0  0  0  0  0  0  0  0
  132.4938  134.3390  160.1178 H   0  0  0  0  0  0  0  0  0  0  0  0
  131.9673  132.1644  159.0351 H   0  0  0  0  0  0  0  0  0  0  0  0
  132.0754  133.4759  157.8359 H   0  0  0  0  0  0  0  0  0  0  0  0
  131.3878  133.0649  156.0468 H   0  0  0  0  0  0  0  0  0  0  0  0
  132.1914  131.6034  156.6684 H   0  0  0  0  0  0  0  0  0  0  0  0
  131.9394  129.4714  155.5394 H   0  0  0  0  0  0  0  0  0  0  0  0
  131.4770  128.3138  153.4158 H   0  0  0  0  0  0  0  0  0  0  0  0
  130.2866  129.4873  151.6078 H   0  0  0  0  0  0  0  0  0  0  0  0
  129.5504  131.8153  151.9267 H   0  0  0  0  0  0  0  0  0  0  0  0
  130.0047  132.9698  154.0536 H   0  0  0  0  0  0  0  0  0  0  0  0
  129.8848  129.6242  157.1474 H   0  0  0  0  0  0  0  0  0  0  0  0
  130.0005  134.4341  156.9273 H   0  0  0  0  0  0  0  0  0  0  0  0
  128.4367  133.7948  157.4891 H   0  0  0  0  0  0  0  0  0  0  0  0
  128.8985  134.6469  159.7661 H   0  0  0  0  0  0  0  0  0  0  0  0
  128.9683  135.9669  158.5741 H   0  0  0  0  0  0  0  0  0  0  0  0
  132.9418  135.5897  161.8895 H   0  0  0  0  0  0  0  0  0  0  0  0
  135.1529  136.6629  162.0237 H   0  0  0  0  0  0  0  0  0  0  0  0
  1  2  1  0
  1 35  1  0
  1 36  1  0
  1 37  1  0
  2  3  1  0
  2  4  1  0
  2 31  1  0
  3 38  1  0
  3 39  1  0
  3 40  1  0
  4  5  1  0
  5 30  2  0
  5  6  1  0
  6  7  2  0
  6 41  1  0
  7  8  1  0
  7 42  1  0
  8  9  1  0
  8 29  2  0
  9 10  1  0
  9 43  1  0
  9 44  1  0
 10 11  1  0
 10 28  1  0
 10 12  1  0
 12 13  1  0
 12 45  1  0
 12 46  1  0
 13 14  1  0
 13 47  1  0
 13 48  1  0
 14 15  1  0
 14 27  1  0
 15 16  1  6
 15 17  1  0
 15 24  1  0
 17 18  1  0
 17 49  1  0
 17 50  1  0
 18 23  1  0
 18 19  2  0
 19 20  1  0
 19 51  1  0
 20 21  2  0
 20 52  1  0
 21 22  1  0
 21 53  1  0
 22 23  2  0
 22 54  1  0
 23 55  1  0
 24 25  1  0
 24 26  1  0
 24 56  1  0
 27 28  1  0
 27 57  1  0
 27 58  1  0
 28 59  1  0
 28 60  1  0
 29 30  1  0
 29 61  1  0
 30 62  1  0
 31 32  1  0
 31 33  1  0
 31 34  1  0
M  CHG  1  10   1
M  END
>  <DOCK_score>  (1) 
-56.774673

>  <SMILES>  (1) 
CC(C)(Oc1ccc(C[NH+]2CCN([C@@H](Cc3ccccc3)C(F)F)CC2)cc1)C(F)(F)F

$$$$
