CC1(C)CN(c2ccc3c(c2)OCC([NH+]=C(NC2CC2)N[C@H]2CCC(=O)NC2)C3)C[C@@H]1O
     RDKit          3D

 68 72  0  0  1  0  0  0  0  0999 V2000
  134.2934  135.6462  170.2388 C   0  0  0  0  0  0  0  0  0  0  0  0
  134.4447  136.5819  169.0378 C   0  0  0  0  0  0  0  0  0  0  0  0
  133.9337  137.9809  169.3876 C   0  0  0  0  0  0  0  0  0  0  0  0
  133.6813  136.0189  167.8198 C   0  0  0  0  0  0  0  0  0  0  0  0
  134.7066  135.2699  167.0488 N   0  0  0  0  0  0  0  0  0  0  0  0
  134.3116  135.1046  165.7194 C   0  0  0  0  0  0  0  0  0  0  0  0
  135.2668  135.0247  164.7131 C   0  0  0  0  0  0  0  0  0  0  0  0
  134.8720  134.8600  163.4016 C   0  0  0  0  0  0  0  0  0  0  0  0
  133.5271  134.7738  163.0791 C   0  0  0  0  0  0  0  0  0  0  0  0
  132.5705  134.8564  164.0768 C   0  0  0  0  0  0  0  0  0  0  0  0
  132.9653  135.0202  165.3997 C   0  0  0  0  0  0  0  0  0  0  0  0
  131.2419  134.7829  163.8026 O   0  0  0  0  0  0  0  0  0  0  0  0
  130.8498  134.2515  162.5363 C   0  0  0  0  0  0  0  0  0  0  0  0
  131.6661  134.9532  161.4433 C   0  0  2  0  0  0  0  0  0  0  0  0
  131.2123  134.5059  160.1241 N   0  0  0  0  0  0  0  0  0  0  0  0
  131.8326  134.0669  159.5210 H   0  0  0  0  0  0  0  0  0  0  0  0
  129.9754  134.6976  159.7608 C   0  0  0  0  0  0  0  0  0  0  0  0
  129.5497  134.2778  158.5226 N   0  0  0  0  0  0  0  0  0  0  0  0
  130.4866  133.6149  157.6121 C   0  0  0  0  0  0  0  0  0  0  0  0
  129.8958  132.7408  156.5041 C   0  0  0  0  0  0  0  0  0  0  0  0
  130.5971  132.0913  157.6987 C   0  0  0  0  0  0  0  0  0  0  0  0
  129.0964  135.3198  160.6155 N   0  0  0  0  0  0  0  0  0  0  0  0
  127.6703  134.9882  160.5683 C   0  0  1  0  0  0  0  0  0  0  0  0
  127.2751  135.2126  159.5776 H   0  0  0  0  0  0  0  0  0  0  0  0
  127.4782  133.4977  160.8733 C   0  0  0  0  0  0  0  0  0  0  0  0
  126.0081  133.1414  160.6388 C   0  0  0  0  0  0  0  0  0  0  0  0
  125.1240  134.1373  161.3330 C   0  0  0  0  0  0  0  0  0  0  0  0
  123.9650  133.8379  161.5280 O   0  0  0  0  0  0  0  0  0  0  0  0
  125.5452  135.3330  161.7467 N   0  0  0  0  0  0  0  0  0  0  0  0
  126.9181  135.8072  161.6182 C   0  0  0  0  0  0  0  0  0  0  0  0
  133.1398  134.5859  161.6341 C   0  0  0  0  0  0  0  0  0  0  0  0
  135.9236  136.1170  167.1412 C   0  0  0  0  0  0  0  0  0  0  0  0
  135.9198  136.6464  168.5913 C   0  0  2  0  0  0  0  0  0  0  0  0
  136.2794  137.6751  168.6196 H   0  0  0  0  0  0  0  0  0  0  0  0
  136.7298  135.8154  169.4253 O   0  0  0  0  0  0  0  0  0  0  0  0
  134.8996  136.0157  171.0659 H   0  0  0  0  0  0  0  0  0  0  0  0
  133.2472  135.6109  170.5424 H   0  0  0  0  0  0  0  0  0  0  0  0
  134.6259  134.6452  169.9636 H   0  0  0  0  0  0  0  0  0  0  0  0
  134.0125  138.6259  168.5125 H   0  0  0  0  0  0  0  0  0  0  0  0
  132.8914  137.9193  169.7008 H   0  0  0  0  0  0  0  0  0  0  0  0
  134.5330  138.3945  170.1988 H   0  0  0  0  0  0  0  0  0  0  0  0
  133.2720  136.8310  167.2190 H   0  0  0  0  0  0  0  0  0  0  0  0
  132.8862  135.3484  168.1464 H   0  0  0  0  0  0  0  0  0  0  0  0
  136.3167  135.0911  164.9577 H   0  0  0  0  0  0  0  0  0  0  0  0
  135.6159  134.7980  162.6211 H   0  0  0  0  0  0  0  0  0  0  0  0
  132.2213  135.0822  166.1801 H   0  0  0  0  0  0  0  0  0  0  0  0
  129.7873  134.4336  162.3749 H   0  0  0  0  0  0  0  0  0  0  0  0
  131.0470  133.1798  162.5109 H   0  0  0  0  0  0  0  0  0  0  0  0
  131.5419  136.0327  161.5279 H   0  0  0  0  0  0  0  0  0  0  0  0
  128.6303  134.4242  158.2506 H   0  0  0  0  0  0  0  0  0  0  0  0
  131.3943  134.1731  157.3831 H   0  0  0  0  0  0  0  0  0  0  0  0
  128.8100  132.6591  156.4525 H   0  0  0  0  0  0  0  0  0  0  0  0
  130.4146  132.7240  155.5456 H   0  0  0  0  0  0  0  0  0  0  0  0
  131.5774  131.6472  157.5262 H   0  0  0  0  0  0  0  0  0  0  0  0
  129.9728  131.5823  158.4330 H   0  0  0  0  0  0  0  0  0  0  0  0
  129.4206  135.9783  161.2498 H   0  0  0  0  0  0  0  0  0  0  0  0
  128.1096  132.9037  160.2127 H   0  0  0  0  0  0  0  0  0  0  0  0
  127.7429  133.2985  161.9118 H   0  0  0  0  0  0  0  0  0  0  0  0
  125.7985  133.1548  159.5693 H   0  0  0  0  0  0  0  0  0  0  0  0
  125.8098  132.1447  161.0330 H   0  0  0  0  0  0  0  0  0  0  0  0
  124.8968  135.9264  162.1571 H   0  0  0  0  0  0  0  0  0  0  0  0
  127.4221  135.7100  162.5798 H   0  0  0  0  0  0  0  0  0  0  0  0
  126.9137  136.8561  161.3216 H   0  0  0  0  0  0  0  0  0  0  0  0
  133.2939  133.5449  161.3498 H   0  0  0  0  0  0  0  0  0  0  0  0
  133.7578  135.2278  161.0063 H   0  0  0  0  0  0  0  0  0  0  0  0
  136.8171  135.5203  166.9565 H   0  0  0  0  0  0  0  0  0  0  0  0
  135.8662  136.9433  166.4326 H   0  0  0  0  0  0  0  0  0  0  0  0
  136.7472  136.0873  170.3531 H   0  0  0  0  0  0  0  0  0  0  0  0
  1  2  1  0
  1 36  1  0
  1 37  1  0
  1 38  1  0
  2 33  1  0
  2  3  1  0
  2  4  1  0
  3 39  1  0
  3 40  1  0
  3 41  1  0
  4  5  1  0
  4 42  1  0
  4 43  1  0
  5  6  1  0
  5 32  1  0
  6 11  1  0
  6  7  2  0
  7  8  1  0
  7 44  1  0
  8  9  2  0
  8 45  1  0
  9 31  1  0
  9 10  1  0
 10 11  2  0
 10 12  1  0
 11 46  1  0
 12 13  1  0
 13 14  1  0
 13 47  1  0
 13 48  1  0
 14 15  1  0
 14 31  1  0
 14 49  1  6
 15 16  1  0
 17 15  2  0
 17 18  1  0
 17 22  1  0
 18 19  1  0
 18 50  1  0
 19 21  1  0
 19 20  1  0
 19 51  1  0
 20 21  1  0
 20 52  1  0
 20 53  1  0
 21 54  1  0
 21 55  1  0
 22 23  1  0
 22 56  1  0
 23 24  1  6
 23 30  1  0
 23 25  1  0
 25 26  1  0
 25 57  1  0
 25 58  1  0
 26 27  1  0
 26 59  1  0
 26 60  1  0
 27 28  2  0
 27 29  1  0
 29 30  1  0
 29 61  1  0
 30 62  1  0
 30 63  1  0
 31 64  1  0
 31 65  1  0
 32 33  1  0
 32 66  1  0
 32 67  1  0
 33 34  1  6
 33 35  1  0
 35 68  1  0
M  CHG  1  15   1
M  END
>  <DOCK_score>  (1) 
-40.988831

>  <SMILES>  (1) 
CC1(C)CN(c2ccc3c(c2)OCC([NH+]=C(NC2CC2)N[C@H]2CCC(=O)NC2)C3)C[C@@H]1O

$$$$
