O=C(Nc1ccc(N[C@@H]2C=CCC2)c(C[NH+]=C(NCCO)NC2CC=CC2)n1)NC1CC=CC1
     RDKit          3D

 70 73  0  0  1  0  0  0  0  0999 V2000
  131.7441  138.5287  161.5240 O   0  0  0  0  0  0  0  0  0  0  0  0
  132.0641  138.4059  160.3575 C   0  0  0  0  0  0  0  0  0  0  0  0
  131.2291  137.8007  159.4897 N   0  0  0  0  0  0  0  0  0  0  0  0
  129.9965  137.3145  159.9305 C   0  0  0  0  0  0  0  0  0  0  0  0
  129.1439  136.6866  159.0298 C   0  0  0  0  0  0  0  0  0  0  0  0
  127.9254  136.2080  159.4762 C   0  0  0  0  0  0  0  0  0  0  0  0
  127.5987  136.3759  160.8210 C   0  0  0  0  0  0  0  0  0  0  0  0
  126.3768  135.9072  161.3172 N   0  0  0  0  0  0  0  0  0  0  0  0
  125.7415  134.7345  160.7112 C   0  0  2  0  0  0  0  0  0  0  0  0
  125.5328  134.9187  159.6573 H   0  0  0  0  0  0  0  0  0  0  0  0
  124.4701  134.3845  161.4488 C   0  0  0  0  0  0  0  0  0  0  0  0
  124.6530  133.3650  162.2431 C   0  0  0  0  0  0  0  0  0  0  0  0
  126.0768  132.8651  162.1676 C   0  0  0  0  0  0  0  0  0  0  0  0
  126.6446  133.4894  160.8718 C   0  0  0  0  0  0  0  0  0  0  0  0
  128.5000  137.0128  161.6611 C   0  0  0  0  0  0  0  0  0  0  0  0
  128.1572  137.2002  163.1166 C   0  0  0  0  0  0  0  0  0  0  0  0
  129.2572  137.8928  163.7921 N   0  0  0  0  0  0  0  0  0  0  0  0
  130.0471  138.1517  163.2921 H   0  0  0  0  0  0  0  0  0  0  0  0
  129.1745  138.1613  165.0649 C   0  0  0  0  0  0  0  0  0  0  0  0
  130.2069  138.8113  165.6988 N   0  0  0  0  0  0  0  0  0  0  0  0
  131.0452  139.7547  164.9548 C   0  0  0  0  0  0  0  0  0  0  0  0
  130.1753  140.8882  164.4077 C   0  0  0  0  0  0  0  0  0  0  0  0
  129.5408  141.5680  165.4927 O   0  0  0  0  0  0  0  0  0  0  0  0
  128.0548  137.7946  165.7734 N   0  0  0  0  0  0  0  0  0  0  0  0
  127.9618  138.0963  167.2040 C   0  0  0  0  0  0  0  0  0  0  0  0
  126.5501  137.7769  167.7479 C   0  0  0  0  0  0  0  0  0  0  0  0
  126.2678  138.8717  168.7505 C   0  0  0  0  0  0  0  0  0  0  0  0
  127.0857  139.8765  168.5918 C   0  0  0  0  0  0  0  0  0  0  0  0
  128.0496  139.6194  167.4569 C   0  0  0  0  0  0  0  0  0  0  0  0
  129.6560  137.4522  161.2013 N   0  0  0  0  0  0  0  0  0  0  0  0
  133.2538  138.8752  159.9321 N   0  0  0  0  0  0  0  0  0  0  0  0
  134.1614  139.5332  160.8752 C   0  0  0  0  0  0  0  0  0  0  0  0
  135.5004  139.8989  160.1937 C   0  0  0  0  0  0  0  0  0  0  0  0
  136.5499  139.6547  161.2531 C   0  0  0  0  0  0  0  0  0  0  0  0
  136.0773  138.9180  162.2216 C   0  0  0  0  0  0  0  0  0  0  0  0
  134.6341  138.5484  161.9696 C   0  0  0  0  0  0  0  0  0  0  0  0
  131.4845  137.7027  158.5591 H   0  0  0  0  0  0  0  0  0  0  0  0
  129.4296  136.5733  157.9944 H   0  0  0  0  0  0  0  0  0  0  0  0
  127.2433  135.7157  158.7990 H   0  0  0  0  0  0  0  0  0  0  0  0
  125.9506  136.3590  162.0622 H   0  0  0  0  0  0  0  0  0  0  0  0
  123.5331  134.9093  161.3341 H   0  0  0  0  0  0  0  0  0  0  0  0
  123.8872  132.9354  162.8719 H   0  0  0  0  0  0  0  0  0  0  0  0
  126.0944  131.7770  162.1040 H   0  0  0  0  0  0  0  0  0  0  0  0
  126.6450  133.2050  163.0334 H   0  0  0  0  0  0  0  0  0  0  0  0
  126.5288  132.8105  160.0269 H   0  0  0  0  0  0  0  0  0  0  0  0
  127.6881  133.7769  160.9998 H   0  0  0  0  0  0  0  0  0  0  0  0
  127.2470  137.7939  163.2020 H   0  0  0  0  0  0  0  0  0  0  0  0
  128.0008  136.2267  163.5814 H   0  0  0  0  0  0  0  0  0  0  0  0
  130.3802  138.6453  166.6386 H   0  0  0  0  0  0  0  0  0  0  0  0
  131.8046  140.1676  165.6188 H   0  0  0  0  0  0  0  0  0  0  0  0
  131.5293  139.2362  164.1272 H   0  0  0  0  0  0  0  0  0  0  0  0
  130.7990  141.5901  163.8542 H   0  0  0  0  0  0  0  0  0  0  0  0
  129.4158  140.4753  163.7437 H   0  0  0  0  0  0  0  0  0  0  0  0
  130.1576  141.9617  166.1248 H   0  0  0  0  0  0  0  0  0  0  0  0
  127.3264  137.3361  165.3260 H   0  0  0  0  0  0  0  0  0  0  0  0
  128.7282  137.5617  167.7650 H   0  0  0  0  0  0  0  0  0  0  0  0
  125.8174  137.8027  166.9414 H   0  0  0  0  0  0  0  0  0  0  0  0
  126.5431  136.8029  168.2374 H   0  0  0  0  0  0  0  0  0  0  0  0
  125.4913  138.8285  169.4998 H   0  0  0  0  0  0  0  0  0  0  0  0
  127.0747  140.7739  169.1925 H   0  0  0  0  0  0  0  0  0  0  0  0
  129.0623  139.8981  167.7482 H   0  0  0  0  0  0  0  0  0  0  0  0
  127.7463  140.1702  166.5665 H   0  0  0  0  0  0  0  0  0  0  0  0
  133.5091  138.7773  159.0014 H   0  0  0  0  0  0  0  0  0  0  0  0
  133.6931  140.4130  161.3165 H   0  0  0  0  0  0  0  0  0  0  0  0
  135.6751  139.2564  159.3307 H   0  0  0  0  0  0  0  0  0  0  0  0
  135.5002  140.9469  159.8941 H   0  0  0  0  0  0  0  0  0  0  0  0
  137.5582  140.0392  161.2142 H   0  0  0  0  0  0  0  0  0  0  0  0
  136.6436  138.6133  163.0893 H   0  0  0  0  0  0  0  0  0  0  0  0
  134.0449  138.6780  162.8774 H   0  0  0  0  0  0  0  0  0  0  0  0
  134.5602  137.5209  161.6134 H   0  0  0  0  0  0  0  0  0  0  0  0
  1  2  2  0
  2  3  1  0
  2 31  1  0
  3  4  1  0
  3 37  1  0
  4 30  1  0
  4  5  2  0
  5  6  1  0
  5 38  1  0
  6  7  2  0
  6 39  1  0
  7  8  1  0
  7 15  1  0
  8  9  1  0
  8 40  1  0
  9 10  1  6
  9 14  1  0
  9 11  1  0
 11 12  2  0
 11 41  1  0
 12 13  1  0
 12 42  1  0
 13 14  1  0
 13 43  1  0
 13 44  1  0
 14 45  1  0
 14 46  1  0
 15 16  1  0
 15 30  2  0
 16 17  1  0
 16 47  1  0
 16 48  1  0
 17 18  1  0
 19 17  2  0
 19 20  1  0
 19 24  1  0
 20 21  1  0
 20 49  1  0
 21 22  1  0
 21 50  1  0
 21 51  1  0
 22 23  1  0
 22 52  1  0
 22 53  1  0
 23 54  1  0
 24 25  1  0
 24 55  1  0
 25 29  1  0
 25 26  1  0
 25 56  1  0
 26 27  1  0
 26 57  1  0
 26 58  1  0
 27 28  2  0
 27 59  1  0
 28 29  1  0
 28 60  1  0
 29 61  1  0
 29 62  1  0
 31 32  1  0
 31 63  1  0
 32 36  1  0
 32 33  1  0
 32 64  1  0
 33 34  1  0
 33 65  1  0
 33 66  1  0
 34 35  2  0
 34 67  1  0
 35 36  1  0
 35 68  1  0
 36 69  1  0
 36 70  1  0
M  CHG  1  17   1
M  END
>  <DOCK_score>  (1) 
-42.659416

>  <SMILES>  (1) 
O=C(Nc1ccc(N[C@@H]2C=CCC2)c(C[NH+]=C(NCCO)NC2CC=CC2)n1)NC1CC=CC1

$$$$
