CC1=CCc2[nH]c3cc(Nc4[nH]cc(-c5ccncc5)[nH+]4)c(SC4=CCCC=CCC4)cc3c2C1
     RDKit          3D

 65 70  0  0  1  0  0  0  0  0999 V2000
  127.9240  135.6683  167.7436 C   0  0  0  0  0  0  0  0  0  0  0  0
  127.6490  136.0320  166.3071 C   0  0  0  0  0  0  0  0  0  0  0  0
  126.4321  136.3255  165.9857 C   0  0  0  0  0  0  0  0  0  0  0  0
  125.9717  136.7101  164.6105 C   0  0  0  0  0  0  0  0  0  0  0  0
  127.0315  136.3523  163.5985 C   0  0  0  0  0  0  0  0  0  0  0  0
  126.8914  136.2798  162.2415 N   0  0  0  0  0  0  0  0  0  0  0  0
  126.0700  136.4543  161.7559 H   0  0  0  0  0  0  0  0  0  0  0  0
  128.0928  135.9203  161.6641 C   0  0  0  0  0  0  0  0  0  0  0  0
  128.4909  135.7163  160.3468 C   0  0  0  0  0  0  0  0  0  0  0  0
  129.7933  135.3489  160.0672 C   0  0  0  0  0  0  0  0  0  0  0  0
  130.1873  135.1392  158.7398 N   0  0  0  0  0  0  0  0  0  0  0  0
  130.0759  133.8798  158.1752 C   0  0  0  0  0  0  0  0  0  0  0  0
  129.5954  132.7698  158.8008 N   0  0  0  0  0  0  0  0  0  0  0  0
  129.2728  132.7196  159.7141 H   0  0  0  0  0  0  0  0  0  0  0  0
  129.6521  131.7356  157.9014 C   0  0  0  0  0  0  0  0  0  0  0  0
  130.1654  132.2409  156.7512 C   0  0  0  0  0  0  0  0  0  0  0  0
  130.4095  131.4860  155.4992 C   0  0  0  0  0  0  0  0  0  0  0  0
  129.7728  131.8465  154.3073 C   0  0  0  0  0  0  0  0  0  0  0  0
  130.0316  131.1194  153.1644 C   0  0  0  0  0  0  0  0  0  0  0  0
  130.8587  130.0921  153.1877 N   0  0  0  0  0  0  0  0  0  0  0  0
  131.4764  129.7157  154.2924 C   0  0  0  0  0  0  0  0  0  0  0  0
  131.2783  130.3901  155.4788 C   0  0  0  0  0  0  0  0  0  0  0  0
  130.4102  133.5607  156.9487 N   0  0  0  0  0  0  0  0  0  0  0  0
  130.7764  134.1700  156.2887 H   0  0  0  0  0  0  0  0  0  0  0  0
  130.7228  135.1907  161.1024 C   0  0  0  0  0  0  0  0  0  0  0  0
  132.3821  134.7292  160.7303 S   0  0  0  0  0  0  0  0  0  0  0  0
  133.3225  136.0797  161.3684 C   0  0  0  0  0  0  0  0  0  0  0  0
  134.2171  135.8127  162.3147 C   0  0  0  0  0  0  0  0  0  0  0  0
  135.0409  136.9125  162.9089 C   0  0  0  0  0  0  0  0  0  0  0  0
  134.3564  137.6354  164.0460 C   0  0  0  0  0  0  0  0  0  0  0  0
  132.8803  137.4606  164.0693 C   0  0  0  0  0  0  0  0  0  0  0  0
  132.1427  137.8287  163.0521 C   0  0  0  0  0  0  0  0  0  0  0  0
  132.7653  138.4863  161.8522 C   0  0  0  0  0  0  0  0  0  0  0  0
  133.0666  137.4292  160.8036 C   0  0  0  0  0  0  0  0  0  0  0  0
  130.3429  135.3946  162.4138 C   0  0  0  0  0  0  0  0  0  0  0  0
  129.0257  135.7608  162.7062 C   0  0  0  0  0  0  0  0  0  0  0  0
  128.2997  136.0484  163.9387 C   0  0  0  0  0  0  0  0  0  0  0  0
  128.8091  136.0276  165.3533 C   0  0  0  0  0  0  0  0  0  0  0  0
  126.9963  135.7143  168.3140 H   0  0  0  0  0  0  0  0  0  0  0  0
  128.3301  134.6579  167.7912 H   0  0  0  0  0  0  0  0  0  0  0  0
  128.6444  136.3697  168.1645 H   0  0  0  0  0  0  0  0  0  0  0  0
  125.6884  136.2910  166.7680 H   0  0  0  0  0  0  0  0  0  0  0  0
  125.7867  137.7836  164.5773 H   0  0  0  0  0  0  0  0  0  0  0  0
  125.0510  136.1761  164.3751 H   0  0  0  0  0  0  0  0  0  0  0  0
  127.7808  135.8410  159.5427 H   0  0  0  0  0  0  0  0  0  0  0  0
  130.5345  135.8771  158.2146 H   0  0  0  0  0  0  0  0  0  0  0  0
  129.3470  130.7143  158.0756 H   0  0  0  0  0  0  0  0  0  0  0  0
  129.0912  132.6839  154.2814 H   0  0  0  0  0  0  0  0  0  0  0  0
  129.5478  131.3925  152.2382 H   0  0  0  0  0  0  0  0  0  0  0  0
  132.1453  128.8682  154.2665 H   0  0  0  0  0  0  0  0  0  0  0  0
  131.7868  130.0771  156.3786 H   0  0  0  0  0  0  0  0  0  0  0  0
  134.3500  134.7943  162.6574 H   0  0  0  0  0  0  0  0  0  0  0  0
  135.2797  137.6350  162.1301 H   0  0  0  0  0  0  0  0  0  0  0  0
  135.9727  136.4887  163.2840 H   0  0  0  0  0  0  0  0  0  0  0  0
  134.5852  138.6970  163.9718 H   0  0  0  0  0  0  0  0  0  0  0  0
  134.7629  137.2584  164.9859 H   0  0  0  0  0  0  0  0  0  0  0  0
  132.4111  137.0066  164.9301 H   0  0  0  0  0  0  0  0  0  0  0  0
  131.0768  137.6545  163.0765 H   0  0  0  0  0  0  0  0  0  0  0  0
  133.6863  138.9958  162.1411 H   0  0  0  0  0  0  0  0  0  0  0  0
  132.0739  139.2245  161.4374 H   0  0  0  0  0  0  0  0  0  0  0  0
  133.9436  137.7404  160.2301 H   0  0  0  0  0  0  0  0  0  0  0  0
  132.2192  137.3646  160.1166 H   0  0  0  0  0  0  0  0  0  0  0  0
  131.0607  135.2714  163.2112 H   0  0  0  0  0  0  0  0  0  0  0  0
  129.4048  135.1286  165.5113 H   0  0  0  0  0  0  0  0  0  0  0  0
  129.4275  136.9078  165.5293 H   0  0  0  0  0  0  0  0  0  0  0  0
  1  2  1  0
  1 39  1  0
  1 40  1  0
  1 41  1  0
  2 38  1  0
  2  3  2  0
  3  4  1  0
  3 42  1  0
  4  5  1  0
  4 43  1  0
  4 44  1  0
  5 37  2  0
  5  6  1  0
  6  7  1  0
  6  8  1  0
  8 36  2  0
  8  9  1  0
  9 10  2  0
  9 45  1  0
 10 11  1  0
 10 25  1  0
 11 46  1  0
 12 11  1  0
 12 23  2  0
 12 13  1  0
 13 14  1  0
 13 15  1  0
 15 16  2  0
 15 47  1  0
 16 17  1  0
 16 23  1  0
 17 22  1  0
 17 18  2  0
 18 19  1  0
 18 48  1  0
 19 20  2  0
 19 49  1  0
 20 21  1  0
 21 22  2  0
 21 50  1  0
 22 51  1  0
 23 24  1  0
 25 26  1  0
 25 35  2  0
 26 27  1  0
 27 34  1  0
 27 28  2  0
 28 29  1  0
 28 52  1  0
 29 30  1  0
 29 53  1  0
 29 54  1  0
 30 31  1  0
 30 55  1  0
 30 56  1  0
 31 32  2  0
 31 57  1  0
 32 33  1  0
 32 58  1  0
 33 34  1  0
 33 59  1  0
 33 60  1  0
 34 61  1  0
 34 62  1  0
 35 36  1  0
 35 63  1  0
 36 37  1  0
 37 38  1  0
 38 64  1  0
 38 65  1  0
M  CHG  1  23   1
M  END
>  <DOCK_score>  (1) 
-52.54306

>  <SMILES>  (1) 
CC1=CCc2[nH]c3cc(Nc4[nH]cc(-c5ccncc5)[nH+]4)c(SC4=CCCC=CCC4)cc3c2C1

$$$$
