CC=CCCNc1ccccc1CCCC#CCC[C@@H]([NH3+])C(=O)Nc1cccc(O)c1
     RDKit          3D

 65 66  0  0  1  0  0  0  0  0999 V2000
  125.1221  140.3889  164.2555 C   0  0  0  0  0  0  0  0  0  0  0  0
  126.3955  140.1976  163.4728 C   0  0  0  0  0  0  0  0  0  0  0  0
  127.3412  141.1024  163.5294 C   0  0  0  0  0  0  0  0  0  0  0  0
  128.6148  140.9111  162.7467 C   0  0  0  0  0  0  0  0  0  0  0  0
  129.8046  140.8810  163.7082 C   0  0  0  0  0  0  0  0  0  0  0  0
  131.0426  140.6950  162.9475 N   0  0  0  0  0  0  0  0  0  0  0  0
  132.2691  140.6354  163.6132 C   0  0  0  0  0  0  0  0  0  0  0  0
  132.3885  141.1458  164.8998 C   0  0  0  0  0  0  0  0  0  0  0  0
  133.6038  141.0903  165.5529 C   0  0  0  0  0  0  0  0  0  0  0  0
  134.7001  140.5223  164.9299 C   0  0  0  0  0  0  0  0  0  0  0  0
  134.5833  140.0078  163.6518 C   0  0  0  0  0  0  0  0  0  0  0  0
  133.3705  140.0605  162.9927 C   0  0  0  0  0  0  0  0  0  0  0  0
  133.2445  139.5003  161.5993 C   0  0  0  0  0  0  0  0  0  0  0  0
  132.8407  138.0266  161.6765 C   0  0  0  0  0  0  0  0  0  0  0  0
  132.7127  137.4581  160.2620 C   0  0  0  0  0  0  0  0  0  0  0  0
  132.3242  136.0402  160.3363 C   0  0  0  0  0  0  0  0  0  0  0  0
  132.0144  134.9093  160.3956 C   0  0  0  0  0  0  0  0  0  0  0  0
  131.6259  133.4915  160.4699 C   0  0  0  0  0  0  0  0  0  0  0  0
  131.4980  132.9229  159.0553 C   0  0  0  0  0  0  0  0  0  0  0  0
  130.4309  133.7044  158.2861 C   0  0  1  0  0  0  0  0  0  0  0  0
  130.5151  134.7648  158.5240 H   0  0  0  0  0  0  0  0  0  0  0  0
  130.6261  133.5093  156.8433 N   0  0  0  0  0  0  0  0  0  0  0  0
  129.9225  134.0248  156.3360 H   0  0  0  0  0  0  0  0  0  0  0  0
  131.5417  133.8416  156.5798 H   0  0  0  0  0  0  0  0  0  0  0  0
  130.5483  132.5278  156.6229 H   0  0  0  0  0  0  0  0  0  0  0  0
  129.0634  133.2081  158.6796 C   0  0  0  0  0  0  0  0  0  0  0  0
  128.5490  132.2972  158.0658 O   0  0  0  0  0  0  0  0  0  0  0  0
  128.4121  133.7766  159.7137 N   0  0  0  0  0  0  0  0  0  0  0  0
  127.1424  133.3159  160.0790 C   0  0  0  0  0  0  0  0  0  0  0  0
  126.7988  131.9859  159.8715 C   0  0  0  0  0  0  0  0  0  0  0  0
  125.5455  131.5311  160.2321 C   0  0  0  0  0  0  0  0  0  0  0  0
  124.6325  132.3957  160.8059 C   0  0  0  0  0  0  0  0  0  0  0  0
  124.9682  133.7265  161.0102 C   0  0  0  0  0  0  0  0  0  0  0  0
  124.0673  134.5769  161.5690 O   0  0  0  0  0  0  0  0  0  0  0  0
  126.2250  134.1867  160.6493 C   0  0  0  0  0  0  0  0  0  0  0  0
  124.6297  141.3052  163.9301 H   0  0  0  0  0  0  0  0  0  0  0  0
  124.4596  139.5402  164.0847 H   0  0  0  0  0  0  0  0  0  0  0  0
  125.3556  140.4594  165.3178 H   0  0  0  0  0  0  0  0  0  0  0  0
  126.5285  139.3147  162.8652 H   0  0  0  0  0  0  0  0  0  0  0  0
  127.2082  141.9852  164.1371 H   0  0  0  0  0  0  0  0  0  0  0  0
  128.7366  141.7353  162.0439 H   0  0  0  0  0  0  0  0  0  0  0  0
  128.5667  139.9702  162.1986 H   0  0  0  0  0  0  0  0  0  0  0  0
  129.6828  140.0567  164.4112 H   0  0  0  0  0  0  0  0  0  0  0  0
  129.8527  141.8219  164.2564 H   0  0  0  0  0  0  0  0  0  0  0  0
  131.0107  140.6134  161.9815 H   0  0  0  0  0  0  0  0  0  0  0  0
  131.5328  141.5895  165.3869 H   0  0  0  0  0  0  0  0  0  0  0  0
  133.6983  141.4908  166.5516 H   0  0  0  0  0  0  0  0  0  0  0  0
  135.6496  140.4801  165.4429 H   0  0  0  0  0  0  0  0  0  0  0  0
  135.4413  139.5645  163.1683 H   0  0  0  0  0  0  0  0  0  0  0  0
  134.2012  139.5884  161.0844 H   0  0  0  0  0  0  0  0  0  0  0  0
  132.4844  140.0571  161.0513 H   0  0  0  0  0  0  0  0  0  0  0  0
  131.8840  137.9386  162.1915 H   0  0  0  0  0  0  0  0  0  0  0  0
  133.6009  137.4697  162.2245 H   0  0  0  0  0  0  0  0  0  0  0  0
  133.6694  137.5462  159.7471 H   0  0  0  0  0  0  0  0  0  0  0  0
  131.9525  138.0148  159.7140 H   0  0  0  0  0  0  0  0  0  0  0  0
  130.6693  133.4034  160.9849 H   0  0  0  0  0  0  0  0  0  0  0  0
  132.3860  132.9347  161.0179 H   0  0  0  0  0  0  0  0  0  0  0  0
  131.2102  131.8729  159.1104 H   0  0  0  0  0  0  0  0  0  0  0  0
  132.4546  133.0110  158.5403 H   0  0  0  0  0  0  0  0  0  0  0  0
  128.8235  134.5050  160.2045 H   0  0  0  0  0  0  0  0  0  0  0  0
  127.5121  131.3071  159.4276 H   0  0  0  0  0  0  0  0  0  0  0  0
  125.2800  130.4970  160.0697 H   0  0  0  0  0  0  0  0  0  0  0  0
  123.6550  132.0361  161.0916 H   0  0  0  0  0  0  0  0  0  0  0  0
  124.3917  135.4821  161.6711 H   0  0  0  0  0  0  0  0  0  0  0  0
  126.4895  135.2213  160.8113 H   0  0  0  0  0  0  0  0  0  0  0  0
  1  2  1  0
  1 36  1  0
  1 37  1  0
  1 38  1  0
  2  3  2  0
  2 39  1  0
  3  4  1  0
  3 40  1  0
  4  5  1  0
  4 41  1  0
  4 42  1  0
  5  6  1  0
  5 43  1  0
  5 44  1  0
  6  7  1  0
  6 45  1  0
  7 12  2  0
  7  8  1  0
  8  9  2  0
  8 46  1  0
  9 10  1  0
  9 47  1  0
 10 11  2  0
 10 48  1  0
 11 12  1  0
 11 49  1  0
 12 13  1  0
 13 14  1  0
 13 50  1  0
 13 51  1  0
 14 15  1  0
 14 52  1  0
 14 53  1  0
 15 16  1  0
 15 54  1  0
 15 55  1  0
 16 17  3  0
 17 18  1  0
 18 19  1  0
 18 56  1  0
 18 57  1  0
 19 20  1  0
 19 58  1  0
 19 59  1  0
 20 21  1  6
 20 22  1  0
 20 26  1  0
 22 23  1  0
 22 24  1  0
 22 25  1  0
 26 27  2  0
 26 28  1  0
 28 29  1  0
 28 60  1  0
 29 35  1  0
 29 30  2  0
 30 31  1  0
 30 61  1  0
 31 32  2  0
 31 62  1  0
 32 33  1  0
 32 63  1  0
 33 34  1  0
 33 35  2  0
 34 64  1  0
 35 65  1  0
M  CHG  1  22   1
M  END
>  <DOCK_score>  (1) 
-49.907051

>  <SMILES>  (1) 
CC=CCCNc1ccccc1CCCC#CCC[C@@H]([NH3+])C(=O)Nc1cccc(O)c1

$$$$
