O=C1CC[C@H](NC(NC2CC(F)(F)C2)=[NH+]C2COc3ccccc3C2)CN1
     RDKit          3D

 52 55  0  0  1  0  0  0  0  0999 V2000
  123.8619  133.6900  161.5975 O   0  0  0  0  0  0  0  0  0  0  0  0
  125.0269  133.8441  161.2978 C   0  0  0  0  0  0  0  0  0  0  0  0
  125.8126  132.6420  160.8583 C   0  0  0  0  0  0  0  0  0  0  0  0
  127.3113  132.9401  160.9486 C   0  0  0  0  0  0  0  0  0  0  0  0
  127.5799  134.2857  160.2639 C   0  0  2  0  0  0  0  0  0  0  0  0
  127.1502  134.2786  159.2622 H   0  0  0  0  0  0  0  0  0  0  0  0
  129.0245  134.5134  160.1776 N   0  0  0  0  0  0  0  0  0  0  0  0
  129.7246  134.0768  159.0777 C   0  0  0  0  0  0  0  0  0  0  0  0
  129.0691  133.4266  158.0592 N   0  0  0  0  0  0  0  0  0  0  0  0
  129.8151  132.9614  156.8873 C   0  0  0  0  0  0  0  0  0  0  0  0
  129.1185  131.8210  156.1261 C   0  0  0  0  0  0  0  0  0  0  0  0
  130.5105  131.1906  155.9547 C   0  0  0  0  0  0  0  0  0  0  0  0
  131.1802  131.6157  154.8022 F   0  0  0  0  0  0  0  0  0  0  0  0
  130.5205  129.8000  156.1069 F   0  0  0  0  0  0  0  0  0  0  0  0
  130.9254  131.9523  157.2246 C   0  0  0  0  0  0  0  0  0  0  0  0
  131.0099  134.2793  159.0009 N   0  0  0  0  0  0  0  0  0  0  0  0
  131.4325  134.3907  158.1350 H   0  0  0  0  0  0  0  0  0  0  0  0
  131.8164  134.3388  160.2226 C   0  0  1  0  0  0  0  0  0  0  0  0
  133.2457  133.8696  159.9220 C   0  0  0  0  0  0  0  0  0  0  0  0
  133.9772  133.8400  161.1484 O   0  0  0  0  0  0  0  0  0  0  0  0
  133.9205  134.9367  161.9481 C   0  0  0  0  0  0  0  0  0  0  0  0
  134.8834  135.0846  162.9416 C   0  0  0  0  0  0  0  0  0  0  0  0
  134.8569  136.1827  163.7764 C   0  0  0  0  0  0  0  0  0  0  0  0
  133.8707  137.1405  163.6264 C   0  0  0  0  0  0  0  0  0  0  0  0
  132.9142  136.9978  162.6403 C   0  0  0  0  0  0  0  0  0  0  0  0
  132.9367  135.8982  161.7986 C   0  0  0  0  0  0  0  0  0  0  0  0
  131.8808  135.7820  160.7286 C   0  0  0  0  0  0  0  0  0  0  0  0
  126.9309  135.3949  161.0927 C   0  0  0  0  0  0  0  0  0  0  0  0
  125.5386  135.0711  161.3770 N   0  0  0  0  0  0  0  0  0  0  0  0
  125.5536  132.3969  159.8283 H   0  0  0  0  0  0  0  0  0  0  0  0
  125.5721  131.7967  161.5031 H   0  0  0  0  0  0  0  0  0  0  0  0
  127.6124  132.9941  161.9948 H   0  0  0  0  0  0  0  0  0  0  0  0
  127.8730  132.1531  160.4453 H   0  0  0  0  0  0  0  0  0  0  0  0
  129.4871  134.9723  160.8962 H   0  0  0  0  0  0  0  0  0  0  0  0
  128.1126  133.2758  158.1162 H   0  0  0  0  0  0  0  0  0  0  0  0
  130.1471  133.7775  156.2455 H   0  0  0  0  0  0  0  0  0  0  0  0
  128.4448  131.2299  156.7464 H   0  0  0  0  0  0  0  0  0  0  0  0
  128.6635  132.1368  155.1875 H   0  0  0  0  0  0  0  0  0  0  0  0
  131.9292  132.3739  157.1725 H   0  0  0  0  0  0  0  0  0  0  0  0
  130.7465  131.3980  158.1459 H   0  0  0  0  0  0  0  0  0  0  0  0
  131.3732  133.7003  160.9868 H   0  0  0  0  0  0  0  0  0  0  0  0
  133.2202  132.8712  159.4855 H   0  0  0  0  0  0  0  0  0  0  0  0
  133.7209  134.5620  159.2271 H   0  0  0  0  0  0  0  0  0  0  0  0
  135.6539  134.3371  163.0599 H   0  0  0  0  0  0  0  0  0  0  0  0
  135.6060  136.2945  164.5462 H   0  0  0  0  0  0  0  0  0  0  0  0
  133.8486  138.0000  164.2800 H   0  0  0  0  0  0  0  0  0  0  0  0
  132.1449  137.7471  162.5255 H   0  0  0  0  0  0  0  0  0  0  0  0
  132.1289  136.4460  159.9006 H   0  0  0  0  0  0  0  0  0  0  0  0
  130.9127  136.0650  161.1422 H   0  0  0  0  0  0  0  0  0  0  0  0
  127.4734  135.5078  162.0313 H   0  0  0  0  0  0  0  0  0  0  0  0
  126.9736  136.3317  160.5370 H   0  0  0  0  0  0  0  0  0  0  0  0
  124.9482  135.7945  161.6398 H   0  0  0  0  0  0  0  0  0  0  0  0
  1  2  2  0
  2 29  1  0
  2  3  1  0
  3  4  1  0
  3 30  1  0
  3 31  1  0
  4  5  1  0
  4 32  1  0
  4 33  1  0
  5  6  1  6
  5  7  1  0
  5 28  1  0
  7 34  1  0
  8  7  1  0
  8  9  1  0
  8 16  2  0
  9 10  1  0
  9 35  1  0
 10 15  1  0
 10 11  1  0
 10 36  1  0
 11 12  1  0
 11 37  1  0
 11 38  1  0
 12 13  1  0
 12 14  1  0
 12 15  1  0
 15 39  1  0
 15 40  1  0
 16 17  1  0
 16 18  1  0
 18 27  1  0
 18 19  1  0
 18 41  1  1
 19 20  1  0
 19 42  1  0
 19 43  1  0
 20 21  1  0
 21 26  2  0
 21 22  1  0
 22 23  2  0
 22 44  1  0
 23 24  1  0
 23 45  1  0
 24 25  2  0
 24 46  1  0
 25 26  1  0
 25 47  1  0
 26 27  1  0
 27 48  1  0
 27 49  1  0
 28 29  1  0
 28 50  1  0
 28 51  1  0
 29 52  1  0
M  CHG  1  16   1
M  END
>  <DOCK_score>  (1) 
-44.653484

>  <SMILES>  (1) 
O=C1CC[C@H](NC(NC2CC(F)(F)C2)=[NH+]C2COc3ccccc3C2)CN1

$$$$
