CC(=CC[C@H](Nc1[nH]cc(-c2ccc(N)cc2)[nH+]1)c1ccccc1)c1ccc(C)cc1
     RDKit          3D

 60 63  0  0  1  0  0  0  0  0999 V2000
  131.0389  138.9420  159.5328 C   0  0  0  0  0  0  0  0  0  0  0  0
  131.2155  138.0143  160.7072 C   0  0  0  0  0  0  0  0  0  0  0  0
  130.2056  137.2563  161.1109 C   0  0  0  0  0  0  0  0  0  0  0  0
  128.9159  137.2417  160.3314 C   0  0  0  0  0  0  0  0  0  0  0  0
  128.6322  135.8203  159.8415 C   0  0  2  0  0  0  0  0  0  0  0  0
  128.5469  135.1510  160.6977 H   0  0  0  0  0  0  0  0  0  0  0  0
  129.7291  135.3729  158.9795 N   0  0  0  0  0  0  0  0  0  0  0  0
  129.6942  134.1096  158.4144 C   0  0  0  0  0  0  0  0  0  0  0  0
  129.0904  133.0162  158.9542 N   0  0  0  0  0  0  0  0  0  0  0  0
  128.6115  132.9817  159.7972 H   0  0  0  0  0  0  0  0  0  0  0  0
  129.2846  131.9694  158.0845 C   0  0  0  0  0  0  0  0  0  0  0  0
  130.0007  132.4537  157.0399 C   0  0  0  0  0  0  0  0  0  0  0  0
  130.4463  131.6816  155.8542 C   0  0  0  0  0  0  0  0  0  0  0  0
  130.0262  132.0564  154.5789 C   0  0  0  0  0  0  0  0  0  0  0  0
  130.4463  131.3408  153.4776 C   0  0  0  0  0  0  0  0  0  0  0  0
  131.2787  130.2394  153.6395 C   0  0  0  0  0  0  0  0  0  0  0  0
  131.6986  129.5119  152.5232 N   0  0  0  0  0  0  0  0  0  0  0  0
  131.6940  129.8605  154.9104 C   0  0  0  0  0  0  0  0  0  0  0  0
  131.2811  130.5766  156.0140 C   0  0  0  0  0  0  0  0  0  0  0  0
  130.2324  133.7708  157.2682 N   0  0  0  0  0  0  0  0  0  0  0  0
  130.7205  134.3663  156.6782 H   0  0  0  0  0  0  0  0  0  0  0  0
  127.3426  135.8057  159.0621 C   0  0  0  0  0  0  0  0  0  0  0  0
  126.1452  135.5699  159.7113 C   0  0  0  0  0  0  0  0  0  0  0  0
  124.9622  135.5562  158.9962 C   0  0  0  0  0  0  0  0  0  0  0  0
  124.9769  135.7766  157.6316 C   0  0  0  0  0  0  0  0  0  0  0  0
  126.1745  136.0108  156.9821 C   0  0  0  0  0  0  0  0  0  0  0  0
  127.3574  136.0251  157.6973 C   0  0  0  0  0  0  0  0  0  0  0  0
  132.5148  137.9494  161.4090 C   0  0  0  0  0  0  0  0  0  0  0  0
  132.5958  138.2702  162.7646 C   0  0  0  0  0  0  0  0  0  0  0  0
  133.8106  138.2021  163.4151 C   0  0  0  0  0  0  0  0  0  0  0  0
  134.9490  137.8285  162.7236 C   0  0  0  0  0  0  0  0  0  0  0  0
  136.2737  137.7629  163.4389 C   0  0  0  0  0  0  0  0  0  0  0  0
  134.8764  137.5142  161.3781 C   0  0  0  0  0  0  0  0  0  0  0  0
  133.6667  137.5728  160.7173 C   0  0  0  0  0  0  0  0  0  0  0  0
  130.1851  139.5956  159.7114 H   0  0  0  0  0  0  0  0  0  0  0  0
  131.9383  139.5450  159.4077 H   0  0  0  0  0  0  0  0  0  0  0  0
  130.8655  138.3564  158.6301 H   0  0  0  0  0  0  0  0  0  0  0  0
  130.3071  136.6493  161.9984 H   0  0  0  0  0  0  0  0  0  0  0  0
  129.0012  137.9109  159.4754 H   0  0  0  0  0  0  0  0  0  0  0  0
  128.0999  137.5745  160.9729 H   0  0  0  0  0  0  0  0  0  0  0  0
  130.4796  135.9619  158.8046 H   0  0  0  0  0  0  0  0  0  0  0  0
  128.9341  130.9555  158.2093 H   0  0  0  0  0  0  0  0  0  0  0  0
  129.3756  132.9092  154.4531 H   0  0  0  0  0  0  0  0  0  0  0  0
  130.1245  131.6333  152.4892 H   0  0  0  0  0  0  0  0  0  0  0  0
  132.2797  128.7441  152.6348 H   0  0  0  0  0  0  0  0  0  0  0  0
  131.4091  129.7765  151.6355 H   0  0  0  0  0  0  0  0  0  0  0  0
  132.3404  129.0041  155.0339 H   0  0  0  0  0  0  0  0  0  0  0  0
  131.6043  130.2820  157.0014 H   0  0  0  0  0  0  0  0  0  0  0  0
  126.1337  135.3981  160.7776 H   0  0  0  0  0  0  0  0  0  0  0  0
  124.0261  135.3776  159.5042 H   0  0  0  0  0  0  0  0  0  0  0  0
  124.0528  135.7654  157.0728 H   0  0  0  0  0  0  0  0  0  0  0  0
  126.1861  136.1823  155.9158 H   0  0  0  0  0  0  0  0  0  0  0  0
  128.2932  136.2074  157.1898 H   0  0  0  0  0  0  0  0  0  0  0  0
  131.7087  138.5671  163.3043 H   0  0  0  0  0  0  0  0  0  0  0  0
  133.8737  138.4459  164.4654 H   0  0  0  0  0  0  0  0  0  0  0  0
  136.7711  138.7305  163.3721 H   0  0  0  0  0  0  0  0  0  0  0  0
  136.1089  137.5105  164.4864 H   0  0  0  0  0  0  0  0  0  0  0  0
  136.8995  137.0000  162.9756 H   0  0  0  0  0  0  0  0  0  0  0  0
  135.7687  137.2228  160.8440 H   0  0  0  0  0  0  0  0  0  0  0  0
  133.6115  137.3280  159.6670 H   0  0  0  0  0  0  0  0  0  0  0  0
  1  2  1  0
  1 35  1  0
  1 36  1  0
  1 37  1  0
  2  3  2  0
  2 28  1  0
  3  4  1  0
  3 38  1  0
  4  5  1  0
  4 39  1  0
  4 40  1  0
  5  6  1  1
  5  7  1  0
  5 22  1  0
  7 41  1  0
  8  7  1  0
  8 20  2  0
  8  9  1  0
  9 10  1  0
  9 11  1  0
 11 12  2  0
 11 42  1  0
 12 13  1  0
 12 20  1  0
 13 19  1  0
 13 14  2  0
 14 15  1  0
 14 43  1  0
 15 16  2  0
 15 44  1  0
 16 17  1  0
 16 18  1  0
 17 45  1  0
 17 46  1  0
 18 19  2  0
 18 47  1  0
 19 48  1  0
 20 21  1  0
 22 27  1  0
 22 23  2  0
 23 24  1  0
 23 49  1  0
 24 25  2  0
 24 50  1  0
 25 26  1  0
 25 51  1  0
 26 27  2  0
 26 52  1  0
 27 53  1  0
 28 34  1  0
 28 29  2  0
 29 30  1  0
 29 54  1  0
 30 31  2  0
 30 55  1  0
 31 32  1  0
 31 33  1  0
 32 56  1  0
 32 57  1  0
 32 58  1  0
 33 34  2  0
 33 59  1  0
 34 60  1  0
M  CHG  1  20   1
M  END
>  <DOCK_score>  (1) 
-60.19809

>  <SMILES>  (1) 
CC(=CC[C@H](Nc1[nH]cc(-c2ccc(N)cc2)[nH+]1)c1ccccc1)c1ccc(C)cc1

$$$$
