CC1=CC[C@H](NC(NC2CC=CC2)=[NH+][C@H]2C[C@@H](O)C2)CC1
     RDKit          3D

 49 51  0  0  1  0  0  0  0  0999 V2000
  134.5119  137.4175  161.0683 C   0  0  0  0  0  0  0  0  0  0  0  0
  133.1209  136.8827  160.8440 C   0  0  0  0  0  0  0  0  0  0  0  0
  132.1895  137.7257  160.5319 C   0  0  0  0  0  0  0  0  0  0  0  0
  130.7585  137.3456  160.2881 C   0  0  0  0  0  0  0  0  0  0  0  0
  130.6480  135.8395  160.0408 C   0  0  2  0  0  0  0  0  0  0  0  0
  131.0848  135.5908  159.0736 H   0  0  0  0  0  0  0  0  0  0  0  0
  129.2390  135.4389  160.0625 N   0  0  0  0  0  0  0  0  0  0  0  0
  128.8158  134.3729  159.3044 C   0  0  0  0  0  0  0  0  0  0  0  0
  129.4543  134.0715  158.1248 N   0  0  0  0  0  0  0  0  0  0  0  0
  129.5079  132.6852  157.6544 C   0  0  0  0  0  0  0  0  0  0  0  0
  130.3942  131.8191  158.5793 C   0  0  0  0  0  0  0  0  0  0  0  0
  131.1125  130.8720  157.6453 C   0  0  0  0  0  0  0  0  0  0  0  0
  131.0452  131.2885  156.4101 C   0  0  0  0  0  0  0  0  0  0  0  0
  130.2717  132.5830  156.3137 C   0  0  0  0  0  0  0  0  0  0  0  0
  127.8089  133.6480  159.7041 N   0  0  0  0  0  0  0  0  0  0  0  0
  127.5102  132.8959  159.1694 H   0  0  0  0  0  0  0  0  0  0  0  0
  127.1284  133.9692  160.9612 C   0  0  1  0  0  0  0  0  0  0  0  0
  127.7919  133.9255  161.8248 H   0  0  0  0  0  0  0  0  0  0  0  0
  126.2870  135.2546  160.8951 C   0  0  0  0  0  0  0  0  0  0  0  0
  125.2316  134.5133  161.7327 C   0  0  1  0  0  0  0  0  0  0  0  0
  125.3756  134.6177  162.8081 H   0  0  0  0  0  0  0  0  0  0  0  0
  123.8879  134.7775  161.3243 O   0  0  0  0  0  0  0  0  0  0  0  0
  125.8081  133.2059  161.1593 C   0  0  0  0  0  0  0  0  0  0  0  0
  131.4092  135.1081  161.1537 C   0  0  0  0  0  0  0  0  0  0  0  0
  132.9018  135.4059  160.9958 C   0  0  0  0  0  0  0  0  0  0  0  0
  135.0594  137.4125  160.1259 H   0  0  0  0  0  0  0  0  0  0  0  0
  134.4521  138.4373  161.4485 H   0  0  0  0  0  0  0  0  0  0  0  0
  135.0301  136.7894  161.7931 H   0  0  0  0  0  0  0  0  0  0  0  0
  132.4593  138.7676  160.4410 H   0  0  0  0  0  0  0  0  0  0  0  0
  130.3852  137.8831  159.4165 H   0  0  0  0  0  0  0  0  0  0  0  0
  130.1601  137.6135  161.1590 H   0  0  0  0  0  0  0  0  0  0  0  0
  128.6048  135.9256  160.6117 H   0  0  0  0  0  0  0  0  0  0  0  0
  129.8692  134.7769  157.6039 H   0  0  0  0  0  0  0  0  0  0  0  0
  128.5060  132.2649  157.5668 H   0  0  0  0  0  0  0  0  0  0  0  0
  131.1114  132.4437  159.1119 H   0  0  0  0  0  0  0  0  0  0  0  0
  129.7769  131.2625  159.2845 H   0  0  0  0  0  0  0  0  0  0  0  0
  131.6147  129.9688  157.9590 H   0  0  0  0  0  0  0  0  0  0  0  0
  131.4844  130.7752  155.5675 H   0  0  0  0  0  0  0  0  0  0  0  0
  129.5712  132.5456  155.4795 H   0  0  0  0  0  0  0  0  0  0  0  0
  130.9540  133.4254  156.2004 H   0  0  0  0  0  0  0  0  0  0  0  0
  126.7401  136.1001  161.4128 H   0  0  0  0  0  0  0  0  0  0  0  0
  125.9507  135.5052  159.8890 H   0  0  0  0  0  0  0  0  0  0  0  0
  123.6365  135.7097  161.3785 H   0  0  0  0  0  0  0  0  0  0  0  0
  125.3393  132.8945  160.2258 H   0  0  0  0  0  0  0  0  0  0  0  0
  125.8751  132.3998  161.8899 H   0  0  0  0  0  0  0  0  0  0  0  0
  131.0658  135.4616  162.1259 H   0  0  0  0  0  0  0  0  0  0  0  0
  131.2358  134.0350  161.0721 H   0  0  0  0  0  0  0  0  0  0  0  0
  133.4364  135.0500  161.8764 H   0  0  0  0  0  0  0  0  0  0  0  0
  133.2808  134.8937  160.1114 H   0  0  0  0  0  0  0  0  0  0  0  0
  1  2  1  0
  1 26  1  0
  1 27  1  0
  1 28  1  0
  2 25  1  0
  2  3  2  0
  3  4  1  0
  3 29  1  0
  4  5  1  0
  4 30  1  0
  4 31  1  0
  5  6  1  6
  5  7  1  0
  5 24  1  0
  7 32  1  0
  8  7  1  0
  8  9  1  0
  8 15  2  0
  9 10  1  0
  9 33  1  0
 10 14  1  0
 10 11  1  0
 10 34  1  0
 11 12  1  0
 11 35  1  0
 11 36  1  0
 12 13  2  0
 12 37  1  0
 13 14  1  0
 13 38  1  0
 14 39  1  0
 14 40  1  0
 15 16  1  0
 15 17  1  0
 17 18  1  1
 17 23  1  0
 17 19  1  0
 19 20  1  0
 19 41  1  0
 19 42  1  0
 20 21  1  1
 20 22  1  0
 20 23  1  0
 22 43  1  0
 23 44  1  0
 23 45  1  0
 24 25  1  0
 24 46  1  0
 24 47  1  0
 25 48  1  0
 25 49  1  0
M  CHG  1  15   1
M  END
>  <DOCK_score>  (1) 
-41.88628

>  <SMILES>  (1) 
CC1=CC[C@H](NC(NC2CC=CC2)=[NH+][C@H]2C[C@@H](O)C2)CC1

$$$$
