OCc1ccc(CNC(N[C@H]2C[C@@H](O)C2)=[NH+]Cc2cccs2)cc1
     RDKit          3D

 48 50  0  0  1  0  0  0  0  0999 V2000
  135.8313  139.3438  160.2022 O   0  0  0  0  0  0  0  0  0  0  0  0
  134.6630  140.0148  160.6783 C   0  0  0  0  0  0  0  0  0  0  0  0
  133.4978  139.0590  160.6738 C   0  0  0  0  0  0  0  0  0  0  0  0
  132.2722  139.4654  160.1800 C   0  0  0  0  0  0  0  0  0  0  0  0
  131.2036  138.5887  160.1759 C   0  0  0  0  0  0  0  0  0  0  0  0
  131.3605  137.3054  160.6648 C   0  0  0  0  0  0  0  0  0  0  0  0
  130.1954  136.3496  160.6603 C   0  0  0  0  0  0  0  0  0  0  0  0
  130.1800  135.6042  159.3992 N   0  0  0  0  0  0  0  0  0  0  0  0
  129.2008  134.6678  159.1660 C   0  0  0  0  0  0  0  0  0  0  0  0
  128.2360  134.4306  160.1164 N   0  0  0  0  0  0  0  0  0  0  0  0
  127.1927  133.4327  159.8678 C   0  0  1  0  0  0  0  0  0  0  0  0
  127.5285  132.6210  159.2225 H   0  0  0  0  0  0  0  0  0  0  0  0
  126.4819  132.9534  161.1444 C   0  0  0  0  0  0  0  0  0  0  0  0
  125.4953  134.1146  160.9367 C   0  0  1  0  0  0  0  0  0  0  0  0
  124.4602  133.8524  161.1553 H   0  0  0  0  0  0  0  0  0  0  0  0
  125.9029  135.3332  161.5620 O   0  0  0  0  0  0  0  0  0  0  0  0
  125.8466  134.0419  159.4414 C   0  0  0  0  0  0  0  0  0  0  0  0
  129.1873  134.0044  158.0441 N   0  0  0  0  0  0  0  0  0  0  0  0
  128.3459  133.6956  157.6733 H   0  0  0  0  0  0  0  0  0  0  0  0
  130.4430  133.7251  157.3432 C   0  0  0  0  0  0  0  0  0  0  0  0
  130.6264  132.2348  157.2155 C   0  0  0  0  0  0  0  0  0  0  0  0
  131.2533  131.4585  158.1008 C   0  0  0  0  0  0  0  0  0  0  0  0
  131.2954  130.1147  157.7714 C   0  0  0  0  0  0  0  0  0  0  0  0
  130.7105  129.8009  156.6143 C   0  0  0  0  0  0  0  0  0  0  0  0
  130.0530  131.2539  155.8727 S   0  0  0  0  0  0  0  0  0  0  0  0
  132.5847  136.9004  161.1632 C   0  0  0  0  0  0  0  0  0  0  0  0
  133.6546  137.7757  161.1633 C   0  0  0  0  0  0  0  0  0  0  0  0
  135.7480  138.9998  159.3023 H   0  0  0  0  0  0  0  0  0  0  0  0
  134.4406  140.8618  160.0292 H   0  0  0  0  0  0  0  0  0  0  0  0
  134.8368  140.3709  161.6937 H   0  0  0  0  0  0  0  0  0  0  0  0
  132.1498  140.4680  159.7975 H   0  0  0  0  0  0  0  0  0  0  0  0
  130.2461  138.9064  159.7904 H   0  0  0  0  0  0  0  0  0  0  0  0
  129.2657  136.9094  160.7629 H   0  0  0  0  0  0  0  0  0  0  0  0
  130.2937  135.6529  161.4928 H   0  0  0  0  0  0  0  0  0  0  0  0
  130.8606  135.7716  158.7286 H   0  0  0  0  0  0  0  0  0  0  0  0
  128.2484  134.9212  160.9531 H   0  0  0  0  0  0  0  0  0  0  0  0
  126.0245  131.9689  161.0461 H   0  0  0  0  0  0  0  0  0  0  0  0
  127.0883  133.0514  162.0448 H   0  0  0  0  0  0  0  0  0  0  0  0
  125.5052  136.1256  161.1759 H   0  0  0  0  0  0  0  0  0  0  0  0
  125.9402  135.0187  158.9669 H   0  0  0  0  0  0  0  0  0  0  0  0
  125.2155  133.3551  158.8775 H   0  0  0  0  0  0  0  0  0  0  0  0
  130.4125  134.1738  156.3503 H   0  0  0  0  0  0  0  0  0  0  0  0
  131.2754  134.1465  157.9070 H   0  0  0  0  0  0  0  0  0  0  0  0
  131.6924  131.8485  159.0070 H   0  0  0  0  0  0  0  0  0  0  0  0
  131.7693  129.3767  158.4016 H   0  0  0  0  0  0  0  0  0  0  0  0
  130.6496  128.8068  156.1969 H   0  0  0  0  0  0  0  0  0  0  0  0
  132.7061  135.8992  161.5492 H   0  0  0  0  0  0  0  0  0  0  0  0
  134.6121  137.4581  161.5488 H   0  0  0  0  0  0  0  0  0  0  0  0
  1  2  1  0
  1 28  1  0
  2  3  1  0
  2 29  1  0
  2 30  1  0
  3 27  2  0
  3  4  1  0
  4  5  2  0
  4 31  1  0
  5  6  1  0
  5 32  1  0
  6  7  1  0
  6 26  2  0
  7  8  1  0
  7 33  1  0
  7 34  1  0
  8 35  1  0
  9  8  1  0
  9 10  1  0
  9 18  2  0
 10 11  1  0
 10 36  1  0
 11 12  1  6
 11 17  1  0
 11 13  1  0
 13 14  1  0
 13 37  1  0
 13 38  1  0
 14 15  1  6
 14 16  1  0
 14 17  1  0
 16 39  1  0
 17 40  1  0
 17 41  1  0
 18 19  1  0
 18 20  1  0
 20 21  1  0
 20 42  1  0
 20 43  1  0
 21 25  1  0
 21 22  2  0
 22 23  1  0
 22 44  1  0
 23 24  2  0
 23 45  1  0
 24 25  1  0
 24 46  1  0
 26 27  1  0
 26 47  1  0
 27 48  1  0
M  CHG  1  18   1
M  END
>  <DOCK_score>  (1) 
-46.739456

>  <SMILES>  (1) 
OCc1ccc(CNC(N[C@H]2C[C@@H](O)C2)=[NH+]Cc2cccs2)cc1

$$$$
