Oc1ccc2c(c1)[C@H](Nc1[nH]cc(-c3ccc(-c4ccccc4)cc3)[nH+]1)c1ccccc1-2
     RDKit          3D

 54 59  0  0  1  0  0  0  0  0999 V2000
  124.3993  134.8589  161.6504 O   0  0  0  0  0  0  0  0  0  0  0  0
  125.3487  134.1140  161.0261 C   0  0  0  0  0  0  0  0  0  0  0  0
  125.0904  132.7884  160.7031 C   0  0  0  0  0  0  0  0  0  0  0  0
  126.0504  132.0296  160.0698 C   0  0  0  0  0  0  0  0  0  0  0  0
  127.2884  132.5923  159.7506 C   0  0  0  0  0  0  0  0  0  0  0  0
  127.5406  133.9221  160.0779 C   0  0  0  0  0  0  0  0  0  0  0  0
  126.5758  134.6796  160.7057 C   0  0  0  0  0  0  0  0  0  0  0  0
  128.9403  134.2465  159.6163 C   0  0  2  0  0  0  0  0  0  0  0  0
  129.5582  134.5360  160.4663 H   0  0  0  0  0  0  0  0  0  0  0  0
  128.9090  135.3251  158.6255 N   0  0  0  0  0  0  0  0  0  0  0  0
  129.5797  136.5108  158.8716 C   0  0  0  0  0  0  0  0  0  0  0  0
  129.6317  137.5809  158.0322 N   0  0  0  0  0  0  0  0  0  0  0  0
  129.2093  137.6492  157.1616 H   0  0  0  0  0  0  0  0  0  0  0  0
  130.3902  138.5473  158.6462 C   0  0  0  0  0  0  0  0  0  0  0  0
  130.7871  138.0372  159.8391 C   0  0  0  0  0  0  0  0  0  0  0  0
  131.6324  138.7247  160.8443 C   0  0  0  0  0  0  0  0  0  0  0  0
  131.4754  138.4388  162.2006 C   0  0  0  0  0  0  0  0  0  0  0  0
  132.2646  139.0737  163.1339 C   0  0  0  0  0  0  0  0  0  0  0  0
  133.2132  140.0103  162.7237 C   0  0  0  0  0  0  0  0  0  0  0  0
  134.0590  140.6982  163.7293 C   0  0  0  0  0  0  0  0  0  0  0  0
  135.3480  141.1094  163.3955 C   0  0  0  0  0  0  0  0  0  0  0  0
  136.1288  141.7532  164.3339 C   0  0  0  0  0  0  0  0  0  0  0  0
  135.6381  141.9809  165.6070 C   0  0  0  0  0  0  0  0  0  0  0  0
  134.3614  141.5700  165.9457 C   0  0  0  0  0  0  0  0  0  0  0  0
  133.5697  140.9299  165.0138 C   0  0  0  0  0  0  0  0  0  0  0  0
  133.3663  140.3003  161.3684 C   0  0  0  0  0  0  0  0  0  0  0  0
  132.5810  139.6618  160.4344 C   0  0  0  0  0  0  0  0  0  0  0  0
  130.2738  136.7859  159.9487 N   0  0  0  0  0  0  0  0  0  0  0  0
  130.4001  136.1902  160.7038 H   0  0  0  0  0  0  0  0  0  0  0  0
  129.4766  132.9820  158.9910 C   0  0  0  0  0  0  0  0  0  0  0  0
  130.6868  132.6810  158.4037 C   0  0  0  0  0  0  0  0  0  0  0  0
  130.9163  131.4122  157.9008 C   0  0  0  0  0  0  0  0  0  0  0  0
  129.9326  130.4439  157.9862 C   0  0  0  0  0  0  0  0  0  0  0  0
  128.7183  130.7363  158.5723 C   0  0  0  0  0  0  0  0  0  0  0  0
  128.4799  132.0138  159.0818 C   0  0  0  0  0  0  0  0  0  0  0  0
  124.6693  135.7699  161.8302 H   0  0  0  0  0  0  0  0  0  0  0  0
  124.1340  132.3510  160.9489 H   0  0  0  0  0  0  0  0  0  0  0  0
  125.8456  130.9989  159.8202 H   0  0  0  0  0  0  0  0  0  0  0  0
  126.7756  135.7117  160.9527 H   0  0  0  0  0  0  0  0  0  0  0  0
  128.4183  135.2084  157.7969 H   0  0  0  0  0  0  0  0  0  0  0  0
  130.6287  139.5244  158.2530 H   0  0  0  0  0  0  0  0  0  0  0  0
  130.7380  137.7167  162.5184 H   0  0  0  0  0  0  0  0  0  0  0  0
  132.1457  138.8496  164.1837 H   0  0  0  0  0  0  0  0  0  0  0  0
  135.7338  140.9286  162.4031 H   0  0  0  0  0  0  0  0  0  0  0  0
  137.1264  142.0762  164.0750 H   0  0  0  0  0  0  0  0  0  0  0  0
  136.2540  142.4818  166.3394 H   0  0  0  0  0  0  0  0  0  0  0  0
  133.9834  141.7507  166.9410 H   0  0  0  0  0  0  0  0  0  0  0  0
  132.5730  140.6099  165.2792 H   0  0  0  0  0  0  0  0  0  0  0  0
  134.1006  141.0261  161.0511 H   0  0  0  0  0  0  0  0  0  0  0  0
  132.6993  139.8867  159.3848 H   0  0  0  0  0  0  0  0  0  0  0  0
  131.4564  133.4357  158.3361 H   0  0  0  0  0  0  0  0  0  0  0  0
  131.8652  131.1778  157.4413 H   0  0  0  0  0  0  0  0  0  0  0  0
  130.1154  129.4551  157.5922 H   0  0  0  0  0  0  0  0  0  0  0  0
  127.9529  129.9771  158.6372 H   0  0  0  0  0  0  0  0  0  0  0  0
  1  2  1  0
  1 36  1  0
  2  7  2  0
  2  3  1  0
  3  4  2  0
  3 37  1  0
  4  5  1  0
  4 38  1  0
  5 35  1  0
  5  6  2  0
  6  7  1  0
  6  8  1  0
  7 39  1  0
  8  9  1  1
  8 10  1  0
  8 30  1  0
 10 40  1  0
 11 10  1  0
 11 28  2  0
 11 12  1  0
 12 13  1  0
 12 14  1  0
 14 15  2  0
 14 41  1  0
 15 16  1  0
 15 28  1  0
 16 27  1  0
 16 17  2  0
 17 18  1  0
 17 42  1  0
 18 19  2  0
 18 43  1  0
 19 20  1  0
 19 26  1  0
 20 25  1  0
 20 21  2  0
 21 22  1  0
 21 44  1  0
 22 23  2  0
 22 45  1  0
 23 24  1  0
 23 46  1  0
 24 25  2  0
 24 47  1  0
 25 48  1  0
 26 27  2  0
 26 49  1  0
 27 50  1  0
 28 29  1  0
 30 35  2  0
 30 31  1  0
 31 32  2  0
 31 51  1  0
 32 33  1  0
 32 52  1  0
 33 34  2  0
 33 53  1  0
 34 35  1  0
 34 54  1  0
M  CHG  1  28   1
M  END
>  <DOCK_score>  (1) 
-43.134552

>  <SMILES>  (1) 
Oc1ccc2c(c1)[C@H](Nc1[nH]cc(-c3ccc(-c4ccccc4)cc3)[nH+]1)c1ccccc1-2

$$$$
