C1=C(c2ccccc2Nc2ccccc2)C[N@@H+](Cc2ccccc2)CC1
     RDKit          3D

 51 54  0  0  1  0  0  0  0  0999 V2000
  131.7581  134.2194  161.1056 C   0  0  0  0  0  0  0  0  0  0  0  0
  130.6483  134.7531  160.6400 C   0  0  0  0  0  0  0  0  0  0  0  0
  129.5237  133.8581  160.3005 C   0  0  0  0  0  0  0  0  0  0  0  0
  128.5673  133.5371  161.2639 C   0  0  0  0  0  0  0  0  0  0  0  0
  127.5186  132.7010  160.9408 C   0  0  0  0  0  0  0  0  0  0  0  0
  127.4099  132.1782  159.6627 C   0  0  0  0  0  0  0  0  0  0  0  0
  128.3467  132.4921  158.6983 C   0  0  0  0  0  0  0  0  0  0  0  0
  129.4110  133.3270  159.0080 C   0  0  0  0  0  0  0  0  0  0  0  0
  130.3610  133.6407  158.0365 N   0  0  0  0  0  0  0  0  0  0  0  0
  130.6547  132.7233  157.0248 C   0  0  0  0  0  0  0  0  0  0  0  0
  130.4497  133.0653  155.6938 C   0  0  0  0  0  0  0  0  0  0  0  0
  130.7452  132.1576  154.6959 C   0  0  0  0  0  0  0  0  0  0  0  0
  131.2357  130.9059  155.0207 C   0  0  0  0  0  0  0  0  0  0  0  0
  131.4360  130.5604  156.3447 C   0  0  0  0  0  0  0  0  0  0  0  0
  131.1471  131.4649  157.3474 C   0  0  0  0  0  0  0  0  0  0  0  0
  130.4728  136.2314  160.4447 C   0  0  0  0  0  0  0  0  0  0  0  0
  131.7778  136.9018  160.4119 N   0  0  1  0  0  0  0  0  0  0  0  0
  132.2805  136.6218  159.5831 H   0  0  0  0  0  0  0  0  0  0  0  0
  131.5824  138.3578  160.3999 C   0  0  0  0  0  0  0  0  0  0  0  0
  132.8291  139.0276  159.8822 C   0  0  0  0  0  0  0  0  0  0  0  0
  133.8262  139.4065  160.7616 C   0  0  0  0  0  0  0  0  0  0  0  0
  134.9719  140.0166  160.2861 C   0  0  0  0  0  0  0  0  0  0  0  0
  135.1160  140.2574  158.9326 C   0  0  0  0  0  0  0  0  0  0  0  0
  134.1166  139.8832  158.0537 C   0  0  0  0  0  0  0  0  0  0  0  0
  132.9732  139.2683  158.5286 C   0  0  0  0  0  0  0  0  0  0  0  0
  132.5447  136.5158  161.6069 C   0  0  0  0  0  0  0  0  0  0  0  0
  132.9592  135.0486  161.4684 C   0  0  0  0  0  0  0  0  0  0  0  0
  131.8091  133.1475  161.2277 H   0  0  0  0  0  0  0  0  0  0  0  0
  128.6480  133.9424  162.2616 H   0  0  0  0  0  0  0  0  0  0  0  0
  126.7791  132.4531  161.6879 H   0  0  0  0  0  0  0  0  0  0  0  0
  126.5855  131.5246  159.4192 H   0  0  0  0  0  0  0  0  0  0  0  0
  128.2532  132.0840  157.7026 H   0  0  0  0  0  0  0  0  0  0  0  0
  130.8180  134.4959  158.0634 H   0  0  0  0  0  0  0  0  0  0  0  0
  130.0628  134.0411  155.4398 H   0  0  0  0  0  0  0  0  0  0  0  0
  130.5894  132.4239  153.6611 H   0  0  0  0  0  0  0  0  0  0  0  0
  131.4624  130.1966  154.2384 H   0  0  0  0  0  0  0  0  0  0  0  0
  131.8191  129.5821  156.5947 H   0  0  0  0  0  0  0  0  0  0  0  0
  131.3036  131.1943  158.3811 H   0  0  0  0  0  0  0  0  0  0  0  0
  129.9513  136.4114  159.5046 H   0  0  0  0  0  0  0  0  0  0  0  0
  129.8804  136.6357  161.2655 H   0  0  0  0  0  0  0  0  0  0  0  0
  130.7411  138.6061  159.7529 H   0  0  0  0  0  0  0  0  0  0  0  0
  131.3770  138.7050  161.4124 H   0  0  0  0  0  0  0  0  0  0  0  0
  133.7117  139.2224  161.8195 H   0  0  0  0  0  0  0  0  0  0  0  0
  135.7525  140.3094  160.9727 H   0  0  0  0  0  0  0  0  0  0  0  0
  136.0091  140.7382  158.5616 H   0  0  0  0  0  0  0  0  0  0  0  0
  134.2290  140.0716  156.9962 H   0  0  0  0  0  0  0  0  0  0  0  0
  132.1923  138.9764  157.8420 H   0  0  0  0  0  0  0  0  0  0  0  0
  133.4338  137.1410  161.6888 H   0  0  0  0  0  0  0  0  0  0  0  0
  131.9258  136.6416  162.4952 H   0  0  0  0  0  0  0  0  0  0  0  0
  133.7163  134.9572  160.6896 H   0  0  0  0  0  0  0  0  0  0  0  0
  133.3680  134.6960  162.4153 H   0  0  0  0  0  0  0  0  0  0  0  0
  1 27  1  0
  1  2  2  0
  1 28  1  0
  2  3  1  0
  2 16  1  0
  3  8  1  0
  3  4  2  0
  4  5  1  0
  4 29  1  0
  5  6  2  0
  5 30  1  0
  6  7  1  0
  6 31  1  0
  7  8  2  0
  7 32  1  0
  8  9  1  0
  9 10  1  0
  9 33  1  0
 10 15  1  0
 10 11  2  0
 11 12  1  0
 11 34  1  0
 12 13  2  0
 12 35  1  0
 13 14  1  0
 13 36  1  0
 14 15  2  0
 14 37  1  0
 15 38  1  0
 16 17  1  0
 16 39  1  0
 16 40  1  0
 17 18  1  6
 17 19  1  0
 17 26  1  0
 19 20  1  0
 19 41  1  0
 19 42  1  0
 20 25  1  0
 20 21  2  0
 21 22  1  0
 21 43  1  0
 22 23  2  0
 22 44  1  0
 23 24  1  0
 23 45  1  0
 24 25  2  0
 24 46  1  0
 25 47  1  0
 26 27  1  0
 26 48  1  0
 26 49  1  0
 27 50  1  0
 27 51  1  0
M  CHG  1  17   1
M  END
>  <DOCK_score>  (1) 
-55.955166

>  <SMILES>  (1) 
C1=C(c2ccccc2Nc2ccccc2)C[N@@H+](Cc2ccccc2)CC1

$$$$
