Nc1nc(NC2CC=CC2)nc(N[C@@H]2CCC[N@H+](C3CC3)C2)n1
     RDKit          3D

 49 52  0  0  1  0  0  0  0  0999 V2000
  125.9066  135.5869  160.4378 N   0  0  0  0  0  0  0  0  0  0  0  0
  127.2475  135.8773  160.2883 C   0  0  0  0  0  0  0  0  0  0  0  0
  127.9991  135.1459  159.4711 N   0  0  0  0  0  0  0  0  0  0  0  0
  129.2904  135.4260  159.3268 C   0  0  0  0  0  0  0  0  0  0  0  0
  130.0706  134.6669  158.4784 N   0  0  0  0  0  0  0  0  0  0  0  0
  129.4768  133.5485  157.7416 C   0  0  0  0  0  0  0  0  0  0  0  0
  129.0697  132.4057  158.7006 C   0  0  0  0  0  0  0  0  0  0  0  0
  129.3841  131.1373  157.9420 C   0  0  0  0  0  0  0  0  0  0  0  0
  130.1813  131.3764  156.9366 C   0  0  0  0  0  0  0  0  0  0  0  0
  130.5316  132.8441  156.8570 C   0  0  0  0  0  0  0  0  0  0  0  0
  129.8316  136.4341  160.0037 N   0  0  0  0  0  0  0  0  0  0  0  0
  129.0792  137.1684  160.8170 C   0  0  0  0  0  0  0  0  0  0  0  0
  129.6397  138.2188  161.5151 N   0  0  0  0  0  0  0  0  0  0  0  0
  131.0641  138.5243  161.3600 C   0  0  2  0  0  0  0  0  0  0  0  0
  131.3229  139.3793  161.9843 H   0  0  0  0  0  0  0  0  0  0  0  0
  131.3600  138.8525  159.8937 C   0  0  0  0  0  0  0  0  0  0  0  0
  132.8632  139.0934  159.7280 C   0  0  0  0  0  0  0  0  0  0  0  0
  133.6283  137.8598  160.2120 C   0  0  0  0  0  0  0  0  0  0  0  0
  133.3236  137.6144  161.6266 N   0  0  2  0  0  0  0  0  0  0  0  0
  133.5536  138.4352  162.1665 H   0  0  0  0  0  0  0  0  0  0  0  0
  134.1194  136.4762  162.1057 C   0  0  0  0  0  0  0  0  0  0  0  0
  134.5443  136.4802  163.5754 C   0  0  0  0  0  0  0  0  0  0  0  0
  135.5792  136.7420  162.4785 C   0  0  0  0  0  0  0  0  0  0  0  0
  131.8959  137.3117  161.7834 C   0  0  0  0  0  0  0  0  0  0  0  0
  127.7874  136.8886  160.9610 N   0  0  0  0  0  0  0  0  0  0  0  0
  125.5125  134.8490  159.9466 H   0  0  0  0  0  0  0  0  0  0  0  0
  125.3583  136.1205  161.0340 H   0  0  0  0  0  0  0  0  0  0  0  0
  131.0130  134.8712  158.3730 H   0  0  0  0  0  0  0  0  0  0  0  0
  128.6267  133.8821  157.1464 H   0  0  0  0  0  0  0  0  0  0  0  0
  129.6549  132.4540  159.6189 H   0  0  0  0  0  0  0  0  0  0  0  0
  128.0044  132.4598  158.9250 H   0  0  0  0  0  0  0  0  0  0  0  0
  128.9999  130.1610  158.1983 H   0  0  0  0  0  0  0  0  0  0  0  0
  130.5430  130.6240  156.2513 H   0  0  0  0  0  0  0  0  0  0  0  0
  130.4603  133.1962  155.8279 H   0  0  0  0  0  0  0  0  0  0  0  0
  131.5335  133.0173  157.2500 H   0  0  0  0  0  0  0  0  0  0  0  0
  129.0906  138.7546  162.1086 H   0  0  0  0  0  0  0  0  0  0  0  0
  131.0532  138.0171  159.2641 H   0  0  0  0  0  0  0  0  0  0  0  0
  130.8130  139.7494  159.6033 H   0  0  0  0  0  0  0  0  0  0  0  0
  133.1601  139.9605  160.3181 H   0  0  0  0  0  0  0  0  0  0  0  0
  133.0900  139.2732  158.6771 H   0  0  0  0  0  0  0  0  0  0  0  0
  134.6990  138.0278  160.0952 H   0  0  0  0  0  0  0  0  0  0  0  0
  133.3309  136.9933  159.6212 H   0  0  0  0  0  0  0  0  0  0  0  0
  133.8828  135.5134  161.6528 H   0  0  0  0  0  0  0  0  0  0  0  0
  134.2334  137.3272  164.1870 H   0  0  0  0  0  0  0  0  0  0  0  0
  134.5877  135.5200  164.0894 H   0  0  0  0  0  0  0  0  0  0  0  0
  136.3030  135.9539  162.2711 H   0  0  0  0  0  0  0  0  0  0  0  0
  135.9492  137.7614  162.3682 H   0  0  0  0  0  0  0  0  0  0  0  0
  131.6875  137.0754  162.8269 H   0  0  0  0  0  0  0  0  0  0  0  0
  131.6353  136.4570  161.1591 H   0  0  0  0  0  0  0  0  0  0  0  0
  1  2  1  0
  1 26  1  0
  1 27  1  0
  2 25  2  0
  2  3  1  0
  3  4  2  0
  4  5  1  0
  4 11  1  0
  5  6  1  0
  5 28  1  0
  6 10  1  0
  6  7  1  0
  6 29  1  0
  7  8  1  0
  7 30  1  0
  7 31  1  0
  8  9  2  0
  8 32  1  0
  9 10  1  0
  9 33  1  0
 10 34  1  0
 10 35  1  0
 11 12  2  0
 12 13  1  0
 12 25  1  0
 13 14  1  0
 13 36  1  0
 14 15  1  1
 14 24  1  0
 14 16  1  0
 16 17  1  0
 16 37  1  0
 16 38  1  0
 17 18  1  0
 17 39  1  0
 17 40  1  0
 18 19  1  0
 18 41  1  0
 18 42  1  0
 19 20  1  1
 19 21  1  0
 19 24  1  0
 21 23  1  0
 21 22  1  0
 21 43  1  0
 22 23  1  0
 22 44  1  0
 22 45  1  0
 23 46  1  0
 23 47  1  0
 24 48  1  0
 24 49  1  0
M  CHG  1  19   1
M  END
>  <DOCK_score>  (1) 
-40.921715

>  <SMILES>  (1) 
Nc1nc(NC2CC=CC2)nc(N[C@@H]2CCC[N@H+](C3CC3)C2)n1

$$$$
