[NH3+]C(Cc1cccc([C@@]2(O)CC[C@H]3[C@@H]2[C@H]2C=C[C@@H]3C2)c1)C(=O)Nc1cccc(O)c1
     RDKit          3D

 59 63  0  0  1  0  0  0  0  0999 V2000
  130.6389  133.5945  156.8305 N   0  0  0  0  0  0  0  0  0  0  0  0
  130.5679  132.6260  156.5568 H   0  0  0  0  0  0  0  0  0  0  0  0
  129.9358  134.1331  156.3470 H   0  0  0  0  0  0  0  0  0  0  0  0
  131.5544  133.9452  156.5918 H   0  0  0  0  0  0  0  0  0  0  0  0
  130.4330  133.7101  158.2805 C   0  0  2  0  0  0  0  0  0  0  0  0
  131.4991  132.8934  159.0137 C   0  0  0  0  0  0  0  0  0  0  0  0
  131.6126  133.3777  160.4362 C   0  0  0  0  0  0  0  0  0  0  0  0
  130.8291  132.8105  161.4241 C   0  0  0  0  0  0  0  0  0  0  0  0
  130.9336  133.2543  162.7289 C   0  0  0  0  0  0  0  0  0  0  0  0
  131.8212  134.2658  163.0460 C   0  0  0  0  0  0  0  0  0  0  0  0
  132.6040  134.8331  162.0583 C   0  0  0  0  0  0  0  0  0  0  0  0
  133.5710  135.9361  162.4039 C   0  0  1  0  0  0  0  0  0  0  0  0
  134.8619  135.3968  162.6958 O   0  0  0  0  0  0  0  0  0  0  0  0
  133.6617  136.9590  161.2453 C   0  0  0  0  0  0  0  0  0  0  0  0
  134.1633  138.2385  161.9582 C   0  0  0  0  0  0  0  0  0  0  0  0
  133.4274  138.2359  163.3123 C   0  0  1  0  0  0  0  0  0  0  0  0
  132.5637  138.9010  163.3200 H   0  0  0  0  0  0  0  0  0  0  0  0
  133.0476  136.7565  163.5989 C   0  0  2  0  0  0  0  0  0  0  0  0
  131.9807  136.6120  163.7699 H   0  0  0  0  0  0  0  0  0  0  0  0
  133.9109  136.3919  164.8477 C   0  0  1  0  0  0  0  0  0  0  0  0
  133.6081  135.5023  165.4001 H   0  0  0  0  0  0  0  0  0  0  0  0
  135.3537  136.4311  164.3299 C   0  0  0  0  0  0  0  0  0  0  0  0
  135.6762  137.6880  164.0882 C   0  0  0  0  0  0  0  0  0  0  0  0
  134.4698  138.5716  164.4285 C   0  0  2  0  0  0  0  0  0  0  0  0
  134.6663  139.6289  164.6064 H   0  0  0  0  0  0  0  0  0  0  0  0
  133.8697  137.7549  165.6306 C   0  0  0  0  0  0  0  0  0  0  0  0
  132.4958  134.3928  160.7522 C   0  0  0  0  0  0  0  0  0  0  0  0
  129.0656  133.1864  158.6369 C   0  0  0  0  0  0  0  0  0  0  0  0
  128.5603  132.3074  157.9711 O   0  0  0  0  0  0  0  0  0  0  0  0
  128.4043  133.6946  159.6957 N   0  0  0  0  0  0  0  0  0  0  0  0
  127.1347  133.2082  160.0266 C   0  0  0  0  0  0  0  0  0  0  0  0
  126.7979  131.8913  159.7393 C   0  0  0  0  0  0  0  0  0  0  0  0
  125.5466  131.4096  160.0712 C   0  0  0  0  0  0  0  0  0  0  0  0
  124.6229  132.2387  160.6791 C   0  0  0  0  0  0  0  0  0  0  0  0
  124.9519  133.5565  160.9631 C   0  0  0  0  0  0  0  0  0  0  0  0
  124.0424  134.3707  161.5604 O   0  0  0  0  0  0  0  0  0  0  0  0
  126.2087  134.0420  160.6368 C   0  0  0  0  0  0  0  0  0  0  0  0
  130.5097  134.7564  158.5761 H   0  0  0  0  0  0  0  0  0  0  0  0
  132.4587  133.0142  158.5110 H   0  0  0  0  0  0  0  0  0  0  0  0
  131.2168  131.8407  159.0096 H   0  0  0  0  0  0  0  0  0  0  0  0
  130.1359  132.0203  161.1764 H   0  0  0  0  0  0  0  0  0  0  0  0
  130.3217  132.8113  163.5007 H   0  0  0  0  0  0  0  0  0  0  0  0
  131.9026  134.6130  164.0655 H   0  0  0  0  0  0  0  0  0  0  0  0
  135.2398  134.8708  161.9778 H   0  0  0  0  0  0  0  0  0  0  0  0
  134.3789  136.6290  160.4937 H   0  0  0  0  0  0  0  0  0  0  0  0
  132.6818  137.1223  160.7966 H   0  0  0  0  0  0  0  0  0  0  0  0
  135.2415  138.1917  162.1105 H   0  0  0  0  0  0  0  0  0  0  0  0
  133.8993  139.1246  161.3807 H   0  0  0  0  0  0  0  0  0  0  0  0
  135.9973  135.5755  164.1881 H   0  0  0  0  0  0  0  0  0  0  0  0
  136.6285  138.0354  163.7157 H   0  0  0  0  0  0  0  0  0  0  0  0
  132.8542  138.0631  165.8792 H   0  0  0  0  0  0  0  0  0  0  0  0
  134.5231  137.7550  166.5031 H   0  0  0  0  0  0  0  0  0  0  0  0
  133.1042  134.8392  159.9796 H   0  0  0  0  0  0  0  0  0  0  0  0
  128.8085  134.3974  160.2281 H   0  0  0  0  0  0  0  0  0  0  0  0
  127.5164  131.2426  159.2604 H   0  0  0  0  0  0  0  0  0  0  0  0
  125.2879  130.3844  159.8509 H   0  0  0  0  0  0  0  0  0  0  0  0
  123.6439  131.8604  160.9335 H   0  0  0  0  0  0  0  0  0  0  0  0
  124.3627  135.2694  161.7177 H   0  0  0  0  0  0  0  0  0  0  0  0
  126.4666  135.0674  160.8573 H   0  0  0  0  0  0  0  0  0  0  0  0
  1  2  1  0
  1  3  1  0
  1  4  1  0
  1  5  1  0
  5  6  1  0
  5 28  1  0
  5 38  1  1
  6  7  1  0
  6 39  1  0
  6 40  1  0
  7 27  1  0
  7  8  2  0
  8  9  1  0
  8 41  1  0
  9 10  2  0
  9 42  1  0
 10 11  1  0
 10 43  1  0
 11 12  1  0
 11 27  2  0
 12 18  1  0
 12 13  1  1
 12 14  1  0
 13 44  1  0
 14 15  1  0
 14 45  1  0
 14 46  1  0
 15 16  1  0
 15 47  1  0
 15 48  1  0
 16 17  1  6
 16 24  1  0
 16 18  1  0
 18 19  1  1
 18 20  1  0
 20 21  1  1
 20 26  1  0
 20 22  1  0
 22 23  2  0
 22 49  1  0
 23 24  1  0
 23 50  1  0
 24 25  1  1
 24 26  1  0
 26 51  1  0
 26 52  1  0
 27 53  1  0
 28 29  2  0
 28 30  1  0
 30 31  1  0
 30 54  1  0
 31 37  1  0
 31 32  2  0
 32 33  1  0
 32 55  1  0
 33 34  2  0
 33 56  1  0
 34 35  1  0
 34 57  1  0
 35 36  1  0
 35 37  2  0
 36 58  1  0
 37 59  1  0
M  CHG  1   1   1
M  END
>  <DOCK_score>  (1) 
-47.322624

>  <SMILES>  (1) 
[NH3+]C(Cc1cccc([C@@]2(O)CC[C@H]3[C@@H]2[C@H]2C=C[C@@H]3C2)c1)C(=O)Nc1cccc(O)c1

$$$$
