Cc1ccccc1[C@H]1C[C@H](Nc2ccc(-c3n[nH]cc3C[NH2+]CCC3=CCCC3)o2)C1
     RDKit          3D

 64 68  0  0  1  0  0  0  0  0999 V2000
  128.1300  135.8441  166.8782 C   0  0  0  0  0  0  0  0  0  0  0  0
  127.8312  137.3139  167.0245 C   0  0  0  0  0  0  0  0  0  0  0  0
  128.1960  137.9820  168.1787 C   0  0  0  0  0  0  0  0  0  0  0  0
  127.9161  139.3286  168.3156 C   0  0  0  0  0  0  0  0  0  0  0  0
  127.2722  140.0077  167.2979 C   0  0  0  0  0  0  0  0  0  0  0  0
  126.9081  139.3400  166.1438 C   0  0  0  0  0  0  0  0  0  0  0  0
  127.1876  137.9930  166.0072 C   0  0  0  0  0  0  0  0  0  0  0  0
  126.7901  137.2648  164.7491 C   0  0  1  0  0  0  0  0  0  0  0  0
  126.1029  136.4398  164.9366 H   0  0  0  0  0  0  0  0  0  0  0  0
  126.3392  138.1984  163.6133 C   0  0  0  0  0  0  0  0  0  0  0  0
  127.1052  137.2724  162.6539 C   0  0  2  0  0  0  0  0  0  0  0  0
  127.6476  137.8037  161.8719 H   0  0  0  0  0  0  0  0  0  0  0  0
  126.2964  136.1667  162.1347 N   0  0  0  0  0  0  0  0  0  0  0  0
  126.8576  135.2482  161.2552 C   0  0  0  0  0  0  0  0  0  0  0  0
  126.2191  134.1852  160.7055 C   0  0  0  0  0  0  0  0  0  0  0  0
  127.1516  133.5281  159.8788 C   0  0  0  0  0  0  0  0  0  0  0  0
  128.3177  134.2197  159.9735 C   0  0  0  0  0  0  0  0  0  0  0  0
  129.5789  133.8893  159.2781 C   0  0  0  0  0  0  0  0  0  0  0  0
  129.7723  132.8710  158.4631 N   0  0  0  0  0  0  0  0  0  0  0  0
  131.0989  132.9180  158.0163 N   0  0  0  0  0  0  0  0  0  0  0  0
  131.5153  132.2918  157.4034 H   0  0  0  0  0  0  0  0  0  0  0  0
  131.6996  133.9834  158.5895 C   0  0  0  0  0  0  0  0  0  0  0  0
  130.7917  134.6038  159.3730 C   0  0  0  0  0  0  0  0  0  0  0  0
  131.0314  135.8393  160.2020 C   0  0  0  0  0  0  0  0  0  0  0  0
  132.4219  136.2813  160.0315 N   0  0  0  0  0  0  0  0  0  0  0  0
  133.0470  135.5483  160.3318 H   0  0  0  0  0  0  0  0  0  0  0  0
  132.5915  136.4905  159.0591 H   0  0  0  0  0  0  0  0  0  0  0  0
  132.6555  137.4856  160.8395 C   0  0  0  0  0  0  0  0  0  0  0  0
  134.1037  137.9460  160.6620 C   0  0  0  0  0  0  0  0  0  0  0  0
  134.3432  139.1814  161.4909 C   0  0  0  0  0  0  0  0  0  0  0  0
  134.7130  140.3356  161.0062 C   0  0  0  0  0  0  0  0  0  0  0  0
  134.8620  141.3639  162.1032 C   0  0  0  0  0  0  0  0  0  0  0  0
  134.1224  140.7555  163.3174 C   0  0  0  0  0  0  0  0  0  0  0  0
  134.1931  139.2451  162.9931 C   0  0  0  0  0  0  0  0  0  0  0  0
  128.1259  135.2603  160.8112 O   0  0  0  0  0  0  0  0  0  0  0  0
  127.9821  136.8824  163.8558 C   0  0  0  0  0  0  0  0  0  0  0  0
  129.1105  135.7165  166.4195 H   0  0  0  0  0  0  0  0  0  0  0  0
  128.1246  135.3728  167.8611 H   0  0  0  0  0  0  0  0  0  0  0  0
  127.3710  135.3800  166.2484 H   0  0  0  0  0  0  0  0  0  0  0  0
  128.6990  137.4515  168.9737 H   0  0  0  0  0  0  0  0  0  0  0  0
  128.2006  139.8503  169.2175 H   0  0  0  0  0  0  0  0  0  0  0  0
  127.0534  141.0599  167.4048 H   0  0  0  0  0  0  0  0  0  0  0  0
  126.4047  139.8705  165.3490 H   0  0  0  0  0  0  0  0  0  0  0  0
  125.2614  138.1998  163.4512 H   0  0  0  0  0  0  0  0  0  0  0  0
  126.7597  139.2018  163.6801 H   0  0  0  0  0  0  0  0  0  0  0  0
  125.3691  136.0757  162.4045 H   0  0  0  0  0  0  0  0  0  0  0  0
  125.1907  133.8985  160.8686 H   0  0  0  0  0  0  0  0  0  0  0  0
  126.9751  132.6420  159.2871 H   0  0  0  0  0  0  0  0  0  0  0  0
  132.7264  134.2858  158.4465 H   0  0  0  0  0  0  0  0  0  0  0  0
  130.3561  136.6310  159.8775 H   0  0  0  0  0  0  0  0  0  0  0  0
  130.8481  135.6133  161.2523 H   0  0  0  0  0  0  0  0  0  0  0  0
  131.9801  138.2774  160.5152 H   0  0  0  0  0  0  0  0  0  0  0  0
  132.4723  137.2595  161.8900 H   0  0  0  0  0  0  0  0  0  0  0  0
  134.7790  137.1542  160.9863 H   0  0  0  0  0  0  0  0  0  0  0  0
  134.2869  138.1721  159.6116 H   0  0  0  0  0  0  0  0  0  0  0  0
  134.8875  140.5305  159.9584 H   0  0  0  0  0  0  0  0  0  0  0  0
  134.3988  142.3059  161.8096 H   0  0  0  0  0  0  0  0  0  0  0  0
  135.9158  141.5147  162.3371 H   0  0  0  0  0  0  0  0  0  0  0  0
  133.0888  141.0991  163.3583 H   0  0  0  0  0  0  0  0  0  0  0  0
  134.6450  140.9810  164.2470 H   0  0  0  0  0  0  0  0  0  0  0  0
  133.2751  138.7467  163.3044 H   0  0  0  0  0  0  0  0  0  0  0  0
  135.0555  138.7904  163.4806 H   0  0  0  0  0  0  0  0  0  0  0  0
  128.8515  137.5263  163.9889 H   0  0  0  0  0  0  0  0  0  0  0  0
  128.2303  135.8217  163.8894 H   0  0  0  0  0  0  0  0  0  0  0  0
  1  2  1  0
  1 37  1  0
  1 38  1  0
  1 39  1  0
  2  7  2  0
  2  3  1  0
  3  4  2  0
  3 40  1  0
  4  5  1  0
  4 41  1  0
  5  6  2  0
  5 42  1  0
  6  7  1  0
  6 43  1  0
  7  8  1  0
  8  9  1  1
  8 36  1  0
  8 10  1  0
 10 11  1  0
 10 44  1  0
 10 45  1  0
 11 12  1  6
 11 13  1  0
 11 36  1  0
 13 14  1  0
 13 46  1  0
 14 35  1  0
 14 15  2  0
 15 16  1  0
 15 47  1  0
 16 17  2  0
 16 48  1  0
 17 18  1  0
 17 35  1  0
 18 23  1  0
 18 19  2  0
 19 20  1  0
 20 21  1  0
 20 22  1  0
 22 23  2  0
 22 49  1  0
 23 24  1  0
 24 25  1  0
 24 50  1  0
 24 51  1  0
 25 26  1  0
 25 27  1  0
 25 28  1  0
 28 29  1  0
 28 52  1  0
 28 53  1  0
 29 30  1  0
 29 54  1  0
 29 55  1  0
 30 34  1  0
 30 31  2  0
 31 32  1  0
 31 56  1  0
 32 33  1  0
 32 57  1  0
 32 58  1  0
 33 34  1  0
 33 59  1  0
 33 60  1  0
 34 61  1  0
 34 62  1  0
 36 63  1  0
 36 64  1  0
M  CHG  1  25   1
M  END
>  <DOCK_score>  (1) 
-44.864693

>  <SMILES>  (1) 
Cc1ccccc1[C@H]1C[C@H](Nc2ccc(-c3n[nH]cc3C[NH2+]CCC3=CCCC3)o2)C1

$$$$
