CCc1ccc(-c2c[nH]c(N[C@H](c3cccc(Cl)c3CBr)[C@@H]3CCC[C@H]3O)[nH+]2)cc1
     RDKit          3D

 58 61  0  0  1  0  0  0  0  0999 V2000
  130.3504  128.9554  151.5225 C   0  0  0  0  0  0  0  0  0  0  0  0
  131.5782  129.6699  152.0899 C   0  0  0  0  0  0  0  0  0  0  0  0
  131.2018  130.3808  153.3641 C   0  0  0  0  0  0  0  0  0  0  0  0
  131.3100  129.7250  154.5769 C   0  0  0  0  0  0  0  0  0  0  0  0
  130.9666  130.3710  155.7469 C   0  0  0  0  0  0  0  0  0  0  0  0
  130.5097  131.6871  155.7050 C   0  0  0  0  0  0  0  0  0  0  0  0
  130.1390  132.3869  156.9593 C   0  0  0  0  0  0  0  0  0  0  0  0
  129.6469  131.8062  158.0816 C   0  0  0  0  0  0  0  0  0  0  0  0
  129.4481  132.8116  158.9963 N   0  0  0  0  0  0  0  0  0  0  0  0
  129.1058  132.7084  159.8980 H   0  0  0  0  0  0  0  0  0  0  0  0
  129.8173  133.9794  158.4029 C   0  0  0  0  0  0  0  0  0  0  0  0
  129.7681  135.2325  158.9891 N   0  0  0  0  0  0  0  0  0  0  0  0
  129.2863  135.3793  160.3648 C   0  0  2  0  0  0  0  0  0  0  0  0
  129.6656  134.5575  160.9722 H   0  0  0  0  0  0  0  0  0  0  0  0
  127.7795  135.3572  160.3743 C   0  0  0  0  0  0  0  0  0  0  0  0
  127.0743  135.8262  159.2815 C   0  0  0  0  0  0  0  0  0  0  0  0
  125.6924  135.8063  159.2895 C   0  0  0  0  0  0  0  0  0  0  0  0
  125.0143  135.3171  160.3904 C   0  0  0  0  0  0  0  0  0  0  0  0
  125.7192  134.8474  161.4841 C   0  0  0  0  0  0  0  0  0  0  0  0
  124.8683  134.2335  162.8671 Cl  0  0  0  0  0  0  0  0  0  0  0  0
  127.1028  134.8626  161.4731 C   0  0  0  0  0  0  0  0  0  0  0  0
  127.8715  134.3455  162.6617 C   0  0  0  0  0  0  0  0  0  0  0  0
  128.2262  132.4259  162.4282 Br  0  0  0  0  0  0  0  0  0  0  0  0
  129.7804  136.7085  160.9391 C   0  0  2  0  0  0  0  0  0  0  0  0
  129.4267  136.8268  161.9633 H   0  0  0  0  0  0  0  0  0  0  0  0
  129.2808  137.8763  160.0707 C   0  0  0  0  0  0  0  0  0  0  0  0
  130.5352  138.5975  159.5361 C   0  0  0  0  0  0  0  0  0  0  0  0
  131.6445  138.2344  160.5554 C   0  0  0  0  0  0  0  0  0  0  0  0
  131.3217  136.7598  160.9021 C   0  0  1  0  0  0  0  0  0  0  0  0
  131.7072  136.0933  160.1304 H   0  0  0  0  0  0  0  0  0  0  0  0
  131.8646  136.4128  162.1777 O   0  0  0  0  0  0  0  0  0  0  0  0
  130.2325  133.7211  157.1869 N   0  0  0  0  0  0  0  0  0  0  0  0
  130.5551  134.3788  156.5511 H   0  0  0  0  0  0  0  0  0  0  0  0
  130.3969  132.3413  154.4795 C   0  0  0  0  0  0  0  0  0  0  0  0
  130.7489  131.6875  153.3163 C   0  0  0  0  0  0  0  0  0  0  0  0
  130.6228  128.4413  150.6009 H   0  0  0  0  0  0  0  0  0  0  0  0
  129.9849  128.2296  152.2490 H   0  0  0  0  0  0  0  0  0  0  0  0
  129.5688  129.6858  151.3138 H   0  0  0  0  0  0  0  0  0  0  0  0
  131.9440  130.3961  151.3631 H   0  0  0  0  0  0  0  0  0  0  0  0
  132.3601  128.9399  152.2984 H   0  0  0  0  0  0  0  0  0  0  0  0
  131.6644  128.7053  154.6082 H   0  0  0  0  0  0  0  0  0  0  0  0
  131.0523  129.8580  156.6935 H   0  0  0  0  0  0  0  0  0  0  0  0
  129.4526  130.7542  158.2294 H   0  0  0  0  0  0  0  0  0  0  0  0
  130.0526  136.0134  158.4890 H   0  0  0  0  0  0  0  0  0  0  0  0
  127.6036  136.2083  158.4211 H   0  0  0  0  0  0  0  0  0  0  0  0
  125.1421  136.1726  158.4354 H   0  0  0  0  0  0  0  0  0  0  0  0
  123.9344  135.3012  160.3963 H   0  0  0  0  0  0  0  0  0  0  0  0
  128.8167  134.8822  162.7446 H   0  0  0  0  0  0  0  0  0  0  0  0
  127.2858  134.4991  163.5679 H   0  0  0  0  0  0  0  0  0  0  0  0
  128.6861  137.4961  159.2399 H   0  0  0  0  0  0  0  0  0  0  0  0
  128.6844  138.5614  160.6734 H   0  0  0  0  0  0  0  0  0  0  0  0
  130.7937  138.2283  158.5436 H   0  0  0  0  0  0  0  0  0  0  0  0
  130.3749  139.6755  159.5134 H   0  0  0  0  0  0  0  0  0  0  0  0
  131.5743  138.8641  161.4424 H   0  0  0  0  0  0  0  0  0  0  0  0
  132.6322  138.3174  160.1017 H   0  0  0  0  0  0  0  0  0  0  0  0
  131.5860  136.9974  162.8959 H   0  0  0  0  0  0  0  0  0  0  0  0
  130.0387  133.3595  154.4407 H   0  0  0  0  0  0  0  0  0  0  0  0
  130.6665  132.1951  152.3665 H   0  0  0  0  0  0  0  0  0  0  0  0
  1  2  1  0
  1 36  1  0
  1 37  1  0
  1 38  1  0
  2  3  1  0
  2 39  1  0
  2 40  1  0
  3 35  2  0
  3  4  1  0
  4  5  2  0
  4 41  1  0
  5  6  1  0
  5 42  1  0
  6  7  1  0
  6 34  2  0
  7 32  1  0
  7  8  2  0
  8  9  1  0
  8 43  1  0
  9 10  1  0
  9 11  1  0
 11 12  1  0
 11 32  2  0
 12 13  1  0
 12 44  1  0
 13 14  1  1
 13 15  1  0
 13 24  1  0
 15 21  1  0
 15 16  2  0
 16 17  1  0
 16 45  1  0
 17 18  2  0
 17 46  1  0
 18 19  1  0
 18 47  1  0
 19 20  1  0
 19 21  2  0
 21 22  1  0
 22 23  1  0
 22 48  1  0
 22 49  1  0
 24 25  1  1
 24 29  1  0
 24 26  1  0
 26 27  1  0
 26 50  1  0
 26 51  1  0
 27 28  1  0
 27 52  1  0
 27 53  1  0
 28 29  1  0
 28 54  1  0
 28 55  1  0
 29 30  1  6
 29 31  1  0
 31 56  1  0
 32 33  1  0
 34 35  1  0
 34 57  1  0
 35 58  1  0
M  CHG  1  32   1
M  END
>  <DOCK_score>  (1) 
-56.035439

>  <SMILES>  (1) 
CCc1ccc(-c2c[nH]c(N[C@H](c3cccc(Cl)c3CBr)[C@@H]3CCC[C@H]3O)[nH+]2)cc1

$$$$
