Nc1ccc(-c2c[nH]c(Nc3ccccc3-c3ccccc3)[nH+]2)cc1
     RDKit          3D

 44 47  0  0  1  0  0  0  0  0999 V2000
  131.4611  129.0434  151.5180 N   0  0  0  0  0  0  0  0  0  0  0  0
  131.1495  129.7942  152.6541 C   0  0  0  0  0  0  0  0  0  0  0  0
  130.2668  130.8642  152.5572 C   0  0  0  0  0  0  0  0  0  0  0  0
  129.9577  131.6077  153.6767 C   0  0  0  0  0  0  0  0  0  0  0  0
  130.5308  131.2855  154.9060 C   0  0  0  0  0  0  0  0  0  0  0  0
  130.2003  132.0841  156.1117 C   0  0  0  0  0  0  0  0  0  0  0  0
  129.6217  131.6157  157.2454 C   0  0  0  0  0  0  0  0  0  0  0  0
  129.4977  132.6842  158.1006 N   0  0  0  0  0  0  0  0  0  0  0  0
  129.1191  132.6648  158.9934 H   0  0  0  0  0  0  0  0  0  0  0  0
  130.0049  133.7748  157.4633 C   0  0  0  0  0  0  0  0  0  0  0  0
  130.0682  135.0568  157.9844 N   0  0  0  0  0  0  0  0  0  0  0  0
  129.1085  135.4852  158.9026 C   0  0  0  0  0  0  0  0  0  0  0  0
  127.7670  135.5111  158.5476 C   0  0  0  0  0  0  0  0  0  0  0  0
  126.8188  135.9358  159.4577 C   0  0  0  0  0  0  0  0  0  0  0  0
  127.1988  136.3375  160.7267 C   0  0  0  0  0  0  0  0  0  0  0  0
  128.5290  136.3171  161.0940 C   0  0  0  0  0  0  0  0  0  0  0  0
  129.4948  135.8910  160.1853 C   0  0  0  0  0  0  0  0  0  0  0  0
  130.9256  135.8677  160.5749 C   0  0  0  0  0  0  0  0  0  0  0  0
  131.5656  137.0454  160.9573 C   0  0  0  0  0  0  0  0  0  0  0  0
  132.8961  137.0172  161.3227 C   0  0  0  0  0  0  0  0  0  0  0  0
  133.5968  135.8247  161.3011 C   0  0  0  0  0  0  0  0  0  0  0  0
  132.9680  134.6538  160.9179 C   0  0  0  0  0  0  0  0  0  0  0  0
  131.6368  134.6692  160.5548 C   0  0  0  0  0  0  0  0  0  0  0  0
  130.4184  133.4128  156.2732 N   0  0  0  0  0  0  0  0  0  0  0  0
  130.8188  134.0012  155.6140 H   0  0  0  0  0  0  0  0  0  0  0  0
  131.4194  130.2154  154.9994 C   0  0  0  0  0  0  0  0  0  0  0  0
  131.7214  129.4716  153.8783 C   0  0  0  0  0  0  0  0  0  0  0  0
  131.0619  129.2683  150.6630 H   0  0  0  0  0  0  0  0  0  0  0  0
  132.0768  128.2969  151.5845 H   0  0  0  0  0  0  0  0  0  0  0  0
  129.8229  131.1134  151.6047 H   0  0  0  0  0  0  0  0  0  0  0  0
  129.2719  132.4385  153.6013 H   0  0  0  0  0  0  0  0  0  0  0  0
  129.3164  130.5980  157.4388 H   0  0  0  0  0  0  0  0  0  0  0  0
  130.7796  135.6568  157.7108 H   0  0  0  0  0  0  0  0  0  0  0  0
  127.4643  135.1992  157.5589 H   0  0  0  0  0  0  0  0  0  0  0  0
  125.7764  135.9587  159.1763 H   0  0  0  0  0  0  0  0  0  0  0  0
  126.4512  136.6684  161.4324 H   0  0  0  0  0  0  0  0  0  0  0  0
  128.8208  136.6311  162.0853 H   0  0  0  0  0  0  0  0  0  0  0  0
  131.0205  137.9777  160.9705 H   0  0  0  0  0  0  0  0  0  0  0  0
  133.3922  137.9285  161.6222 H   0  0  0  0  0  0  0  0  0  0  0  0
  134.6389  135.8080  161.5842 H   0  0  0  0  0  0  0  0  0  0  0  0
  133.5201  133.7256  160.9028 H   0  0  0  0  0  0  0  0  0  0  0  0
  131.1468  133.7543  160.2558 H   0  0  0  0  0  0  0  0  0  0  0  0
  131.8677  129.9668  155.9499 H   0  0  0  0  0  0  0  0  0  0  0  0
  132.4066  128.6400  153.9509 H   0  0  0  0  0  0  0  0  0  0  0  0
  1  2  1  0
  1 28  1  0
  1 29  1  0
  2 27  2  0
  2  3  1  0
  3  4  2  0
  3 30  1  0
  4  5  1  0
  4 31  1  0
  5  6  1  0
  5 26  2  0
  6 24  1  0
  6  7  2  0
  7  8  1  0
  7 32  1  0
  8  9  1  0
  8 10  1  0
 10 11  1  0
 10 24  2  0
 11 12  1  0
 11 33  1  0
 12 17  1  0
 12 13  2  0
 13 14  1  0
 13 34  1  0
 14 15  2  0
 14 35  1  0
 15 16  1  0
 15 36  1  0
 16 17  2  0
 16 37  1  0
 17 18  1  0
 18 23  1  0
 18 19  2  0
 19 20  1  0
 19 38  1  0
 20 21  2  0
 20 39  1  0
 21 22  1  0
 21 40  1  0
 22 23  2  0
 22 41  1  0
 23 42  1  0
 24 25  1  0
 26 27  1  0
 26 43  1  0
 27 44  1  0
M  CHG  1  24   1
M  END
>  <DOCK_score>  (1) 
-56.329639

>  <SMILES>  (1) 
Nc1ccc(-c2c[nH]c(Nc3ccccc3-c3ccccc3)[nH+]2)cc1

$$$$
