Cn1nccc1[C@H](Cc1ccc(CBr)cc1)Nc1[nH]cc(-c2ccc([N+](=O)[O-])cc2)[nH+]1
     RDKit          3D

 53 56  0  0  1  0  0  0  0  0999 V2000
  127.3426  135.8356  162.3978 C   0  0  0  0  0  0  0  0  0  0  0  0
  127.2817  135.8233  160.9340 N   0  0  0  0  0  0  0  0  0  0  0  0
  126.1341  135.6119  160.1587 N   0  0  0  0  0  0  0  0  0  0  0  0
  126.4769  135.6686  158.8973 C   0  0  0  0  0  0  0  0  0  0  0  0
  127.8507  135.9224  158.8289 C   0  0  0  0  0  0  0  0  0  0  0  0
  128.3204  136.0160  160.0945 C   0  0  0  0  0  0  0  0  0  0  0  0
  129.7488  136.2816  160.4946 C   0  0  2  0  0  0  0  0  0  0  0  0
  129.9547  135.7976  161.4494 H   0  0  0  0  0  0  0  0  0  0  0  0
  129.9687  137.7897  160.6296 C   0  0  0  0  0  0  0  0  0  0  0  0
  131.3971  138.0554  161.0298 C   0  0  0  0  0  0  0  0  0  0  0  0
  132.3648  138.2349  160.0592 C   0  0  0  0  0  0  0  0  0  0  0  0
  133.6749  138.4795  160.4264 C   0  0  0  0  0  0  0  0  0  0  0  0
  134.0184  138.5386  161.7640 C   0  0  0  0  0  0  0  0  0  0  0  0
  135.4477  138.7989  162.1642 C   0  0  0  0  0  0  0  0  0  0  0  0
  135.7356  140.7355  162.3433 Br  0  0  0  0  0  0  0  0  0  0  0  0
  133.0499  138.3629  162.7347 C   0  0  0  0  0  0  0  0  0  0  0  0
  131.7395  138.1197  162.3676 C   0  0  0  0  0  0  0  0  0  0  0  0
  130.6503  135.7463  159.4714 N   0  0  0  0  0  0  0  0  0  0  0  0
  130.3741  134.5284  158.8742 C   0  0  0  0  0  0  0  0  0  0  0  0
  129.7115  133.4920  159.4565 N   0  0  0  0  0  0  0  0  0  0  0  0
  129.3514  133.4738  160.3570 H   0  0  0  0  0  0  0  0  0  0  0  0
  129.6471  132.4764  158.5339 C   0  0  0  0  0  0  0  0  0  0  0  0
  130.2717  132.9208  157.4152 C   0  0  0  0  0  0  0  0  0  0  0  0
  130.4474  132.1611  156.1534 C   0  0  0  0  0  0  0  0  0  0  0  0
  129.9114  132.6489  154.9629 C   0  0  0  0  0  0  0  0  0  0  0  0
  130.0833  131.9409  153.7906 C   0  0  0  0  0  0  0  0  0  0  0  0
  130.7757  130.7429  153.7983 C   0  0  0  0  0  0  0  0  0  0  0  0
  130.9511  129.9848  152.5390 N   0  0  0  0  0  0  0  0  0  0  0  0
  130.4862  130.4161  151.4987 O   0  0  0  0  0  0  0  0  0  0  0  0
  131.5601  128.9304  152.5427 O   0  0  0  0  0  0  0  0  0  0  0  0
  131.3049  130.2515  154.9778 C   0  0  0  0  0  0  0  0  0  0  0  0
  131.1443  130.9541  156.1549 C   0  0  0  0  0  0  0  0  0  0  0  0
  130.7027  134.1852  157.6526 N   0  0  0  0  0  0  0  0  0  0  0  0
  131.1796  134.7449  157.0201 H   0  0  0  0  0  0  0  0  0  0  0  0
  127.1696  136.8491  162.7598 H   0  0  0  0  0  0  0  0  0  0  0  0
  126.5777  135.1709  162.7989 H   0  0  0  0  0  0  0  0  0  0  0  0
  128.3260  135.4964  162.7233 H   0  0  0  0  0  0  0  0  0  0  0  0
  125.8136  135.5419  158.0546 H   0  0  0  0  0  0  0  0  0  0  0  0
  128.4336  136.0256  157.9256 H   0  0  0  0  0  0  0  0  0  0  0  0
  129.2980  138.1881  161.3909 H   0  0  0  0  0  0  0  0  0  0  0  0
  129.7628  138.2738  159.6749 H   0  0  0  0  0  0  0  0  0  0  0  0
  132.0973  138.1846  159.0141 H   0  0  0  0  0  0  0  0  0  0  0  0
  134.4310  138.6197  159.6680 H   0  0  0  0  0  0  0  0  0  0  0  0
  135.6527  138.3115  163.1173 H   0  0  0  0  0  0  0  0  0  0  0  0
  136.1168  138.4013  161.4012 H   0  0  0  0  0  0  0  0  0  0  0  0
  133.3174  138.4129  163.7799 H   0  0  0  0  0  0  0  0  0  0  0  0
  130.9834  137.9797  163.1259 H   0  0  0  0  0  0  0  0  0  0  0  0
  131.4406  136.2455  159.2123 H   0  0  0  0  0  0  0  0  0  0  0  0
  129.1869  131.5092  158.6727 H   0  0  0  0  0  0  0  0  0  0  0  0
  129.3666  133.5813  154.9567 H   0  0  0  0  0  0  0  0  0  0  0  0
  129.6722  132.3200  152.8668 H   0  0  0  0  0  0  0  0  0  0  0  0
  131.8445  129.3161  154.9778 H   0  0  0  0  0  0  0  0  0  0  0  0
  131.5583  130.5695  157.0751 H   0  0  0  0  0  0  0  0  0  0  0  0
  1  2  1  0
  1 35  1  0
  1 36  1  0
  1 37  1  0
  2  6  1  0
  2  3  1  0
  3  4  2  0
  4  5  1  0
  4 38  1  0
  5  6  2  0
  5 39  1  0
  6  7  1  0
  7  8  1  1
  7  9  1  0
  7 18  1  0
  9 10  1  0
  9 40  1  0
  9 41  1  0
 10 17  1  0
 10 11  2  0
 11 12  1  0
 11 42  1  0
 12 13  2  0
 12 43  1  0
 13 14  1  0
 13 16  1  0
 14 15  1  0
 14 44  1  0
 14 45  1  0
 16 17  2  0
 16 46  1  0
 17 47  1  0
 18 48  1  0
 19 18  1  0
 19 33  2  0
 19 20  1  0
 20 21  1  0
 20 22  1  0
 22 23  2  0
 22 49  1  0
 23 24  1  0
 23 33  1  0
 24 32  1  0
 24 25  2  0
 25 26  1  0
 25 50  1  0
 26 27  2  0
 26 51  1  0
 27 28  1  0
 27 31  1  0
 28 29  2  0
 28 30  1  0
 31 32  2  0
 31 52  1  0
 32 53  1  0
 33 34  1  0
M  CHG  3  28   1  30  -1  33   1
M  END
>  <DOCK_score>  (1) 
-55.95887

>  <SMILES>  (1) 
Cn1nccc1[C@H](Cc1ccc(CBr)cc1)Nc1[nH]cc(-c2ccc([N+](=O)[O-])cc2)[nH+]1

$$$$
