COc1cccc(C2=CC[C@H](Nc3[nH]cc(-c4ccc(N)cc4)[nH+]3)C2)c1
     RDKit          3D

 49 52  0  0  1  0  0  0  0  0999 V2000
  131.1294  140.1033  164.3483 C   0  0  0  0  0  0  0  0  0  0  0  0
  132.0328  140.7033  163.4178 O   0  0  0  0  0  0  0  0  0  0  0  0
  132.3172  139.9981  162.2914 C   0  0  0  0  0  0  0  0  0  0  0  0
  133.1870  140.5231  161.3450 C   0  0  0  0  0  0  0  0  0  0  0  0
  133.4800  139.8100  160.1977 C   0  0  0  0  0  0  0  0  0  0  0  0
  132.9135  138.5690  159.9879 C   0  0  0  0  0  0  0  0  0  0  0  0
  132.0334  138.0362  160.9305 C   0  0  0  0  0  0  0  0  0  0  0  0
  131.4199  136.7101  160.7060 C   0  0  0  0  0  0  0  0  0  0  0  0
  131.9440  135.5640  161.1040 C   0  0  0  0  0  0  0  0  0  0  0  0
  131.0593  134.4035  160.7117 C   0  0  0  0  0  0  0  0  0  0  0  0
  130.1090  134.9770  159.6357 C   0  0  2  0  0  0  0  0  0  0  0  0
  129.1093  134.5533  159.7309 H   0  0  0  0  0  0  0  0  0  0  0  0
  130.6444  134.7545  158.2903 N   0  0  0  0  0  0  0  0  0  0  0  0
  130.3240  133.5977  157.6004 C   0  0  0  0  0  0  0  0  0  0  0  0
  129.5315  132.5928  158.0627 N   0  0  0  0  0  0  0  0  0  0  0  0
  129.0932  132.5583  158.9275 H   0  0  0  0  0  0  0  0  0  0  0  0
  129.4674  131.6354  157.0783 C   0  0  0  0  0  0  0  0  0  0  0  0
  130.2220  132.0833  156.0446 C   0  0  0  0  0  0  0  0  0  0  0  0
  130.4470  131.3788  154.7585 C   0  0  0  0  0  0  0  0  0  0  0  0
  130.0639  131.9764  153.5588 C   0  0  0  0  0  0  0  0  0  0  0  0
  130.2692  131.3173  152.3651 C   0  0  0  0  0  0  0  0  0  0  0  0
  130.8679  130.0627  152.3568 C   0  0  0  0  0  0  0  0  0  0  0  0
  131.0802  129.3993  151.1459 N   0  0  0  0  0  0  0  0  0  0  0  0
  131.2508  129.4654  153.5514 C   0  0  0  0  0  0  0  0  0  0  0  0
  131.0422  130.1182  154.7480 C   0  0  0  0  0  0  0  0  0  0  0  0
  130.7393  133.2869  156.3965 N   0  0  0  0  0  0  0  0  0  0  0  0
  131.3216  133.8319  155.8444 H   0  0  0  0  0  0  0  0  0  0  0  0
  130.1090  136.4817  159.9900 C   0  0  0  0  0  0  0  0  0  0  0  0
  131.7389  138.7567  162.0879 C   0  0  0  0  0  0  0  0  0  0  0  0
  130.9893  140.7691  165.1998 H   0  0  0  0  0  0  0  0  0  0  0  0
  130.1697  139.9286  163.8619 H   0  0  0  0  0  0  0  0  0  0  0  0
  131.5401  139.1542  164.6929 H   0  0  0  0  0  0  0  0  0  0  0  0
  133.6364  141.4918  161.5060 H   0  0  0  0  0  0  0  0  0  0  0  0
  134.1580  140.2230  159.4655 H   0  0  0  0  0  0  0  0  0  0  0  0
  133.1481  138.0124  159.0926 H   0  0  0  0  0  0  0  0  0  0  0  0
  132.8783  135.4696  161.6376 H   0  0  0  0  0  0  0  0  0  0  0  0
  130.4901  134.0524  161.5724 H   0  0  0  0  0  0  0  0  0  0  0  0
  131.6584  133.5933  160.2959 H   0  0  0  0  0  0  0  0  0  0  0  0
  131.2232  135.4177  157.8828 H   0  0  0  0  0  0  0  0  0  0  0  0
  128.9212  130.7047  157.1203 H   0  0  0  0  0  0  0  0  0  0  0  0
  129.6026  132.9529  153.5646 H   0  0  0  0  0  0  0  0  0  0  0  0
  129.9684  131.7780  151.4357 H   0  0  0  0  0  0  0  0  0  0  0  0
  131.4944  128.5227  151.1391 H   0  0  0  0  0  0  0  0  0  0  0  0
  130.8134  129.8163  150.3112 H   0  0  0  0  0  0  0  0  0  0  0  0
  131.7115  128.4886  153.5430 H   0  0  0  0  0  0  0  0  0  0  0  0
  131.3394  129.6532  155.6763 H   0  0  0  0  0  0  0  0  0  0  0  0
  130.0617  137.0850  159.0834 H   0  0  0  0  0  0  0  0  0  0  0  0
  129.2718  136.7168  160.6472 H   0  0  0  0  0  0  0  0  0  0  0  0
  131.0621  138.3472  162.8233 H   0  0  0  0  0  0  0  0  0  0  0  0
  1  2  1  0
  1 30  1  0
  1 31  1  0
  1 32  1  0
  2  3  1  0
  3 29  2  0
  3  4  1  0
  4  5  2  0
  4 33  1  0
  5  6  1  0
  5 34  1  0
  6  7  2  0
  6 35  1  0
  7  8  1  0
  7 29  1  0
  8 28  1  0
  8  9  2  0
  9 10  1  0
  9 36  1  0
 10 11  1  0
 10 37  1  0
 10 38  1  0
 11 12  1  6
 11 13  1  0
 11 28  1  0
 13 39  1  0
 14 13  1  0
 14 26  2  0
 14 15  1  0
 15 16  1  0
 15 17  1  0
 17 18  2  0
 17 40  1  0
 18 19  1  0
 18 26  1  0
 19 25  1  0
 19 20  2  0
 20 21  1  0
 20 41  1  0
 21 22  2  0
 21 42  1  0
 22 23  1  0
 22 24  1  0
 23 43  1  0
 23 44  1  0
 24 25  2  0
 24 45  1  0
 25 46  1  0
 26 27  1  0
 28 47  1  0
 28 48  1  0
 29 49  1  0
M  CHG  1  26   1
M  END
>  <DOCK_score>  (1) 
-56.565857

>  <SMILES>  (1) 
COc1cccc(C2=CC[C@H](Nc3[nH]cc(-c4ccc(N)cc4)[nH+]3)C2)c1

$$$$
