Brc1ccc(-c2c[nH]c(Nc3ccc(Nc4ccncc4)nc3)[nH+]2)cc1
     RDKit          3D

 42 45  0  0  1  0  0  0  0  0999 V2000
  131.1538  129.2657  151.6766 Br  0  0  0  0  0  0  0  0  0  0  0  0
  130.8389  130.2298  153.2727 C   0  0  0  0  0  0  0  0  0  0  0  0
  129.9708  131.3081  153.2671 C   0  0  0  0  0  0  0  0  0  0  0  0
  129.7375  132.0152  154.4289 C   0  0  0  0  0  0  0  0  0  0  0  0
  130.3775  131.6416  155.6094 C   0  0  0  0  0  0  0  0  0  0  0  0
  130.1303  132.3979  156.8614 C   0  0  0  0  0  0  0  0  0  0  0  0
  129.6138  131.8936  158.0096 C   0  0  0  0  0  0  0  0  0  0  0  0
  129.5554  132.9298  158.9093 N   0  0  0  0  0  0  0  0  0  0  0  0
  129.2304  132.8807  159.8219 H   0  0  0  0  0  0  0  0  0  0  0  0
  130.0385  134.0382  158.2840 C   0  0  0  0  0  0  0  0  0  0  0  0
  130.1500  135.2984  158.8476 N   0  0  0  0  0  0  0  0  0  0  0  0
  129.2490  135.7037  159.8406 C   0  0  0  0  0  0  0  0  0  0  0  0
  129.7082  136.0561  161.1089 C   0  0  0  0  0  0  0  0  0  0  0  0
  128.7833  136.4505  162.0580 C   0  0  0  0  0  0  0  0  0  0  0  0
  127.4348  136.4823  161.7186 C   0  0  0  0  0  0  0  0  0  0  0  0
  126.4945  136.8787  162.6677 N   0  0  0  0  0  0  0  0  0  0  0  0
  126.9062  137.2344  163.9497 C   0  0  0  0  0  0  0  0  0  0  0  0
  126.9907  136.2812  164.9643 C   0  0  0  0  0  0  0  0  0  0  0  0
  127.4072  136.6732  166.2191 C   0  0  0  0  0  0  0  0  0  0  0  0
  127.7140  137.9329  166.4672 N   0  0  0  0  0  0  0  0  0  0  0  0
  127.6420  138.8651  165.5356 C   0  0  0  0  0  0  0  0  0  0  0  0
  127.2393  138.5542  164.2538 C   0  0  0  0  0  0  0  0  0  0  0  0
  127.0351  136.1460  160.5024 N   0  0  0  0  0  0  0  0  0  0  0  0
  127.8893  135.7596  159.5739 C   0  0  0  0  0  0  0  0  0  0  0  0
  130.3757  133.7172  157.0585 N   0  0  0  0  0  0  0  0  0  0  0  0
  130.7441  134.3256  156.3988 H   0  0  0  0  0  0  0  0  0  0  0  0
  131.2548  130.5587  155.6084 C   0  0  0  0  0  0  0  0  0  0  0  0
  131.4771  129.8551  154.4420 C   0  0  0  0  0  0  0  0  0  0  0  0
  129.4754  131.5966  152.3517 H   0  0  0  0  0  0  0  0  0  0  0  0
  129.0598  132.8561  154.4237 H   0  0  0  0  0  0  0  0  0  0  0  0
  129.3072  130.8727  158.1833 H   0  0  0  0  0  0  0  0  0  0  0  0
  130.8519  135.9003  158.5547 H   0  0  0  0  0  0  0  0  0  0  0  0
  130.7617  136.0224  161.3445 H   0  0  0  0  0  0  0  0  0  0  0  0
  129.1039  136.7301  163.0508 H   0  0  0  0  0  0  0  0  0  0  0  0
  125.5531  136.9070  162.4353 H   0  0  0  0  0  0  0  0  0  0  0  0
  126.7369  135.2496  164.7691 H   0  0  0  0  0  0  0  0  0  0  0  0
  127.4792  135.9413  167.0098 H   0  0  0  0  0  0  0  0  0  0  0  0
  127.9016  139.8846  165.7802 H   0  0  0  0  0  0  0  0  0  0  0  0
  127.1824  139.3219  163.4964 H   0  0  0  0  0  0  0  0  0  0  0  0
  127.5257  135.4881  158.5939 H   0  0  0  0  0  0  0  0  0  0  0  0
  131.7568  130.2682  156.5193 H   0  0  0  0  0  0  0  0  0  0  0  0
  132.1539  129.0135  154.4411 H   0  0  0  0  0  0  0  0  0  0  0  0
  1  2  1  0
  2 28  2  0
  2  3  1  0
  3  4  2  0
  3 29  1  0
  4  5  1  0
  4 30  1  0
  5  6  1  0
  5 27  2  0
  6 25  1  0
  6  7  2  0
  7  8  1  0
  7 31  1  0
  8  9  1  0
  8 10  1  0
 10 11  1  0
 10 25  2  0
 11 12  1  0
 11 32  1  0
 12 24  1  0
 12 13  2  0
 13 14  1  0
 13 33  1  0
 14 15  2  0
 14 34  1  0
 15 16  1  0
 15 23  1  0
 16 17  1  0
 16 35  1  0
 17 22  1  0
 17 18  2  0
 18 19  1  0
 18 36  1  0
 19 20  2  0
 19 37  1  0
 20 21  1  0
 21 22  2  0
 21 38  1  0
 22 39  1  0
 23 24  2  0
 24 40  1  0
 25 26  1  0
 27 28  1  0
 27 41  1  0
 28 42  1  0
M  CHG  1  25   1
M  END
>  <DOCK_score>  (1) 
-52.465408

>  <SMILES>  (1) 
Brc1ccc(-c2c[nH]c(Nc3ccc(Nc4ccncc4)nc3)[nH+]2)cc1

$$$$
