Cc1cc(Nc2[nH]cc(-c3ccc(N)cc3)[nH+]2)ccc1O
     RDKit          3D

 38 40  0  0  1  0  0  0  0  0999 V2000
  128.9855  135.0846  162.8928 C   0  0  0  0  0  0  0  0  0  0  0  0
  128.6433  135.3347  161.4466 C   0  0  0  0  0  0  0  0  0  0  0  0
  129.5486  135.0070  160.4564 C   0  0  0  0  0  0  0  0  0  0  0  0
  129.2331  135.2375  159.1240 C   0  0  0  0  0  0  0  0  0  0  0  0
  130.1502  134.9060  158.1195 N   0  0  0  0  0  0  0  0  0  0  0  0
  130.1240  133.6452  157.5464 C   0  0  0  0  0  0  0  0  0  0  0  0
  129.7228  132.5013  158.1652 N   0  0  0  0  0  0  0  0  0  0  0  0
  129.4070  132.4225  159.0790 H   0  0  0  0  0  0  0  0  0  0  0  0
  129.8483  131.4781  157.2561 C   0  0  0  0  0  0  0  0  0  0  0  0
  130.3219  132.0264  156.1097 C   0  0  0  0  0  0  0  0  0  0  0  0
  130.6142  131.2993  154.8501 C   0  0  0  0  0  0  0  0  0  0  0  0
  129.9425  131.6381  153.6765 C   0  0  0  0  0  0  0  0  0  0  0  0
  130.2189  130.9639  152.5058 C   0  0  0  0  0  0  0  0  0  0  0  0
  131.1588  129.9408  152.4973 C   0  0  0  0  0  0  0  0  0  0  0  0
  131.4340  129.2552  151.3116 N   0  0  0  0  0  0  0  0  0  0  0  0
  131.8264  129.5974  153.6676 C   0  0  0  0  0  0  0  0  0  0  0  0
  131.5567  130.2723  154.8394 C   0  0  0  0  0  0  0  0  0  0  0  0
  130.4762  133.3578  156.3168 N   0  0  0  0  0  0  0  0  0  0  0  0
  130.7979  133.9955  155.6603 H   0  0  0  0  0  0  0  0  0  0  0  0
  128.0071  135.7975  158.7882 C   0  0  0  0  0  0  0  0  0  0  0  0
  127.1034  136.1246  159.7794 C   0  0  0  0  0  0  0  0  0  0  0  0
  127.4188  135.8937  161.1101 C   0  0  0  0  0  0  0  0  0  0  0  0
  126.5280  136.2157  162.0858 O   0  0  0  0  0  0  0  0  0  0  0  0
  129.4795  135.9638  163.3066 H   0  0  0  0  0  0  0  0  0  0  0  0
  128.0723  134.8837  163.4528 H   0  0  0  0  0  0  0  0  0  0  0  0
  129.6525  134.2256  162.9650 H   0  0  0  0  0  0  0  0  0  0  0  0
  130.4997  134.5674  160.7180 H   0  0  0  0  0  0  0  0  0  0  0  0
  130.8040  135.5591  157.8248 H   0  0  0  0  0  0  0  0  0  0  0  0
  129.6140  130.4371  157.4226 H   0  0  0  0  0  0  0  0  0  0  0  0
  129.2089  132.4307  153.6832 H   0  0  0  0  0  0  0  0  0  0  0  0
  129.7015  131.2286  151.5955 H   0  0  0  0  0  0  0  0  0  0  0  0
  132.0901  128.5409  151.3050 H   0  0  0  0  0  0  0  0  0  0  0  0
  130.9686  129.4938  150.4948 H   0  0  0  0  0  0  0  0  0  0  0  0
  132.5566  128.8017  153.6590 H   0  0  0  0  0  0  0  0  0  0  0  0
  132.0756  130.0056  155.7484 H   0  0  0  0  0  0  0  0  0  0  0  0
  127.7608  135.9769  157.7521 H   0  0  0  0  0  0  0  0  0  0  0  0
  126.1500  136.5598  159.5186 H   0  0  0  0  0  0  0  0  0  0  0  0
  125.7048  136.5996  161.7558 H   0  0  0  0  0  0  0  0  0  0  0  0
  1  2  1  0
  1 24  1  0
  1 25  1  0
  1 26  1  0
  2 22  2  0
  2  3  1  0
  3  4  2  0
  3 27  1  0
  4  5  1  0
  4 20  1  0
  5 28  1  0
  6  5  1  0
  6 18  2  0
  6  7  1  0
  7  8  1  0
  7  9  1  0
  9 10  2  0
  9 29  1  0
 10 11  1  0
 10 18  1  0
 11 17  1  0
 11 12  2  0
 12 13  1  0
 12 30  1  0
 13 14  2  0
 13 31  1  0
 14 15  1  0
 14 16  1  0
 15 32  1  0
 15 33  1  0
 16 17  2  0
 16 34  1  0
 17 35  1  0
 18 19  1  0
 20 21  2  0
 20 36  1  0
 21 22  1  0
 21 37  1  0
 22 23  1  0
 23 38  1  0
M  CHG  1  18   1
M  END
>  <DOCK_score>  (1) 
-50.282951

>  <SMILES>  (1) 
Cc1cc(Nc2[nH]cc(-c3ccc(N)cc3)[nH+]2)ccc1O

$$$$
