Nc1ccc(-c2c[nH]c(N[C@H](C3=CCC3)c3cccc(-c4ccc(N)cc4)c3Cl)[nH+]2)cc1
     RDKit          3D

 57 61  0  0  1  0  0  0  0  0999 V2000
  131.6043  129.5990  152.1133 N   0  0  0  0  0  0  0  0  0  0  0  0
  131.2461  130.2581  153.2916 C   0  0  0  0  0  0  0  0  0  0  0  0
  130.3866  131.3492  153.2425 C   0  0  0  0  0  0  0  0  0  0  0  0
  130.0316  132.0014  154.4045 C   0  0  0  0  0  0  0  0  0  0  0  0
  130.5355  131.5656  155.6290 C   0  0  0  0  0  0  0  0  0  0  0  0
  130.1551  132.2657  156.8805 C   0  0  0  0  0  0  0  0  0  0  0  0
  129.5125  131.7142  157.9395 C   0  0  0  0  0  0  0  0  0  0  0  0
  129.3608  132.7092  158.8760 N   0  0  0  0  0  0  0  0  0  0  0  0
  128.9368  132.6215  159.7440 H   0  0  0  0  0  0  0  0  0  0  0  0
  129.9157  133.8396  158.3604 C   0  0  0  0  0  0  0  0  0  0  0  0
  129.9712  135.0707  158.9911 N   0  0  0  0  0  0  0  0  0  0  0  0
  128.9225  135.4562  159.9386 C   0  0  2  0  0  0  0  0  0  0  0  0
  128.8941  134.7405  160.7602 H   0  0  0  0  0  0  0  0  0  0  0  0
  127.5896  135.4672  159.2356 C   0  0  0  0  0  0  0  0  0  0  0  0
  127.2409  135.7030  158.0075 C   0  0  0  0  0  0  0  0  0  0  0  0
  125.7804  135.4856  158.2616 C   0  0  0  0  0  0  0  0  0  0  0  0
  126.1898  135.2034  159.7010 C   0  0  0  0  0  0  0  0  0  0  0  0
  129.2159  136.8315  160.4805 C   0  0  0  0  0  0  0  0  0  0  0  0
  129.8949  137.7504  159.7008 C   0  0  0  0  0  0  0  0  0  0  0  0
  130.1627  139.0163  160.1895 C   0  0  0  0  0  0  0  0  0  0  0  0
  129.7633  139.3664  161.4636 C   0  0  0  0  0  0  0  0  0  0  0  0
  129.0840  138.4438  162.2565 C   0  0  0  0  0  0  0  0  0  0  0  0
  128.6528  138.8141  163.6266 C   0  0  0  0  0  0  0  0  0  0  0  0
  129.4992  138.5854  164.7104 C   0  0  0  0  0  0  0  0  0  0  0  0
  129.0985  138.9346  165.9823 C   0  0  0  0  0  0  0  0  0  0  0  0
  127.8469  139.5043  166.1861 C   0  0  0  0  0  0  0  0  0  0  0  0
  127.4407  139.8518  167.4754 N   0  0  0  0  0  0  0  0  0  0  0  0
  126.9993  139.7289  165.1072 C   0  0  0  0  0  0  0  0  0  0  0  0
  127.3983  139.3860  163.8328 C   0  0  0  0  0  0  0  0  0  0  0  0
  128.8114  137.1703  161.7568 C   0  0  0  0  0  0  0  0  0  0  0  0
  127.9661  136.0138  162.7374 Cl  0  0  0  0  0  0  0  0  0  0  0  0
  130.3842  133.5719  157.1657 N   0  0  0  0  0  0  0  0  0  0  0  0
  130.8263  134.2063  156.5800 H   0  0  0  0  0  0  0  0  0  0  0  0
  131.4020  130.4746  155.6752 C   0  0  0  0  0  0  0  0  0  0  0  0
  131.7494  129.8217  154.5114 C   0  0  0  0  0  0  0  0  0  0  0  0
  131.2532  129.9029  151.2616 H   0  0  0  0  0  0  0  0  0  0  0  0
  132.2042  128.8373  152.1466 H   0  0  0  0  0  0  0  0  0  0  0  0
  129.9966  131.6867  152.2936 H   0  0  0  0  0  0  0  0  0  0  0  0
  129.3633  132.8490  154.3659 H   0  0  0  0  0  0  0  0  0  0  0  0
  129.1828  130.6897  158.0298 H   0  0  0  0  0  0  0  0  0  0  0  0
  130.7023  135.6797  158.8026 H   0  0  0  0  0  0  0  0  0  0  0  0
  127.8017  135.9621  157.1216 H   0  0  0  0  0  0  0  0  0  0  0  0
  125.1738  136.3830  158.1405 H   0  0  0  0  0  0  0  0  0  0  0  0
  125.3675  134.6192  157.7448 H   0  0  0  0  0  0  0  0  0  0  0  0
  126.0165  134.1739  160.0144 H   0  0  0  0  0  0  0  0  0  0  0  0
  125.8181  135.9367  160.4165 H   0  0  0  0  0  0  0  0  0  0  0  0
  130.2137  137.4797  158.7050 H   0  0  0  0  0  0  0  0  0  0  0  0
  130.6893  139.7310  159.5745 H   0  0  0  0  0  0  0  0  0  0  0  0
  129.9767  140.3540  161.8452 H   0  0  0  0  0  0  0  0  0  0  0  0
  130.4697  138.1384  164.5532 H   0  0  0  0  0  0  0  0  0  0  0  0
  129.7553  138.7610  166.8219 H   0  0  0  0  0  0  0  0  0  0  0  0
  126.5677  140.2497  167.6182 H   0  0  0  0  0  0  0  0  0  0  0  0
  128.0316  139.6954  168.2286 H   0  0  0  0  0  0  0  0  0  0  0  0
  126.0276  140.1719  165.2675 H   0  0  0  0  0  0  0  0  0  0  0  0
  126.7396  139.5606  162.9950 H   0  0  0  0  0  0  0  0  0  0  0  0
  131.7972  130.1381  156.6223 H   0  0  0  0  0  0  0  0  0  0  0  0
  132.4171  128.9736  154.5473 H   0  0  0  0  0  0  0  0  0  0  0  0
  1  2  1  0
  1 36  1  0
  1 37  1  0
  2 35  2  0
  2  3  1  0
  3  4  2  0
  3 38  1  0
  4  5  1  0
  4 39  1  0
  5  6  1  0
  5 34  2  0
  6 32  1  0
  6  7  2  0
  7  8  1  0
  7 40  1  0
  8  9  1  0
  8 10  1  0
 10 11  1  0
 10 32  2  0
 11 12  1  0
 11 41  1  0
 12 13  1  1
 12 14  1  0
 12 18  1  0
 14 17  1  0
 14 15  2  0
 15 16  1  0
 15 42  1  0
 16 17  1  0
 16 43  1  0
 16 44  1  0
 17 45  1  0
 17 46  1  0
 18 30  1  0
 18 19  2  0
 19 20  1  0
 19 47  1  0
 20 21  2  0
 20 48  1  0
 21 22  1  0
 21 49  1  0
 22 23  1  0
 22 30  2  0
 23 29  1  0
 23 24  2  0
 24 25  1  0
 24 50  1  0
 25 26  2  0
 25 51  1  0
 26 27  1  0
 26 28  1  0
 27 52  1  0
 27 53  1  0
 28 29  2  0
 28 54  1  0
 29 55  1  0
 30 31  1  0
 32 33  1  0
 34 35  1  0
 34 56  1  0
 35 57  1  0
M  CHG  1  32   1
M  END
>  <DOCK_score>  (1) 
-57.645515

>  <SMILES>  (1) 
Nc1ccc(-c2c[nH]c(N[C@H](C3=CCC3)c3cccc(-c4ccc(N)cc4)c3Cl)[nH+]2)cc1

$$$$
