CC(Nc1[nH]cc(-c2ccc(N)cc2)[nH+]1)[C@@H](C)CCc1ccccc1
     RDKit          3D

 52 54  0  0  1  0  0  0  0  0999 V2000
  128.7104  136.6472  159.9595 C   0  0  0  0  0  0  0  0  0  0  0  0
  129.6478  135.4418  160.0543 C   0  0  1  0  0  0  0  0  0  0  0  0
  130.2639  135.1984  158.7476 N   0  0  0  0  0  0  0  0  0  0  0  0
  130.0702  133.9871  158.1058 C   0  0  0  0  0  0  0  0  0  0  0  0
  129.3377  132.9449  158.5842 N   0  0  0  0  0  0  0  0  0  0  0  0
  128.8613  132.9171  159.4287 H   0  0  0  0  0  0  0  0  0  0  0  0
  129.3945  131.9401  157.6476 C   0  0  0  0  0  0  0  0  0  0  0  0
  130.1670  132.3943  156.6300 C   0  0  0  0  0  0  0  0  0  0  0  0
  130.5131  131.6470  155.3959 C   0  0  0  0  0  0  0  0  0  0  0  0
  130.1451  132.1499  154.1490 C   0  0  0  0  0  0  0  0  0  0  0  0
  130.4730  131.4565  153.0031 C   0  0  0  0  0  0  0  0  0  0  0  0
  131.1592  130.2514  153.0912 C   0  0  0  0  0  0  0  0  0  0  0  0
  131.4848  129.5477  151.9292 N   0  0  0  0  0  0  0  0  0  0  0  0
  131.5227  129.7453  154.3337 C   0  0  0  0  0  0  0  0  0  0  0  0
  131.2019  130.4381  155.4820 C   0  0  0  0  0  0  0  0  0  0  0  0
  130.5669  133.6530  156.9396 N   0  0  0  0  0  0  0  0  0  0  0  0
  131.1310  134.2159  156.3865 H   0  0  0  0  0  0  0  0  0  0  0  0
  130.7395  135.7248  161.0883 C   0  0  1  0  0  0  0  0  0  0  0  0
  130.3045  136.2421  161.9434 H   0  0  0  0  0  0  0  0  0  0  0  0
  131.3576  134.4041  161.5516 C   0  0  0  0  0  0  0  0  0  0  0  0
  131.8233  136.6020  160.4587 C   0  0  0  0  0  0  0  0  0  0  0  0
  132.6283  137.2897  161.5632 C   0  0  0  0  0  0  0  0  0  0  0  0
  133.6958  138.1539  160.9431 C   0  0  0  0  0  0  0  0  0  0  0  0
  134.1201  139.2994  161.5900 C   0  0  0  0  0  0  0  0  0  0  0  0
  135.1028  140.0894  161.0233 C   0  0  0  0  0  0  0  0  0  0  0  0
  135.6540  139.7399  159.8056 C   0  0  0  0  0  0  0  0  0  0  0  0
  135.2258  138.5967  159.1554 C   0  0  0  0  0  0  0  0  0  0  0  0
  134.2468  137.8039  159.7245 C   0  0  0  0  0  0  0  0  0  0  0  0
  127.9326  136.4457  159.2229 H   0  0  0  0  0  0  0  0  0  0  0  0
  128.2519  136.8284  160.9317 H   0  0  0  0  0  0  0  0  0  0  0  0
  129.2788  137.5266  159.6563 H   0  0  0  0  0  0  0  0  0  0  0  0
  129.0794  134.5625  160.3573 H   0  0  0  0  0  0  0  0  0  0  0  0
  130.8076  135.8859  158.3322 H   0  0  0  0  0  0  0  0  0  0  0  0
  128.9192  130.9725  157.7123 H   0  0  0  0  0  0  0  0  0  0  0  0
  129.6073  133.0840  154.0804 H   0  0  0  0  0  0  0  0  0  0  0  0
  130.1919  131.8480  152.0366 H   0  0  0  0  0  0  0  0  0  0  0  0
  131.9641  128.7064  151.9900 H   0  0  0  0  0  0  0  0  0  0  0  0
  131.2316  129.8998  151.0618 H   0  0  0  0  0  0  0  0  0  0  0  0
  132.0562  128.8087  154.4000 H   0  0  0  0  0  0  0  0  0  0  0  0
  131.4845  130.0447  156.4474 H   0  0  0  0  0  0  0  0  0  0  0  0
  130.5854  133.7790  162.0002 H   0  0  0  0  0  0  0  0  0  0  0  0
  131.7925  133.8868  160.6965 H   0  0  0  0  0  0  0  0  0  0  0  0
  132.1353  134.6057  162.2883 H   0  0  0  0  0  0  0  0  0  0  0  0
  131.3572  137.3567  159.8251 H   0  0  0  0  0  0  0  0  0  0  0  0
  132.4879  135.9825  159.8566 H   0  0  0  0  0  0  0  0  0  0  0  0
  133.0942  136.5350  162.1967 H   0  0  0  0  0  0  0  0  0  0  0  0
  131.9634  137.9093  162.1652 H   0  0  0  0  0  0  0  0  0  0  0  0
  133.6864  139.5751  162.5399 H   0  0  0  0  0  0  0  0  0  0  0  0
  135.4369  140.9825  161.5306 H   0  0  0  0  0  0  0  0  0  0  0  0
  136.4184  140.3591  159.3600 H   0  0  0  0  0  0  0  0  0  0  0  0
  135.6561  138.3235  158.2032 H   0  0  0  0  0  0  0  0  0  0  0  0
  133.9122  136.9112  159.2169 H   0  0  0  0  0  0  0  0  0  0  0  0
  1  2  1  0
  1 29  1  0
  1 30  1  0
  1 31  1  0
  2  3  1  0
  2 18  1  0
  2 32  1  1
  3 33  1  0
  4  3  1  0
  4 16  2  0
  4  5  1  0
  5  6  1  0
  5  7  1  0
  7  8  2  0
  7 34  1  0
  8  9  1  0
  8 16  1  0
  9 15  1  0
  9 10  2  0
 10 11  1  0
 10 35  1  0
 11 12  2  0
 11 36  1  0
 12 13  1  0
 12 14  1  0
 13 37  1  0
 13 38  1  0
 14 15  2  0
 14 39  1  0
 15 40  1  0
 16 17  1  0
 18 19  1  1
 18 20  1  0
 18 21  1  0
 20 41  1  0
 20 42  1  0
 20 43  1  0
 21 22  1  0
 21 44  1  0
 21 45  1  0
 22 23  1  0
 22 46  1  0
 22 47  1  0
 23 28  1  0
 23 24  2  0
 24 25  1  0
 24 48  1  0
 25 26  2  0
 25 49  1  0
 26 27  1  0
 26 50  1  0
 27 28  2  0
 27 51  1  0
 28 52  1  0
M  CHG  1  16   1
M  END
>  <DOCK_score>  (1) 
-60.074249

>  <SMILES>  (1) 
CC(Nc1[nH]cc(-c2ccc(N)cc2)[nH+]1)[C@@H](C)CCc1ccccc1

$$$$
