Nc1ccc(-c2c[nH]c(Nc3ccc(Nc4cccc5cc[nH]c45)cc3)[nH+]2)cc1
     RDKit          3D

 50 54  0  0  1  0  0  0  0  0999 V2000
  131.0904  129.5748  151.9624 N   0  0  0  0  0  0  0  0  0  0  0  0
  130.8593  130.2431  153.1670 C   0  0  0  0  0  0  0  0  0  0  0  0
  129.9894  131.3262  153.2038 C   0  0  0  0  0  0  0  0  0  0  0  0
  129.7597  131.9874  154.3918 C   0  0  0  0  0  0  0  0  0  0  0  0
  130.4010  131.5687  155.5566 C   0  0  0  0  0  0  0  0  0  0  0  0
  130.1555  132.2784  156.8361 C   0  0  0  0  0  0  0  0  0  0  0  0
  129.6447  131.7312  157.9669 C   0  0  0  0  0  0  0  0  0  0  0  0
  129.5906  132.7335  158.9057 N   0  0  0  0  0  0  0  0  0  0  0  0
  129.2728  132.6495  159.8184 H   0  0  0  0  0  0  0  0  0  0  0  0
  130.0630  133.8663  158.3173 C   0  0  0  0  0  0  0  0  0  0  0  0
  130.1728  135.1058  158.9256 N   0  0  0  0  0  0  0  0  0  0  0  0
  129.2784  135.4697  159.9396 C   0  0  0  0  0  0  0  0  0  0  0  0
  129.6850  136.3362  160.9462 C   0  0  0  0  0  0  0  0  0  0  0  0
  128.8032  136.6946  161.9462 C   0  0  0  0  0  0  0  0  0  0  0  0
  127.5093  136.1893  161.9454 C   0  0  0  0  0  0  0  0  0  0  0  0
  126.6156  136.5523  162.9593 N   0  0  0  0  0  0  0  0  0  0  0  0
  127.0946  136.8592  164.2366 C   0  0  0  0  0  0  0  0  0  0  0  0
  127.2257  135.8627  165.1886 C   0  0  0  0  0  0  0  0  0  0  0  0
  127.7004  136.1579  166.4582 C   0  0  0  0  0  0  0  0  0  0  0  0
  128.0469  137.4372  166.7912 C   0  0  0  0  0  0  0  0  0  0  0  0
  127.9235  138.4607  165.8472 C   0  0  0  0  0  0  0  0  0  0  0  0
  128.1946  139.9000  165.8663 C   0  0  0  0  0  0  0  0  0  0  0  0
  127.8854  140.3743  164.6489 C   0  0  0  0  0  0  0  0  0  0  0  0
  127.4291  139.3582  163.8555 N   0  0  0  0  0  0  0  0  0  0  0  0
  127.1422  139.4563  162.9341 H   0  0  0  0  0  0  0  0  0  0  0  0
  127.4437  138.1730  164.5586 C   0  0  0  0  0  0  0  0  0  0  0  0
  127.1044  135.3191  160.9413 C   0  0  0  0  0  0  0  0  0  0  0  0
  127.9845  134.9648  159.9384 C   0  0  0  0  0  0  0  0  0  0  0  0
  130.4023  133.5892  157.0817 N   0  0  0  0  0  0  0  0  0  0  0  0
  130.7712  134.2208  156.4447 H   0  0  0  0  0  0  0  0  0  0  0  0
  131.2776  130.4856  155.5163 C   0  0  0  0  0  0  0  0  0  0  0  0
  131.4995  129.8235  154.3273 C   0  0  0  0  0  0  0  0  0  0  0  0
  130.6438  129.8667  151.1523 H   0  0  0  0  0  0  0  0  0  0  0  0
  131.6976  128.8187  151.9358 H   0  0  0  0  0  0  0  0  0  0  0  0
  129.4930  131.6506  152.3012 H   0  0  0  0  0  0  0  0  0  0  0  0
  129.0833  132.8288  154.4200 H   0  0  0  0  0  0  0  0  0  0  0  0
  129.3422  130.7036  158.1045 H   0  0  0  0  0  0  0  0  0  0  0  0
  130.8693  135.7217  158.6489 H   0  0  0  0  0  0  0  0  0  0  0  0
  130.6909  136.7290  160.9469 H   0  0  0  0  0  0  0  0  0  0  0  0
  129.1193  137.3683  162.7290 H   0  0  0  0  0  0  0  0  0  0  0  0
  125.6639  136.5909  162.7759 H   0  0  0  0  0  0  0  0  0  0  0  0
  126.9556  134.8467  164.9409 H   0  0  0  0  0  0  0  0  0  0  0  0
  127.7974  135.3695  167.1900 H   0  0  0  0  0  0  0  0  0  0  0  0
  128.4159  137.6569  167.7821 H   0  0  0  0  0  0  0  0  0  0  0  0
  128.5760  140.4707  166.7002 H   0  0  0  0  0  0  0  0  0  0  0  0
  127.9796  141.4057  164.3428 H   0  0  0  0  0  0  0  0  0  0  0  0
  126.0996  134.9226  160.9430 H   0  0  0  0  0  0  0  0  0  0  0  0
  127.6684  134.2914  159.1555 H   0  0  0  0  0  0  0  0  0  0  0  0
  131.7792  130.1625  156.4166 H   0  0  0  0  0  0  0  0  0  0  0  0
  132.1750  128.9813  154.2964 H   0  0  0  0  0  0  0  0  0  0  0  0
  1  2  1  0
  1 33  1  0
  1 34  1  0
  2 32  2  0
  2  3  1  0
  3  4  2  0
  3 35  1  0
  4  5  1  0
  4 36  1  0
  5  6  1  0
  5 31  2  0
  6 29  1  0
  6  7  2  0
  7  8  1  0
  7 37  1  0
  8  9  1  0
  8 10  1  0
 10 11  1  0
 10 29  2  0
 11 12  1  0
 11 38  1  0
 12 28  1  0
 12 13  2  0
 13 14  1  0
 13 39  1  0
 14 15  2  0
 14 40  1  0
 15 16  1  0
 15 27  1  0
 16 17  1  0
 16 41  1  0
 17 26  1  0
 17 18  2  0
 18 19  1  0
 18 42  1  0
 19 20  2  0
 19 43  1  0
 20 21  1  0
 20 44  1  0
 21 26  2  0
 21 22  1  0
 22 23  2  0
 22 45  1  0
 23 24  1  0
 23 46  1  0
 24 25  1  0
 24 26  1  0
 27 28  2  0
 27 47  1  0
 28 48  1  0
 29 30  1  0
 31 32  1  0
 31 49  1  0
 32 50  1  0
M  CHG  1  29   1
M  END
>  <DOCK_score>  (1) 
-52.974754

>  <SMILES>  (1) 
Nc1ccc(-c2c[nH]c(Nc3ccc(Nc4cccc5cc[nH]c45)cc3)[nH+]2)cc1

$$$$
