Clc1ccc([C@H](Nc2[nH]cc(-c3ccccc3)[nH+]2)c2ccccc2)cc1
     RDKit          3D

 45 48  0  0  1  0  0  0  0  0999 V2000
  131.0170  141.2435  161.8410 Cl  0  0  0  0  0  0  0  0  0  0  0  0
  130.6309  139.6168  161.3739 C   0  0  0  0  0  0  0  0  0  0  0  0
  130.5178  138.6288  162.3359 C   0  0  0  0  0  0  0  0  0  0  0  0
  130.2109  137.3337  161.9633 C   0  0  0  0  0  0  0  0  0  0  0  0
  130.0165  137.0255  160.6297 C   0  0  0  0  0  0  0  0  0  0  0  0
  129.6817  135.6132  160.2241 C   0  0  2  0  0  0  0  0  0  0  0  0
  130.1283  134.9160  160.9330 H   0  0  0  0  0  0  0  0  0  0  0  0
  130.2109  135.3518  158.8832 N   0  0  0  0  0  0  0  0  0  0  0  0
  130.0254  134.1123  158.2953 C   0  0  0  0  0  0  0  0  0  0  0  0
  129.3774  133.0567  158.8591 N   0  0  0  0  0  0  0  0  0  0  0  0
  128.9656  133.0376  159.7371 H   0  0  0  0  0  0  0  0  0  0  0  0
  129.4110  132.0241  157.9537 C   0  0  0  0  0  0  0  0  0  0  0  0
  130.0854  132.4752  156.8671 C   0  0  0  0  0  0  0  0  0  0  0  0
  130.3730  131.7013  155.6348 C   0  0  0  0  0  0  0  0  0  0  0  0
  129.8928  132.1431  154.4033 C   0  0  0  0  0  0  0  0  0  0  0  0
  130.1687  131.4223  153.2591 C   0  0  0  0  0  0  0  0  0  0  0  0
  130.9099  130.2568  153.3348 C   0  0  0  0  0  0  0  0  0  0  0  0
  131.3842  129.8105  154.5552 C   0  0  0  0  0  0  0  0  0  0  0  0
  131.1197  130.5265  155.7049 C   0  0  0  0  0  0  0  0  0  0  0  0
  130.4499  133.7599  157.1065 N   0  0  0  0  0  0  0  0  0  0  0  0
  130.9455  134.3272  156.4953 H   0  0  0  0  0  0  0  0  0  0  0  0
  128.1855  135.4337  160.2173 C   0  0  0  0  0  0  0  0  0  0  0  0
  127.5352  135.0078  161.3604 C   0  0  0  0  0  0  0  0  0  0  0  0
  126.1622  134.8473  161.3554 C   0  0  0  0  0  0  0  0  0  0  0  0
  125.4405  135.1040  160.2047 C   0  0  0  0  0  0  0  0  0  0  0  0
  126.0914  135.5249  159.0601 C   0  0  0  0  0  0  0  0  0  0  0  0
  127.4640  135.6895  159.0664 C   0  0  0  0  0  0  0  0  0  0  0  0
  130.1345  138.0112  159.6675 C   0  0  0  0  0  0  0  0  0  0  0  0
  130.4367  139.3076  160.0395 C   0  0  0  0  0  0  0  0  0  0  0  0
  130.6698  138.8694  163.3776 H   0  0  0  0  0  0  0  0  0  0  0  0
  130.1225  136.5624  162.7140 H   0  0  0  0  0  0  0  0  0  0  0  0
  130.6913  136.0473  158.4073 H   0  0  0  0  0  0  0  0  0  0  0  0
  128.9850  131.0402  158.0837 H   0  0  0  0  0  0  0  0  0  0  0  0
  129.3099  133.0504  154.3438 H   0  0  0  0  0  0  0  0  0  0  0  0
  129.8014  131.7665  152.3036 H   0  0  0  0  0  0  0  0  0  0  0  0
  131.1193  129.6933  152.4376 H   0  0  0  0  0  0  0  0  0  0  0  0
  131.9630  128.9002  154.6083 H   0  0  0  0  0  0  0  0  0  0  0  0
  131.4908  130.1773  156.6572 H   0  0  0  0  0  0  0  0  0  0  0  0
  128.0997  134.8037  162.2584 H   0  0  0  0  0  0  0  0  0  0  0  0
  125.6538  134.5189  162.2498 H   0  0  0  0  0  0  0  0  0  0  0  0
  124.3682  134.9761  160.2000 H   0  0  0  0  0  0  0  0  0  0  0  0
  125.5276  135.7254  158.1611 H   0  0  0  0  0  0  0  0  0  0  0  0
  127.9724  136.0182  158.1721 H   0  0  0  0  0  0  0  0  0  0  0  0
  129.9864  137.7688  158.6255 H   0  0  0  0  0  0  0  0  0  0  0  0
  130.5247  140.0783  159.2881 H   0  0  0  0  0  0  0  0  0  0  0  0
  1  2  1  0
  2 29  2  0
  2  3  1  0
  3  4  2  0
  3 30  1  0
  4  5  1  0
  4 31  1  0
  5  6  1  0
  5 28  2  0
  6  7  1  1
  6  8  1  0
  6 22  1  0
  8 32  1  0
  9  8  1  0
  9 20  2  0
  9 10  1  0
 10 11  1  0
 10 12  1  0
 12 13  2  0
 12 33  1  0
 13 14  1  0
 13 20  1  0
 14 19  1  0
 14 15  2  0
 15 16  1  0
 15 34  1  0
 16 17  2  0
 16 35  1  0
 17 18  1  0
 17 36  1  0
 18 19  2  0
 18 37  1  0
 19 38  1  0
 20 21  1  0
 22 27  1  0
 22 23  2  0
 23 24  1  0
 23 39  1  0
 24 25  2  0
 24 40  1  0
 25 26  1  0
 25 41  1  0
 26 27  2  0
 26 42  1  0
 27 43  1  0
 28 29  1  0
 28 44  1  0
 29 45  1  0
M  CHG  1  20   1
M  END
>  <DOCK_score>  (1) 
-58.328659

>  <SMILES>  (1) 
Clc1ccc([C@H](Nc2[nH]cc(-c3ccccc3)[nH+]2)c2ccccc2)cc1

$$$$
