O=C1CCC(NC(NC2CCCCCCCCC2)=[NH+][C@H]2COc3ccccc3C2)CN1
     RDKit          3D

 70 73  0  0  1  0  0  0  0  0999 V2000
  125.7991  136.8361  165.1879 O   0  0  0  0  0  0  0  0  0  0  0  0
  126.7209  136.9072  164.4030 C   0  0  0  0  0  0  0  0  0  0  0  0
  128.0572  137.3624  164.9153 C   0  0  0  0  0  0  0  0  0  0  0  0
  128.9417  137.8008  163.7456 C   0  0  0  0  0  0  0  0  0  0  0  0
  128.9008  136.7080  162.6707 C   0  0  2  0  0  0  0  0  0  0  0  0
  129.8711  137.0176  161.6176 N   0  0  0  0  0  0  0  0  0  0  0  0
  130.4712  135.9996  160.9150 C   0  0  0  0  0  0  0  0  0  0  0  0
  131.7402  136.1661  160.4127 N   0  0  0  0  0  0  0  0  0  0  0  0
  132.6913  137.0424  161.1011 C   0  0  0  0  0  0  0  0  0  0  0  0
  133.1236  138.1668  160.1579 C   0  0  0  0  0  0  0  0  0  0  0  0
  132.8534  139.5196  160.8197 C   0  0  0  0  0  0  0  0  0  0  0  0
  134.1803  140.2397  161.0684 C   0  0  0  0  0  0  0  0  0  0  0  0
  134.4012  140.3962  162.5742 C   0  0  0  0  0  0  0  0  0  0  0  0
  135.6278  139.5853  162.9967 C   0  0  0  0  0  0  0  0  0  0  0  0
  135.1957  138.4608  163.9399 C   0  0  0  0  0  0  0  0  0  0  0  0
  135.4657  137.1080  163.2781 C   0  0  0  0  0  0  0  0  0  0  0  0
  134.1389  136.3878  163.0294 C   0  0  0  0  0  0  0  0  0  0  0  0
  133.9179  136.2313  161.5235 C   0  0  0  0  0  0  0  0  0  0  0  0
  129.8371  134.8769  160.7250 N   0  0  0  0  0  0  0  0  0  0  0  0
  128.9418  134.7594  161.0794 H   0  0  0  0  0  0  0  0  0  0  0  0
  130.4767  133.7921  159.9763 C   0  0  1  0  0  0  0  0  0  0  0  0
  131.5572  133.8388  160.1118 H   0  0  0  0  0  0  0  0  0  0  0  0
  129.9510  132.4399  160.4747 C   0  0  0  0  0  0  0  0  0  0  0  0
  130.6654  131.4030  159.8006 O   0  0  0  0  0  0  0  0  0  0  0  0
  130.7652  131.4792  158.4478 C   0  0  0  0  0  0  0  0  0  0  0  0
  131.1304  130.3360  157.7437 C   0  0  0  0  0  0  0  0  0  0  0  0
  131.2572  130.3772  156.3704 C   0  0  0  0  0  0  0  0  0  0  0  0
  131.0261  131.5592  155.6908 C   0  0  0  0  0  0  0  0  0  0  0  0
  130.6667  132.6967  156.3869 C   0  0  0  0  0  0  0  0  0  0  0  0
  130.5369  132.6611  157.7654 C   0  0  0  0  0  0  0  0  0  0  0  0
  130.1372  133.9217  158.4893 C   0  0  0  0  0  0  0  0  0  0  0  0
  127.4940  136.6568  162.0730 C   0  0  0  0  0  0  0  0  0  0  0  0
  126.4936  136.5776  163.1310 N   0  0  0  0  0  0  0  0  0  0  0  0
  128.5399  136.5418  165.4464 H   0  0  0  0  0  0  0  0  0  0  0  0
  127.9170  138.2008  165.5976 H   0  0  0  0  0  0  0  0  0  0  0  0
  129.9664  137.9372  164.0914 H   0  0  0  0  0  0  0  0  0  0  0  0
  128.5658  138.7367  163.3321 H   0  0  0  0  0  0  0  0  0  0  0  0
  129.1428  135.7445  163.1192 H   0  0  0  0  0  0  0  0  0  0  0  0
  130.0902  137.9409  161.4163 H   0  0  0  0  0  0  0  0  0  0  0  0
  132.0055  135.7034  159.6025 H   0  0  0  0  0  0  0  0  0  0  0  0
  132.2172  137.4707  161.9840 H   0  0  0  0  0  0  0  0  0  0  0  0
  134.1883  138.0729  159.9444 H   0  0  0  0  0  0  0  0  0  0  0  0
  132.5591  138.0982  159.2279 H   0  0  0  0  0  0  0  0  0  0  0  0
  132.3411  139.3638  161.7691 H   0  0  0  0  0  0  0  0  0  0  0  0
  132.2280  140.1261  160.1646 H   0  0  0  0  0  0  0  0  0  0  0  0
  134.1526  141.2240  160.6009 H   0  0  0  0  0  0  0  0  0  0  0  0
  134.9958  139.6568  160.6402 H   0  0  0  0  0  0  0  0  0  0  0  0
  133.5238  140.0337  163.1097 H   0  0  0  0  0  0  0  0  0  0  0  0
  134.5622  141.4481  162.8104 H   0  0  0  0  0  0  0  0  0  0  0  0
  136.3356  140.2371  163.5089 H   0  0  0  0  0  0  0  0  0  0  0  0
  136.1020  139.1568  162.1138 H   0  0  0  0  0  0  0  0  0  0  0  0
  134.1309  138.5546  164.1534 H   0  0  0  0  0  0  0  0  0  0  0  0
  135.7601  138.5294  164.8699 H   0  0  0  0  0  0  0  0  0  0  0  0
  136.0911  136.5014  163.9332 H   0  0  0  0  0  0  0  0  0  0  0  0
  135.9781  137.2638  162.3287 H   0  0  0  0  0  0  0  0  0  0  0  0
  133.3234  136.9707  163.4576 H   0  0  0  0  0  0  0  0  0  0  0  0
  134.1664  135.4036  163.4968 H   0  0  0  0  0  0  0  0  0  0  0  0
  133.7571  135.1795  161.2874 H   0  0  0  0  0  0  0  0  0  0  0  0
  134.7954  136.5939  160.9880 H   0  0  0  0  0  0  0  0  0  0  0  0
  130.1115  132.3572  161.5497 H   0  0  0  0  0  0  0  0  0  0  0  0
  128.8869  132.3559  160.2543 H   0  0  0  0  0  0  0  0  0  0  0  0
  131.3109  129.4122  158.2734 H   0  0  0  0  0  0  0  0  0  0  0  0
  131.5370  129.4871  155.8266 H   0  0  0  0  0  0  0  0  0  0  0  0
  131.1270  131.5930  154.6161 H   0  0  0  0  0  0  0  0  0  0  0  0
  130.4863  133.6185  155.8538 H   0  0  0  0  0  0  0  0  0  0  0  0
  130.6767  134.7693  158.0667 H   0  0  0  0  0  0  0  0  0  0  0  0
  129.0651  134.0813  158.3746 H   0  0  0  0  0  0  0  0  0  0  0  0
  127.3204  137.5565  161.4826 H   0  0  0  0  0  0  0  0  0  0  0  0
  127.4088  135.7834  161.4266 H   0  0  0  0  0  0  0  0  0  0  0  0
  125.6071  136.2627  162.8943 H   0  0  0  0  0  0  0  0  0  0  0  0
  1  2  2  0
  2 33  1  0
  2  3  1  0
  3  4  1  0
  3 34  1  0
  3 35  1  0
  4  5  1  0
  4 36  1  0
  4 37  1  0
  5  6  1  0
  5 32  1  0
  5 38  1  1
  6 39  1  0
  7  6  1  0
  7  8  1  0
  7 19  2  0
  8  9  1  0
  8 40  1  0
  9 18  1  0
  9 10  1  0
  9 41  1  0
 10 11  1  0
 10 42  1  0
 10 43  1  0
 11 12  1  0
 11 44  1  0
 11 45  1  0
 12 13  1  0
 12 46  1  0
 12 47  1  0
 13 14  1  0
 13 48  1  0
 13 49  1  0
 14 15  1  0
 14 50  1  0
 14 51  1  0
 15 16  1  0
 15 52  1  0
 15 53  1  0
 16 17  1  0
 16 54  1  0
 16 55  1  0
 17 18  1  0
 17 56  1  0
 17 57  1  0
 18 58  1  0
 18 59  1  0
 19 20  1  0
 19 21  1  0
 21 22  1  6
 21 31  1  0
 21 23  1  0
 23 24  1  0
 23 60  1  0
 23 61  1  0
 24 25  1  0
 25 30  2  0
 25 26  1  0
 26 27  2  0
 26 62  1  0
 27 28  1  0
 27 63  1  0
 28 29  2  0
 28 64  1  0
 29 30  1  0
 29 65  1  0
 30 31  1  0
 31 66  1  0
 31 67  1  0
 32 33  1  0
 32 68  1  0
 32 69  1  0
 33 70  1  0
M  CHG  1  19   1
M  END
>  <DOCK_score>  (1) 
-46.525364

>  <SMILES>  (1) 
O=C1CCC(NC(NC2CCCCCCCCC2)=[NH+][C@H]2COc3ccccc3C2)CN1

$$$$
