Oc1ccc2c(c1)C(Nc1[nH]cc(-c3ccc(NC4CC=CC4)cc3)[nH+]1)c1cc(O)ccc1-2
     RDKit          3D

 58 63  0  0  1  0  0  0  0  0999 V2000
  124.2249  134.8388  161.7195 O   0  0  0  0  0  0  0  0  0  0  0  0
  125.1747  134.0586  161.1397 C   0  0  0  0  0  0  0  0  0  0  0  0
  124.9163  132.7169  160.8944 C   0  0  0  0  0  0  0  0  0  0  0  0
  125.8764  131.9223  160.3057 C   0  0  0  0  0  0  0  0  0  0  0  0
  127.1140  132.4655  159.9542 C   0  0  0  0  0  0  0  0  0  0  0  0
  127.3663  133.8123  160.2038 C   0  0  0  0  0  0  0  0  0  0  0  0
  126.4019  134.6046  160.7873 C   0  0  0  0  0  0  0  0  0  0  0  0
  128.7659  134.1095  159.7235 C   0  0  0  0  0  0  0  0  0  0  0  0
  128.7338  135.1288  158.6718 N   0  0  0  0  0  0  0  0  0  0  0  0
  129.4045  136.3270  158.8486 C   0  0  0  0  0  0  0  0  0  0  0  0
  129.4561  137.3467  157.9491 N   0  0  0  0  0  0  0  0  0  0  0  0
  129.0333  137.3649  157.0764 H   0  0  0  0  0  0  0  0  0  0  0  0
  130.2151  138.3477  158.5075 C   0  0  0  0  0  0  0  0  0  0  0  0
  130.6120  137.9067  159.7268 C   0  0  0  0  0  0  0  0  0  0  0  0
  131.4574  138.6515  160.6919 C   0  0  0  0  0  0  0  0  0  0  0  0
  131.3012  138.4444  162.0615 C   0  0  0  0  0  0  0  0  0  0  0  0
  132.0907  139.1350  162.9566 C   0  0  0  0  0  0  0  0  0  0  0  0
  133.0351  140.0440  162.4945 C   0  0  0  0  0  0  0  0  0  0  0  0
  133.8303  140.7461  163.4034 N   0  0  0  0  0  0  0  0  0  0  0  0
  134.1798  140.1409  164.6910 C   0  0  0  0  0  0  0  0  0  0  0  0
  135.2192  141.0023  165.4452 C   0  0  0  0  0  0  0  0  0  0  0  0
  136.1303  140.0026  166.1188 C   0  0  0  0  0  0  0  0  0  0  0  0
  135.9904  138.8137  165.5981 C   0  0  0  0  0  0  0  0  0  0  0  0
  134.9628  138.8226  164.4904 C   0  0  0  0  0  0  0  0  0  0  0  0
  133.1892  140.2557  161.1296 C   0  0  0  0  0  0  0  0  0  0  0  0
  132.4049  139.5641  160.2307 C   0  0  0  0  0  0  0  0  0  0  0  0
  130.0991  136.6639  159.9079 N   0  0  0  0  0  0  0  0  0  0  0  0
  130.2261  136.1126  160.6959 H   0  0  0  0  0  0  0  0  0  0  0  0
  129.3020  132.8109  159.1723 C   0  0  0  0  0  0  0  0  0  0  0  0
  130.5119  132.4779  158.6036 C   0  0  0  0  0  0  0  0  0  0  0  0
  130.7426  131.1777  158.1736 C   0  0  0  0  0  0  0  0  0  0  0  0
  131.9357  130.8491  157.6123 O   0  0  0  0  0  0  0  0  0  0  0  0
  129.7538  130.2139  158.3171 C   0  0  0  0  0  0  0  0  0  0  0  0
  128.5421  130.5431  158.8854 C   0  0  0  0  0  0  0  0  0  0  0  0
  128.3053  131.8493  159.3194 C   0  0  0  0  0  0  0  0  0  0  0  0
  124.4951  135.7587  161.8459 H   0  0  0  0  0  0  0  0  0  0  0  0
  123.9599  132.2946  161.1652 H   0  0  0  0  0  0  0  0  0  0  0  0
  125.6715  130.8789  160.1164 H   0  0  0  0  0  0  0  0  0  0  0  0
  126.6017  135.6495  160.9740 H   0  0  0  0  0  0  0  0  0  0  0  0
  129.3840  134.4478  160.5550 H   0  0  0  0  0  0  0  0  0  0  0  0
  128.2429  134.9642  157.8517 H   0  0  0  0  0  0  0  0  0  0  0  0
  130.4530  139.3011  158.0593 H   0  0  0  0  0  0  0  0  0  0  0  0
  130.5648  137.7409  162.4212 H   0  0  0  0  0  0  0  0  0  0  0  0
  131.9725  138.9720  164.0177 H   0  0  0  0  0  0  0  0  0  0  0  0
  134.1511  141.6343  163.1819 H   0  0  0  0  0  0  0  0  0  0  0  0
  133.2899  139.9788  165.2990 H   0  0  0  0  0  0  0  0  0  0  0  0
  135.7831  141.6175  164.7440 H   0  0  0  0  0  0  0  0  0  0  0  0
  134.7259  141.6280  166.1890 H   0  0  0  0  0  0  0  0  0  0  0  0
  136.8080  140.2403  166.9255 H   0  0  0  0  0  0  0  0  0  0  0  0
  136.5371  137.9389  165.9173 H   0  0  0  0  0  0  0  0  0  0  0  0
  134.2952  137.9662  164.5850 H   0  0  0  0  0  0  0  0  0  0  0  0
  135.4536  138.8168  163.5171 H   0  0  0  0  0  0  0  0  0  0  0  0
  133.9234  140.9628  160.7727 H   0  0  0  0  0  0  0  0  0  0  0  0
  132.5250  139.7289  159.1700 H   0  0  0  0  0  0  0  0  0  0  0  0
  131.2809  133.2280  158.4921 H   0  0  0  0  0  0  0  0  0  0  0  0
  132.5595  131.5857  157.5548 H   0  0  0  0  0  0  0  0  0  0  0  0
  129.9345  129.2033  157.9819 H   0  0  0  0  0  0  0  0  0  0  0  0
  127.7754  129.7904  158.9956 H   0  0  0  0  0  0  0  0  0  0  0  0
  1  2  1  0
  1 36  1  0
  2  7  2  0
  2  3  1  0
  3  4  2  0
  3 37  1  0
  4  5  1  0
  4 38  1  0
  5 35  1  0
  5  6  2  0
  6  7  1  0
  6  8  1  0
  7 39  1  0
  8  9  1  0
  8 29  1  0
  8 40  1  0
  9 41  1  0
 10  9  1  0
 10 27  2  0
 10 11  1  0
 11 12  1  0
 11 13  1  0
 13 14  2  0
 13 42  1  0
 14 15  1  0
 14 27  1  0
 15 26  1  0
 15 16  2  0
 16 17  1  0
 16 43  1  0
 17 18  2  0
 17 44  1  0
 18 19  1  0
 18 25  1  0
 19 20  1  0
 19 45  1  0
 20 24  1  0
 20 21  1  0
 20 46  1  0
 21 22  1  0
 21 47  1  0
 21 48  1  0
 22 23  2  0
 22 49  1  0
 23 24  1  0
 23 50  1  0
 24 51  1  0
 24 52  1  0
 25 26  2  0
 25 53  1  0
 26 54  1  0
 27 28  1  0
 29 35  2  0
 29 30  1  0
 30 31  2  0
 30 55  1  0
 31 32  1  0
 31 33  1  0
 32 56  1  0
 33 34  2  0
 33 57  1  0
 34 35  1  0
 34 58  1  0
M  CHG  1  27   1
M  END
>  <DOCK_score>  (1) 
-44.615822

>  <SMILES>  (1) 
Oc1ccc2c(c1)C(Nc1[nH]cc(-c3ccc(NC4CC=CC4)cc3)[nH+]1)c1cc(O)ccc1-2

$$$$
