Cc1cccc(N2CC[NH+](C(c3ccccc3)c3ccccc3)CC2)c1N[C@H](C)C(C)n1cccn1
     RDKit          3D

 74 78  0  0  1  0  0  0  0  0999 V2000
  136.3050  137.7724  163.6880 C   0  0  0  0  0  0  0  0  0  0  0  0
  135.2263  136.7225  163.6171 C   0  0  0  0  0  0  0  0  0  0  0  0
  134.9327  135.9567  164.7302 C   0  0  0  0  0  0  0  0  0  0  0  0
  133.9436  134.9928  164.6699 C   0  0  0  0  0  0  0  0  0  0  0  0
  133.2423  134.7885  163.4954 C   0  0  0  0  0  0  0  0  0  0  0  0
  133.5306  135.5516  162.3745 C   0  0  0  0  0  0  0  0  0  0  0  0
  132.8222  135.3463  161.1843 N   0  0  0  0  0  0  0  0  0  0  0  0
  133.0652  133.9977  160.6528 C   0  0  0  0  0  0  0  0  0  0  0  0
  132.3226  133.8347  159.3246 C   0  0  0  0  0  0  0  0  0  0  0  0
  130.8846  134.0436  159.5385 N   0  0  0  0  0  0  0  0  0  0  0  0
  130.5437  133.3722  160.2101 H   0  0  0  0  0  0  0  0  0  0  0  0
  130.1702  133.8694  158.2669 C   0  0  0  0  0  0  0  0  0  0  0  0
  130.4033  132.4742  157.7469 C   0  0  0  0  0  0  0  0  0  0  0  0
  130.3959  132.2339  156.3856 C   0  0  0  0  0  0  0  0  0  0  0  0
  130.6145  130.9549  155.9085 C   0  0  0  0  0  0  0  0  0  0  0  0
  130.8301  129.9147  156.7930 C   0  0  0  0  0  0  0  0  0  0  0  0
  130.8325  130.1542  158.1544 C   0  0  0  0  0  0  0  0  0  0  0  0
  130.6190  131.4339  158.6313 C   0  0  0  0  0  0  0  0  0  0  0  0
  128.6947  134.0836  158.4861 C   0  0  0  0  0  0  0  0  0  0  0  0
  127.8827  133.0148  158.8165 C   0  0  0  0  0  0  0  0  0  0  0  0
  126.5301  133.2122  159.0224 C   0  0  0  0  0  0  0  0  0  0  0  0
  125.9877  134.4767  158.8876 C   0  0  0  0  0  0  0  0  0  0  0  0
  126.7989  135.5445  158.5520 C   0  0  0  0  0  0  0  0  0  0  0  0
  128.1524  135.3480  158.3513 C   0  0  0  0  0  0  0  0  0  0  0  0
  130.6557  135.4028  160.0462 C   0  0  0  0  0  0  0  0  0  0  0  0
  131.3842  135.5788  161.3803 C   0  0  0  0  0  0  0  0  0  0  0  0
  134.5324  136.5207  162.4341 C   0  0  0  0  0  0  0  0  0  0  0  0
  134.8323  137.2908  161.3038 N   0  0  0  0  0  0  0  0  0  0  0  0
  133.6573  138.0519  160.8586 C   0  0  2  0  0  0  0  0  0  0  0  0
  132.7666  137.4300  160.9478 H   0  0  0  0  0  0  0  0  0  0  0  0
  133.8437  138.4698  159.3986 C   0  0  0  0  0  0  0  0  0  0  0  0
  133.4977  139.2995  161.7298 C   0  0  1  0  0  0  0  0  0  0  0  0
  134.4646  140.3838  161.2499 C   0  0  0  0  0  0  0  0  0  0  0  0
  132.1219  139.7927  161.6290 N   0  0  0  0  0  0  0  0  0  0  0  0
  131.6179  140.8739  162.2599 C   0  0  0  0  0  0  0  0  0  0  0  0
  130.3174  140.9900  161.9042 C   0  0  0  0  0  0  0  0  0  0  0  0
  130.0165  139.9439  161.0260 C   0  0  0  0  0  0  0  0  0  0  0  0
  131.0989  139.2289  160.8557 N   0  0  0  0  0  0  0  0  0  0  0  0
  137.2541  137.3403  163.3710 H   0  0  0  0  0  0  0  0  0  0  0  0
  136.0469  138.6036  163.0317 H   0  0  0  0  0  0  0  0  0  0  0  0
  136.3943  138.1330  164.7129 H   0  0  0  0  0  0  0  0  0  0  0  0
  135.4763  136.1129  165.6504 H   0  0  0  0  0  0  0  0  0  0  0  0
  133.7178  134.3976  165.5423 H   0  0  0  0  0  0  0  0  0  0  0  0
  132.4699  134.0350  163.4516 H   0  0  0  0  0  0  0  0  0  0  0  0
  132.7039  133.2555  161.3648 H   0  0  0  0  0  0  0  0  0  0  0  0
  134.1340  133.8574  160.4914 H   0  0  0  0  0  0  0  0  0  0  0  0
  132.4900  132.8303  158.9356 H   0  0  0  0  0  0  0  0  0  0  0  0
  132.6937  134.5680  158.6086 H   0  0  0  0  0  0  0  0  0  0  0  0
  130.5387  134.5941  157.5409 H   0  0  0  0  0  0  0  0  0  0  0  0
  130.2229  133.0457  155.6948 H   0  0  0  0  0  0  0  0  0  0  0  0
  130.6124  130.7677  154.8448 H   0  0  0  0  0  0  0  0  0  0  0  0
  130.9966  128.9148  156.4203 H   0  0  0  0  0  0  0  0  0  0  0  0
  131.0006  129.3414  158.8454 H   0  0  0  0  0  0  0  0  0  0  0  0
  130.6205  131.6210  159.6950 H   0  0  0  0  0  0  0  0  0  0  0  0
  128.3056  132.0262  158.9174 H   0  0  0  0  0  0  0  0  0  0  0  0
  125.8963  132.3779  159.2841 H   0  0  0  0  0  0  0  0  0  0  0  0
  124.9302  134.6301  159.0440 H   0  0  0  0  0  0  0  0  0  0  0  0
  126.3750  136.5322  158.4464 H   0  0  0  0  0  0  0  0  0  0  0  0
  128.7861  136.1822  158.0889 H   0  0  0  0  0  0  0  0  0  0  0  0
  131.0353  136.1281  159.3264 H   0  0  0  0  0  0  0  0  0  0  0  0
  129.5871  135.5610  160.1921 H   0  0  0  0  0  0  0  0  0  0  0  0
  131.2269  136.5922  161.7496 H   0  0  0  0  0  0  0  0  0  0  0  0
  130.9953  134.8629  162.1042 H   0  0  0  0  0  0  0  0  0  0  0  0
  135.1932  136.7141  160.5587 H   0  0  0  0  0  0  0  0  0  0  0  0
  132.9718  139.0344  159.0683 H   0  0  0  0  0  0  0  0  0  0  0  0
  134.7344  139.0916  159.3095 H   0  0  0  0  0  0  0  0  0  0  0  0
  133.9574  137.5810  158.7780 H   0  0  0  0  0  0  0  0  0  0  0  0
  133.7187  139.0488  162.7672 H   0  0  0  0  0  0  0  0  0  0  0  0
  134.2437  140.6344  160.2125 H   0  0  0  0  0  0  0  0  0  0  0  0
  134.3509  141.2726  161.8707 H   0  0  0  0  0  0  0  0  0  0  0  0
  135.4883  140.0167  161.3250 H   0  0  0  0  0  0  0  0  0  0  0  0
  132.1561  141.5293  162.9286 H   0  0  0  0  0  0  0  0  0  0  0  0
  129.6329  141.7551  162.2394 H   0  0  0  0  0  0  0  0  0  0  0  0
  129.0575  139.7608  160.5642 H   0  0  0  0  0  0  0  0  0  0  0  0
  1  2  1  0
  1 39  1  0
  1 40  1  0
  1 41  1  0
  2 27  2  0
  2  3  1  0
  3  4  2  0
  3 42  1  0
  4  5  1  0
  4 43  1  0
  5  6  2  0
  5 44  1  0
  6  7  1  0
  6 27  1  0
  7 26  1  0
  7  8  1  0
  8  9  1  0
  8 45  1  0
  8 46  1  0
  9 10  1  0
  9 47  1  0
  9 48  1  0
 10 11  1  0
 10 12  1  0
 10 25  1  0
 12 13  1  0
 12 19  1  0
 12 49  1  0
 13 18  1  0
 13 14  2  0
 14 15  1  0
 14 50  1  0
 15 16  2  0
 15 51  1  0
 16 17  1  0
 16 52  1  0
 17 18  2  0
 17 53  1  0
 18 54  1  0
 19 24  1  0
 19 20  2  0
 20 21  1  0
 20 55  1  0
 21 22  2  0
 21 56  1  0
 22 23  1  0
 22 57  1  0
 23 24  2  0
 23 58  1  0
 24 59  1  0
 25 26  1  0
 25 60  1  0
 25 61  1  0
 26 62  1  0
 26 63  1  0
 27 28  1  0
 28 29  1  0
 28 64  1  0
 29 30  1  6
 29 31  1  0
 29 32  1  0
 31 65  1  0
 31 66  1  0
 31 67  1  0
 32 33  1  0
 32 34  1  0
 32 68  1  1
 33 69  1  0
 33 70  1  0
 33 71  1  0
 34 38  1  0
 34 35  1  0
 35 36  2  0
 35 72  1  0
 36 37  1  0
 36 73  1  0
 37 38  2  0
 37 74  1  0
M  CHG  1  10   1
M  END
>  <DOCK_score>  (1) 
-58.315414

>  <SMILES>  (1) 
Cc1cccc(N2CC[NH+](C(c3ccccc3)c3ccccc3)CC2)c1N[C@H](C)C(C)n1cccn1

$$$$
