CCN(c1c[nH]c(C[NH+]=C(NC2CCCCC2)NC2CCCCC2)n1)C1CCCCCC1
     RDKit          3D

 79 82  0  0  0  0  0  0  0  0999 V2000
  126.0626  142.0751  165.0341 C   0  0  0  0  0  0  0  0  0  0  0  0
  126.8699  140.9737  165.7240 C   0  0  0  0  0  0  0  0  0  0  0  0
  127.7518  140.3298  164.7474 N   0  0  0  0  0  0  0  0  0  0  0  0
  127.2997  139.2172  164.0191 C   0  0  0  0  0  0  0  0  0  0  0  0
  126.0806  138.6418  164.1211 C   0  0  0  0  0  0  0  0  0  0  0  0
  126.0645  137.5923  163.2337 N   0  0  0  0  0  0  0  0  0  0  0  0
  125.3257  136.9841  163.0750 H   0  0  0  0  0  0  0  0  0  0  0  0
  127.2686  137.5654  162.6253 C   0  0  0  0  0  0  0  0  0  0  0  0
  127.6970  136.5755  161.5728 C   0  0  0  0  0  0  0  0  0  0  0  0
  129.0704  136.8698  161.1559 N   0  0  0  0  0  0  0  0  0  0  0  0
  129.5500  137.6120  161.5558 H   0  0  0  0  0  0  0  0  0  0  0  0
  129.6475  136.1342  160.2480 C   0  0  0  0  0  0  0  0  0  0  0  0
  128.9676  135.0822  159.6813 N   0  0  0  0  0  0  0  0  0  0  0  0
  129.6163  134.2554  158.6606 C   0  0  0  0  0  0  0  0  0  0  0  0
  128.6497  133.1631  158.1989 C   0  0  0  0  0  0  0  0  0  0  0  0
  129.3273  132.2995  157.1330 C   0  0  0  0  0  0  0  0  0  0  0  0
  130.5828  131.6536  157.7223 C   0  0  0  0  0  0  0  0  0  0  0  0
  131.5496  132.7460  158.1839 C   0  0  0  0  0  0  0  0  0  0  0  0
  130.8720  133.6095  159.2499 C   0  0  0  0  0  0  0  0  0  0  0  0
  130.9362  136.4102  159.8567 N   0  0  0  0  0  0  0  0  0  0  0  0
  131.8759  137.0148  160.8043 C   0  0  0  0  0  0  0  0  0  0  0  0
  133.2301  137.2162  160.1215 C   0  0  0  0  0  0  0  0  0  0  0  0
  134.2114  137.8475  161.1111 C   0  0  0  0  0  0  0  0  0  0  0  0
  134.3818  136.9246  162.3195 C   0  0  0  0  0  0  0  0  0  0  0  0
  133.0275  136.7233  163.0023 C   0  0  0  0  0  0  0  0  0  0  0  0
  132.0462  136.0919  162.0126 C   0  0  0  0  0  0  0  0  0  0  0  0
  128.0002  138.5402  163.0941 N   0  0  0  0  0  0  0  0  0  0  0  0
  129.1052  140.8466  164.5301 C   0  0  0  0  0  0  0  0  0  0  0  0
  129.2239  141.3398  163.0734 C   0  0  0  0  0  0  0  0  0  0  0  0
  130.3760  142.3040  162.9875 C   0  0  0  0  0  0  0  0  0  0  0  0
  131.6879  141.6184  162.5604 C   0  0  0  0  0  0  0  0  0  0  0  0
  131.8997  140.2545  163.2451 C   0  0  0  0  0  0  0  0  0  0  0  0
  131.5250  140.2776  164.7022 C   0  0  0  0  0  0  0  0  0  0  0  0
  130.0657  139.7980  164.8405 C   0  0  0  0  0  0  0  0  0  0  0  0
  125.4631  141.6396  164.2347 H   0  0  0  0  0  0  0  0  0  0  0  0
  125.4065  142.5540  165.7608 H   0  0  0  0  0  0  0  0  0  0  0  0
  126.7433  142.8162  164.6151 H   0  0  0  0  0  0  0  0  0  0  0  0
  127.4695  141.4091  166.5233 H   0  0  0  0  0  0  0  0  0  0  0  0
  126.1892  140.2325  166.1429 H   0  0  0  0  0  0  0  0  0  0  0  0
  125.2756  138.9476  164.7729 H   0  0  0  0  0  0  0  0  0  0  0  0
  127.6499  135.5665  161.9823 H   0  0  0  0  0  0  0  0  0  0  0  0
  127.0323  136.6498  160.7121 H   0  0  0  0  0  0  0  0  0  0  0  0
  128.0583  134.8874  159.9572 H   0  0  0  0  0  0  0  0  0  0  0  0
  129.8933  134.8785  157.8103 H   0  0  0  0  0  0  0  0  0  0  0  0
  128.3727  132.5397  159.0492 H   0  0  0  0  0  0  0  0  0  0  0  0
  127.7552  133.6232  157.7791 H   0  0  0  0  0  0  0  0  0  0  0  0
  129.6042  132.9227  156.2827 H   0  0  0  0  0  0  0  0  0  0  0  0
  128.6386  131.5213  156.8041 H   0  0  0  0  0  0  0  0  0  0  0  0
  131.0656  131.0385  156.9629 H   0  0  0  0  0  0  0  0  0  0  0  0
  130.3059  131.0305  158.5726 H   0  0  0  0  0  0  0  0  0  0  0  0
  131.8264  133.3693  157.3337 H   0  0  0  0  0  0  0  0  0  0  0  0
  132.4440  132.2859  158.6039 H   0  0  0  0  0  0  0  0  0  0  0  0
  131.5606  134.3877  159.5788 H   0  0  0  0  0  0  0  0  0  0  0  0
  130.5950  132.9863  160.1002 H   0  0  0  0  0  0  0  0  0  0  0  0
  131.2234  136.2050  158.9533 H   0  0  0  0  0  0  0  0  0  0  0  0
  131.4888  137.9786  161.1349 H   0  0  0  0  0  0  0  0  0  0  0  0
  133.6172  136.2523  159.7908 H   0  0  0  0  0  0  0  0  0  0  0  0
  133.1088  137.8737  159.2606 H   0  0  0  0  0  0  0  0  0  0  0  0
  133.8245  138.8114  161.4418 H   0  0  0  0  0  0  0  0  0  0  0  0
  135.1762  137.9910  160.6246 H   0  0  0  0  0  0  0  0  0  0  0  0
  135.0809  137.3744  163.0245 H   0  0  0  0  0  0  0  0  0  0  0  0
  134.7688  135.9608  161.9888 H   0  0  0  0  0  0  0  0  0  0  0  0
  132.6404  137.6870  163.3330 H   0  0  0  0  0  0  0  0  0  0  0  0
  133.1488  136.0657  163.8632 H   0  0  0  0  0  0  0  0  0  0  0  0
  131.0814  135.9484  162.4992 H   0  0  0  0  0  0  0  0  0  0  0  0
  132.4333  135.1281  161.6820 H   0  0  0  0  0  0  0  0  0  0  0  0
  129.2730  141.6890  165.2013 H   0  0  0  0  0  0  0  0  0  0  0  0
  129.4062  140.4917  162.4135 H   0  0  0  0  0  0  0  0  0  0  0  0
  128.3025  141.8435  162.7813 H   0  0  0  0  0  0  0  0  0  0  0  0
  130.5217  142.7673  163.9633 H   0  0  0  0  0  0  0  0  0  0  0  0
  130.1322  143.0812  162.2632 H   0  0  0  0  0  0  0  0  0  0  0  0
  132.5238  142.2713  162.8114 H   0  0  0  0  0  0  0  0  0  0  0  0
  131.6701  141.4705  161.4805 H   0  0  0  0  0  0  0  0  0  0  0  0
  132.9492  139.9740  163.1552 H   0  0  0  0  0  0  0  0  0  0  0  0
  131.2906  139.5076  162.7361 H   0  0  0  0  0  0  0  0  0  0  0  0
  131.6147  141.2933  165.0873 H   0  0  0  0  0  0  0  0  0  0  0  0
  132.1836  139.6120  165.2602 H   0  0  0  0  0  0  0  0  0  0  0  0
  129.9007  139.4599  165.8635 H   0  0  0  0  0  0  0  0  0  0  0  0
  129.9051  138.9602  164.1620 H   0  0  0  0  0  0  0  0  0  0  0  0
  1  2  1  0
  1 35  1  0
  1 36  1  0
  1 37  1  0
  2  3  1  0
  2 38  1  0
  2 39  1  0
  3  4  1  0
  3 28  1  0
  4 27  1  0
  4  5  2  0
  5  6  1  0
  5 40  1  0
  6  7  1  0
  6  8  1  0
  8  9  1  0
  8 27  2  0
  9 10  1  0
  9 41  1  0
  9 42  1  0
 10 11  1  0
 10 12  2  0
 12 13  1  0
 12 20  1  0
 13 14  1  0
 13 43  1  0
 14 19  1  0
 14 15  1  0
 14 44  1  0
 15 16  1  0
 15 45  1  0
 15 46  1  0
 16 17  1  0
 16 47  1  0
 16 48  1  0
 17 18  1  0
 17 49  1  0
 17 50  1  0
 18 19  1  0
 18 51  1  0
 18 52  1  0
 19 53  1  0
 19 54  1  0
 20 21  1  0
 20 55  1  0
 21 26  1  0
 21 22  1  0
 21 56  1  0
 22 23  1  0
 22 57  1  0
 22 58  1  0
 23 24  1  0
 23 59  1  0
 23 60  1  0
 24 25  1  0
 24 61  1  0
 24 62  1  0
 25 26  1  0
 25 63  1  0
 25 64  1  0
 26 65  1  0
 26 66  1  0
 28 34  1  0
 28 29  1  0
 28 67  1  0
 29 30  1  0
 29 68  1  0
 29 69  1  0
 30 31  1  0
 30 70  1  0
 30 71  1  0
 31 32  1  0
 31 72  1  0
 31 73  1  0
 32 33  1  0
 32 74  1  0
 32 75  1  0
 33 34  1  0
 33 76  1  0
 33 77  1  0
 34 78  1  0
 34 79  1  0
M  CHG  1  10   1
M  END
>  <DOCK_score>  (1) 
-45.67815

>  <SMILES>  (1) 
CCN(c1c[nH]c(C[NH+]=C(NC2CCCCC2)NC2CCCCC2)n1)C1CCCCCC1

$$$$
