Cc1ccc(-c2ccc([C@@H]3CCCCCC3[NH2+]Cc3cn(-c4ccccc4Cl)nc3C)cc2)[nH]1
     RDKit          3D

 68 72  0  0  1  0  0  0  0  0999 V2000
  137.3246  140.5963  160.6046 C   0  0  0  0  0  0  0  0  0  0  0  0
  136.1046  139.8542  161.0854 C   0  0  0  0  0  0  0  0  0  0  0  0
  135.2637  140.2650  162.0592 C   0  0  0  0  0  0  0  0  0  0  0  0
  134.2593  139.2927  162.1940 C   0  0  0  0  0  0  0  0  0  0  0  0
  134.5275  138.3047  161.2950 C   0  0  0  0  0  0  0  0  0  0  0  0
  133.7316  137.0756  161.0893 C   0  0  0  0  0  0  0  0  0  0  0  0
  133.6842  136.4739  159.8310 C   0  0  0  0  0  0  0  0  0  0  0  0
  132.9393  135.3276  159.6457 C   0  0  0  0  0  0  0  0  0  0  0  0
  132.2402  134.7745  160.7038 C   0  0  0  0  0  0  0  0  0  0  0  0
  131.4286  133.5222  160.4939 C   0  0  2  0  0  0  0  0  0  0  0  0
  131.4066  132.9581  161.4264 H   0  0  0  0  0  0  0  0  0  0  0  0
  132.0910  132.6847  159.4338 C   0  0  0  0  0  0  0  0  0  0  0  0
  131.8931  131.1971  159.7900 C   0  0  0  0  0  0  0  0  0  0  0  0
  130.5741  130.7080  159.4169 C   0  0  0  0  0  0  0  0  0  0  0  0
  129.4419  131.4480  160.1608 C   0  0  0  0  0  0  0  0  0  0  0  0
  129.1996  132.7637  159.4718 C   0  0  0  0  0  0  0  0  0  0  0  0
  129.9883  133.9190  160.1173 C   0  0  2  0  0  0  0  0  0  0  0  0
  130.0382  135.0439  159.1739 N   0  0  0  0  0  0  0  0  0  0  0  0
  130.5059  135.8259  159.6072 H   0  0  0  0  0  0  0  0  0  0  0  0
  130.5438  134.7663  158.3460 H   0  0  0  0  0  0  0  0  0  0  0  0
  128.6710  135.4343  158.8047 C   0  0  0  0  0  0  0  0  0  0  0  0
  127.9157  135.8488  160.0411 C   0  0  0  0  0  0  0  0  0  0  0  0
  128.3770  136.6598  161.0213 C   0  0  0  0  0  0  0  0  0  0  0  0
  127.3995  136.7830  161.9474 N   0  0  0  0  0  0  0  0  0  0  0  0
  127.4702  137.5387  163.1264 C   0  0  0  0  0  0  0  0  0  0  0  0
  128.2610  138.6786  163.1756 C   0  0  0  0  0  0  0  0  0  0  0  0
  128.3242  139.4243  164.3365 C   0  0  0  0  0  0  0  0  0  0  0  0
  127.6102  139.0301  165.4534 C   0  0  0  0  0  0  0  0  0  0  0  0
  126.8261  137.8923  165.4104 C   0  0  0  0  0  0  0  0  0  0  0  0
  126.7536  137.1450  164.2496 C   0  0  0  0  0  0  0  0  0  0  0  0
  125.7681  135.7169  164.1954 Cl  0  0  0  0  0  0  0  0  0  0  0  0
  126.3034  136.0223  161.5202 N   0  0  0  0  0  0  0  0  0  0  0  0
  126.6114  135.4680  160.3752 C   0  0  0  0  0  0  0  0  0  0  0  0
  125.7170  134.5705  159.5595 C   0  0  0  0  0  0  0  0  0  0  0  0
  132.2784  135.3692  161.9524 C   0  0  0  0  0  0  0  0  0  0  0  0
  133.0242  136.5126  162.1525 C   0  0  0  0  0  0  0  0  0  0  0  0
  135.6630  138.6550  160.6107 N   0  0  0  0  0  0  0  0  0  0  0  0
  136.0824  138.1359  159.9067 H   0  0  0  0  0  0  0  0  0  0  0  0
  137.0461  141.2632  159.7886 H   0  0  0  0  0  0  0  0  0  0  0  0
  137.7415  141.1804  161.4251 H   0  0  0  0  0  0  0  0  0  0  0  0
  138.0689  139.8822  160.2522 H   0  0  0  0  0  0  0  0  0  0  0  0
  135.3462  141.1790  162.6286 H   0  0  0  0  0  0  0  0  0  0  0  0
  133.4293  139.3215  162.8844 H   0  0  0  0  0  0  0  0  0  0  0  0
  134.2296  136.9044  159.0042 H   0  0  0  0  0  0  0  0  0  0  0  0
  132.9014  134.8611  158.6723 H   0  0  0  0  0  0  0  0  0  0  0  0
  131.6360  132.8929  158.4653 H   0  0  0  0  0  0  0  0  0  0  0  0
  133.1553  132.9167  159.3958 H   0  0  0  0  0  0  0  0  0  0  0  0
  132.6483  130.6065  159.2714 H   0  0  0  0  0  0  0  0  0  0  0  0
  132.0237  131.0712  160.8648 H   0  0  0  0  0  0  0  0  0  0  0  0
  130.4387  130.8412  158.3436 H   0  0  0  0  0  0  0  0  0  0  0  0
  130.5126  129.6451  159.6508 H   0  0  0  0  0  0  0  0  0  0  0  0
  129.7360  131.6252  161.1953 H   0  0  0  0  0  0  0  0  0  0  0  0
  128.5326  130.8475  160.1334 H   0  0  0  0  0  0  0  0  0  0  0  0
  128.1353  132.9947  159.5169 H   0  0  0  0  0  0  0  0  0  0  0  0
  129.4967  132.6744  158.4269 H   0  0  0  0  0  0  0  0  0  0  0  0
  129.4656  134.2413  161.0179 H   0  0  0  0  0  0  0  0  0  0  0  0
  128.7080  136.2691  158.1047 H   0  0  0  0  0  0  0  0  0  0  0  0
  128.1659  134.5896  158.3364 H   0  0  0  0  0  0  0  0  0  0  0  0
  129.3507  137.1255  161.0571 H   0  0  0  0  0  0  0  0  0  0  0  0
  128.8226  138.9847  162.3053 H   0  0  0  0  0  0  0  0  0  0  0  0
  128.9354  140.3139  164.3734 H   0  0  0  0  0  0  0  0  0  0  0  0
  127.6652  139.6126  166.3612 H   0  0  0  0  0  0  0  0  0  0  0  0
  126.2695  137.5873  166.2842 H   0  0  0  0  0  0  0  0  0  0  0  0
  125.8687  133.5344  159.8620 H   0  0  0  0  0  0  0  0  0  0  0  0
  124.6760  134.8485  159.7240 H   0  0  0  0  0  0  0  0  0  0  0  0
  125.9596  134.6796  158.5025 H   0  0  0  0  0  0  0  0  0  0  0  0
  131.7271  134.9351  162.7731 H   0  0  0  0  0  0  0  0  0  0  0  0
  133.0568  136.9736  163.1287 H   0  0  0  0  0  0  0  0  0  0  0  0
  1  2  1  0
  1 39  1  0
  1 40  1  0
  1 41  1  0
  2 37  1  0
  2  3  2  0
  3  4  1  0
  3 42  1  0
  4  5  2  0
  4 43  1  0
  5  6  1  0
  5 37  1  0
  6 36  1  0
  6  7  2  0
  7  8  1  0
  7 44  1  0
  8  9  2  0
  8 45  1  0
  9 10  1  0
  9 35  1  0
 10 11  1  1
 10 17  1  0
 10 12  1  0
 12 13  1  0
 12 46  1  0
 12 47  1  0
 13 14  1  0
 13 48  1  0
 13 49  1  0
 14 15  1  0
 14 50  1  0
 14 51  1  0
 15 16  1  0
 15 52  1  0
 15 53  1  0
 16 17  1  0
 16 54  1  0
 16 55  1  0
 17 18  1  0
 17 56  1  1
 18 19  1  0
 18 20  1  0
 18 21  1  0
 21 22  1  0
 21 57  1  0
 21 58  1  0
 22 33  1  0
 22 23  2  0
 23 24  1  0
 23 59  1  0
 24 25  1  0
 24 32  1  0
 25 30  1  0
 25 26  2  0
 26 27  1  0
 26 60  1  0
 27 28  2  0
 27 61  1  0
 28 29  1  0
 28 62  1  0
 29 30  2  0
 29 63  1  0
 30 31  1  0
 32 33  2  0
 33 34  1  0
 34 64  1  0
 34 65  1  0
 34 66  1  0
 35 36  2  0
 35 67  1  0
 36 68  1  0
 37 38  1  0
M  CHG  1  18   1
M  END
>  <DOCK_score>  (1) 
-45.29285

>  <SMILES>  (1) 
Cc1ccc(-c2ccc([C@@H]3CCCCCC3[NH2+]Cc3cn(-c4ccccc4Cl)nc3C)cc2)[nH]1

$$$$
