Oc1cccc(-c2c[nH]c(N[C@@H](c3cccc(F)c3)c3cccc(Br)c3)[nH+]2)c1
     RDKit          3D

 46 49  0  0  1  0  0  0  0  0999 V2000
  130.0394  132.1060  151.8781 O   0  0  0  0  0  0  0  0  0  0  0  0
  130.4366  131.5805  153.0667 C   0  0  0  0  0  0  0  0  0  0  0  0
  131.1747  130.4048  153.0939 C   0  0  0  0  0  0  0  0  0  0  0  0
  131.5811  129.8669  154.3004 C   0  0  0  0  0  0  0  0  0  0  0  0
  131.2605  130.4988  155.4854 C   0  0  0  0  0  0  0  0  0  0  0  0
  130.5151  131.6765  155.4672 C   0  0  0  0  0  0  0  0  0  0  0  0
  130.1639  132.3542  156.7391 C   0  0  0  0  0  0  0  0  0  0  0  0
  129.4373  131.8220  157.7528 C   0  0  0  0  0  0  0  0  0  0  0  0
  129.3561  132.7820  158.7320 N   0  0  0  0  0  0  0  0  0  0  0  0
  128.9012  132.6962  159.5843 H   0  0  0  0  0  0  0  0  0  0  0  0
  130.0292  133.8767  158.2841 C   0  0  0  0  0  0  0  0  0  0  0  0
  130.1827  135.0670  158.9741 N   0  0  0  0  0  0  0  0  0  0  0  0
  129.5928  135.2230  160.3059 C   0  0  1  0  0  0  0  0  0  0  0  0
  130.0100  134.4732  160.9783 H   0  0  0  0  0  0  0  0  0  0  0  0
  129.9028  136.5997  160.8346 C   0  0  0  0  0  0  0  0  0  0  0  0
  130.0304  136.8046  162.1961 C   0  0  0  0  0  0  0  0  0  0  0  0
  130.3081  138.0681  162.6829 C   0  0  0  0  0  0  0  0  0  0  0  0
  130.4653  139.1271  161.8085 C   0  0  0  0  0  0  0  0  0  0  0  0
  130.3440  138.9219  160.4448 C   0  0  0  0  0  0  0  0  0  0  0  0
  130.4979  139.9560  159.5893 F   0  0  0  0  0  0  0  0  0  0  0  0
  130.0654  137.6556  159.9584 C   0  0  0  0  0  0  0  0  0  0  0  0
  128.0991  135.0432  160.2181 C   0  0  0  0  0  0  0  0  0  0  0  0
  127.3475  135.8849  159.4192 C   0  0  0  0  0  0  0  0  0  0  0  0
  125.9775  135.7206  159.3383 C   0  0  0  0  0  0  0  0  0  0  0  0
  125.3583  134.7137  160.0556 C   0  0  0  0  0  0  0  0  0  0  0  0
  126.1097  133.8721  160.8551 C   0  0  0  0  0  0  0  0  0  0  0  0
  125.2632  132.4958  161.8373 Br  0  0  0  0  0  0  0  0  0  0  0  0
  127.4816  134.0337  160.9318 C   0  0  0  0  0  0  0  0  0  0  0  0
  130.5131  133.6163  157.0941 N   0  0  0  0  0  0  0  0  0  0  0  0
  131.0367  134.2282  156.5536 H   0  0  0  0  0  0  0  0  0  0  0  0
  130.1056  132.2181  154.2508 C   0  0  0  0  0  0  0  0  0  0  0  0
  130.3172  131.5913  151.1080 H   0  0  0  0  0  0  0  0  0  0  0  0
  131.4320  129.9092  152.1695 H   0  0  0  0  0  0  0  0  0  0  0  0
  132.1550  128.9521  154.3163 H   0  0  0  0  0  0  0  0  0  0  0  0
  131.5835  130.0784  156.4264 H   0  0  0  0  0  0  0  0  0  0  0  0
  129.0082  130.8315  157.7857 H   0  0  0  0  0  0  0  0  0  0  0  0
  130.6807  135.7979  158.5757 H   0  0  0  0  0  0  0  0  0  0  0  0
  129.9076  135.9778  162.8800 H   0  0  0  0  0  0  0  0  0  0  0  0
  130.4026  138.2280  163.7467 H   0  0  0  0  0  0  0  0  0  0  0  0
  130.6822  140.1143  162.1892 H   0  0  0  0  0  0  0  0  0  0  0  0
  129.9705  137.4945  158.8946 H   0  0  0  0  0  0  0  0  0  0  0  0
  127.8310  136.6709  158.8579 H   0  0  0  0  0  0  0  0  0  0  0  0
  125.3907  136.3783  158.7141 H   0  0  0  0  0  0  0  0  0  0  0  0
  124.2880  134.5846  159.9919 H   0  0  0  0  0  0  0  0  0  0  0  0
  128.0694  133.3735  161.5523 H   0  0  0  0  0  0  0  0  0  0  0  0
  129.5319  133.1329  154.2311 H   0  0  0  0  0  0  0  0  0  0  0  0
  1  2  1  0
  1 32  1  0
  2 31  2  0
  2  3  1  0
  3  4  2  0
  3 33  1  0
  4  5  1  0
  4 34  1  0
  5  6  2  0
  5 35  1  0
  6  7  1  0
  6 31  1  0
  7 29  1  0
  7  8  2  0
  8  9  1  0
  8 36  1  0
  9 10  1  0
  9 11  1  0
 11 12  1  0
 11 29  2  0
 12 13  1  0
 12 37  1  0
 13 14  1  1
 13 15  1  0
 13 22  1  0
 15 21  1  0
 15 16  2  0
 16 17  1  0
 16 38  1  0
 17 18  2  0
 17 39  1  0
 18 19  1  0
 18 40  1  0
 19 20  1  0
 19 21  2  0
 21 41  1  0
 22 28  1  0
 22 23  2  0
 23 24  1  0
 23 42  1  0
 24 25  2  0
 24 43  1  0
 25 26  1  0
 25 44  1  0
 26 27  1  0
 26 28  2  0
 28 45  1  0
 29 30  1  0
 31 46  1  0
M  CHG  1  29   1
M  END
>  <DOCK_score>  (1) 
-58.597683

>  <SMILES>  (1) 
Oc1cccc(-c2c[nH]c(N[C@@H](c3cccc(F)c3)c3cccc(Br)c3)[nH+]2)c1

$$$$
