CCc1ccc(CNC(N[C@@H]2CCC(=O)NC2)=[NH+][C@H]2[C@@H]3CC=CC[C@@H]32)cc1
     RDKit          3D

 58 61  0  0  1  0  0  0  0  0999 V2000
  130.3149  141.5135  164.2180 C   0  0  0  0  0  0  0  0  0  0  0  0
  130.1097  141.8628  162.7427 C   0  0  0  0  0  0  0  0  0  0  0  0
  130.1401  140.6012  161.9188 C   0  0  0  0  0  0  0  0  0  0  0  0
  128.9706  139.9048  161.6776 C   0  0  0  0  0  0  0  0  0  0  0  0
  128.9976  138.7507  160.9172 C   0  0  0  0  0  0  0  0  0  0  0  0
  130.1951  138.2902  160.4023 C   0  0  0  0  0  0  0  0  0  0  0  0
  130.2246  137.0322  159.5732 C   0  0  0  0  0  0  0  0  0  0  0  0
  129.4123  136.0003  160.2225 N   0  0  0  0  0  0  0  0  0  0  0  0
  129.2894  134.7583  159.6458 C   0  0  0  0  0  0  0  0  0  0  0  0
  128.5271  133.7898  160.2551 N   0  0  0  0  0  0  0  0  0  0  0  0
  127.3730  134.1725  161.0724 C   0  0  2  0  0  0  0  0  0  0  0  0
  127.7025  134.8039  161.8976 H   0  0  0  0  0  0  0  0  0  0  0  0
  126.6927  132.9135  161.6236 C   0  0  0  0  0  0  0  0  0  0  0  0
  125.6093  133.3441  162.6155 C   0  0  0  0  0  0  0  0  0  0  0  0
  124.7527  134.4152  162.0034 C   0  0  0  0  0  0  0  0  0  0  0  0
  123.6709  134.6404  162.5032 O   0  0  0  0  0  0  0  0  0  0  0  0
  125.1179  135.1317  160.9396 N   0  0  0  0  0  0  0  0  0  0  0  0
  126.3659  134.9366  160.2122 C   0  0  0  0  0  0  0  0  0  0  0  0
  129.8952  134.4990  158.5213 N   0  0  0  0  0  0  0  0  0  0  0  0
  130.4329  135.1824  158.0913 H   0  0  0  0  0  0  0  0  0  0  0  0
  129.7640  133.1757  157.9067 C   0  0  1  0  0  0  0  0  0  0  0  0
  128.7480  132.8757  157.6499 H   0  0  0  0  0  0  0  0  0  0  0  0
  130.8914  132.7125  156.9818 C   0  0  2  0  0  0  0  0  0  0  0  0
  131.7322  133.3863  156.8171 H   0  0  0  0  0  0  0  0  0  0  0  0
  130.5021  131.8024  155.8060 C   0  0  0  0  0  0  0  0  0  0  0  0
  131.0203  130.4124  156.0831 C   0  0  0  0  0  0  0  0  0  0  0  0
  130.8790  129.8757  157.2696 C   0  0  0  0  0  0  0  0  0  0  0  0
  130.1949  130.6387  158.3773 C   0  0  0  0  0  0  0  0  0  0  0  0
  130.7247  132.0815  158.3763 C   0  0  2  0  0  0  0  0  0  0  0  0
  131.4538  132.3320  159.1469 H   0  0  0  0  0  0  0  0  0  0  0  0
  131.3654  138.9836  160.6481 C   0  0  0  0  0  0  0  0  0  0  0  0
  131.3384  140.1376  161.4086 C   0  0  0  0  0  0  0  0  0  0  0  0
  130.2930  142.4258  164.8139 H   0  0  0  0  0  0  0  0  0  0  0  0
  129.5192  140.8451  164.5472 H   0  0  0  0  0  0  0  0  0  0  0  0
  131.2789  141.0203  164.3440 H   0  0  0  0  0  0  0  0  0  0  0  0
  130.9055  142.5310  162.4135 H   0  0  0  0  0  0  0  0  0  0  0  0
  129.1459  142.3558  162.6167 H   0  0  0  0  0  0  0  0  0  0  0  0
  128.0351  140.2647  162.0797 H   0  0  0  0  0  0  0  0  0  0  0  0
  128.0833  138.2091  160.7251 H   0  0  0  0  0  0  0  0  0  0  0  0
  129.8223  137.2409  158.5818 H   0  0  0  0  0  0  0  0  0  0  0  0
  131.2525  136.6813  159.4818 H   0  0  0  0  0  0  0  0  0  0  0  0
  128.9613  136.1932  161.0595 H   0  0  0  0  0  0  0  0  0  0  0  0
  128.7534  132.8531  160.1439 H   0  0  0  0  0  0  0  0  0  0  0  0
  126.2399  132.3531  160.8056 H   0  0  0  0  0  0  0  0  0  0  0  0
  127.4290  132.2911  162.1318 H   0  0  0  0  0  0  0  0  0  0  0  0
  126.0793  133.7295  163.5202 H   0  0  0  0  0  0  0  0  0  0  0  0
  124.9886  132.4845  162.8679 H   0  0  0  0  0  0  0  0  0  0  0  0
  124.5154  135.8262  160.6306 H   0  0  0  0  0  0  0  0  0  0  0  0
  126.7831  135.9077  159.9459 H   0  0  0  0  0  0  0  0  0  0  0  0
  126.1676  134.3712  159.3016 H   0  0  0  0  0  0  0  0  0  0  0  0
  129.4169  131.7753  155.7076 H   0  0  0  0  0  0  0  0  0  0  0  0
  130.9465  132.1823  154.8862 H   0  0  0  0  0  0  0  0  0  0  0  0
  131.5114  129.8567  155.2981 H   0  0  0  0  0  0  0  0  0  0  0  0
  131.2543  128.8803  157.4563 H   0  0  0  0  0  0  0  0  0  0  0  0
  130.4149  130.1685  159.3358 H   0  0  0  0  0  0  0  0  0  0  0  0
  129.1176  130.6442  158.2109 H   0  0  0  0  0  0  0  0  0  0  0  0
  132.3010  138.6234  160.2465 H   0  0  0  0  0  0  0  0  0  0  0  0
  132.2527  140.6791  161.6010 H   0  0  0  0  0  0  0  0  0  0  0  0
  1  2  1  0
  1 33  1  0
  1 34  1  0
  1 35  1  0
  2  3  1  0
  2 36  1  0
  2 37  1  0
  3 32  2  0
  3  4  1  0
  4  5  2  0
  4 38  1  0
  5  6  1  0
  5 39  1  0
  6  7  1  0
  6 31  2  0
  7  8  1  0
  7 40  1  0
  7 41  1  0
  8 42  1  0
  9  8  1  0
  9 10  1  0
  9 19  2  0
 10 11  1  0
 10 43  1  0
 11 12  1  1
 11 18  1  0
 11 13  1  0
 13 14  1  0
 13 44  1  0
 13 45  1  0
 14 15  1  0
 14 46  1  0
 14 47  1  0
 15 16  2  0
 15 17  1  0
 17 18  1  0
 17 48  1  0
 18 49  1  0
 18 50  1  0
 19 20  1  0
 19 21  1  0
 21 22  1  6
 21 29  1  0
 21 23  1  0
 23 24  1  6
 23 29  1  0
 23 25  1  0
 25 26  1  0
 25 51  1  0
 25 52  1  0
 26 27  2  0
 26 53  1  0
 27 28  1  0
 27 54  1  0
 28 29  1  0
 28 55  1  0
 28 56  1  0
 29 30  1  1
 31 32  1  0
 31 57  1  0
 32 58  1  0
M  CHG  1  19   1
M  END
>  <DOCK_score>  (1) 
-49.663723

>  <SMILES>  (1) 
CCc1ccc(CNC(N[C@@H]2CCC(=O)NC2)=[NH+][C@H]2[C@@H]3CC=CC[C@@H]32)cc1

$$$$
