CCc1ccc(-c2ccc(-c3c[nH]c(N[C@@H]4c5ccccc5-c5ccc(O)cc54)[nH+]3)cc2)cc1
     RDKit          3D

 60 65  0  0  1  0  0  0  0  0999 V2000
  140.4438  137.3213  168.9012 C   0  0  0  0  0  0  0  0  0  0  0  0
  139.0119  137.2662  169.4377 C   0  0  0  0  0  0  0  0  0  0  0  0
  138.0546  137.0545  168.2932 C   0  0  0  0  0  0  0  0  0  0  0  0
  138.3659  137.5395  167.0357 C   0  0  0  0  0  0  0  0  0  0  0  0
  137.4953  137.3445  165.9829 C   0  0  0  0  0  0  0  0  0  0  0  0
  136.2952  136.6668  166.1910 C   0  0  0  0  0  0  0  0  0  0  0  0
  135.3530  136.4595  165.0646 C   0  0  0  0  0  0  0  0  0  0  0  0
  133.9820  136.3763  165.3096 C   0  0  0  0  0  0  0  0  0  0  0  0
  133.1058  136.1887  164.2634 C   0  0  0  0  0  0  0  0  0  0  0  0
  133.5902  136.0722  162.9604 C   0  0  0  0  0  0  0  0  0  0  0  0
  132.6478  135.8659  161.8349 C   0  0  0  0  0  0  0  0  0  0  0  0
  132.8249  136.2875  160.5575 C   0  0  0  0  0  0  0  0  0  0  0  0
  131.7200  135.8845  159.8481 N   0  0  0  0  0  0  0  0  0  0  0  0
  131.5560  136.0374  158.9045 H   0  0  0  0  0  0  0  0  0  0  0  0
  130.8948  135.2359  160.7149 C   0  0  0  0  0  0  0  0  0  0  0  0
  129.6686  134.6784  160.3963 N   0  0  0  0  0  0  0  0  0  0  0  0
  129.1834  133.5073  161.1308 C   0  0  2  0  0  0  0  0  0  0  0  0
  129.4182  133.6058  162.1906 H   0  0  0  0  0  0  0  0  0  0  0  0
  129.8068  132.2505  160.5750 C   0  0  0  0  0  0  0  0  0  0  0  0
  131.1153  131.8310  160.4745 C   0  0  0  0  0  0  0  0  0  0  0  0
  131.4086  130.6038  159.9071 C   0  0  0  0  0  0  0  0  0  0  0  0
  130.3891  129.7952  159.4374 C   0  0  0  0  0  0  0  0  0  0  0  0
  129.0761  130.2066  159.5322 C   0  0  0  0  0  0  0  0  0  0  0  0
  128.7726  131.4437  160.1041 C   0  0  0  0  0  0  0  0  0  0  0  0
  127.4730  132.1233  160.3296 C   0  0  0  0  0  0  0  0  0  0  0  0
  126.1660  131.7270  160.0364 C   0  0  0  0  0  0  0  0  0  0  0  0
  125.1081  132.5519  160.3513 C   0  0  0  0  0  0  0  0  0  0  0  0
  125.3360  133.7786  160.9605 C   0  0  0  0  0  0  0  0  0  0  0  0
  124.2901  134.5891  161.2690 O   0  0  0  0  0  0  0  0  0  0  0  0
  126.6335  134.1770  161.2539 C   0  0  0  0  0  0  0  0  0  0  0  0
  127.6940  133.3551  160.9406 C   0  0  0  0  0  0  0  0  0  0  0  0
  131.4526  135.2268  161.9010 N   0  0  0  0  0  0  0  0  0  0  0  0
  131.0719  134.8267  162.6983 H   0  0  0  0  0  0  0  0  0  0  0  0
  134.9615  136.1506  162.7167 C   0  0  0  0  0  0  0  0  0  0  0  0
  135.8368  136.3428  163.7625 C   0  0  0  0  0  0  0  0  0  0  0  0
  135.9842  136.1849  167.4614 C   0  0  0  0  0  0  0  0  0  0  0  0
  136.8652  136.3809  168.5055 C   0  0  0  0  0  0  0  0  0  0  0  0
  140.6798  136.3833  168.3988 H   0  0  0  0  0  0  0  0  0  0  0  0
  140.5352  138.1454  168.1938 H   0  0  0  0  0  0  0  0  0  0  0  0
  141.1362  137.4743  169.7290 H   0  0  0  0  0  0  0  0  0  0  0  0
  138.9204  136.4420  170.1452 H   0  0  0  0  0  0  0  0  0  0  0  0
  138.7758  138.2042  169.9401 H   0  0  0  0  0  0  0  0  0  0  0  0
  139.2940  138.0687  166.8767 H   0  0  0  0  0  0  0  0  0  0  0  0
  137.7413  137.7200  165.0005 H   0  0  0  0  0  0  0  0  0  0  0  0
  133.6073  136.4627  166.3188 H   0  0  0  0  0  0  0  0  0  0  0  0
  132.0442  136.1281  164.4523 H   0  0  0  0  0  0  0  0  0  0  0  0
  133.6733  136.8332  160.1719 H   0  0  0  0  0  0  0  0  0  0  0  0
  129.1306  135.0630  159.6868 H   0  0  0  0  0  0  0  0  0  0  0  0
  131.9128  132.4607  160.8405 H   0  0  0  0  0  0  0  0  0  0  0  0
  132.4350  130.2767  159.8303 H   0  0  0  0  0  0  0  0  0  0  0  0
  130.6222  128.8378  158.9951 H   0  0  0  0  0  0  0  0  0  0  0  0
  128.2832  129.5724  159.1640 H   0  0  0  0  0  0  0  0  0  0  0  0
  125.9847  130.7737  159.5624 H   0  0  0  0  0  0  0  0  0  0  0  0
  124.0984  132.2430  160.1240 H   0  0  0  0  0  0  0  0  0  0  0  0
  124.5477  135.4207  161.6900 H   0  0  0  0  0  0  0  0  0  0  0  0
  126.8114  135.1312  161.7274 H   0  0  0  0  0  0  0  0  0  0  0  0
  135.3366  136.0608  161.7080 H   0  0  0  0  0  0  0  0  0  0  0  0
  136.8985  136.4035  163.5738 H   0  0  0  0  0  0  0  0  0  0  0  0
  135.0559  135.6588  167.6283 H   0  0  0  0  0  0  0  0  0  0  0  0
  136.6253  136.0079  169.4902 H   0  0  0  0  0  0  0  0  0  0  0  0
  1  2  1  0
  1 38  1  0
  1 39  1  0
  1 40  1  0
  2  3  1  0
  2 41  1  0
  2 42  1  0
  3 37  2  0
  3  4  1  0
  4  5  2  0
  4 43  1  0
  5  6  1  0
  5 44  1  0
  6  7  1  0
  6 36  2  0
  7 35  1  0
  7  8  2  0
  8  9  1  0
  8 45  1  0
  9 10  2  0
  9 46  1  0
 10 11  1  0
 10 34  1  0
 11 32  1  0
 11 12  2  0
 12 13  1  0
 12 47  1  0
 13 14  1  0
 13 15  1  0
 15 16  1  0
 15 32  2  0
 16 17  1  0
 16 48  1  0
 17 18  1  1
 17 31  1  0
 17 19  1  0
 19 24  1  0
 19 20  2  0
 20 21  1  0
 20 49  1  0
 21 22  2  0
 21 50  1  0
 22 23  1  0
 22 51  1  0
 23 24  2  0
 23 52  1  0
 24 25  1  0
 25 31  2  0
 25 26  1  0
 26 27  2  0
 26 53  1  0
 27 28  1  0
 27 54  1  0
 28 29  1  0
 28 30  2  0
 29 55  1  0
 30 31  1  0
 30 56  1  0
 32 33  1  0
 34 35  2  0
 34 57  1  0
 35 58  1  0
 36 37  1  0
 36 59  1  0
 37 60  1  0
M  CHG  1  32   1
M  END
>  <DOCK_score>  (1) 
-48.002724

>  <SMILES>  (1) 
CCc1ccc(-c2ccc(-c3c[nH]c(N[C@@H]4c5ccccc5-c5ccc(O)cc54)[nH+]3)cc2)cc1

$$$$
