CC/C=C\C[C@H](Cc1cccs1)Nc1[nH]cc(-c2ccc(CC)cc2)[nH+]1
     RDKit          3D

 54 56  0  0  1  0  0  0  0  0999 V2000
  125.4106  133.2997  161.6710 C   0  0  0  0  0  0  0  0  0  0  0  0
  126.2707  134.4533  161.1508 C   0  0  0  0  0  0  0  0  0  0  0  0
  126.3921  134.3531  159.6520 C   0  0  0  0  0  0  0  0  0  0  0  0
  127.0889  135.2434  158.9904 C   0  0  0  0  0  0  0  0  0  0  0  0
  127.9070  136.2660  159.7362 C   0  0  0  0  0  0  0  0  0  0  0  0
  129.3149  135.7170  159.9754 C   0  0  2  0  0  0  0  0  0  0  0  0
  129.2528  134.8018  160.5642 H   0  0  0  0  0  0  0  0  0  0  0  0
  130.1454  136.7553  160.7324 C   0  0  0  0  0  0  0  0  0  0  0  0
  131.3187  136.0767  161.3911 C   0  0  0  0  0  0  0  0  0  0  0  0
  132.5161  135.8965  160.8318 C   0  0  0  0  0  0  0  0  0  0  0  0
  133.4418  135.2483  161.6313 C   0  0  0  0  0  0  0  0  0  0  0  0
  132.9932  134.8941  162.8365 C   0  0  0  0  0  0  0  0  0  0  0  0
  131.3163  135.3944  163.0123 S   0  0  0  0  0  0  0  0  0  0  0  0
  129.9513  135.4271  158.6880 N   0  0  0  0  0  0  0  0  0  0  0  0
  129.8117  134.1754  158.1131 C   0  0  0  0  0  0  0  0  0  0  0  0
  129.1169  133.1325  158.6438 N   0  0  0  0  0  0  0  0  0  0  0  0
  128.6344  133.1324  159.4852 H   0  0  0  0  0  0  0  0  0  0  0  0
  129.2246  132.0801  157.7675 C   0  0  0  0  0  0  0  0  0  0  0  0
  129.9814  132.5097  156.7276 C   0  0  0  0  0  0  0  0  0  0  0  0
  130.3645  131.7108  155.5379 C   0  0  0  0  0  0  0  0  0  0  0  0
  129.9866  132.1292  154.2632 C   0  0  0  0  0  0  0  0  0  0  0  0
  130.3462  131.3822  153.1599 C   0  0  0  0  0  0  0  0  0  0  0  0
  131.0802  130.2202  153.3174 C   0  0  0  0  0  0  0  0  0  0  0  0
  131.4701  129.4083  152.1091 C   0  0  0  0  0  0  0  0  0  0  0  0
  130.3758  128.3819  151.8096 C   0  0  0  0  0  0  0  0  0  0  0  0
  131.4531  129.7972  154.5806 C   0  0  0  0  0  0  0  0  0  0  0  0
  131.1039  130.5393  155.6906 C   0  0  0  0  0  0  0  0  0  0  0  0
  130.3311  133.7980  156.9706 N   0  0  0  0  0  0  0  0  0  0  0  0
  130.8767  134.3517  156.3904 H   0  0  0  0  0  0  0  0  0  0  0  0
  125.3227  133.3722  162.7551 H   0  0  0  0  0  0  0  0  0  0  0  0
  124.4190  133.3545  161.2217 H   0  0  0  0  0  0  0  0  0  0  0  0
  125.8772  132.3508  161.4069 H   0  0  0  0  0  0  0  0  0  0  0  0
  127.2622  134.3985  161.6001 H   0  0  0  0  0  0  0  0  0  0  0  0
  125.8040  135.4022  161.4149 H   0  0  0  0  0  0  0  0  0  0  0  0
  125.9046  133.5472  159.1234 H   0  0  0  0  0  0  0  0  0  0  0  0
  127.0774  135.2445  157.9104 H   0  0  0  0  0  0  0  0  0  0  0  0
  127.4335  136.4817  160.6939 H   0  0  0  0  0  0  0  0  0  0  0  0
  127.9690  137.1812  159.1472 H   0  0  0  0  0  0  0  0  0  0  0  0
  130.5072  137.5103  160.0345 H   0  0  0  0  0  0  0  0  0  0  0  0
  129.5265  137.2308  161.4934 H   0  0  0  0  0  0  0  0  0  0  0  0
  132.7468  136.2333  159.8320 H   0  0  0  0  0  0  0  0  0  0  0  0
  134.4496  135.0417  161.3026 H   0  0  0  0  0  0  0  0  0  0  0  0
  133.5714  134.3791  163.5894 H   0  0  0  0  0  0  0  0  0  0  0  0
  130.4705  136.1121  158.2384 H   0  0  0  0  0  0  0  0  0  0  0  0
  128.7894  131.0986  157.8842 H   0  0  0  0  0  0  0  0  0  0  0  0
  129.4133  133.0360  154.1391 H   0  0  0  0  0  0  0  0  0  0  0  0
  130.0538  131.7052  152.1717 H   0  0  0  0  0  0  0  0  0  0  0  0
  132.4093  128.8921  152.3053 H   0  0  0  0  0  0  0  0  0  0  0  0
  131.5916  130.0703  151.2509 H   0  0  0  0  0  0  0  0  0  0  0  0
  129.4364  128.8986  151.6129 H   0  0  0  0  0  0  0  0  0  0  0  0
  130.6577  127.7951  150.9353 H   0  0  0  0  0  0  0  0  0  0  0  0
  130.2541  127.7205  152.6673 H   0  0  0  0  0  0  0  0  0  0  0  0
  132.0219  128.8868  154.6980 H   0  0  0  0  0  0  0  0  0  0  0  0
  131.3996  130.2106  156.6759 H   0  0  0  0  0  0  0  0  0  0  0  0
  1  2  1  0
  1 30  1  0
  1 31  1  0
  1 32  1  0
  2  3  1  0
  2 33  1  0
  2 34  1  0
  3  4  2  0
  3 35  1  0
  4  5  1  0
  4 36  1  0
  5  6  1  0
  5 37  1  0
  5 38  1  0
  6  7  1  1
  6  8  1  0
  6 14  1  0
  8  9  1  0
  8 39  1  0
  8 40  1  0
  9 13  1  0
  9 10  2  0
 10 11  1  0
 10 41  1  0
 11 12  2  0
 11 42  1  0
 12 13  1  0
 12 43  1  0
 14 44  1  0
 15 14  1  0
 15 28  2  0
 15 16  1  0
 16 17  1  0
 16 18  1  0
 18 19  2  0
 18 45  1  0
 19 20  1  0
 19 28  1  0
 20 27  1  0
 20 21  2  0
 21 22  1  0
 21 46  1  0
 22 23  2  0
 22 47  1  0
 23 24  1  0
 23 26  1  0
 24 25  1  0
 24 48  1  0
 24 49  1  0
 25 50  1  0
 25 51  1  0
 25 52  1  0
 26 27  2  0
 26 53  1  0
 27 54  1  0
 28 29  1  0
M  CHG  1  28   1
M  END
>  <DOCK_score>  (1) 
-57.623264

>  <SMILES>  (1) 
CC/C=C\C[C@H](Cc1cccs1)Nc1[nH]cc(-c2ccc(CC)cc2)[nH+]1

$$$$
