O=C1CC[C@H]([NH+]=C(NC2CCC2)N[C@H]2CC=C(c3ccc(Cl)cc3)C2)CN1
     RDKit          3D

 55 58  0  0  1  0  0  0  0  0999 V2000
  124.2718  133.3185  161.4836 O   0  0  0  0  0  0  0  0  0  0  0  0
  125.4209  133.6660  161.3107 C   0  0  0  0  0  0  0  0  0  0  0  0
  126.3399  132.7387  160.5686 C   0  0  0  0  0  0  0  0  0  0  0  0
  127.7965  133.1302  160.8291 C   0  0  0  0  0  0  0  0  0  0  0  0
  127.9398  134.6405  160.6056 C   0  0  2  0  0  0  0  0  0  0  0  0
  127.5406  134.9048  159.6263 H   0  0  0  0  0  0  0  0  0  0  0  0
  129.3540  135.0160  160.6775 N   0  0  0  0  0  0  0  0  0  0  0  0
  129.6533  135.6533  161.3447 H   0  0  0  0  0  0  0  0  0  0  0  0
  130.2101  134.4938  159.8448 C   0  0  0  0  0  0  0  0  0  0  0  0
  131.5190  134.3160  160.2260 N   0  0  0  0  0  0  0  0  0  0  0  0
  131.9515  134.7135  161.5682 C   0  0  0  0  0  0  0  0  0  0  0  0
  132.2750  136.2116  161.6926 C   0  0  0  0  0  0  0  0  0  0  0  0
  133.4678  135.8008  162.5721 C   0  0  0  0  0  0  0  0  0  0  0  0
  133.4422  134.4495  161.8383 C   0  0  0  0  0  0  0  0  0  0  0  0
  129.8042  134.1206  158.5855 N   0  0  0  0  0  0  0  0  0  0  0  0
  130.7664  133.5336  157.6496 C   0  0  1  0  0  0  0  0  0  0  0  0
  131.5857  134.2243  157.4498 H   0  0  0  0  0  0  0  0  0  0  0  0
  131.2982  132.1813  158.1773 C   0  0  0  0  0  0  0  0  0  0  0  0
  131.4436  131.3166  156.9467 C   0  0  0  0  0  0  0  0  0  0  0  0
  130.7664  131.8262  155.9290 C   0  0  0  0  0  0  0  0  0  0  0  0
  130.6986  131.2286  154.5788 C   0  0  0  0  0  0  0  0  0  0  0  0
  130.5299  132.0444  153.4594 C   0  0  0  0  0  0  0  0  0  0  0  0
  130.4721  131.4814  152.2014 C   0  0  0  0  0  0  0  0  0  0  0  0
  130.5713  130.1080  152.0495 C   0  0  0  0  0  0  0  0  0  0  0  0
  130.4909  129.4067  150.4635 Cl  0  0  0  0  0  0  0  0  0  0  0  0
  130.7328  129.2936  153.1568 C   0  0  0  0  0  0  0  0  0  0  0  0
  130.7973  129.8458  154.4192 C   0  0  0  0  0  0  0  0  0  0  0  0
  130.0715  133.1045  156.3371 C   0  0  0  0  0  0  0  0  0  0  0  0
  127.1582  135.3734  161.6967 C   0  0  0  0  0  0  0  0  0  0  0  0
  125.8008  134.8510  161.7902 N   0  0  0  0  0  0  0  0  0  0  0  0
  126.1333  132.8026  159.5002 H   0  0  0  0  0  0  0  0  0  0  0  0
  126.1731  131.7167  160.9090 H   0  0  0  0  0  0  0  0  0  0  0  0
  128.4494  132.5938  160.1407 H   0  0  0  0  0  0  0  0  0  0  0  0
  128.0644  132.8843  161.8567 H   0  0  0  0  0  0  0  0  0  0  0  0
  132.1561  133.9274  159.6064 H   0  0  0  0  0  0  0  0  0  0  0  0
  131.2930  134.3410  162.3527 H   0  0  0  0  0  0  0  0  0  0  0  0
  132.5669  136.6751  160.7501 H   0  0  0  0  0  0  0  0  0  0  0  0
  131.5137  136.7798  162.2270 H   0  0  0  0  0  0  0  0  0  0  0  0
  133.2238  135.7268  163.6319 H   0  0  0  0  0  0  0  0  0  0  0  0
  134.3700  136.3828  162.3840 H   0  0  0  0  0  0  0  0  0  0  0  0
  133.6231  133.5950  162.4905 H   0  0  0  0  0  0  0  0  0  0  0  0
  134.0529  134.4297  160.9356 H   0  0  0  0  0  0  0  0  0  0  0  0
  128.8807  134.2460  158.3166 H   0  0  0  0  0  0  0  0  0  0  0  0
  132.2649  132.3170  158.6622 H   0  0  0  0  0  0  0  0  0  0  0  0
  130.5847  131.7383  158.8723 H   0  0  0  0  0  0  0  0  0  0  0  0
  132.0221  130.4058  156.9025 H   0  0  0  0  0  0  0  0  0  0  0  0
  130.4485  133.1149  153.5774 H   0  0  0  0  0  0  0  0  0  0  0  0
  130.3453  132.1120  151.3340 H   0  0  0  0  0  0  0  0  0  0  0  0
  130.8085  128.2235  153.0320 H   0  0  0  0  0  0  0  0  0  0  0  0
  130.9234  129.2091  155.2825 H   0  0  0  0  0  0  0  0  0  0  0  0
  129.0113  132.9208  156.5117 H   0  0  0  0  0  0  0  0  0  0  0  0
  130.2023  133.8687  155.5711 H   0  0  0  0  0  0  0  0  0  0  0  0
  127.6628  135.2387  162.6535 H   0  0  0  0  0  0  0  0  0  0  0  0
  127.1196  136.4367  161.4598 H   0  0  0  0  0  0  0  0  0  0  0  0
  125.1317  135.3997  162.2285 H   0  0  0  0  0  0  0  0  0  0  0  0
  1  2  2  0
  2 30  1  0
  2  3  1  0
  3  4  1  0
  3 31  1  0
  3 32  1  0
  4  5  1  0
  4 33  1  0
  4 34  1  0
  5  6  1  6
  5  7  1  0
  5 29  1  0
  7  8  1  0
  9  7  2  0
  9 10  1  0
  9 15  1  0
 10 11  1  0
 10 35  1  0
 11 14  1  0
 11 12  1  0
 11 36  1  0
 12 13  1  0
 12 37  1  0
 12 38  1  0
 13 14  1  0
 13 39  1  0
 13 40  1  0
 14 41  1  0
 14 42  1  0
 15 16  1  0
 15 43  1  0
 16 17  1  6
 16 28  1  0
 16 18  1  0
 18 19  1  0
 18 44  1  0
 18 45  1  0
 19 20  2  0
 19 46  1  0
 20 21  1  0
 20 28  1  0
 21 27  1  0
 21 22  2  0
 22 23  1  0
 22 47  1  0
 23 24  2  0
 23 48  1  0
 24 25  1  0
 24 26  1  0
 26 27  2  0
 26 49  1  0
 27 50  1  0
 28 51  1  0
 28 52  1  0
 29 30  1  0
 29 53  1  0
 29 54  1  0
 30 55  1  0
M  CHG  1   7   1
M  END
>  <DOCK_score>  (1) 
-47.2033

>  <SMILES>  (1) 
O=C1CC[C@H]([NH+]=C(NC2CCC2)N[C@H]2CC=C(c3ccc(Cl)cc3)C2)CN1

$$$$
