Cc1cccc(-c2ccc(-c3n[nH]cc3C[NH+]3CC=CC3)cc2)c1
     RDKit          3D

 46 49  0  0  1  0  0  0  0  0999 V2000
  136.3825  140.8121  159.2239 C   0  0  0  0  0  0  0  0  0  0  0  0
  135.4179  140.6557  160.3714 C   0  0  0  0  0  0  0  0  0  0  0  0
  135.6986  141.2398  161.5937 C   0  0  0  0  0  0  0  0  0  0  0  0
  134.8182  141.1000  162.6512 C   0  0  0  0  0  0  0  0  0  0  0  0
  133.6541  140.3755  162.4924 C   0  0  0  0  0  0  0  0  0  0  0  0
  133.3663  139.7848  161.2635 C   0  0  0  0  0  0  0  0  0  0  0  0
  132.1173  139.0048  161.0871 C   0  0  0  0  0  0  0  0  0  0  0  0
  131.5032  138.9461  159.8360 C   0  0  0  0  0  0  0  0  0  0  0  0
  130.3431  138.2215  159.6718 C   0  0  0  0  0  0  0  0  0  0  0  0
  129.7831  137.5469  160.7560 C   0  0  0  0  0  0  0  0  0  0  0  0
  128.5339  136.7665  160.5791 C   0  0  0  0  0  0  0  0  0  0  0  0
  127.3969  136.9711  161.2105 N   0  0  0  0  0  0  0  0  0  0  0  0
  126.4696  136.0256  160.7542 N   0  0  0  0  0  0  0  0  0  0  0  0
  125.5479  135.9457  161.0458 H   0  0  0  0  0  0  0  0  0  0  0  0
  127.0822  135.2428  159.8401 C   0  0  0  0  0  0  0  0  0  0  0  0
  128.3547  135.6754  159.7062 C   0  0  0  0  0  0  0  0  0  0  0  0
  129.3973  135.0945  158.7861 C   0  0  0  0  0  0  0  0  0  0  0  0
  128.8198  133.9675  158.0414 N   0  0  0  0  0  0  0  0  0  0  0  0
  127.8730  134.1735  157.7601 H   0  0  0  0  0  0  0  0  0  0  0  0
  129.6561  133.6324  156.8644 C   0  0  0  0  0  0  0  0  0  0  0  0
  129.5779  132.1260  156.7369 C   0  0  0  0  0  0  0  0  0  0  0  0
  129.1317  131.6146  157.8570 C   0  0  0  0  0  0  0  0  0  0  0  0
  128.8692  132.7249  158.8479 C   0  0  0  0  0  0  0  0  0  0  0  0
  130.3940  137.6103  162.0078 C   0  0  0  0  0  0  0  0  0  0  0  0
  131.5567  138.3309  162.1711 C   0  0  0  0  0  0  0  0  0  0  0  0
  134.2598  139.9247  160.2026 C   0  0  0  0  0  0  0  0  0  0  0  0
  137.1050  139.9963  159.2429 H   0  0  0  0  0  0  0  0  0  0  0  0
  135.8337  140.7897  158.2824 H   0  0  0  0  0  0  0  0  0  0  0  0
  136.9061  141.7635  159.3167 H   0  0  0  0  0  0  0  0  0  0  0  0
  136.6082  141.8076  161.7224 H   0  0  0  0  0  0  0  0  0  0  0  0
  135.0423  141.5583  163.6032 H   0  0  0  0  0  0  0  0  0  0  0  0
  132.9679  140.2664  163.3191 H   0  0  0  0  0  0  0  0  0  0  0  0
  131.9373  139.4680  158.9962 H   0  0  0  0  0  0  0  0  0  0  0  0
  129.8677  138.1757  158.7033 H   0  0  0  0  0  0  0  0  0  0  0  0
  126.6322  134.4187  159.3065 H   0  0  0  0  0  0  0  0  0  0  0  0
  129.7310  135.8600  158.0855 H   0  0  0  0  0  0  0  0  0  0  0  0
  130.2461  134.7448  159.3737 H   0  0  0  0  0  0  0  0  0  0  0  0
  129.2580  134.1112  155.9697 H   0  0  0  0  0  0  0  0  0  0  0  0
  130.6871  133.9435  157.0329 H   0  0  0  0  0  0  0  0  0  0  0  0
  129.8467  131.5609  155.8567 H   0  0  0  0  0  0  0  0  0  0  0  0
  128.9754  130.5624  158.0434 H   0  0  0  0  0  0  0  0  0  0  0  0
  129.6780  132.7796  159.5765 H   0  0  0  0  0  0  0  0  0  0  0  0
  127.9163  132.5637  159.3519 H   0  0  0  0  0  0  0  0  0  0  0  0
  129.9578  137.0913  162.8485 H   0  0  0  0  0  0  0  0  0  0  0  0
  132.0323  138.3765  163.1396 H   0  0  0  0  0  0  0  0  0  0  0  0
  134.0441  139.4653  159.2493 H   0  0  0  0  0  0  0  0  0  0  0  0
  1  2  1  0
  1 27  1  0
  1 28  1  0
  1 29  1  0
  2 26  2  0
  2  3  1  0
  3  4  2  0
  3 30  1  0
  4  5  1  0
  4 31  1  0
  5  6  2  0
  5 32  1  0
  6  7  1  0
  6 26  1  0
  7 25  1  0
  7  8  2  0
  8  9  1  0
  8 33  1  0
  9 10  2  0
  9 34  1  0
 10 11  1  0
 10 24  1  0
 11 16  1  0
 11 12  2  0
 12 13  1  0
 13 14  1  0
 13 15  1  0
 15 16  2  0
 15 35  1  0
 16 17  1  0
 17 18  1  0
 17 36  1  0
 17 37  1  0
 18 19  1  0
 18 23  1  0
 18 20  1  0
 20 21  1  0
 20 38  1  0
 20 39  1  0
 21 22  2  0
 21 40  1  0
 22 23  1  0
 22 41  1  0
 23 42  1  0
 23 43  1  0
 24 25  2  0
 24 44  1  0
 25 45  1  0
 26 46  1  0
M  CHG  1  18   1
M  END
>  <DOCK_score>  (1) 
-40.941166

>  <SMILES>  (1) 
Cc1cccc(-c2ccc(-c3n[nH]cc3C[NH+]3CC=CC3)cc2)c1

$$$$
