O=C1CC[C@H]([NH+]=C(NC2CC=CC2)N[C@@H](CO)Cc2ccccc2)CN1
     RDKit          3D

 55 57  0  0  1  0  0  0  0  0999 V2000
  124.3122  133.9601  161.5217 O   0  0  0  0  0  0  0  0  0  0  0  0
  125.4542  134.2780  161.2654 C   0  0  0  0  0  0  0  0  0  0  0  0
  126.3940  133.2156  160.7719 C   0  0  0  0  0  0  0  0  0  0  0  0
  127.8415  133.6893  160.9241 C   0  0  0  0  0  0  0  0  0  0  0  0
  127.9541  135.1007  160.3351 C   0  0  2  0  0  0  0  0  0  0  0  0
  127.5521  135.1072  159.3220 H   0  0  0  0  0  0  0  0  0  0  0  0
  129.3601  135.5114  160.3085 N   0  0  0  0  0  0  0  0  0  0  0  0
  129.6447  136.2995  160.7974 H   0  0  0  0  0  0  0  0  0  0  0  0
  130.2289  134.8181  159.6277 C   0  0  0  0  0  0  0  0  0  0  0  0
  129.8338  134.1382  158.5000 N   0  0  0  0  0  0  0  0  0  0  0  0
  130.8102  133.3588  157.7348 C   0  0  0  0  0  0  0  0  0  0  0  0
  131.2928  132.1298  158.5397 C   0  0  0  0  0  0  0  0  0  0  0  0
  131.4456  131.0332  157.5114 C   0  0  0  0  0  0  0  0  0  0  0  0
  130.8202  131.3347  156.4063 C   0  0  0  0  0  0  0  0  0  0  0  0
  130.1459  132.6827  156.5131 C   0  0  0  0  0  0  0  0  0  0  0  0
  131.5402  134.7666  160.0374 N   0  0  0  0  0  0  0  0  0  0  0  0
  131.8680  134.8799  161.4608 C   0  0  1  0  0  0  0  0  0  0  0  0
  131.1194  135.4966  161.9581 H   0  0  0  0  0  0  0  0  0  0  0  0
  131.8831  133.4867  162.0931 C   0  0  0  0  0  0  0  0  0  0  0  0
  130.5958  132.8835  161.9473 O   0  0  0  0  0  0  0  0  0  0  0  0
  133.2462  135.5257  161.6169 C   0  0  0  0  0  0  0  0  0  0  0  0
  133.1219  137.0193  161.4596 C   0  0  0  0  0  0  0  0  0  0  0  0
  133.2547  137.5962  160.2104 C   0  0  0  0  0  0  0  0  0  0  0  0
  133.1358  138.9658  160.0655 C   0  0  0  0  0  0  0  0  0  0  0  0
  132.8939  139.7594  161.1711 C   0  0  0  0  0  0  0  0  0  0  0  0
  132.7668  139.1831  162.4212 C   0  0  0  0  0  0  0  0  0  0  0  0
  132.8805  137.8129  162.5652 C   0  0  0  0  0  0  0  0  0  0  0  0
  127.1549  136.0633  161.2143 C   0  0  0  0  0  0  0  0  0  0  0  0
  125.8083  135.5520  161.4372 N   0  0  0  0  0  0  0  0  0  0  0  0
  126.1887  133.0102  159.7213 H   0  0  0  0  0  0  0  0  0  0  0  0
  126.2481  132.3049  161.3527 H   0  0  0  0  0  0  0  0  0  0  0  0
  128.5072  133.0134  160.3872 H   0  0  0  0  0  0  0  0  0  0  0  0
  128.1120  133.7096  161.9798 H   0  0  0  0  0  0  0  0  0  0  0  0
  128.9086  134.1745  158.2110 H   0  0  0  0  0  0  0  0  0  0  0  0
  131.6512  133.9808  157.4285 H   0  0  0  0  0  0  0  0  0  0  0  0
  130.5498  131.8493  159.2862 H   0  0  0  0  0  0  0  0  0  0  0  0
  132.2504  132.3400  159.0159 H   0  0  0  0  0  0  0  0  0  0  0  0
  131.9965  130.1181  157.6716 H   0  0  0  0  0  0  0  0  0  0  0  0
  130.7891  130.7038  155.5301 H   0  0  0  0  0  0  0  0  0  0  0  0
  130.3237  133.2688  155.6113 H   0  0  0  0  0  0  0  0  0  0  0  0
  129.0760  132.5597  156.6822 H   0  0  0  0  0  0  0  0  0  0  0  0
  132.2485  134.6553  159.3840 H   0  0  0  0  0  0  0  0  0  0  0  0
  132.6317  132.8701  161.5957 H   0  0  0  0  0  0  0  0  0  0  0  0
  132.1270  133.5709  163.1520 H   0  0  0  0  0  0  0  0  0  0  0  0
  130.3133  132.7770  161.0288 H   0  0  0  0  0  0  0  0  0  0  0  0
  133.6452  135.2963  162.6049 H   0  0  0  0  0  0  0  0  0  0  0  0
  133.9193  135.1349  160.8537 H   0  0  0  0  0  0  0  0  0  0  0  0
  133.4477  136.9765  159.3472 H   0  0  0  0  0  0  0  0  0  0  0  0
  133.2355  139.4160  159.0888 H   0  0  0  0  0  0  0  0  0  0  0  0
  132.8047  140.8299  161.0583 H   0  0  0  0  0  0  0  0  0  0  0  0
  132.5782  139.8032  163.2850 H   0  0  0  0  0  0  0  0  0  0  0  0
  132.7812  137.3627  163.5419 H   0  0  0  0  0  0  0  0  0  0  0  0
  127.6598  136.1788  162.1734 H   0  0  0  0  0  0  0  0  0  0  0  0
  127.0949  137.0345  160.7230 H   0  0  0  0  0  0  0  0  0  0  0  0
  125.1270  136.1779  161.7288 H   0  0  0  0  0  0  0  0  0  0  0  0
  1  2  2  0
  2 29  1  0
  2  3  1  0
  3  4  1  0
  3 30  1  0
  3 31  1  0
  4  5  1  0
  4 32  1  0
  4 33  1  0
  5  6  1  6
  5  7  1  0
  5 28  1  0
  7  8  1  0
  9  7  2  0
  9 10  1  0
  9 16  1  0
 10 11  1  0
 10 34  1  0
 11 15  1  0
 11 12  1  0
 11 35  1  0
 12 13  1  0
 12 36  1  0
 12 37  1  0
 13 14  2  0
 13 38  1  0
 14 15  1  0
 14 39  1  0
 15 40  1  0
 15 41  1  0
 16 17  1  0
 16 42  1  0
 17 18  1  1
 17 19  1  0
 17 21  1  0
 19 20  1  0
 19 43  1  0
 19 44  1  0
 20 45  1  0
 21 22  1  0
 21 46  1  0
 21 47  1  0
 22 27  1  0
 22 23  2  0
 23 24  1  0
 23 48  1  0
 24 25  2  0
 24 49  1  0
 25 26  1  0
 25 50  1  0
 26 27  2  0
 26 51  1  0
 27 52  1  0
 28 29  1  0
 28 53  1  0
 28 54  1  0
 29 55  1  0
M  CHG  1   7   1
M  END
>  <DOCK_score>  (1) 
-48.828037

>  <SMILES>  (1) 
O=C1CC[C@H]([NH+]=C(NC2CC=CC2)N[C@@H](CO)Cc2ccccc2)CN1

$$$$
