Cc1ccc(F)cc1C[NH+]=C(NCc1cccs1)N[C@H]1C[C@@H](O)C1
     RDKit          3D

 47 49  0  0  1  0  0  0  0  0999 V2000
  131.2970  139.4673  158.7459 C   0  0  0  0  0  0  0  0  0  0  0  0
  132.3267  138.8392  159.6495 C   0  0  0  0  0  0  0  0  0  0  0  0
  133.6252  139.3143  159.6523 C   0  0  0  0  0  0  0  0  0  0  0  0
  134.5700  138.7395  160.4805 C   0  0  0  0  0  0  0  0  0  0  0  0
  134.2160  137.6871  161.3080 C   0  0  0  0  0  0  0  0  0  0  0  0
  135.1391  137.1243  162.1183 F   0  0  0  0  0  0  0  0  0  0  0  0
  132.9145  137.2153  161.3079 C   0  0  0  0  0  0  0  0  0  0  0  0
  131.9723  137.7885  160.4747 C   0  0  0  0  0  0  0  0  0  0  0  0
  130.5568  137.2717  160.4702 C   0  0  0  0  0  0  0  0  0  0  0  0
  130.4282  136.2086  159.4702 N   0  0  0  0  0  0  0  0  0  0  0  0
  130.9845  136.2204  158.6758 H   0  0  0  0  0  0  0  0  0  0  0  0
  129.5662  135.2473  159.6482 C   0  0  0  0  0  0  0  0  0  0  0  0
  129.8150  133.9970  159.1334 N   0  0  0  0  0  0  0  0  0  0  0  0
  131.0488  133.7452  158.3848 C   0  0  0  0  0  0  0  0  0  0  0  0
  131.0778  132.3079  157.9329 C   0  0  0  0  0  0  0  0  0  0  0  0
  131.6017  131.2947  158.6248 C   0  0  0  0  0  0  0  0  0  0  0  0
  131.5098  130.0585  158.0086 C   0  0  0  0  0  0  0  0  0  0  0  0
  130.9194  130.0693  156.8126 C   0  0  0  0  0  0  0  0  0  0  0  0
  130.4330  131.7107  156.4095 S   0  0  0  0  0  0  0  0  0  0  0  0
  128.4083  135.4835  160.3507 N   0  0  0  0  0  0  0  0  0  0  0  0
  127.4394  134.4030  160.5507 C   0  0  1  0  0  0  0  0  0  0  0  0
  127.9055  133.4185  160.5899 H   0  0  0  0  0  0  0  0  0  0  0  0
  126.4506  134.6661  161.7024 C   0  0  0  0  0  0  0  0  0  0  0  0
  125.3643  134.0562  160.8007 C   0  0  1  0  0  0  0  0  0  0  0  0
  125.2622  132.9764  160.9094 H   0  0  0  0  0  0  0  0  0  0  0  0
  124.1124  134.7416  160.8692 O   0  0  0  0  0  0  0  0  0  0  0  0
  126.2314  134.4754  159.6019 C   0  0  0  0  0  0  0  0  0  0  0  0
  130.8032  140.2850  159.2710 H   0  0  0  0  0  0  0  0  0  0  0  0
  131.7856  139.8528  157.8511 H   0  0  0  0  0  0  0  0  0  0  0  0
  130.5575  138.7186  158.4622 H   0  0  0  0  0  0  0  0  0  0  0  0
  133.9009  140.1352  159.0067 H   0  0  0  0  0  0  0  0  0  0  0  0
  135.5840  139.1113  160.4830 H   0  0  0  0  0  0  0  0  0  0  0  0
  132.6363  136.3972  161.9558 H   0  0  0  0  0  0  0  0  0  0  0  0
  129.8737  138.0849  160.2257 H   0  0  0  0  0  0  0  0  0  0  0  0
  130.3117  136.8750  161.4555 H   0  0  0  0  0  0  0  0  0  0  0  0
  129.1734  133.2815  159.2657 H   0  0  0  0  0  0  0  0  0  0  0  0
  131.0860  134.4004  157.5145 H   0  0  0  0  0  0  0  0  0  0  0  0
  131.9088  133.9422  159.0250 H   0  0  0  0  0  0  0  0  0  0  0  0
  132.0603  131.4285  159.5934 H   0  0  0  0  0  0  0  0  0  0  0  0
  131.8907  129.1546  158.4604 H   0  0  0  0  0  0  0  0  0  0  0  0
  130.7636  129.2024  156.1875 H   0  0  0  0  0  0  0  0  0  0  0  0
  128.2328  136.3657  160.7139 H   0  0  0  0  0  0  0  0  0  0  0  0
  126.2987  135.7245  161.9142 H   0  0  0  0  0  0  0  0  0  0  0  0
  126.6550  134.0792  162.5978 H   0  0  0  0  0  0  0  0  0  0  0  0
  124.1930  135.7037  160.9232 H   0  0  0  0  0  0  0  0  0  0  0  0
  126.2589  133.7347  158.8027 H   0  0  0  0  0  0  0  0  0  0  0  0
  126.0187  135.4812  159.2396 H   0  0  0  0  0  0  0  0  0  0  0  0
  1  2  1  0
  1 28  1  0
  1 29  1  0
  1 30  1  0
  2  8  2  0
  2  3  1  0
  3  4  2  0
  3 31  1  0
  4  5  1  0
  4 32  1  0
  5  6  1  0
  5  7  2  0
  7  8  1  0
  7 33  1  0
  8  9  1  0
  9 10  1  0
  9 34  1  0
  9 35  1  0
 10 11  1  0
 12 10  2  0
 12 13  1  0
 12 20  1  0
 13 14  1  0
 13 36  1  0
 14 15  1  0
 14 37  1  0
 14 38  1  0
 15 19  1  0
 15 16  2  0
 16 17  1  0
 16 39  1  0
 17 18  2  0
 17 40  1  0
 18 19  1  0
 18 41  1  0
 20 21  1  0
 20 42  1  0
 21 22  1  1
 21 27  1  0
 21 23  1  0
 23 24  1  0
 23 43  1  0
 23 44  1  0
 24 25  1  1
 24 26  1  0
 24 27  1  0
 26 45  1  0
 27 46  1  0
 27 47  1  0
M  CHG  1  10   1
M  END
>  <DOCK_score>  (1) 
-48.574043

>  <SMILES>  (1) 
Cc1ccc(F)cc1C[NH+]=C(NCc1cccs1)N[C@H]1C[C@@H](O)C1

$$$$
