Cc1ccc([C@H](c2ccccc2)[NH+]2CCN(c3ccccc3N[C@H]3CCC(=O)NC3)CC2)cc1
     RDKit          3D

 69 73  0  0  1  0  0  0  0  0999 V2000
  131.8470  129.7273  157.3132 C   0  0  0  0  0  0  0  0  0  0  0  0
  131.3662  130.9708  158.0160 C   0  0  0  0  0  0  0  0  0  0  0  0
  131.1273  130.9467  159.3772 C   0  0  0  0  0  0  0  0  0  0  0  0
  130.6862  132.0872  160.0219 C   0  0  0  0  0  0  0  0  0  0  0  0
  130.4850  133.2521  159.3054 C   0  0  0  0  0  0  0  0  0  0  0  0
  130.0042  134.4955  160.0082 C   0  0  2  0  0  0  0  0  0  0  0  0
  129.8716  134.2848  161.0693 H   0  0  0  0  0  0  0  0  0  0  0  0
  128.6894  134.9314  159.4147 C   0  0  0  0  0  0  0  0  0  0  0  0
  127.5025  134.4509  159.9357 C   0  0  0  0  0  0  0  0  0  0  0  0
  126.2964  134.8545  159.3943 C   0  0  0  0  0  0  0  0  0  0  0  0
  126.2773  135.7306  158.3253 C   0  0  0  0  0  0  0  0  0  0  0  0
  127.4642  136.2072  157.8008 C   0  0  0  0  0  0  0  0  0  0  0  0
  128.6704  135.8075  158.3456 C   0  0  0  0  0  0  0  0  0  0  0  0
  130.9957  135.5665  159.8416 N   0  0  0  0  0  0  0  0  0  0  0  0
  131.1183  135.7613  158.8592 H   0  0  0  0  0  0  0  0  0  0  0  0
  130.5264  136.7785  160.5259 C   0  0  0  0  0  0  0  0  0  0  0  0
  131.5502  137.9001  160.3368 C   0  0  0  0  0  0  0  0  0  0  0  0
  132.8450  137.4756  160.8879 N   0  0  0  0  0  0  0  0  0  0  0  0
  133.7952  138.4985  160.7815 C   0  0  0  0  0  0  0  0  0  0  0  0
  134.1377  139.0026  159.5360 C   0  0  0  0  0  0  0  0  0  0  0  0
  135.0766  140.0124  159.4332 C   0  0  0  0  0  0  0  0  0  0  0  0
  135.6763  140.5225  160.5697 C   0  0  0  0  0  0  0  0  0  0  0  0
  135.3404  140.0261  161.8156 C   0  0  0  0  0  0  0  0  0  0  0  0
  134.3998  139.0135  161.9280 C   0  0  0  0  0  0  0  0  0  0  0  0
  134.0584  138.5090  163.1888 N   0  0  0  0  0  0  0  0  0  0  0  0
  135.0856  137.8982  164.0360 C   0  0  1  0  0  0  0  0  0  0  0  0
  136.0094  138.4721  163.9623 H   0  0  0  0  0  0  0  0  0  0  0  0
  134.6067  137.8790  165.4926 C   0  0  0  0  0  0  0  0  0  0  0  0
  135.7624  137.4040  166.3760 C   0  0  0  0  0  0  0  0  0  0  0  0
  136.3707  136.1576  165.7998 C   0  0  0  0  0  0  0  0  0  0  0  0
  137.0682  135.4740  166.5189 O   0  0  0  0  0  0  0  0  0  0  0  0
  136.1852  135.7626  164.5396 N   0  0  0  0  0  0  0  0  0  0  0  0
  135.3375  136.4601  163.5809 C   0  0  0  0  0  0  0  0  0  0  0  0
  133.3157  136.2489  160.2294 C   0  0  0  0  0  0  0  0  0  0  0  0
  132.2774  135.1410  160.4194 C   0  0  0  0  0  0  0  0  0  0  0  0
  130.7193  133.2749  157.9432 C   0  0  0  0  0  0  0  0  0  0  0  0
  131.1645  132.1355  157.2994 C   0  0  0  0  0  0  0  0  0  0  0  0
  130.9891  129.1504  156.9680 H   0  0  0  0  0  0  0  0  0  0  0  0
  132.4636  130.0080  156.4593 H   0  0  0  0  0  0  0  0  0  0  0  0
  132.4362  129.1244  158.0041 H   0  0  0  0  0  0  0  0  0  0  0  0
  131.2849  130.0366  159.9371 H   0  0  0  0  0  0  0  0  0  0  0  0
  130.4991  132.0683  161.0854 H   0  0  0  0  0  0  0  0  0  0  0  0
  127.5176  133.7628  160.7681 H   0  0  0  0  0  0  0  0  0  0  0  0
  125.3691  134.4820  159.8038 H   0  0  0  0  0  0  0  0  0  0  0  0
  125.3351  136.0426  157.8995 H   0  0  0  0  0  0  0  0  0  0  0  0
  127.4493  136.8914  156.9654 H   0  0  0  0  0  0  0  0  0  0  0  0
  129.5977  136.1796  157.9357 H   0  0  0  0  0  0  0  0  0  0  0  0
  130.4063  136.5718  161.5894 H   0  0  0  0  0  0  0  0  0  0  0  0
  129.5691  137.0858  160.1051 H   0  0  0  0  0  0  0  0  0  0  0  0
  131.2093  138.7951  160.8571 H   0  0  0  0  0  0  0  0  0  0  0  0
  131.6606  138.1163  159.2743 H   0  0  0  0  0  0  0  0  0  0  0  0
  133.6712  138.6064  158.6462 H   0  0  0  0  0  0  0  0  0  0  0  0
  135.3390  140.4068  158.4626 H   0  0  0  0  0  0  0  0  0  0  0  0
  136.4091  141.3112  160.4839 H   0  0  0  0  0  0  0  0  0  0  0  0
  135.8108  140.4269  162.7014 H   0  0  0  0  0  0  0  0  0  0  0  0
  133.1418  138.5641  163.5012 H   0  0  0  0  0  0  0  0  0  0  0  0
  134.3016  138.8819  165.7918 H   0  0  0  0  0  0  0  0  0  0  0  0
  133.7652  137.1937  165.5933 H   0  0  0  0  0  0  0  0  0  0  0  0
  135.3902  137.1950  167.3789 H   0  0  0  0  0  0  0  0  0  0  0  0
  136.5201  138.1859  166.4279 H   0  0  0  0  0  0  0  0  0  0  0  0
  136.6434  134.9610  164.2424 H   0  0  0  0  0  0  0  0  0  0  0  0
  134.3849  135.9373  163.4952 H   0  0  0  0  0  0  0  0  0  0  0  0
  135.8278  136.4709  162.6074 H   0  0  0  0  0  0  0  0  0  0  0  0
  133.4552  136.4380  159.1650 H   0  0  0  0  0  0  0  0  0  0  0  0
  134.2628  135.9394  160.6713 H   0  0  0  0  0  0  0  0  0  0  0  0
  132.1482  134.9427  161.4834 H   0  0  0  0  0  0  0  0  0  0  0  0
  132.6180  134.2342  159.9195 H   0  0  0  0  0  0  0  0  0  0  0  0
  130.5578  134.1837  157.3826 H   0  0  0  0  0  0  0  0  0  0  0  0
  131.3515  132.1544  156.2358 H   0  0  0  0  0  0  0  0  0  0  0  0
  1  2  1  0
  1 38  1  0
  1 39  1  0
  1 40  1  0
  2 37  2  0
  2  3  1  0
  3  4  2  0
  3 41  1  0
  4  5  1  0
  4 42  1  0
  5  6  1  0
  5 36  2  0
  6  7  1  1
  6  8  1  0
  6 14  1  0
  8 13  1  0
  8  9  2  0
  9 10  1  0
  9 43  1  0
 10 11  2  0
 10 44  1  0
 11 12  1  0
 11 45  1  0
 12 13  2  0
 12 46  1  0
 13 47  1  0
 14 15  1  0
 14 35  1  0
 14 16  1  0
 16 17  1  0
 16 48  1  0
 16 49  1  0
 17 18  1  0
 17 50  1  0
 17 51  1  0
 18 19  1  0
 18 34  1  0
 19 24  1  0
 19 20  2  0
 20 21  1  0
 20 52  1  0
 21 22  2  0
 21 53  1  0
 22 23  1  0
 22 54  1  0
 23 24  2  0
 23 55  1  0
 24 25  1  0
 25 26  1  0
 25 56  1  0
 26 27  1  1
 26 33  1  0
 26 28  1  0
 28 29  1  0
 28 57  1  0
 28 58  1  0
 29 30  1  0
 29 59  1  0
 29 60  1  0
 30 31  2  0
 30 32  1  0
 32 33  1  0
 32 61  1  0
 33 62  1  0
 33 63  1  0
 34 35  1  0
 34 64  1  0
 34 65  1  0
 35 66  1  0
 35 67  1  0
 36 37  1  0
 36 68  1  0
 37 69  1  0
M  CHG  1  14   1
M  END
>  <DOCK_score>  (1) 
-57.161942

>  <SMILES>  (1) 
Cc1ccc([C@H](c2ccccc2)[NH+]2CCN(c3ccccc3N[C@H]3CCC(=O)NC3)CC2)cc1

$$$$
