F[C@@H]1C[C@@H]1Nc1ccc(-c2n[nH]cc2C[NH2+][C@H]2C=CCC2)o1
     RDKit          3D

 42 45  0  0  1  0  0  0  0  0999 V2000
  126.4983  134.8493  164.6004 F   0  0  0  0  0  0  0  0  0  0  0  0
  127.1436  136.0720  164.3859 C   0  0  2  0  0  0  0  0  0  0  0  0
  128.1023  136.1924  164.8904 H   0  0  0  0  0  0  0  0  0  0  0  0
  126.2664  137.3159  164.2295 C   0  0  0  0  0  0  0  0  0  0  0  0
  126.9814  136.7248  163.0118 C   0  0  2  0  0  0  0  0  0  0  0  0
  127.8335  137.2748  162.6122 H   0  0  0  0  0  0  0  0  0  0  0  0
  126.1619  136.0222  162.0215 N   0  0  0  0  0  0  0  0  0  0  0  0
  126.7493  135.1041  161.1586 C   0  0  0  0  0  0  0  0  0  0  0  0
  126.1410  134.0141  160.6280 C   0  0  0  0  0  0  0  0  0  0  0  0
  127.0926  133.3678  159.8142 C   0  0  0  0  0  0  0  0  0  0  0  0
  128.2386  134.0938  159.8960 C   0  0  0  0  0  0  0  0  0  0  0  0
  129.5090  133.7863  159.2073 C   0  0  0  0  0  0  0  0  0  0  0  0
  129.7319  132.7587  158.4118 N   0  0  0  0  0  0  0  0  0  0  0  0
  131.0569  132.8350  157.9643 N   0  0  0  0  0  0  0  0  0  0  0  0
  131.4914  132.2092  157.3638 H   0  0  0  0  0  0  0  0  0  0  0  0
  131.6267  133.9275  158.5175 C   0  0  0  0  0  0  0  0  0  0  0  0
  130.7010  134.5365  159.2890 C   0  0  0  0  0  0  0  0  0  0  0  0
  130.9051  135.7938  160.0945 C   0  0  0  0  0  0  0  0  0  0  0  0
  132.2827  136.2714  159.9158 N   0  0  0  0  0  0  0  0  0  0  0  0
  132.9281  135.5623  160.2299 H   0  0  0  0  0  0  0  0  0  0  0  0
  132.4470  136.4672  158.9397 H   0  0  0  0  0  0  0  0  0  0  0  0
  132.4817  137.4970  160.7010 C   0  0  1  0  0  0  0  0  0  0  0  0
  131.9836  137.4131  161.6669 H   0  0  0  0  0  0  0  0  0  0  0  0
  133.9562  137.7671  160.8907 C   0  0  0  0  0  0  0  0  0  0  0  0
  134.3696  138.7063  160.0839 C   0  0  0  0  0  0  0  0  0  0  0  0
  133.2397  139.2192  159.2219 C   0  0  0  0  0  0  0  0  0  0  0  0
  131.9510  138.7254  159.9260 C   0  0  0  0  0  0  0  0  0  0  0  0
  128.0170  135.1441  160.7144 O   0  0  0  0  0  0  0  0  0  0  0  0
  125.1867  137.1816  164.2933 H   0  0  0  0  0  0  0  0  0  0  0  0
  126.6481  138.2545  164.6314 H   0  0  0  0  0  0  0  0  0  0  0  0
  125.2093  136.1974  161.9678 H   0  0  0  0  0  0  0  0  0  0  0  0
  125.1208  133.7020  160.7956 H   0  0  0  0  0  0  0  0  0  0  0  0
  126.9415  132.4662  159.2393 H   0  0  0  0  0  0  0  0  0  0  0  0
  132.6446  134.2565  158.3686 H   0  0  0  0  0  0  0  0  0  0  0  0
  130.2080  136.5599  159.7551 H   0  0  0  0  0  0  0  0  0  0  0  0
  130.7278  135.5825  161.1490 H   0  0  0  0  0  0  0  0  0  0  0  0
  134.5855  137.2509  161.6007 H   0  0  0  0  0  0  0  0  0  0  0  0
  135.3858  139.0693  160.0389 H   0  0  0  0  0  0  0  0  0  0  0  0
  133.2567  140.3084  159.1821 H   0  0  0  0  0  0  0  0  0  0  0  0
  133.3092  138.8022  158.2172 H   0  0  0  0  0  0  0  0  0  0  0  0
  131.1936  138.4322  159.1990 H   0  0  0  0  0  0  0  0  0  0  0  0
  131.5634  139.4813  160.6091 H   0  0  0  0  0  0  0  0  0  0  0  0
  1  2  1  0
  2  3  1  1
  2  5  1  0
  2  4  1  0
  4  5  1  0
  4 29  1  0
  4 30  1  0
  5  6  1  6
  5  7  1  0
  7  8  1  0
  7 31  1  0
  8 28  1  0
  8  9  2  0
  9 10  1  0
  9 32  1  0
 10 11  2  0
 10 33  1  0
 11 12  1  0
 11 28  1  0
 12 17  1  0
 12 13  2  0
 13 14  1  0
 14 15  1  0
 14 16  1  0
 16 17  2  0
 16 34  1  0
 17 18  1  0
 18 19  1  0
 18 35  1  0
 18 36  1  0
 19 20  1  0
 19 21  1  0
 19 22  1  0
 22 23  1  1
 22 27  1  0
 22 24  1  0
 24 25  2  0
 24 37  1  0
 25 26  1  0
 25 38  1  0
 26 27  1  0
 26 39  1  0
 26 40  1  0
 27 41  1  0
 27 42  1  0
M  CHG  1  19   1
M  END
>  <DOCK_score>  (1) 
-43.248367

>  <SMILES>  (1) 
F[C@@H]1C[C@@H]1Nc1ccc(-c2n[nH]cc2C[NH2+][C@H]2C=CCC2)o1

$$$$
