Cc1ccc(-c2ccc(-c3n[nH]cc3C[NH2+]C[C@@H]3CC3(Br)Br)cc2)cc1
     RDKit          3D

 48 51  0  0  1  0  0  0  0  0999 V2000
  131.6612  129.1602  152.8231 C   0  0  0  0  0  0  0  0  0  0  0  0
  131.1418  130.0716  153.9051 C   0  0  0  0  0  0  0  0  0  0  0  0
  130.1370  130.9783  153.6187 C   0  0  0  0  0  0  0  0  0  0  0  0
  129.6536  131.8115  154.6071 C   0  0  0  0  0  0  0  0  0  0  0  0
  130.1833  131.7416  155.8944 C   0  0  0  0  0  0  0  0  0  0  0  0
  129.6682  132.6347  156.9607 C   0  0  0  0  0  0  0  0  0  0  0  0
  129.6777  132.2117  158.2894 C   0  0  0  0  0  0  0  0  0  0  0  0
  129.2051  133.0438  159.2804 C   0  0  0  0  0  0  0  0  0  0  0  0
  128.7056  134.3039  158.9535 C   0  0  0  0  0  0  0  0  0  0  0  0
  128.1905  135.1971  160.0199 C   0  0  0  0  0  0  0  0  0  0  0  0
  126.9646  135.6686  160.1104 N   0  0  0  0  0  0  0  0  0  0  0  0
  126.8896  136.4690  161.2573 N   0  0  0  0  0  0  0  0  0  0  0  0
  126.1036  136.9439  161.5697 H   0  0  0  0  0  0  0  0  0  0  0  0
  128.1018  136.4656  161.8525 C   0  0  0  0  0  0  0  0  0  0  0  0
  128.9249  135.6860  161.1182 C   0  0  0  0  0  0  0  0  0  0  0  0
  130.3725  135.3942  161.4183 C   0  0  0  0  0  0  0  0  0  0  0  0
  131.2202  136.4048  160.7716 N   0  0  0  0  0  0  0  0  0  0  0  0
  131.0719  136.3796  159.7739 H   0  0  0  0  0  0  0  0  0  0  0  0
  130.9814  137.3196  161.1241 H   0  0  0  0  0  0  0  0  0  0  0  0
  132.6314  136.1203  161.0641 C   0  0  0  0  0  0  0  0  0  0  0  0
  133.5141  137.1728  160.3905 C   0  0  2  0  0  0  0  0  0  0  0  0
  133.4315  137.2310  159.3053 H   0  0  0  0  0  0  0  0  0  0  0  0
  134.8859  137.4459  161.0106 C   0  0  0  0  0  0  0  0  0  0  0  0
  133.7641  138.4767  161.1510 C   0  0  0  0  0  0  0  0  0  0  0  0
  133.9122  140.1289  160.0958 Br  0  0  0  0  0  0  0  0  0  0  0  0
  132.9262  138.6715  162.9188 Br  0  0  0  0  0  0  0  0  0  0  0  0
  128.6908  134.7245  157.6242 C   0  0  0  0  0  0  0  0  0  0  0  0
  129.1692  133.8951  156.6338 C   0  0  0  0  0  0  0  0  0  0  0  0
  131.1991  130.8298  156.1758 C   0  0  0  0  0  0  0  0  0  0  0  0
  131.6749  130.0016  155.1796 C   0  0  0  0  0  0  0  0  0  0  0  0
  132.4925  129.6430  152.3094 H   0  0  0  0  0  0  0  0  0  0  0  0
  132.0027  128.2257  153.2682 H   0  0  0  0  0  0  0  0  0  0  0  0
  130.8640  128.9528  152.1091 H   0  0  0  0  0  0  0  0  0  0  0  0
  129.7271  131.0312  152.6210 H   0  0  0  0  0  0  0  0  0  0  0  0
  128.8660  132.5158  154.3835 H   0  0  0  0  0  0  0  0  0  0  0  0
  130.0601  131.2338  158.5421 H   0  0  0  0  0  0  0  0  0  0  0  0
  129.2168  132.7181  160.3101 H   0  0  0  0  0  0  0  0  0  0  0  0
  128.3655  136.9899  162.7592 H   0  0  0  0  0  0  0  0  0  0  0  0
  130.5329  135.4213  162.4961 H   0  0  0  0  0  0  0  0  0  0  0  0
  130.6305  134.4060  161.0374 H   0  0  0  0  0  0  0  0  0  0  0  0
  132.7917  136.1476  162.1420 H   0  0  0  0  0  0  0  0  0  0  0  0
  132.8893  135.1321  160.6834 H   0  0  0  0  0  0  0  0  0  0  0  0
  135.1595  136.8757  161.8984 H   0  0  0  0  0  0  0  0  0  0  0  0
  135.7061  137.6837  160.3333 H   0  0  0  0  0  0  0  0  0  0  0  0
  128.3040  135.7006  157.3709 H   0  0  0  0  0  0  0  0  0  0  0  0
  129.1581  134.2211  155.6042 H   0  0  0  0  0  0  0  0  0  0  0  0
  131.6135  130.7717  157.1716 H   0  0  0  0  0  0  0  0  0  0  0  0
  132.4619  129.2946  155.3966 H   0  0  0  0  0  0  0  0  0  0  0  0
  1  2  1  0
  1 31  1  0
  1 32  1  0
  1 33  1  0
  2 30  2  0
  2  3  1  0
  3  4  2  0
  3 34  1  0
  4  5  1  0
  4 35  1  0
  5  6  1  0
  5 29  2  0
  6 28  1  0
  6  7  2  0
  7  8  1  0
  7 36  1  0
  8  9  2  0
  8 37  1  0
  9 10  1  0
  9 27  1  0
 10 15  1  0
 10 11  2  0
 11 12  1  0
 12 13  1  0
 12 14  1  0
 14 15  2  0
 14 38  1  0
 15 16  1  0
 16 17  1  0
 16 39  1  0
 16 40  1  0
 17 18  1  0
 17 19  1  0
 17 20  1  0
 20 21  1  0
 20 41  1  0
 20 42  1  0
 21 22  1  6
 21 24  1  0
 21 23  1  0
 23 24  1  0
 23 43  1  0
 23 44  1  0
 24 25  1  0
 24 26  1  0
 27 28  2  0
 27 45  1  0
 28 46  1  0
 29 30  1  0
 29 47  1  0
 30 48  1  0
M  CHG  1  17   1
M  END
>  <DOCK_score>  (1) 
-41.048801

>  <SMILES>  (1) 
Cc1ccc(-c2ccc(-c3n[nH]cc3C[NH2+]C[C@@H]3CC3(Br)Br)cc2)cc1

$$$$
