CCc1ccc(C(=O)C[NH2+]Cc2c[nH]nc2-c2ccc(N[C@H]3C[C@@H](CO)C3)o2)cc1
     RDKit          3D

 59 62  0  0  1  0  0  0  0  0999 V2000
  132.6051  140.8552  166.9515 C   0  0  0  0  0  0  0  0  0  0  0  0
  133.3814  141.5189  165.8124 C   0  0  0  0  0  0  0  0  0  0  0  0
  133.1416  140.7612  164.5320 C   0  0  0  0  0  0  0  0  0  0  0  0
  132.0852  141.1147  163.7105 C   0  0  0  0  0  0  0  0  0  0  0  0
  131.8582  140.4254  162.5382 C   0  0  0  0  0  0  0  0  0  0  0  0
  132.6985  139.3665  162.1800 C   0  0  0  0  0  0  0  0  0  0  0  0
  132.4633  138.6256  160.9303 C   0  0  0  0  0  0  0  0  0  0  0  0
  133.3952  138.1249  160.3377 O   0  0  0  0  0  0  0  0  0  0  0  0
  131.0650  138.4946  160.3838 C   0  0  0  0  0  0  0  0  0  0  0  0
  130.9449  137.2314  159.6438 N   0  0  0  0  0  0  0  0  0  0  0  0
  130.0088  137.1436  159.2778 H   0  0  0  0  0  0  0  0  0  0  0  0
  131.6059  137.2239  158.8816 H   0  0  0  0  0  0  0  0  0  0  0  0
  131.2254  136.1066  160.5462 C   0  0  0  0  0  0  0  0  0  0  0  0
  131.1022  134.8106  159.7869 C   0  0  0  0  0  0  0  0  0  0  0  0
  132.0937  134.1832  159.1188 C   0  0  0  0  0  0  0  0  0  0  0  0
  131.5847  133.0553  158.5773 N   0  0  0  0  0  0  0  0  0  0  0  0
  132.0740  132.4089  158.0449 H   0  0  0  0  0  0  0  0  0  0  0  0
  130.2266  132.9837  158.9124 N   0  0  0  0  0  0  0  0  0  0  0  0
  129.9290  134.0405  159.6426 C   0  0  0  0  0  0  0  0  0  0  0  0
  128.6026  134.3612  160.2091 C   0  0  0  0  0  0  0  0  0  0  0  0
  127.4737  133.6189  160.0625 C   0  0  0  0  0  0  0  0  0  0  0  0
  126.4512  134.2882  160.7633 C   0  0  0  0  0  0  0  0  0  0  0  0
  127.0030  135.4073  161.2952 C   0  0  0  0  0  0  0  0  0  0  0  0
  126.3363  136.3559  162.0619 N   0  0  0  0  0  0  0  0  0  0  0  0
  127.0616  137.1105  163.0870 C   0  0  1  0  0  0  0  0  0  0  0  0
  127.8871  137.6936  162.6786 H   0  0  0  0  0  0  0  0  0  0  0  0
  126.1449  137.9137  164.0247 C   0  0  0  0  0  0  0  0  0  0  0  0
  127.0783  137.4906  165.1712 C   0  0  1  0  0  0  0  0  0  0  0  0
  127.9092  138.1770  165.3338 H   0  0  0  0  0  0  0  0  0  0  0  0
  126.3399  137.1350  166.4632 C   0  0  0  0  0  0  0  0  0  0  0  0
  127.2867  136.7566  167.4642 O   0  0  0  0  0  0  0  0  0  0  0  0
  127.4477  136.2682  164.3142 C   0  0  0  0  0  0  0  0  0  0  0  0
  128.3029  135.4445  160.9562 O   0  0  0  0  0  0  0  0  0  0  0  0
  133.7603  139.0116  163.0182 C   0  0  0  0  0  0  0  0  0  0  0  0
  133.9774  139.7142  164.1847 C   0  0  0  0  0  0  0  0  0  0  0  0
  132.9429  139.8257  167.0700 H   0  0  0  0  0  0  0  0  0  0  0  0
  132.7789  141.4034  167.8774 H   0  0  0  0  0  0  0  0  0  0  0  0
  131.5403  140.8636  166.7187 H   0  0  0  0  0  0  0  0  0  0  0  0
  134.4463  141.5105  166.0451 H   0  0  0  0  0  0  0  0  0  0  0  0
  133.0436  142.5483  165.6939 H   0  0  0  0  0  0  0  0  0  0  0  0
  131.4371  141.9327  163.9886 H   0  0  0  0  0  0  0  0  0  0  0  0
  131.0333  140.7023  161.8982 H   0  0  0  0  0  0  0  0  0  0  0  0
  130.3510  138.5027  161.2072 H   0  0  0  0  0  0  0  0  0  0  0  0
  130.8569  139.3292  159.7143 H   0  0  0  0  0  0  0  0  0  0  0  0
  132.2368  136.2015  160.9414 H   0  0  0  0  0  0  0  0  0  0  0  0
  130.5113  136.1146  161.3696 H   0  0  0  0  0  0  0  0  0  0  0  0
  133.1156  134.5223  159.0345 H   0  0  0  0  0  0  0  0  0  0  0  0
  127.3790  132.6924  159.5154 H   0  0  0  0  0  0  0  0  0  0  0  0
  125.4225  133.9725  160.8561 H   0  0  0  0  0  0  0  0  0  0  0  0
  125.3909  136.5183  161.9183 H   0  0  0  0  0  0  0  0  0  0  0  0
  126.1520  138.9861  163.8292 H   0  0  0  0  0  0  0  0  0  0  0  0
  125.1382  137.5041  164.1075 H   0  0  0  0  0  0  0  0  0  0  0  0
  125.7732  138.0000  166.8076 H   0  0  0  0  0  0  0  0  0  0  0  0
  125.6584  136.3052  166.2756 H   0  0  0  0  0  0  0  0  0  0  0  0
  127.9263  137.4484  167.6824 H   0  0  0  0  0  0  0  0  0  0  0  0
  126.7972  135.4088  164.4761 H   0  0  0  0  0  0  0  0  0  0  0  0
  128.5066  136.0121  164.3524 H   0  0  0  0  0  0  0  0  0  0  0  0
  134.4107  138.1919  162.7508 H   0  0  0  0  0  0  0  0  0  0  0  0
  134.7993  139.4439  164.8313 H   0  0  0  0  0  0  0  0  0  0  0  0
  1  2  1  0
  1 36  1  0
  1 37  1  0
  1 38  1  0
  2  3  1  0
  2 39  1  0
  2 40  1  0
  3 35  2  0
  3  4  1  0
  4  5  2  0
  4 41  1  0
  5  6  1  0
  5 42  1  0
  6  7  1  0
  6 34  2  0
  7  8  2  0
  7  9  1  0
  9 10  1  0
  9 43  1  0
  9 44  1  0
 10 11  1  0
 10 12  1  0
 10 13  1  0
 13 14  1  0
 13 45  1  0
 13 46  1  0
 14 19  1  0
 14 15  2  0
 15 16  1  0
 15 47  1  0
 16 17  1  0
 16 18  1  0
 18 19  2  0
 19 20  1  0
 20 33  1  0
 20 21  2  0
 21 22  1  0
 21 48  1  0
 22 23  2  0
 22 49  1  0
 23 24  1  0
 23 33  1  0
 24 25  1  0
 24 50  1  0
 25 26  1  6
 25 32  1  0
 25 27  1  0
 27 28  1  0
 27 51  1  0
 27 52  1  0
 28 29  1  1
 28 30  1  0
 28 32  1  0
 30 31  1  0
 30 53  1  0
 30 54  1  0
 31 55  1  0
 32 56  1  0
 32 57  1  0
 34 35  1  0
 34 58  1  0
 35 59  1  0
M  CHG  1  10   1
M  END
>  <DOCK_score>  (1) 
-41.335968

>  <SMILES>  (1) 
CCc1ccc(C(=O)C[NH2+]Cc2c[nH]nc2-c2ccc(N[C@H]3C[C@@H](CO)C3)o2)cc1

$$$$
