CCc1ccc(-c2c[nH]c(Nc3ccc(N)c(N4CCC[C@@H](n5cccn5)C4)c3)[nH+]2)cc1
     RDKit          3D

 62 66  0  0  1  0  0  0  0  0999 V2000
  130.1833  128.6729  151.4763 C   0  0  0  0  0  0  0  0  0  0  0  0
  131.3529  129.5993  151.8156 C   0  0  0  0  0  0  0  0  0  0  0  0
  131.0495  130.3459  153.0889 C   0  0  0  0  0  0  0  0  0  0  0  0
  131.4225  129.8078  154.3081 C   0  0  0  0  0  0  0  0  0  0  0  0
  131.1470  130.4866  155.4778 C   0  0  0  0  0  0  0  0  0  0  0  0
  130.4924  131.7161  155.4293 C   0  0  0  0  0  0  0  0  0  0  0  0
  130.1932  132.4501  156.6831 C   0  0  0  0  0  0  0  0  0  0  0  0
  129.4229  132.0023  157.7056 C   0  0  0  0  0  0  0  0  0  0  0  0
  129.4112  132.9911  158.6586 N   0  0  0  0  0  0  0  0  0  0  0  0
  128.9442  132.9648  159.5083 H   0  0  0  0  0  0  0  0  0  0  0  0
  130.1755  134.0157  158.1902 C   0  0  0  0  0  0  0  0  0  0  0  0
  130.4210  135.2072  158.8520 N   0  0  0  0  0  0  0  0  0  0  0  0
  129.8613  135.4345  160.1156 C   0  0  0  0  0  0  0  0  0  0  0  0
  128.4817  135.4339  160.2736 C   0  0  0  0  0  0  0  0  0  0  0  0
  127.9262  135.6576  161.5195 C   0  0  0  0  0  0  0  0  0  0  0  0
  128.7453  135.8841  162.6148 C   0  0  0  0  0  0  0  0  0  0  0  0
  128.1804  136.1109  163.8787 N   0  0  0  0  0  0  0  0  0  0  0  0
  130.1312  135.8859  162.4593 C   0  0  0  0  0  0  0  0  0  0  0  0
  130.9605  136.1150  163.5639 N   0  0  0  0  0  0  0  0  0  0  0  0
  131.7800  134.9331  163.8607 C   0  0  0  0  0  0  0  0  0  0  0  0
  132.5633  135.1659  165.1547 C   0  0  0  0  0  0  0  0  0  0  0  0
  133.4546  136.4002  164.9909 C   0  0  0  0  0  0  0  0  0  0  0  0
  132.5816  137.6067  164.6347 C   0  0  1  0  0  0  0  0  0  0  0  0
  131.8861  137.8060  165.4499 H   0  0  0  0  0  0  0  0  0  0  0  0
  133.4326  138.7798  164.4199 N   0  0  0  0  0  0  0  0  0  0  0  0
  134.4069  138.8947  163.4934 C   0  0  0  0  0  0  0  0  0  0  0  0
  134.9558  140.1249  163.6226 C   0  0  0  0  0  0  0  0  0  0  0  0
  134.2882  140.7875  164.6577 C   0  0  0  0  0  0  0  0  0  0  0  0
  133.3750  139.9819  165.1365 N   0  0  0  0  0  0  0  0  0  0  0  0
  131.7978  137.3032  163.3558 C   0  0  0  0  0  0  0  0  0  0  0  0
  130.6862  135.6663  161.2082 C   0  0  0  0  0  0  0  0  0  0  0  0
  130.6364  133.6905  157.0068 N   0  0  0  0  0  0  0  0  0  0  0  0
  131.2055  134.2470  156.4525 H   0  0  0  0  0  0  0  0  0  0  0  0
  130.1150  132.2506  154.1986 C   0  0  0  0  0  0  0  0  0  0  0  0
  130.3994  131.5652  153.0352 C   0  0  0  0  0  0  0  0  0  0  0  0
  130.0365  127.9609  152.2885 H   0  0  0  0  0  0  0  0  0  0  0  0
  129.2776  129.2648  151.3440 H   0  0  0  0  0  0  0  0  0  0  0  0
  130.4025  128.1332  150.5552 H   0  0  0  0  0  0  0  0  0  0  0  0
  131.4997  130.3113  151.0034 H   0  0  0  0  0  0  0  0  0  0  0  0
  132.2585  129.0073  151.9480 H   0  0  0  0  0  0  0  0  0  0  0  0
  131.9296  128.8550  154.3444 H   0  0  0  0  0  0  0  0  0  0  0  0
  131.4384  130.0659  156.4288 H   0  0  0  0  0  0  0  0  0  0  0  0
  128.9154  131.0506  157.7598 H   0  0  0  0  0  0  0  0  0  0  0  0
  130.9805  135.8844  158.4405 H   0  0  0  0  0  0  0  0  0  0  0  0
  127.8416  135.2579  159.4217 H   0  0  0  0  0  0  0  0  0  0  0  0
  126.8530  135.6561  161.6398 H   0  0  0  0  0  0  0  0  0  0  0  0
  128.7453  136.3730  164.6225 H   0  0  0  0  0  0  0  0  0  0  0  0
  127.2249  136.0057  164.0091 H   0  0  0  0  0  0  0  0  0  0  0  0
  132.4766  134.7590  163.0408 H   0  0  0  0  0  0  0  0  0  0  0  0
  131.1337  134.0633  163.9789 H   0  0  0  0  0  0  0  0  0  0  0  0
  133.1833  134.2948  165.3663 H   0  0  0  0  0  0  0  0  0  0  0  0
  131.8674  135.3261  165.9782 H   0  0  0  0  0  0  0  0  0  0  0  0
  134.1767  136.2249  164.1935 H   0  0  0  0  0  0  0  0  0  0  0  0
  133.9827  136.5956  165.9242 H   0  0  0  0  0  0  0  0  0  0  0  0
  134.6982  138.1394  162.7785 H   0  0  0  0  0  0  0  0  0  0  0  0
  135.7634  140.5260  163.0282 H   0  0  0  0  0  0  0  0  0  0  0  0
  134.4912  141.7906  165.0023 H   0  0  0  0  0  0  0  0  0  0  0  0
  131.1645  138.1548  163.1073 H   0  0  0  0  0  0  0  0  0  0  0  0
  132.4944  137.1179  162.5382 H   0  0  0  0  0  0  0  0  0  0  0  0
  131.7589  135.6715  161.0841 H   0  0  0  0  0  0  0  0  0  0  0  0
  129.6035  133.2009  154.1556 H   0  0  0  0  0  0  0  0  0  0  0  0
  130.1104  131.9799  152.0809 H   0  0  0  0  0  0  0  0  0  0  0  0
  1  2  1  0
  1 36  1  0
  1 37  1  0
  1 38  1  0
  2  3  1  0
  2 39  1  0
  2 40  1  0
  3 35  2  0
  3  4  1  0
  4  5  2  0
  4 41  1  0
  5  6  1  0
  5 42  1  0
  6  7  1  0
  6 34  2  0
  7 32  1  0
  7  8  2  0
  8  9  1  0
  8 43  1  0
  9 10  1  0
  9 11  1  0
 11 12  1  0
 11 32  2  0
 12 13  1  0
 12 44  1  0
 13 31  1  0
 13 14  2  0
 14 15  1  0
 14 45  1  0
 15 16  2  0
 15 46  1  0
 16 17  1  0
 16 18  1  0
 17 47  1  0
 17 48  1  0
 18 19  1  0
 18 31  2  0
 19 30  1  0
 19 20  1  0
 20 21  1  0
 20 49  1  0
 20 50  1  0
 21 22  1  0
 21 51  1  0
 21 52  1  0
 22 23  1  0
 22 53  1  0
 22 54  1  0
 23 24  1  1
 23 25  1  0
 23 30  1  0
 25 29  1  0
 25 26  1  0
 26 27  2  0
 26 55  1  0
 27 28  1  0
 27 56  1  0
 28 29  2  0
 28 57  1  0
 30 58  1  0
 30 59  1  0
 31 60  1  0
 32 33  1  0
 34 35  1  0
 34 61  1  0
 35 62  1  0
M  CHG  1  32   1
M  END
>  <DOCK_score>  (1) 
-56.05069

>  <SMILES>  (1) 
CCc1ccc(-c2c[nH]c(Nc3ccc(N)c(N4CCC[C@@H](n5cccn5)C4)c3)[nH+]2)cc1

$$$$
