Brc1cccc(C2=CC[N@H+](CC3=Cc4cc(Br)ccc4OC3)CC2)c1
     RDKit          3D

 45 48  0  0  1  0  0  0  0  0999 V2000
  136.0110  141.3568  163.5750 Br  0  0  0  0  0  0  0  0  0  0  0  0
  135.5190  140.6724  161.8822 C   0  0  0  0  0  0  0  0  0  0  0  0
  136.1097  141.1752  160.7353 C   0  0  0  0  0  0  0  0  0  0  0  0
  135.7548  140.6801  159.4937 C   0  0  0  0  0  0  0  0  0  0  0  0
  134.8096  139.6799  159.3906 C   0  0  0  0  0  0  0  0  0  0  0  0
  134.2108  139.1681  160.5422 C   0  0  0  0  0  0  0  0  0  0  0  0
  133.1977  138.0968  160.4384 C   0  0  0  0  0  0  0  0  0  0  0  0
  131.9314  138.4312  160.3148 C   0  0  0  0  0  0  0  0  0  0  0  0
  130.8263  137.4203  160.2090 C   0  0  0  0  0  0  0  0  0  0  0  0
  131.3665  136.1090  159.8315 N   0  0  2  0  0  0  0  0  0  0  0  0
  131.7249  136.1501  158.8892 H   0  0  0  0  0  0  0  0  0  0  0  0
  130.3033  135.0983  159.9095 C   0  0  0  0  0  0  0  0  0  0  0  0
  130.6888  133.8990  159.0824 C   0  0  0  0  0  0  0  0  0  0  0  0
  130.3450  133.8404  157.7992 C   0  0  0  0  0  0  0  0  0  0  0  0
  130.7139  132.6334  157.0300 C   0  0  0  0  0  0  0  0  0  0  0  0
  130.6583  132.6143  155.6405 C   0  0  0  0  0  0  0  0  0  0  0  0
  131.0237  131.4684  154.9595 C   0  0  0  0  0  0  0  0  0  0  0  0
  130.9500  131.4323  153.0702 Br  0  0  0  0  0  0  0  0  0  0  0  0
  131.4431  130.3465  155.6546 C   0  0  0  0  0  0  0  0  0  0  0  0
  131.4970  130.3561  157.0367 C   0  0  0  0  0  0  0  0  0  0  0  0
  131.1285  131.4935  157.7316 C   0  0  0  0  0  0  0  0  0  0  0  0
  131.1497  131.5283  159.0888 O   0  0  0  0  0  0  0  0  0  0  0  0
  131.4674  132.7731  159.7100 C   0  0  0  0  0  0  0  0  0  0  0  0
  132.4527  135.7538  160.7585 C   0  0  0  0  0  0  0  0  0  0  0  0
  133.6515  136.6635  160.4783 C   0  0  0  0  0  0  0  0  0  0  0  0
  134.5683  139.6757  161.7919 C   0  0  0  0  0  0  0  0  0  0  0  0
  136.8486  141.9591  160.8108 H   0  0  0  0  0  0  0  0  0  0  0  0
  136.2187  141.0769  158.6028 H   0  0  0  0  0  0  0  0  0  0  0  0
  134.5335  139.2944  158.4202 H   0  0  0  0  0  0  0  0  0  0  0  0
  131.6751  139.4800  160.2886 H   0  0  0  0  0  0  0  0  0  0  0  0
  130.1106  137.7462  159.4542 H   0  0  0  0  0  0  0  0  0  0  0  0
  130.3224  137.3388  161.1721 H   0  0  0  0  0  0  0  0  0  0  0  0
  129.3731  135.5192  159.5277 H   0  0  0  0  0  0  0  0  0  0  0  0
  130.1659  134.7950  160.9472 H   0  0  0  0  0  0  0  0  0  0  0  0
  129.8098  134.6535  157.3315 H   0  0  0  0  0  0  0  0  0  0  0  0
  130.3319  133.4890  155.0974 H   0  0  0  0  0  0  0  0  0  0  0  0
  131.7307  129.4572  155.1134 H   0  0  0  0  0  0  0  0  0  0  0  0
  131.8263  129.4778  157.5719 H   0  0  0  0  0  0  0  0  0  0  0  0
  132.5339  132.9684  159.5971 H   0  0  0  0  0  0  0  0  0  0  0  0
  131.2242  132.7169  160.7710 H   0  0  0  0  0  0  0  0  0  0  0  0
  132.1179  135.8963  161.7860 H   0  0  0  0  0  0  0  0  0  0  0  0
  132.7389  134.7133  160.6051 H   0  0  0  0  0  0  0  0  0  0  0  0
  134.0937  136.3958  159.5186 H   0  0  0  0  0  0  0  0  0  0  0  0
  134.3935  136.5393  161.2669 H   0  0  0  0  0  0  0  0  0  0  0  0
  134.1049  139.2870  162.6866 H   0  0  0  0  0  0  0  0  0  0  0  0
  1  2  1  0
  2 26  2  0
  2  3  1  0
  3  4  2  0
  3 27  1  0
  4  5  1  0
  4 28  1  0
  5  6  2  0
  5 29  1  0
  6  7  1  0
  6 26  1  0
  7 25  1  0
  7  8  2  0
  8  9  1  0
  8 30  1  0
  9 10  1  0
  9 31  1  0
  9 32  1  0
 10 11  1  6
 10 12  1  0
 10 24  1  0
 12 13  1  0
 12 33  1  0
 12 34  1  0
 13 23  1  0
 13 14  2  0
 14 15  1  0
 14 35  1  0
 15 21  2  0
 15 16  1  0
 16 17  2  0
 16 36  1  0
 17 18  1  0
 17 19  1  0
 19 20  2  0
 19 37  1  0
 20 21  1  0
 20 38  1  0
 21 22  1  0
 22 23  1  0
 23 39  1  0
 23 40  1  0
 24 25  1  0
 24 41  1  0
 24 42  1  0
 25 43  1  0
 25 44  1  0
 26 45  1  0
M  CHG  1  10   1
M  END
>  <DOCK_score>  (1) 
-56.405422

>  <SMILES>  (1) 
Brc1cccc(C2=CC[N@H+](CC3=Cc4cc(Br)ccc4OC3)CC2)c1

$$$$
