O=C1CC[C@H](NC(NC2CC[C@@H]3C4C=CC(CCC4)C3C2)=[NH+]C2CC2)CN1
     RDKit          3D

 62 66  0  0  1  0  0  0  0  0999 V2000
  123.6760  134.0221  161.7820 O   0  0  0  0  0  0  0  0  0  0  0  0
  124.8631  134.2034  161.6125 C   0  0  0  0  0  0  0  0  0  0  0  0
  125.6888  133.0631  161.0899 C   0  0  0  0  0  0  0  0  0  0  0  0
  127.1731  133.3290  161.3505 C   0  0  0  0  0  0  0  0  0  0  0  0
  127.5007  134.7516  160.8814 C   0  0  2  0  0  0  0  0  0  0  0  0
  127.1661  134.8836  159.8525 H   0  0  0  0  0  0  0  0  0  0  0  0
  128.9464  134.9746  160.9606 N   0  0  0  0  0  0  0  0  0  0  0  0
  129.7470  134.6831  159.8814 C   0  0  0  0  0  0  0  0  0  0  0  0
  130.9014  135.3988  159.6687 N   0  0  0  0  0  0  0  0  0  0  0  0
  131.2784  136.4721  160.5918 C   0  0  2  0  0  0  0  0  0  0  0  0
  130.6744  137.7971  160.1122 C   0  0  0  0  0  0  0  0  0  0  0  0
  130.9858  138.8696  161.1637 C   0  0  0  0  0  0  0  0  0  0  0  0
  132.4529  138.9545  161.4216 C   0  0  2  0  0  0  0  0  0  0  0  0
  132.3695  139.2117  162.4776 H   0  0  0  0  0  0  0  0  0  0  0  0
  133.2125  140.1462  161.0341 C   0  0  2  0  0  0  0  0  0  0  0  0
  134.2365  139.7876  159.9662 C   0  0  0  0  0  0  0  0  0  0  0  0
  134.9458  138.7062  160.1682 C   0  0  0  0  0  0  0  0  0  0  0  0
  134.7260  137.9173  161.4350 C   0  0  1  0  0  0  0  0  0  0  0  0
  135.3191  138.6767  162.6149 C   0  0  0  0  0  0  0  0  0  0  0  0
  135.3661  140.1875  162.3159 C   0  0  0  0  0  0  0  0  0  0  0  0
  133.9839  140.7475  162.1975 C   0  0  0  0  0  0  0  0  0  0  0  0
  133.2170  137.6804  161.6423 C   0  0  2  0  0  0  0  0  0  0  0  0
  132.7877  136.5997  160.6414 C   0  0  0  0  0  0  0  0  0  0  0  0
  129.4115  133.7281  159.0602 N   0  0  0  0  0  0  0  0  0  0  0  0
  128.4753  133.5191  158.9160 H   0  0  0  0  0  0  0  0  0  0  0  0
  130.4483  132.9705  158.3550 C   0  0  0  0  0  0  0  0  0  0  0  0
  130.5598  133.1658  156.8417 C   0  0  0  0  0  0  0  0  0  0  0  0
  129.9904  131.8622  157.4048 C   0  0  0  0  0  0  0  0  0  0  0  0
  126.7774  135.7485  161.7879 C   0  0  0  0  0  0  0  0  0  0  0  0
  125.3653  135.4049  161.8997 N   0  0  0  0  0  0  0  0  0  0  0  0
  125.3918  132.1417  161.5909 H   0  0  0  0  0  0  0  0  0  0  0  0
  125.5263  132.9603  160.0169 H   0  0  0  0  0  0  0  0  0  0  0  0
  127.7792  132.6115  160.7974 H   0  0  0  0  0  0  0  0  0  0  0  0
  127.3780  133.2380  162.4172 H   0  0  0  0  0  0  0  0  0  0  0  0
  129.3388  135.3279  161.7742 H   0  0  0  0  0  0  0  0  0  0  0  0
  131.4662  135.1931  158.9074 H   0  0  0  0  0  0  0  0  0  0  0  0
  130.9067  136.2419  161.5902 H   0  0  0  0  0  0  0  0  0  0  0  0
  129.5952  137.6915  160.0023 H   0  0  0  0  0  0  0  0  0  0  0  0
  131.1167  138.0788  159.1567 H   0  0  0  0  0  0  0  0  0  0  0  0
  130.4728  138.6199  162.0926 H   0  0  0  0  0  0  0  0  0  0  0  0
  130.6285  139.8354  160.8067 H   0  0  0  0  0  0  0  0  0  0  0  0
  132.5277  140.8921  160.6309 H   0  0  0  0  0  0  0  0  0  0  0  0
  134.3697  140.3950  159.0831 H   0  0  0  0  0  0  0  0  0  0  0  0
  135.6762  138.3848  159.4407 H   0  0  0  0  0  0  0  0  0  0  0  0
  135.2302  136.9560  161.3364 H   0  0  0  0  0  0  0  0  0  0  0  0
  136.3302  138.3157  162.8035 H   0  0  0  0  0  0  0  0  0  0  0  0
  134.7049  138.5039  163.4986 H   0  0  0  0  0  0  0  0  0  0  0  0
  135.9012  140.3518  161.3808 H   0  0  0  0  0  0  0  0  0  0  0  0
  135.8914  140.6965  163.1241 H   0  0  0  0  0  0  0  0  0  0  0  0
  133.4416  140.5466  163.1214 H   0  0  0  0  0  0  0  0  0  0  0  0
  134.0513  141.8262  162.0560 H   0  0  0  0  0  0  0  0  0  0  0  0
  133.0419  137.3234  162.6572 H   0  0  0  0  0  0  0  0  0  0  0  0
  133.1415  136.8689  159.6462 H   0  0  0  0  0  0  0  0  0  0  0  0
  133.2272  135.6451  160.9310 H   0  0  0  0  0  0  0  0  0  0  0  0
  131.3714  132.8071  158.9111 H   0  0  0  0  0  0  0  0  0  0  0  0
  129.8620  133.8580  156.3707 H   0  0  0  0  0  0  0  0  0  0  0  0
  131.5567  133.1311  156.4019 H   0  0  0  0  0  0  0  0  0  0  0  0
  130.6124  130.9699  157.3355 H   0  0  0  0  0  0  0  0  0  0  0  0
  128.9177  131.6965  157.3047 H   0  0  0  0  0  0  0  0  0  0  0  0
  127.2322  135.7305  162.7784 H   0  0  0  0  0  0  0  0  0  0  0  0
  126.8723  136.7506  161.3695 H   0  0  0  0  0  0  0  0  0  0  0  0
  124.7525  136.0935  162.2017 H   0  0  0  0  0  0  0  0  0  0  0  0
  1  2  2  0
  2 30  1  0
  2  3  1  0
  3  4  1  0
  3 31  1  0
  3 32  1  0
  4  5  1  0
  4 33  1  0
  4 34  1  0
  5  6  1  6
  5  7  1  0
  5 29  1  0
  7 35  1  0
  8  7  1  0
  8  9  1  0
  8 24  2  0
  9 10  1  0
  9 36  1  0
 10 23  1  0
 10 11  1  0
 10 37  1  1
 11 12  1  0
 11 38  1  0
 11 39  1  0
 12 13  1  0
 12 40  1  0
 12 41  1  0
 13 14  1  1
 13 22  1  0
 13 15  1  0
 15 21  1  0
 15 16  1  0
 15 42  1  6
 16 17  2  0
 16 43  1  0
 17 18  1  0
 17 44  1  0
 18 19  1  0
 18 22  1  0
 18 45  1  6
 19 20  1  0
 19 46  1  0
 19 47  1  0
 20 21  1  0
 20 48  1  0
 20 49  1  0
 21 50  1  0
 21 51  1  0
 22 23  1  0
 22 52  1  1
 23 53  1  0
 23 54  1  0
 24 25  1  0
 24 26  1  0
 26 28  1  0
 26 27  1  0
 26 55  1  0
 27 28  1  0
 27 56  1  0
 27 57  1  0
 28 58  1  0
 28 59  1  0
 29 30  1  0
 29 60  1  0
 29 61  1  0
 30 62  1  0
M  CHG  1  24   1
M  END
>  <DOCK_score>  (1) 
-46.529732

>  <SMILES>  (1) 
O=C1CC[C@H](NC(NC2CC[C@@H]3C4C=CC(CCC4)C3C2)=[NH+]C2CC2)CN1

$$$$
