Nc1ccc(-c2c[nH]c(N[C@@H](Cc3ccc(-c4ccc5c(c4)CCCC5)cc3)c3ccccc3)[nH+]2)cc1
     RDKit          3D

 70 75  0  0  1  0  0  0  0  0999 V2000
  131.6052  129.4496  151.3263 N   0  0  0  0  0  0  0  0  0  0  0  0
  131.2992  130.0972  152.5255 C   0  0  0  0  0  0  0  0  0  0  0  0
  130.5777  131.2849  152.5082 C   0  0  0  0  0  0  0  0  0  0  0  0
  130.2744  131.9258  153.6908 C   0  0  0  0  0  0  0  0  0  0  0  0
  130.6920  131.3817  154.9044 C   0  0  0  0  0  0  0  0  0  0  0  0
  130.3668  132.0694  156.1780 C   0  0  0  0  0  0  0  0  0  0  0  0
  129.6433  131.5525  157.2017 C   0  0  0  0  0  0  0  0  0  0  0  0
  129.5804  132.5218  158.1747 N   0  0  0  0  0  0  0  0  0  0  0  0
  129.1269  132.4498  159.0291 H   0  0  0  0  0  0  0  0  0  0  0  0
  130.2722  133.6007  157.7177 C   0  0  0  0  0  0  0  0  0  0  0  0
  130.4499  134.7925  158.3994 N   0  0  0  0  0  0  0  0  0  0  0  0
  129.4273  135.2581  159.3396 C   0  0  1  0  0  0  0  0  0  0  0  0
  129.2976  134.5191  160.1305 H   0  0  0  0  0  0  0  0  0  0  0  0
  129.8664  136.5893  159.9526 C   0  0  0  0  0  0  0  0  0  0  0  0
  130.8582  136.3308  161.0575 C   0  0  0  0  0  0  0  0  0  0  0  0
  132.2106  136.2804  160.7715 C   0  0  0  0  0  0  0  0  0  0  0  0
  133.1236  136.0486  161.7803 C   0  0  0  0  0  0  0  0  0  0  0  0
  132.6801  135.8548  163.0870 C   0  0  0  0  0  0  0  0  0  0  0  0
  133.6567  135.5992  164.1746 C   0  0  0  0  0  0  0  0  0  0  0  0
  134.8614  134.9549  163.8992 C   0  0  0  0  0  0  0  0  0  0  0  0
  135.7576  134.7218  164.9182 C   0  0  0  0  0  0  0  0  0  0  0  0
  135.4736  135.1218  166.2191 C   0  0  0  0  0  0  0  0  0  0  0  0
  134.2865  135.7644  166.4957 C   0  0  0  0  0  0  0  0  0  0  0  0
  133.3790  136.0057  165.4747 C   0  0  0  0  0  0  0  0  0  0  0  0
  133.9246  136.2384  167.8791 C   0  0  0  0  0  0  0  0  0  0  0  0
  134.7834  135.5369  168.9291 C   0  0  0  0  0  0  0  0  0  0  0  0
  136.2550  135.6770  168.5220 C   0  0  0  0  0  0  0  0  0  0  0  0
  136.4965  134.8178  167.2828 C   0  0  0  0  0  0  0  0  0  0  0  0
  131.3163  135.9014  163.3683 C   0  0  0  0  0  0  0  0  0  0  0  0
  130.4124  136.1391  162.3526 C   0  0  0  0  0  0  0  0  0  0  0  0
  128.1225  135.4471  158.6098 C   0  0  0  0  0  0  0  0  0  0  0  0
  126.9252  135.2644  159.2762 C   0  0  0  0  0  0  0  0  0  0  0  0
  125.7282  135.4416  158.6077 C   0  0  0  0  0  0  0  0  0  0  0  0
  125.7287  135.7935  157.2709 C   0  0  0  0  0  0  0  0  0  0  0  0
  126.9260  135.9713  156.6033 C   0  0  0  0  0  0  0  0  0  0  0  0
  128.1230  135.7978  157.2727 C   0  0  0  0  0  0  0  0  0  0  0  0
  130.7432  133.3254  156.5257 N   0  0  0  0  0  0  0  0  0  0  0  0
  131.2727  133.9258  155.9779 H   0  0  0  0  0  0  0  0  0  0  0  0
  131.4205  130.1933  154.9191 C   0  0  0  0  0  0  0  0  0  0  0  0
  131.7164  129.5525  153.7344 C   0  0  0  0  0  0  0  0  0  0  0  0
  131.3146  129.8288  150.4823 H   0  0  0  0  0  0  0  0  0  0  0  0
  132.1091  128.6205  151.3375 H   0  0  0  0  0  0  0  0  0  0  0  0
  130.2547  131.7062  151.5678 H   0  0  0  0  0  0  0  0  0  0  0  0
  129.7133  132.8486  153.6769 H   0  0  0  0  0  0  0  0  0  0  0  0
  129.1979  130.5694  157.2429 H   0  0  0  0  0  0  0  0  0  0  0  0
  131.2513  135.3194  158.2545 H   0  0  0  0  0  0  0  0  0  0  0  0
  130.3312  137.2073  159.1844 H   0  0  0  0  0  0  0  0  0  0  0  0
  128.9972  137.1067  160.3585 H   0  0  0  0  0  0  0  0  0  0  0  0
  132.5531  136.4266  159.7577 H   0  0  0  0  0  0  0  0  0  0  0  0
  134.1797  136.0134  161.5566 H   0  0  0  0  0  0  0  0  0  0  0  0
  135.0908  134.6400  162.8919 H   0  0  0  0  0  0  0  0  0  0  0  0
  136.6911  134.2225  164.7048 H   0  0  0  0  0  0  0  0  0  0  0  0
  132.4486  136.5091  165.6921 H   0  0  0  0  0  0  0  0  0  0  0  0
  134.0854  137.3146  167.9438 H   0  0  0  0  0  0  0  0  0  0  0  0
  132.8738  136.0206  168.0703 H   0  0  0  0  0  0  0  0  0  0  0  0
  134.6260  136.0015  169.9024 H   0  0  0  0  0  0  0  0  0  0  0  0
  134.5149  134.4816  168.9778 H   0  0  0  0  0  0  0  0  0  0  0  0
  136.4752  136.7198  168.2941 H   0  0  0  0  0  0  0  0  0  0  0  0
  136.8949  135.3355  169.3357 H   0  0  0  0  0  0  0  0  0  0  0  0
  136.4282  133.7649  167.5566 H   0  0  0  0  0  0  0  0  0  0  0  0
  137.4931  135.0229  166.8920 H   0  0  0  0  0  0  0  0  0  0  0  0
  130.9671  135.7523  164.3794 H   0  0  0  0  0  0  0  0  0  0  0  0
  129.3549  136.1750  162.5696 H   0  0  0  0  0  0  0  0  0  0  0  0
  126.9249  134.9859  160.3196 H   0  0  0  0  0  0  0  0  0  0  0  0
  124.7927  135.3024  159.1292 H   0  0  0  0  0  0  0  0  0  0  0  0
  124.7935  135.9294  156.7479 H   0  0  0  0  0  0  0  0  0  0  0  0
  126.9263  136.2458  155.5588 H   0  0  0  0  0  0  0  0  0  0  0  0
  129.0584  135.9366  156.7510 H   0  0  0  0  0  0  0  0  0  0  0  0
  131.7492  129.7724  155.8578 H   0  0  0  0  0  0  0  0  0  0  0  0
  132.2766  128.6293  153.7456 H   0  0  0  0  0  0  0  0  0  0  0  0
  1  2  1  0
  1 41  1  0
  1 42  1  0
  2 40  2  0
  2  3  1  0
  3  4  2  0
  3 43  1  0
  4  5  1  0
  4 44  1  0
  5  6  1  0
  5 39  2  0
  6 37  1  0
  6  7  2  0
  7  8  1  0
  7 45  1  0
  8  9  1  0
  8 10  1  0
 10 11  1  0
 10 37  2  0
 11 12  1  0
 11 46  1  0
 12 13  1  1
 12 14  1  0
 12 31  1  0
 14 15  1  0
 14 47  1  0
 14 48  1  0
 15 30  1  0
 15 16  2  0
 16 17  1  0
 16 49  1  0
 17 18  2  0
 17 50  1  0
 18 19  1  0
 18 29  1  0
 19 24  1  0
 19 20  2  0
 20 21  1  0
 20 51  1  0
 21 22  2  0
 21 52  1  0
 22 28  1  0
 22 23  1  0
 23 24  2  0
 23 25  1  0
 24 53  1  0
 25 26  1  0
 25 54  1  0
 25 55  1  0
 26 27  1  0
 26 56  1  0
 26 57  1  0
 27 28  1  0
 27 58  1  0
 27 59  1  0
 28 60  1  0
 28 61  1  0
 29 30  2  0
 29 62  1  0
 30 63  1  0
 31 36  1  0
 31 32  2  0
 32 33  1  0
 32 64  1  0
 33 34  2  0
 33 65  1  0
 34 35  1  0
 34 66  1  0
 35 36  2  0
 35 67  1  0
 36 68  1  0
 37 38  1  0
 39 40  1  0
 39 69  1  0
 40 70  1  0
M  CHG  1  37   1
M  END
>  <DOCK_score>  (1) 
-69.754639

>  <SMILES>  (1) 
Nc1ccc(-c2c[nH]c(N[C@@H](Cc3ccc(-c4ccc5c(c4)CCCC5)cc3)c3ccccc3)[nH+]2)cc1

$$$$
