Clc1ccc([C@H](c2ccccc2)[NH+]2CCN(C3=CCCC3Oc3cncnc3)CC2)cc1
     RDKit          3D

 60 64  0  0  1  0  0  0  0  0999 V2000
  131.4662  129.5818  154.3896 Cl  0  0  0  0  0  0  0  0  0  0  0  0
  131.0084  130.6423  155.6856 C   0  0  0  0  0  0  0  0  0  0  0  0
  130.4345  131.8695  155.4061 C   0  0  0  0  0  0  0  0  0  0  0  0
  130.0713  132.7135  156.4386 C   0  0  0  0  0  0  0  0  0  0  0  0
  130.2814  132.3316  157.7505 C   0  0  0  0  0  0  0  0  0  0  0  0
  129.8851  133.2524  158.8757 C   0  0  2  0  0  0  0  0  0  0  0  0
  129.6193  132.6615  159.7521 H   0  0  0  0  0  0  0  0  0  0  0  0
  128.7013  134.0830  158.4518 C   0  0  0  0  0  0  0  0  0  0  0  0
  127.4176  133.6227  158.6776 C   0  0  0  0  0  0  0  0  0  0  0  0
  126.3317  134.3867  158.2928 C   0  0  0  0  0  0  0  0  0  0  0  0
  126.5295  135.6068  157.6739 C   0  0  0  0  0  0  0  0  0  0  0  0
  127.8133  136.0647  157.4432 C   0  0  0  0  0  0  0  0  0  0  0  0
  128.8992  135.3027  157.8320 C   0  0  0  0  0  0  0  0  0  0  0  0
  131.0112  134.1367  159.2046 N   0  0  0  0  0  0  0  0  0  0  0  0
  131.2563  134.6831  158.3926 H   0  0  0  0  0  0  0  0  0  0  0  0
  130.6218  135.0359  160.2982 C   0  0  0  0  0  0  0  0  0  0  0  0
  131.7543  136.0325  160.5663 C   0  0  0  0  0  0  0  0  0  0  0  0
  132.9920  135.2766  160.8132 N   0  0  0  0  0  0  0  0  0  0  0  0
  133.7786  135.5385  161.9278 C   0  0  0  0  0  0  0  0  0  0  0  0
  134.5226  134.6441  162.5425 C   0  0  0  0  0  0  0  0  0  0  0  0
  135.2484  135.2602  163.7158 C   0  0  0  0  0  0  0  0  0  0  0  0
  135.1604  136.7852  163.4776 C   0  0  0  0  0  0  0  0  0  0  0  0
  133.8940  136.8884  162.5969 C   0  0  1  0  0  0  0  0  0  0  0  0
  134.0514  137.9171  161.6177 O   0  0  0  0  0  0  0  0  0  0  0  0
  133.5605  139.1458  161.9290 C   0  0  0  0  0  0  0  0  0  0  0  0
  132.2087  139.3252  162.2038 C   0  0  0  0  0  0  0  0  0  0  0  0
  131.7706  140.5358  162.5084 N   0  0  0  0  0  0  0  0  0  0  0  0
  132.5943  141.5645  162.5419 C   0  0  0  0  0  0  0  0  0  0  0  0
  133.8796  141.4357  162.2824 N   0  0  0  0  0  0  0  0  0  0  0  0
  134.3956  140.2570  161.9754 C   0  0  0  0  0  0  0  0  0  0  0  0
  133.3762  134.2397  159.8431 C   0  0  0  0  0  0  0  0  0  0  0  0
  132.1643  133.3239  159.6118 C   0  0  0  0  0  0  0  0  0  0  0  0
  130.8603  131.1078  158.0305 C   0  0  0  0  0  0  0  0  0  0  0  0
  131.2197  130.2608  156.9990 C   0  0  0  0  0  0  0  0  0  0  0  0
  130.2703  132.1679  154.3814 H   0  0  0  0  0  0  0  0  0  0  0  0
  129.6228  133.6714  156.2204 H   0  0  0  0  0  0  0  0  0  0  0  0
  127.2630  132.6677  159.1579 H   0  0  0  0  0  0  0  0  0  0  0  0
  125.3286  134.0291  158.4733 H   0  0  0  0  0  0  0  0  0  0  0  0
  125.6812  136.2024  157.3708 H   0  0  0  0  0  0  0  0  0  0  0  0
  127.9679  137.0179  156.9597 H   0  0  0  0  0  0  0  0  0  0  0  0
  129.9021  135.6604  157.6518 H   0  0  0  0  0  0  0  0  0  0  0  0
  130.4309  134.4518  161.1984 H   0  0  0  0  0  0  0  0  0  0  0  0
  129.7188  135.5786  160.0185 H   0  0  0  0  0  0  0  0  0  0  0  0
  131.5124  136.6351  161.4418 H   0  0  0  0  0  0  0  0  0  0  0  0
  131.8880  136.6813  159.7007 H   0  0  0  0  0  0  0  0  0  0  0  0
  134.6038  133.6084  162.2475 H   0  0  0  0  0  0  0  0  0  0  0  0
  136.2894  134.9377  163.7299 H   0  0  0  0  0  0  0  0  0  0  0  0
  134.7565  134.9933  164.6512 H   0  0  0  0  0  0  0  0  0  0  0  0
  136.0385  137.1488  162.9437 H   0  0  0  0  0  0  0  0  0  0  0  0
  135.0272  137.3206  164.4178 H   0  0  0  0  0  0  0  0  0  0  0  0
  133.0168  137.0820  163.2144 H   0  0  0  0  0  0  0  0  0  0  0  0
  131.5275  138.4876  162.1736 H   0  0  0  0  0  0  0  0  0  0  0  0
  132.2039  142.5404  162.7898 H   0  0  0  0  0  0  0  0  0  0  0  0
  135.4501  140.1591  161.7634 H   0  0  0  0  0  0  0  0  0  0  0  0
  133.6696  134.7078  158.9035 H   0  0  0  0  0  0  0  0  0  0  0  0
  134.2070  133.6563  160.2401 H   0  0  0  0  0  0  0  0  0  0  0  0
  131.9267  132.7917  160.5329 H   0  0  0  0  0  0  0  0  0  0  0  0
  132.3979  132.6051  158.8265 H   0  0  0  0  0  0  0  0  0  0  0  0
  131.0280  130.8118  159.0555 H   0  0  0  0  0  0  0  0  0  0  0  0
  131.6682  129.3030  157.2180 H   0  0  0  0  0  0  0  0  0  0  0  0
  1  2  1  0
  2 34  2  0
  2  3  1  0
  3  4  2  0
  3 35  1  0
  4  5  1  0
  4 36  1  0
  5  6  1  0
  5 33  2  0
  6  7  1  1
  6  8  1  0
  6 14  1  0
  8 13  1  0
  8  9  2  0
  9 10  1  0
  9 37  1  0
 10 11  2  0
 10 38  1  0
 11 12  1  0
 11 39  1  0
 12 13  2  0
 12 40  1  0
 13 41  1  0
 14 15  1  0
 14 32  1  0
 14 16  1  0
 16 17  1  0
 16 42  1  0
 16 43  1  0
 17 18  1  0
 17 44  1  0
 17 45  1  0
 18 19  1  0
 18 31  1  0
 19 23  1  0
 19 20  2  0
 20 21  1  0
 20 46  1  0
 21 22  1  0
 21 47  1  0
 21 48  1  0
 22 23  1  0
 22 49  1  0
 22 50  1  0
 23 24  1  0
 23 51  1  1
 24 25  1  0
 25 30  1  0
 25 26  2  0
 26 27  1  0
 26 52  1  0
 27 28  2  0
 28 29  1  0
 28 53  1  0
 29 30  2  0
 30 54  1  0
 31 32  1  0
 31 55  1  0
 31 56  1  0
 32 57  1  0
 32 58  1  0
 33 34  1  0
 33 59  1  0
 34 60  1  0
M  CHG  1  14   1
M  END
>  <DOCK_score>  (1) 
-56.145695

>  <SMILES>  (1) 
Clc1ccc([C@H](c2ccccc2)[NH+]2CCN(C3=CCCC3Oc3cncnc3)CC2)cc1

$$$$
