CC1(C)C(c2ccc(C(Nc3[nH]cc(-c4ccc(F)cc4)[nH+]3)C3CC3)cc2)C[C@@H]1O
     RDKit          3D

 59 63  0  0  1  0  0  0  0  0999 V2000
  134.6434  138.4551  160.7312 C   0  0  0  0  0  0  0  0  0  0  0  0
  134.1782  139.4484  161.7979 C   0  0  0  0  0  0  0  0  0  0  0  0
  134.0772  140.8820  161.2730 C   0  0  0  0  0  0  0  0  0  0  0  0
  132.9307  138.9854  162.5686 C   0  0  1  0  0  0  0  0  0  0  0  0
  132.0660  138.0233  161.7954 C   0  0  0  0  0  0  0  0  0  0  0  0
  131.5124  138.4078  160.5886 C   0  0  0  0  0  0  0  0  0  0  0  0
  130.7240  137.5234  159.8767 C   0  0  0  0  0  0  0  0  0  0  0  0
  130.4842  136.2562  160.3745 C   0  0  0  0  0  0  0  0  0  0  0  0
  129.6238  135.2923  159.5989 C   0  0  2  0  0  0  0  0  0  0  0  0
  130.2253  135.0486  158.2855 N   0  0  0  0  0  0  0  0  0  0  0  0
  130.0402  133.8303  157.6547 C   0  0  0  0  0  0  0  0  0  0  0  0
  129.3194  132.7853  158.1449 N   0  0  0  0  0  0  0  0  0  0  0  0
  128.8473  132.7600  158.9919 H   0  0  0  0  0  0  0  0  0  0  0  0
  129.3844  131.7723  157.2186 C   0  0  0  0  0  0  0  0  0  0  0  0
  130.1422  132.2273  156.1904 C   0  0  0  0  0  0  0  0  0  0  0  0
  130.4861  131.4744  154.9594 C   0  0  0  0  0  0  0  0  0  0  0  0
  130.1013  131.9617  153.7116 C   0  0  0  0  0  0  0  0  0  0  0  0
  130.4280  131.2607  152.5688 C   0  0  0  0  0  0  0  0  0  0  0  0
  131.1271  130.0687  152.6611 C   0  0  0  0  0  0  0  0  0  0  0  0
  131.4399  129.3829  151.5398 F   0  0  0  0  0  0  0  0  0  0  0  0
  131.5073  129.5775  153.8999 C   0  0  0  0  0  0  0  0  0  0  0  0
  131.1899  130.2746  155.0475 C   0  0  0  0  0  0  0  0  0  0  0  0
  130.5255  133.4952  156.4841 N   0  0  0  0  0  0  0  0  0  0  0  0
  131.0734  134.0621  155.9192 H   0  0  0  0  0  0  0  0  0  0  0  0
  128.2265  135.8884  159.4173 C   0  0  0  0  0  0  0  0  0  0  0  0
  127.1745  135.5589  160.4781 C   0  0  0  0  0  0  0  0  0  0  0  0
  127.0846  134.9247  159.0879 C   0  0  0  0  0  0  0  0  0  0  0  0
  131.0335  135.8734  161.5840 C   0  0  0  0  0  0  0  0  0  0  0  0
  131.8231  136.7574  162.2952 C   0  0  0  0  0  0  0  0  0  0  0  0
  133.8908  138.2966  163.5527 C   0  0  0  0  0  0  0  0  0  0  0  0
  134.9453  139.3311  163.1255 C   0  0  2  0  0  0  0  0  0  0  0  0
  135.9468  138.9145  163.0172 H   0  0  0  0  0  0  0  0  0  0  0  0
  134.9234  140.5272  163.9069 O   0  0  0  0  0  0  0  0  0  0  0  0
  133.8298  138.2665  160.0308 H   0  0  0  0  0  0  0  0  0  0  0  0
  135.4958  138.8712  160.1943 H   0  0  0  0  0  0  0  0  0  0  0  0
  134.9360  137.5199  161.2086 H   0  0  0  0  0  0  0  0  0  0  0  0
  133.9394  141.5665  162.1099 H   0  0  0  0  0  0  0  0  0  0  0  0
  134.9928  141.1393  160.7403 H   0  0  0  0  0  0  0  0  0  0  0  0
  133.2276  140.9616  160.5947 H   0  0  0  0  0  0  0  0  0  0  0  0
  132.3619  139.8023  163.0128 H   0  0  0  0  0  0  0  0  0  0  0  0
  131.6996  139.3980  160.1998 H   0  0  0  0  0  0  0  0  0  0  0  0
  130.2948  137.8224  158.9319 H   0  0  0  0  0  0  0  0  0  0  0  0
  129.5494  134.3516  160.1445 H   0  0  0  0  0  0  0  0  0  0  0  0
  130.7533  135.7409  157.8579 H   0  0  0  0  0  0  0  0  0  0  0  0
  128.9202  130.8000  157.2948 H   0  0  0  0  0  0  0  0  0  0  0  0
  129.5520  132.8887  153.6390 H   0  0  0  0  0  0  0  0  0  0  0  0
  130.1341  131.6398  151.6012 H   0  0  0  0  0  0  0  0  0  0  0  0
  132.0523  128.6475  153.9672 H   0  0  0  0  0  0  0  0  0  0  0  0
  131.4868  129.8914  156.0126 H   0  0  0  0  0  0  0  0  0  0  0  0
  128.1934  136.8804  158.9668 H   0  0  0  0  0  0  0  0  0  0  0  0
  127.4778  134.9174  161.3056 H   0  0  0  0  0  0  0  0  0  0  0  0
  126.4491  136.3340  160.7255 H   0  0  0  0  0  0  0  0  0  0  0  0
  126.3003  135.2830  158.4211 H   0  0  0  0  0  0  0  0  0  0  0  0
  127.3290  133.8661  159.0002 H   0  0  0  0  0  0  0  0  0  0  0  0
  130.8459  134.8836  161.9730 H   0  0  0  0  0  0  0  0  0  0  0  0
  132.2523  136.4582  163.2399 H   0  0  0  0  0  0  0  0  0  0  0  0
  133.5869  138.3881  164.5955 H   0  0  0  0  0  0  0  0  0  0  0  0
  134.1425  137.2735  163.2734 H   0  0  0  0  0  0  0  0  0  0  0  0
  135.3528  141.2824  163.4822 H   0  0  0  0  0  0  0  0  0  0  0  0
  1  2  1  0
  1 34  1  0
  1 35  1  0
  1 36  1  0
  2 31  1  0
  2  3  1  0
  2  4  1  0
  3 37  1  0
  3 38  1  0
  3 39  1  0
  4  5  1  0
  4 30  1  0
  4 40  1  1
  5 29  1  0
  5  6  2  0
  6  7  1  0
  6 41  1  0
  7  8  2  0
  7 42  1  0
  8  9  1  0
  8 28  1  0
  9 10  1  0
  9 25  1  0
  9 43  1  1
 10 44  1  0
 11 10  1  0
 11 23  2  0
 11 12  1  0
 12 13  1  0
 12 14  1  0
 14 15  2  0
 14 45  1  0
 15 16  1  0
 15 23  1  0
 16 22  1  0
 16 17  2  0
 17 18  1  0
 17 46  1  0
 18 19  2  0
 18 47  1  0
 19 20  1  0
 19 21  1  0
 21 22  2  0
 21 48  1  0
 22 49  1  0
 23 24  1  0
 25 27  1  0
 25 26  1  0
 25 50  1  0
 26 27  1  0
 26 51  1  0
 26 52  1  0
 27 53  1  0
 27 54  1  0
 28 29  2  0
 28 55  1  0
 29 56  1  0
 30 31  1  0
 30 57  1  0
 30 58  1  0
 31 32  1  6
 31 33  1  0
 33 59  1  0
M  CHG  1  23   1
M  END
>  <DOCK_score>  (1) 
-57.267498

>  <SMILES>  (1) 
CC1(C)C(c2ccc(C(Nc3[nH]cc(-c4ccc(F)cc4)[nH+]3)C3CC3)cc2)C[C@@H]1O

$$$$
