CCC(=CCc1ccccc1)[C@@H](Cc1ccccc1)Nc1[nH]cc(-c2ccc(CC)cc2)[nH+]1
     RDKit          3D

 67 70  0  0  1  0  0  0  0  0999 V2000
  134.0979  134.7199  162.4370 C   0  0  0  0  0  0  0  0  0  0  0  0
  133.2075  135.8334  162.9920 C   0  0  0  0  0  0  0  0  0  0  0  0
  132.6066  136.6121  161.8502 C   0  0  0  0  0  0  0  0  0  0  0  0
  133.2344  137.6551  161.3666 C   0  0  0  0  0  0  0  0  0  0  0  0
  134.6223  137.9899  161.8493 C   0  0  0  0  0  0  0  0  0  0  0  0
  134.5318  138.9112  163.0384 C   0  0  0  0  0  0  0  0  0  0  0  0
  135.5091  138.8765  164.0155 C   0  0  0  0  0  0  0  0  0  0  0  0
  135.4287  139.7249  165.1040 C   0  0  0  0  0  0  0  0  0  0  0  0
  134.3659  140.6012  165.2202 C   0  0  0  0  0  0  0  0  0  0  0  0
  133.3857  140.6319  164.2460 C   0  0  0  0  0  0  0  0  0  0  0  0
  133.4688  139.7871  163.1549 C   0  0  0  0  0  0  0  0  0  0  0  0
  131.2834  136.1909  161.2648 C   0  0  1  0  0  0  0  0  0  0  0  0
  130.9166  135.3103  161.7922 H   0  0  0  0  0  0  0  0  0  0  0  0
  130.2740  137.3311  161.4127 C   0  0  0  0  0  0  0  0  0  0  0  0
  128.8754  136.7820  161.2979 C   0  0  0  0  0  0  0  0  0  0  0  0
  128.2590  136.7132  160.0624 C   0  0  0  0  0  0  0  0  0  0  0  0
  126.9779  136.2049  159.9565 C   0  0  0  0  0  0  0  0  0  0  0  0
  126.3091  135.7753  161.0874 C   0  0  0  0  0  0  0  0  0  0  0  0
  126.9234  135.8492  162.3237 C   0  0  0  0  0  0  0  0  0  0  0  0
  128.2065  136.3524  162.4288 C   0  0  0  0  0  0  0  0  0  0  0  0
  131.4565  135.8730  159.8452 N   0  0  0  0  0  0  0  0  0  0  0  0
  131.1605  134.6035  159.3790 C   0  0  0  0  0  0  0  0  0  0  0  0
  130.7085  133.5666  160.1357 N   0  0  0  0  0  0  0  0  0  0  0  0
  130.5369  133.5839  161.0902 H   0  0  0  0  0  0  0  0  0  0  0  0
  130.5395  132.4911  159.2980 C   0  0  0  0  0  0  0  0  0  0  0  0
  130.8927  132.9011  158.0547 C   0  0  0  0  0  0  0  0  0  0  0  0
  130.8720  132.0738  156.8238 C   0  0  0  0  0  0  0  0  0  0  0  0
  130.6411  132.6689  155.5848 C   0  0  0  0  0  0  0  0  0  0  0  0
  130.6235  131.8942  154.4427 C   0  0  0  0  0  0  0  0  0  0  0  0
  130.8341  130.5296  154.5262 C   0  0  0  0  0  0  0  0  0  0  0  0
  130.8134  129.6890  153.2756 C   0  0  0  0  0  0  0  0  0  0  0  0
  132.2256  129.6078  152.6923 C   0  0  0  0  0  0  0  0  0  0  0  0
  131.0580  129.9328  155.7539 C   0  0  0  0  0  0  0  0  0  0  0  0
  131.0836  130.6983  156.9019 C   0  0  0  0  0  0  0  0  0  0  0  0
  131.2742  134.2006  158.1370 N   0  0  0  0  0  0  0  0  0  0  0  0
  131.5801  134.7450  157.3948 H   0  0  0  0  0  0  0  0  0  0  0  0
  133.5173  134.0943  161.7590 H   0  0  0  0  0  0  0  0  0  0  0  0
  134.9363  135.1601  161.8972 H   0  0  0  0  0  0  0  0  0  0  0  0
  134.4745  134.1118  163.2596 H   0  0  0  0  0  0  0  0  0  0  0  0
  133.8050  136.5013  163.6124 H   0  0  0  0  0  0  0  0  0  0  0  0
  132.4102  135.3958  163.5927 H   0  0  0  0  0  0  0  0  0  0  0  0
  132.7575  138.2752  160.6220 H   0  0  0  0  0  0  0  0  0  0  0  0
  135.1376  137.0737  162.1378 H   0  0  0  0  0  0  0  0  0  0  0  0
  135.1761  138.4820  161.0498 H   0  0  0  0  0  0  0  0  0  0  0  0
  136.3372  138.1889  163.9268 H   0  0  0  0  0  0  0  0  0  0  0  0
  136.1943  139.7006  165.8653 H   0  0  0  0  0  0  0  0  0  0  0  0
  134.3010  141.2615  166.0724 H   0  0  0  0  0  0  0  0  0  0  0  0
  132.5551  141.3163  164.3370 H   0  0  0  0  0  0  0  0  0  0  0  0
  132.7030  139.8112  162.3938 H   0  0  0  0  0  0  0  0  0  0  0  0
  130.4001  137.8037  162.3869 H   0  0  0  0  0  0  0  0  0  0  0  0
  130.4407  138.0681  160.6270 H   0  0  0  0  0  0  0  0  0  0  0  0
  128.7800  137.0529  159.1795 H   0  0  0  0  0  0  0  0  0  0  0  0
  126.4978  136.1476  158.9908 H   0  0  0  0  0  0  0  0  0  0  0  0
  125.3065  135.3824  161.0053 H   0  0  0  0  0  0  0  0  0  0  0  0
  126.4007  135.5139  163.2072 H   0  0  0  0  0  0  0  0  0  0  0  0
  128.6863  136.4103  163.3946 H   0  0  0  0  0  0  0  0  0  0  0  0
  131.7785  136.5520  159.2319 H   0  0  0  0  0  0  0  0  0  0  0  0
  130.1915  131.5072  159.5763 H   0  0  0  0  0  0  0  0  0  0  0  0
  130.4763  133.7341  155.5184 H   0  0  0  0  0  0  0  0  0  0  0  0
  130.4445  132.3542  153.4822 H   0  0  0  0  0  0  0  0  0  0  0  0
  130.1439  130.1419  152.5443 H   0  0  0  0  0  0  0  0  0  0  0  0
  130.4620  128.6860  153.5176 H   0  0  0  0  0  0  0  0  0  0  0  0
  132.2108  128.9997  151.7877 H   0  0  0  0  0  0  0  0  0  0  0  0
  132.5770  130.6108  152.4503 H   0  0  0  0  0  0  0  0  0  0  0  0
  132.8953  129.1548  153.4235 H   0  0  0  0  0  0  0  0  0  0  0  0
  131.2171  128.8661  155.8136 H   0  0  0  0  0  0  0  0  0  0  0  0
  131.2632  130.2320  157.8593 H   0  0  0  0  0  0  0  0  0  0  0  0
  1  2  1  0
  1 37  1  0
  1 38  1  0
  1 39  1  0
  2  3  1  0
  2 40  1  0
  2 41  1  0
  3  4  2  0
  3 12  1  0
  4  5  1  0
  4 42  1  0
  5  6  1  0
  5 43  1  0
  5 44  1  0
  6 11  1  0
  6  7  2  0
  7  8  1  0
  7 45  1  0
  8  9  2  0
  8 46  1  0
  9 10  1  0
  9 47  1  0
 10 11  2  0
 10 48  1  0
 11 49  1  0
 12 13  1  1
 12 14  1  0
 12 21  1  0
 14 15  1  0
 14 50  1  0
 14 51  1  0
 15 20  1  0
 15 16  2  0
 16 17  1  0
 16 52  1  0
 17 18  2  0
 17 53  1  0
 18 19  1  0
 18 54  1  0
 19 20  2  0
 19 55  1  0
 20 56  1  0
 21 57  1  0
 22 21  1  0
 22 35  2  0
 22 23  1  0
 23 24  1  0
 23 25  1  0
 25 26  2  0
 25 58  1  0
 26 27  1  0
 26 35  1  0
 27 34  1  0
 27 28  2  0
 28 29  1  0
 28 59  1  0
 29 30  2  0
 29 60  1  0
 30 31  1  0
 30 33  1  0
 31 32  1  0
 31 61  1  0
 31 62  1  0
 32 63  1  0
 32 64  1  0
 32 65  1  0
 33 34  2  0
 33 66  1  0
 34 67  1  0
 35 36  1  0
M  CHG  1  35   1
M  END
>  <DOCK_score>  (1) 
-58.409889

>  <SMILES>  (1) 
CCC(=CCc1ccccc1)[C@@H](Cc1ccccc1)Nc1[nH]cc(-c2ccc(CC)cc2)[nH+]1

$$$$
