Cc1ccc(F)c(CNC2=CCCC2[NH2+][C@@H]2CCC(=O)NC2C)c1
     RDKit          3D

 51 53  0  0  1  0  0  0  0  0999 V2000
  130.6707  132.9374  152.4699 C   0  0  0  0  0  0  0  0  0  0  0  0
  130.6934  132.1224  153.7374 C   0  0  0  0  0  0  0  0  0  0  0  0
  131.0882  130.7979  153.7000 C   0  0  0  0  0  0  0  0  0  0  0  0
  131.1098  130.0497  154.8613 C   0  0  0  0  0  0  0  0  0  0  0  0
  130.7401  130.6283  156.0640 C   0  0  0  0  0  0  0  0  0  0  0  0
  130.7659  129.8992  157.2012 F   0  0  0  0  0  0  0  0  0  0  0  0
  130.3406  131.9532  156.0995 C   0  0  0  0  0  0  0  0  0  0  0  0
  129.9338  132.5833  157.4069 C   0  0  0  0  0  0  0  0  0  0  0  0
  131.1091  133.1758  158.0499 N   0  0  0  0  0  0  0  0  0  0  0  0
  131.0954  133.4409  159.4134 C   0  0  0  0  0  0  0  0  0  0  0  0
  132.0982  133.9699  160.0804 C   0  0  0  0  0  0  0  0  0  0  0  0
  131.7525  134.1230  161.5435 C   0  0  0  0  0  0  0  0  0  0  0  0
  130.5188  133.2106  161.7561 C   0  0  0  0  0  0  0  0  0  0  0  0
  129.9265  133.1596  160.3288 C   0  0  1  0  0  0  0  0  0  0  0  0
  128.8911  134.1892  160.1676 N   0  0  0  0  0  0  0  0  0  0  0  0
  128.8010  134.4254  159.1908 H   0  0  0  0  0  0  0  0  0  0  0  0
  129.1513  135.0124  160.6899 H   0  0  0  0  0  0  0  0  0  0  0  0
  127.6087  133.6765  160.6679 C   0  0  2  0  0  0  0  0  0  0  0  0
  127.7749  133.1022  161.5793 H   0  0  0  0  0  0  0  0  0  0  0  0
  126.9633  132.7794  159.6049 C   0  0  0  0  0  0  0  0  0  0  0  0
  125.7269  132.1165  160.2171 C   0  0  0  0  0  0  0  0  0  0  0  0
  124.8769  133.1506  160.8978 C   0  0  0  0  0  0  0  0  0  0  0  0
  123.7239  132.8711  161.1491 O   0  0  0  0  0  0  0  0  0  0  0  0
  125.3207  134.3620  161.2358 N   0  0  0  0  0  0  0  0  0  0  0  0
  126.6671  134.8459  160.9589 C   0  0  2  0  0  0  0  0  0  0  0  0
  126.6209  135.7727  159.7424 C   0  0  0  0  0  0  0  0  0  0  0  0
  130.3201  132.6997  154.9364 C   0  0  0  0  0  0  0  0  0  0  0  0
  131.6385  133.4189  152.3302 H   0  0  0  0  0  0  0  0  0  0  0  0
  130.4638  132.2847  151.6220 H   0  0  0  0  0  0  0  0  0  0  0  0
  129.8932  133.6981  152.5410 H   0  0  0  0  0  0  0  0  0  0  0  0
  131.3801  130.3479  152.7626 H   0  0  0  0  0  0  0  0  0  0  0  0
  131.4187  129.0153  154.8320 H   0  0  0  0  0  0  0  0  0  0  0  0
  129.5074  131.8219  158.0599 H   0  0  0  0  0  0  0  0  0  0  0  0
  129.1915  133.3594  157.2206 H   0  0  0  0  0  0  0  0  0  0  0  0
  131.8972  133.3829  157.5235 H   0  0  0  0  0  0  0  0  0  0  0  0
  133.0421  134.2569  159.6412 H   0  0  0  0  0  0  0  0  0  0  0  0
  132.5824  133.7894  162.1665 H   0  0  0  0  0  0  0  0  0  0  0  0
  131.5031  135.1599  161.7681 H   0  0  0  0  0  0  0  0  0  0  0  0
  129.8142  133.6602  162.4557 H   0  0  0  0  0  0  0  0  0  0  0  0
  130.8192  132.2176  162.0902 H   0  0  0  0  0  0  0  0  0  0  0  0
  129.5135  132.1718  160.1244 H   0  0  0  0  0  0  0  0  0  0  0  0
  127.6728  132.0137  159.2911 H   0  0  0  0  0  0  0  0  0  0  0  0
  126.6691  133.3814  158.7452 H   0  0  0  0  0  0  0  0  0  0  0  0
  126.0403  131.3687  160.9457 H   0  0  0  0  0  0  0  0  0  0  0  0
  125.1486  131.6341  159.4291 H   0  0  0  0  0  0  0  0  0  0  0  0
  124.7101  134.9570  161.6984 H   0  0  0  0  0  0  0  0  0  0  0  0
  127.0376  135.4009  161.8208 H   0  0  0  0  0  0  0  0  0  0  0  0
  126.2577  135.2185  158.8770 H   0  0  0  0  0  0  0  0  0  0  0  0
  125.9504  136.6074  159.9469 H   0  0  0  0  0  0  0  0  0  0  0  0
  127.6217  136.1525  159.5368 H   0  0  0  0  0  0  0  0  0  0  0  0
  130.0126  133.7347  154.9646 H   0  0  0  0  0  0  0  0  0  0  0  0
  1  2  1  0
  1 28  1  0
  1 29  1  0
  1 30  1  0
  2 27  2  0
  2  3  1  0
  3  4  2  0
  3 31  1  0
  4  5  1  0
  4 32  1  0
  5  6  1  0
  5  7  2  0
  7  8  1  0
  7 27  1  0
  8  9  1  0
  8 33  1  0
  8 34  1  0
  9 10  1  0
  9 35  1  0
 10 14  1  0
 10 11  2  0
 11 12  1  0
 11 36  1  0
 12 13  1  0
 12 37  1  0
 12 38  1  0
 13 14  1  0
 13 39  1  0
 13 40  1  0
 14 15  1  0
 14 41  1  6
 15 16  1  0
 15 17  1  0
 15 18  1  0
 18 19  1  1
 18 25  1  0
 18 20  1  0
 20 21  1  0
 20 42  1  0
 20 43  1  0
 21 22  1  0
 21 44  1  0
 21 45  1  0
 22 23  2  0
 22 24  1  0
 24 25  1  0
 24 46  1  0
 25 26  1  0
 25 47  1  1
 26 48  1  0
 26 49  1  0
 26 50  1  0
 27 51  1  0
M  CHG  1  15   1
M  END
>  <DOCK_score>  (1) 
-48.08144

>  <SMILES>  (1) 
Cc1ccc(F)c(CNC2=CCCC2[NH2+][C@@H]2CCC(=O)NC2C)c1

$$$$
