O[C@H]1C[C@@H]([NH+]=C(NC2CC=CC2)N[C@@H]2CC=C(C(c3ccccc3)c3ccccc3)C2)C1
     RDKit          3D

 66 70  0  0  1  0  0  0  0  0999 V2000
  123.8607  134.9254  161.1129 O   0  0  0  0  0  0  0  0  0  0  0  0
  125.1782  134.7965  161.6509 C   0  0  1  0  0  0  0  0  0  0  0  0
  125.2181  134.9882  162.7233 H   0  0  0  0  0  0  0  0  0  0  0  0
  125.8952  133.5004  161.2310 C   0  0  0  0  0  0  0  0  0  0  0  0
  127.1700  134.3480  161.0848 C   0  0  1  0  0  0  0  0  0  0  0  0
  127.7555  134.4178  162.0015 H   0  0  0  0  0  0  0  0  0  0  0  0
  127.9808  133.9921  159.9177 N   0  0  0  0  0  0  0  0  0  0  0  0
  127.6924  133.2796  159.3258 H   0  0  0  0  0  0  0  0  0  0  0  0
  129.0897  134.6327  159.6747 C   0  0  0  0  0  0  0  0  0  0  0  0
  129.8505  134.2986  158.5795 N   0  0  0  0  0  0  0  0  0  0  0  0
  129.4149  133.2228  157.6855 C   0  0  0  0  0  0  0  0  0  0  0  0
  129.4860  131.8499  158.3935 C   0  0  0  0  0  0  0  0  0  0  0  0
  129.9468  130.8887  157.3224 C   0  0  0  0  0  0  0  0  0  0  0  0
  130.4561  131.5281  156.3047 C   0  0  0  0  0  0  0  0  0  0  0  0
  130.4200  133.0221  156.5275 C   0  0  0  0  0  0  0  0  0  0  0  0
  129.4984  135.6422  160.5136 N   0  0  0  0  0  0  0  0  0  0  0  0
  130.7447  136.3622  160.2405 C   0  0  2  0  0  0  0  0  0  0  0  0
  130.7062  136.8512  159.2671 H   0  0  0  0  0  0  0  0  0  0  0  0
  131.9648  135.4172  160.3392 C   0  0  0  0  0  0  0  0  0  0  0  0
  133.0530  136.2591  160.9641 C   0  0  0  0  0  0  0  0  0  0  0  0
  132.5564  137.3274  161.5261 C   0  0  0  0  0  0  0  0  0  0  0  0
  133.3733  138.3717  162.2424 C   0  0  0  0  0  0  0  0  0  0  0  0
  134.3727  138.9704  161.2864 C   0  0  0  0  0  0  0  0  0  0  0  0
  135.5807  139.4483  161.7588 C   0  0  0  0  0  0  0  0  0  0  0  0
  136.4994  139.9927  160.8810 C   0  0  0  0  0  0  0  0  0  0  0  0
  136.2055  140.0696  159.5325 C   0  0  0  0  0  0  0  0  0  0  0  0
  134.9953  139.5966  159.0608 C   0  0  0  0  0  0  0  0  0  0  0  0
  134.0788  139.0470  159.9378 C   0  0  0  0  0  0  0  0  0  0  0  0
  132.4619  139.4547  162.7598 C   0  0  0  0  0  0  0  0  0  0  0  0
  132.1801  140.5554  161.9726 C   0  0  0  0  0  0  0  0  0  0  0  0
  131.3398  141.5461  162.4452 C   0  0  0  0  0  0  0  0  0  0  0  0
  130.7905  141.4416  163.7094 C   0  0  0  0  0  0  0  0  0  0  0  0
  131.0766  140.3432  164.4987 C   0  0  0  0  0  0  0  0  0  0  0  0
  131.9123  139.3497  164.0239 C   0  0  0  0  0  0  0  0  0  0  0  0
  131.0553  137.3809  161.3615 C   0  0  0  0  0  0  0  0  0  0  0  0
  126.2481  135.5562  160.8491 C   0  0  0  0  0  0  0  0  0  0  0  0
  123.5394  135.8365  161.0733 H   0  0  0  0  0  0  0  0  0  0  0  0
  125.5348  133.0877  160.2888 H   0  0  0  0  0  0  0  0  0  0  0  0
  125.9545  132.7562  162.0252 H   0  0  0  0  0  0  0  0  0  0  0  0
  130.6757  134.7754  158.3985 H   0  0  0  0  0  0  0  0  0  0  0  0
  128.4123  133.4157  157.3042 H   0  0  0  0  0  0  0  0  0  0  0  0
  130.2064  131.8810  159.2110 H   0  0  0  0  0  0  0  0  0  0  0  0
  128.5022  131.5623  158.7640 H   0  0  0  0  0  0  0  0  0  0  0  0
  129.8650  129.8140  157.3898 H   0  0  0  0  0  0  0  0  0  0  0  0
  130.8517  131.0517  155.4199 H   0  0  0  0  0  0  0  0  0  0  0  0
  130.0710  133.5317  155.6293 H   0  0  0  0  0  0  0  0  0  0  0  0
  131.4064  133.3875  156.8134 H   0  0  0  0  0  0  0  0  0  0  0  0
  128.9616  135.8777  161.2865 H   0  0  0  0  0  0  0  0  0  0  0  0
  132.2667  135.0820  159.3470 H   0  0  0  0  0  0  0  0  0  0  0  0
  131.7344  134.5620  160.9744 H   0  0  0  0  0  0  0  0  0  0  0  0
  134.1032  136.0076  160.9513 H   0  0  0  0  0  0  0  0  0  0  0  0
  133.9005  137.9108  163.0776 H   0  0  0  0  0  0  0  0  0  0  0  0
  135.8083  139.3925  162.8130 H   0  0  0  0  0  0  0  0  0  0  0  0
  137.4452  140.3619  161.2495 H   0  0  0  0  0  0  0  0  0  0  0  0
  136.9215  140.4990  158.8474 H   0  0  0  0  0  0  0  0  0  0  0  0
  134.7656  139.6567  158.0072 H   0  0  0  0  0  0  0  0  0  0  0  0
  133.1332  138.6779  159.5693 H   0  0  0  0  0  0  0  0  0  0  0  0
  132.6130  140.6394  160.9867 H   0  0  0  0  0  0  0  0  0  0  0  0
  131.1160  142.4041  161.8285 H   0  0  0  0  0  0  0  0  0  0  0  0
  130.1376  142.2178  164.0804 H   0  0  0  0  0  0  0  0  0  0  0  0
  130.6475  140.2616  165.4864 H   0  0  0  0  0  0  0  0  0  0  0  0
  132.1361  138.4920  164.6407 H   0  0  0  0  0  0  0  0  0  0  0  0
  130.7389  138.3807  161.0644 H   0  0  0  0  0  0  0  0  0  0  0  0
  130.5644  137.0863  162.2891 H   0  0  0  0  0  0  0  0  0  0  0  0
  126.5920  136.4691  161.3354 H   0  0  0  0  0  0  0  0  0  0  0  0
  125.9845  135.7065  159.8023 H   0  0  0  0  0  0  0  0  0  0  0  0
  1  2  1  0
  1 37  1  0
  2  3  1  1
  2 36  1  0
  2  4  1  0
  4  5  1  0
  4 38  1  0
  4 39  1  0
  5  6  1  1
  5  7  1  0
  5 36  1  0
  7  8  1  0
  9  7  2  0
  9 10  1  0
  9 16  1  0
 10 11  1  0
 10 40  1  0
 11 15  1  0
 11 12  1  0
 11 41  1  0
 12 13  1  0
 12 42  1  0
 12 43  1  0
 13 14  2  0
 13 44  1  0
 14 15  1  0
 14 45  1  0
 15 46  1  0
 15 47  1  0
 16 17  1  0
 16 48  1  0
 17 18  1  6
 17 35  1  0
 17 19  1  0
 19 20  1  0
 19 49  1  0
 19 50  1  0
 20 21  2  0
 20 51  1  0
 21 22  1  0
 21 35  1  0
 22 23  1  0
 22 29  1  0
 22 52  1  0
 23 28  1  0
 23 24  2  0
 24 25  1  0
 24 53  1  0
 25 26  2  0
 25 54  1  0
 26 27  1  0
 26 55  1  0
 27 28  2  0
 27 56  1  0
 28 57  1  0
 29 34  1  0
 29 30  2  0
 30 31  1  0
 30 58  1  0
 31 32  2  0
 31 59  1  0
 32 33  1  0
 32 60  1  0
 33 34  2  0
 33 61  1  0
 34 62  1  0
 35 63  1  0
 35 64  1  0
 36 65  1  0
 36 66  1  0
M  CHG  1   7   1
M  END
>  <DOCK_score>  (1) 
-54.165565

>  <SMILES>  (1) 
O[C@H]1C[C@@H]([NH+]=C(NC2CC=CC2)N[C@@H]2CC=C(C(c3ccccc3)c3ccccc3)C2)C1

$$$$
