CC(C)n1cc(C[NH2+][C@H](CO)Cc2c[nH]c3ccc(O)cc23)c(-c2nc3ccccc3[nH]2)n1
     RDKit          3D

 62 66  0  0  1  0  0  0  0  0999 V2000
  135.0875  140.8489  164.4127 C   0  0  0  0  0  0  0  0  0  0  0  0
  134.8395  140.2883  163.0110 C   0  0  0  0  0  0  0  0  0  0  0  0
  134.9176  141.4222  161.9869 C   0  0  0  0  0  0  0  0  0  0  0  0
  133.5105  139.6739  162.9587 N   0  0  0  0  0  0  0  0  0  0  0  0
  133.2462  138.3805  162.6715 C   0  0  0  0  0  0  0  0  0  0  0  0
  131.9088  138.2051  162.7262 C   0  0  0  0  0  0  0  0  0  0  0  0
  131.1721  136.9143  162.4765 C   0  0  0  0  0  0  0  0  0  0  0  0
  130.8365  136.8100  161.0502 N   0  0  0  0  0  0  0  0  0  0  0  0
  130.2514  137.5881  160.7847 H   0  0  0  0  0  0  0  0  0  0  0  0
  131.6842  136.8246  160.5033 H   0  0  0  0  0  0  0  0  0  0  0  0
  130.1182  135.5520  160.8069 C   0  0  2  0  0  0  0  0  0  0  0  0
  129.4209  135.3678  161.6242 H   0  0  0  0  0  0  0  0  0  0  0  0
  131.1217  134.3998  160.7234 C   0  0  0  0  0  0  0  0  0  0  0  0
  132.2801  134.8282  160.0047 O   0  0  0  0  0  0  0  0  0  0  0  0
  129.3458  135.6519  159.4901 C   0  0  0  0  0  0  0  0  0  0  0  0
  128.6092  134.3612  159.2405 C   0  0  0  0  0  0  0  0  0  0  0  0
  129.0733  133.2936  158.5717 C   0  0  0  0  0  0  0  0  0  0  0  0
  128.1250  132.3079  158.5509 N   0  0  0  0  0  0  0  0  0  0  0  0
  128.2308  131.4414  158.1279 H   0  0  0  0  0  0  0  0  0  0  0  0
  126.9938  132.7321  159.2160 C   0  0  0  0  0  0  0  0  0  0  0  0
  125.7629  132.1404  159.4801 C   0  0  0  0  0  0  0  0  0  0  0  0
  124.8049  132.8312  160.1875 C   0  0  0  0  0  0  0  0  0  0  0  0
  125.0542  134.1230  160.6443 C   0  0  0  0  0  0  0  0  0  0  0  0
  124.0965  134.7916  161.3408 O   0  0  0  0  0  0  0  0  0  0  0  0
  126.2695  134.7275  160.3930 C   0  0  0  0  0  0  0  0  0  0  0  0
  127.2489  134.0361  159.6763 C   0  0  0  0  0  0  0  0  0  0  0  0
  131.3233  139.4457  163.0531 C   0  0  0  0  0  0  0  0  0  0  0  0
  129.8770  139.7109  163.2117 C   0  0  0  0  0  0  0  0  0  0  0  0
  128.9275  138.8182  163.0747 N   0  0  0  0  0  0  0  0  0  0  0  0
  127.7216  139.3992  163.2885 C   0  0  0  0  0  0  0  0  0  0  0  0
  126.4074  138.9209  163.2693 C   0  0  0  0  0  0  0  0  0  0  0  0
  125.3702  139.7695  163.5332 C   0  0  0  0  0  0  0  0  0  0  0  0
  125.6050  141.1071  163.8193 C   0  0  0  0  0  0  0  0  0  0  0  0
  126.8921  141.6014  163.8433 C   0  0  0  0  0  0  0  0  0  0  0  0
  127.9595  140.7543  163.5788 C   0  0  0  0  0  0  0  0  0  0  0  0
  129.3295  140.9245  163.5299 N   0  0  0  0  0  0  0  0  0  0  0  0
  129.8130  141.7502  163.6889 H   0  0  0  0  0  0  0  0  0  0  0  0
  132.2936  140.3269  163.1920 N   0  0  0  0  0  0  0  0  0  0  0  0
  134.3311  141.5992  164.6430 H   0  0  0  0  0  0  0  0  0  0  0  0
  136.0762  141.3060  164.4514 H   0  0  0  0  0  0  0  0  0  0  0  0
  135.0317  140.0409  165.1423 H   0  0  0  0  0  0  0  0  0  0  0  0
  135.5959  139.5379  162.7807 H   0  0  0  0  0  0  0  0  0  0  0  0
  134.1612  142.1724  162.2171 H   0  0  0  0  0  0  0  0  0  0  0  0
  135.9064  141.8792  162.0256 H   0  0  0  0  0  0  0  0  0  0  0  0
  134.7410  141.0227  160.9881 H   0  0  0  0  0  0  0  0  0  0  0  0
  133.9772  137.6196  162.4408 H   0  0  0  0  0  0  0  0  0  0  0  0
  131.8041  136.0739  162.7635 H   0  0  0  0  0  0  0  0  0  0  0  0
  130.2563  136.8987  163.0674 H   0  0  0  0  0  0  0  0  0  0  0  0
  131.4102  134.0956  161.7295 H   0  0  0  0  0  0  0  0  0  0  0  0
  130.6643  133.5565  160.2060 H   0  0  0  0  0  0  0  0  0  0  0  0
  132.0977  135.1139  159.0991 H   0  0  0  0  0  0  0  0  0  0  0  0
  128.6308  136.4725  159.5496 H   0  0  0  0  0  0  0  0  0  0  0  0
  130.0430  135.8361  158.6727 H   0  0  0  0  0  0  0  0  0  0  0  0
  130.0515  133.2225  158.1196 H   0  0  0  0  0  0  0  0  0  0  0  0
  125.5587  131.1393  159.1300 H   0  0  0  0  0  0  0  0  0  0  0  0
  123.8509  132.3671  160.3898 H   0  0  0  0  0  0  0  0  0  0  0  0
  124.3591  135.6805  161.6165 H   0  0  0  0  0  0  0  0  0  0  0  0
  126.4618  135.7290  160.7483 H   0  0  0  0  0  0  0  0  0  0  0  0
  126.2132  137.8820  163.0469 H   0  0  0  0  0  0  0  0  0  0  0  0
  124.3570  139.3959  163.5186 H   0  0  0  0  0  0  0  0  0  0  0  0
  124.7739  141.7653  164.0249 H   0  0  0  0  0  0  0  0  0  0  0  0
  127.0690  142.6430  164.0672 H   0  0  0  0  0  0  0  0  0  0  0  0
  1  2  1  0
  1 39  1  0
  1 40  1  0
  1 41  1  0
  2  3  1  0
  2  4  1  0
  2 42  1  0
  3 43  1  0
  3 44  1  0
  3 45  1  0
  4 38  1  0
  4  5  1  0
  5  6  2  0
  5 46  1  0
  6  7  1  0
  6 27  1  0
  7  8  1  0
  7 47  1  0
  7 48  1  0
  8  9  1  0
  8 10  1  0
  8 11  1  0
 11 12  1  1
 11 13  1  0
 11 15  1  0
 13 14  1  0
 13 49  1  0
 13 50  1  0
 14 51  1  0
 15 16  1  0
 15 52  1  0
 15 53  1  0
 16 26  1  0
 16 17  2  0
 17 18  1  0
 17 54  1  0
 18 19  1  0
 18 20  1  0
 20 26  2  0
 20 21  1  0
 21 22  2  0
 21 55  1  0
 22 23  1  0
 22 56  1  0
 23 24  1  0
 23 25  2  0
 24 57  1  0
 25 26  1  0
 25 58  1  0
 27 28  1  0
 27 38  2  0
 28 36  1  0
 28 29  2  0
 29 30  1  0
 30 35  2  0
 30 31  1  0
 31 32  2  0
 31 59  1  0
 32 33  1  0
 32 60  1  0
 33 34  2  0
 33 61  1  0
 34 35  1  0
 34 62  1  0
 35 36  1  0
 36 37  1  0
M  CHG  1   8   1
M  END
>  <DOCK_score>  (1) 
-41.299431

>  <SMILES>  (1) 
CC(C)n1cc(C[NH2+][C@H](CO)Cc2c[nH]c3ccc(O)cc23)c(-c2nc3ccccc3[nH]2)n1

$$$$
