O=Cc1cc(C[NH+]2CC[C@@H](Cc3ccccc3)C2)cc(SC2C=CCCC2)c1
     RDKit          3D

 58 61  0  0  1  0  0  0  0  0999 V2000
  125.9847  135.7482  162.4982 O   0  0  0  0  0  0  0  0  0  0  0  0
  126.2171  134.9373  161.6271 C   0  0  0  0  0  0  0  0  0  0  0  0
  127.3330  135.1595  160.6935 C   0  0  0  0  0  0  0  0  0  0  0  0
  128.1239  136.3082  160.8049 C   0  0  0  0  0  0  0  0  0  0  0  0
  129.1688  136.5134  159.9284 C   0  0  0  0  0  0  0  0  0  0  0  0
  130.0190  137.7515  160.0509 C   0  0  0  0  0  0  0  0  0  0  0  0
  131.4369  137.3854  159.9354 N   0  0  1  0  0  0  0  0  0  0  0  0
  131.6047  136.9519  159.0397 H   0  0  0  0  0  0  0  0  0  0  0  0
  132.2735  138.5925  160.0668 C   0  0  0  0  0  0  0  0  0  0  0  0
  133.2100  138.3706  161.2731 C   0  0  0  0  0  0  0  0  0  0  0  0
  133.2463  136.8255  161.4078 C   0  0  1  0  0  0  0  0  0  0  0  0
  133.9663  136.3900  160.7151 H   0  0  0  0  0  0  0  0  0  0  0  0
  133.5533  136.4080  162.8473 C   0  0  0  0  0  0  0  0  0  0  0  0
  135.0440  136.4243  163.0680 C   0  0  0  0  0  0  0  0  0  0  0  0
  135.7905  135.2856  162.8290 C   0  0  0  0  0  0  0  0  0  0  0  0
  137.1585  135.3019  163.0272 C   0  0  0  0  0  0  0  0  0  0  0  0
  137.7787  136.4540  163.4736 C   0  0  0  0  0  0  0  0  0  0  0  0
  137.0313  137.5910  163.7172 C   0  0  0  0  0  0  0  0  0  0  0  0
  135.6640  137.5760  163.5148 C   0  0  0  0  0  0  0  0  0  0  0  0
  131.7972  136.4432  161.0162 C   0  0  0  0  0  0  0  0  0  0  0  0
  129.4391  135.5878  158.9374 C   0  0  0  0  0  0  0  0  0  0  0  0
  128.6595  134.4424  158.8163 C   0  0  0  0  0  0  0  0  0  0  0  0
  129.0096  133.2682  157.5502 S   0  0  0  0  0  0  0  0  0  0  0  0
  130.1802  132.1388  158.3533 C   0  0  2  0  0  0  0  0  0  0  0  0
  130.9551  131.3969  157.3039 C   0  0  0  0  0  0  0  0  0  0  0  0
  131.2220  130.1315  157.3586 C   0  0  0  0  0  0  0  0  0  0  0  0
  130.7852  129.2274  158.4739 C   0  0  0  0  0  0  0  0  0  0  0  0
  130.3781  130.0553  159.6947 C   0  0  0  0  0  0  0  0  0  0  0  0
  129.4105  131.1534  159.2354 C   0  0  0  0  0  0  0  0  0  0  0  0
  127.6031  134.2270  159.6886 C   0  0  0  0  0  0  0  0  0  0  0  0
  125.6051  134.0520  161.5363 H   0  0  0  0  0  0  0  0  0  0  0  0
  127.9160  137.0342  161.5770 H   0  0  0  0  0  0  0  0  0  0  0  0
  129.7585  138.4511  159.2566 H   0  0  0  0  0  0  0  0  0  0  0  0
  129.8422  138.2194  161.0193 H   0  0  0  0  0  0  0  0  0  0  0  0
  132.8628  138.7355  159.1611 H   0  0  0  0  0  0  0  0  0  0  0  0
  131.6421  139.4640  160.2397 H   0  0  0  0  0  0  0  0  0  0  0  0
  134.2054  138.7628  161.0653 H   0  0  0  0  0  0  0  0  0  0  0  0
  132.7948  138.8262  162.1721 H   0  0  0  0  0  0  0  0  0  0  0  0
  133.0762  137.1040  163.5372 H   0  0  0  0  0  0  0  0  0  0  0  0
  133.1710  135.4025  163.0234 H   0  0  0  0  0  0  0  0  0  0  0  0
  135.3055  134.3844  162.4841 H   0  0  0  0  0  0  0  0  0  0  0  0
  137.7424  134.4136  162.8367 H   0  0  0  0  0  0  0  0  0  0  0  0
  138.8469  136.4658  163.6317 H   0  0  0  0  0  0  0  0  0  0  0  0
  137.5158  138.4912  164.0659 H   0  0  0  0  0  0  0  0  0  0  0  0
  135.0800  138.4644  163.7055 H   0  0  0  0  0  0  0  0  0  0  0  0
  131.1283  136.5686  161.8676 H   0  0  0  0  0  0  0  0  0  0  0  0
  131.7608  135.4163  160.6522 H   0  0  0  0  0  0  0  0  0  0  0  0
  130.2587  135.7551  158.2542 H   0  0  0  0  0  0  0  0  0  0  0  0
  130.8689  132.7150  158.9711 H   0  0  0  0  0  0  0  0  0  0  0  0
  131.3125  131.9534  156.4502 H   0  0  0  0  0  0  0  0  0  0  0  0
  131.7943  129.6993  156.5511 H   0  0  0  0  0  0  0  0  0  0  0  0
  131.6072  128.5647  158.7447 H   0  0  0  0  0  0  0  0  0  0  0  0
  129.9359  128.6297  158.1431 H   0  0  0  0  0  0  0  0  0  0  0  0
  131.2626  130.5097  160.1409 H   0  0  0  0  0  0  0  0  0  0  0  0
  129.8843  129.4137  160.4245 H   0  0  0  0  0  0  0  0  0  0  0  0
  128.5963  130.7085  158.6634 H   0  0  0  0  0  0  0  0  0  0  0  0
  129.0095  131.6753  160.1042 H   0  0  0  0  0  0  0  0  0  0  0  0
  126.9940  133.3404  159.5939 H   0  0  0  0  0  0  0  0  0  0  0  0
  1  2  2  0
  2  3  1  0
  2 31  1  0
  3 30  2  0
  3  4  1  0
  4  5  2  0
  4 32  1  0
  5  6  1  0
  5 21  1  0
  6  7  1  0
  6 33  1  0
  6 34  1  0
  7  8  1  6
  7 20  1  0
  7  9  1  0
  9 10  1  0
  9 35  1  0
  9 36  1  0
 10 11  1  0
 10 37  1  0
 10 38  1  0
 11 12  1  6
 11 13  1  0
 11 20  1  0
 13 14  1  0
 13 39  1  0
 13 40  1  0
 14 19  1  0
 14 15  2  0
 15 16  1  0
 15 41  1  0
 16 17  2  0
 16 42  1  0
 17 18  1  0
 17 43  1  0
 18 19  2  0
 18 44  1  0
 19 45  1  0
 20 46  1  0
 20 47  1  0
 21 22  2  0
 21 48  1  0
 22 23  1  0
 22 30  1  0
 23 24  1  0
 24 29  1  0
 24 25  1  0
 24 49  1  1
 25 26  2  0
 25 50  1  0
 26 27  1  0
 26 51  1  0
 27 28  1  0
 27 52  1  0
 27 53  1  0
 28 29  1  0
 28 54  1  0
 28 55  1  0
 29 56  1  0
 29 57  1  0
 30 58  1  0
M  CHG  1   7   1
M  END
>  <DOCK_score>  (1) 
-45.070618

>  <SMILES>  (1) 
O=Cc1cc(C[NH+]2CC[C@@H](Cc3ccccc3)C2)cc(SC2C=CCCC2)c1

$$$$
