CCc1ccc(-c2c[nH]c(NC(c3ccccc3Cl)c3ccccc3Cl)[nH+]2)cc1
     RDKit          3D

 51 54  0  0  1  0  0  0  0  0999 V2000
  130.2707  128.5629  151.8510 C   0  0  0  0  0  0  0  0  0  0  0  0
  131.4132  129.5249  152.1818 C   0  0  0  0  0  0  0  0  0  0  0  0
  131.0578  130.3243  153.4087 C   0  0  0  0  0  0  0  0  0  0  0  0
  131.4016  129.8510  154.6623 C   0  0  0  0  0  0  0  0  0  0  0  0
  131.0839  130.5811  155.7895 C   0  0  0  0  0  0  0  0  0  0  0  0
  130.4051  131.7920  155.6638 C   0  0  0  0  0  0  0  0  0  0  0  0
  130.0559  132.5785  156.8720 C   0  0  0  0  0  0  0  0  0  0  0  0
  129.2772  132.1588  157.8998 C   0  0  0  0  0  0  0  0  0  0  0  0
  129.2148  133.1936  158.8011 N   0  0  0  0  0  0  0  0  0  0  0  0
  128.7304  133.1952  159.6414 H   0  0  0  0  0  0  0  0  0  0  0  0
  129.9579  134.2164  158.2971 C   0  0  0  0  0  0  0  0  0  0  0  0
  130.1526  135.4462  158.9023 N   0  0  0  0  0  0  0  0  0  0  0  0
  129.5313  135.7315  160.1980 C   0  0  0  0  0  0  0  0  0  0  0  0
  130.0242  134.7403  161.2206 C   0  0  0  0  0  0  0  0  0  0  0  0
  131.3737  134.6573  161.5085 C   0  0  0  0  0  0  0  0  0  0  0  0
  131.8254  133.7520  162.4501 C   0  0  0  0  0  0  0  0  0  0  0  0
  130.9287  132.9208  163.0966 C   0  0  0  0  0  0  0  0  0  0  0  0
  129.5803  132.9992  162.8056 C   0  0  0  0  0  0  0  0  0  0  0  0
  129.1270  133.9094  161.8672 C   0  0  0  0  0  0  0  0  0  0  0  0
  127.4330  134.0080  161.5009 Cl  0  0  0  0  0  0  0  0  0  0  0  0
  129.8969  137.1270  160.6341 C   0  0  0  0  0  0  0  0  0  0  0  0
  131.1040  137.6782  160.2470 C   0  0  0  0  0  0  0  0  0  0  0  0
  131.4373  138.9600  160.6425 C   0  0  0  0  0  0  0  0  0  0  0  0
  130.5677  139.6875  161.4351 C   0  0  0  0  0  0  0  0  0  0  0  0
  129.3637  139.1354  161.8268 C   0  0  0  0  0  0  0  0  0  0  0  0
  129.0271  137.8544  161.4263 C   0  0  0  0  0  0  0  0  0  0  0  0
  127.5141  137.1600  161.9187 Cl  0  0  0  0  0  0  0  0  0  0  0  0
  130.4636  133.8429  157.1470 N   0  0  0  0  0  0  0  0  0  0  0  0
  131.0359  134.3849  156.5816 H   0  0  0  0  0  0  0  0  0  0  0  0
  130.0562  132.2612  154.3986 C   0  0  0  0  0  0  0  0  0  0  0  0
  130.3842  131.5254  153.2781 C   0  0  0  0  0  0  0  0  0  0  0  0
  130.1108  127.8868  152.6908 H   0  0  0  0  0  0  0  0  0  0  0  0
  129.3595  129.1312  151.6636 H   0  0  0  0  0  0  0  0  0  0  0  0
  130.5276  127.9853  150.9631 H   0  0  0  0  0  0  0  0  0  0  0  0
  132.3242  128.9574  152.3687 H   0  0  0  0  0  0  0  0  0  0  0  0
  131.5728  130.2017  151.3414 H   0  0  0  0  0  0  0  0  0  0  0  0
  131.9233  128.9103  154.7589 H   0  0  0  0  0  0  0  0  0  0  0  0
  131.3569  130.2129  156.7674 H   0  0  0  0  0  0  0  0  0  0  0  0
  128.7977  131.1955  157.9921 H   0  0  0  0  0  0  0  0  0  0  0  0
  130.7004  136.1190  158.4685 H   0  0  0  0  0  0  0  0  0  0  0  0
  128.4481  135.6514  160.1069 H   0  0  0  0  0  0  0  0  0  0  0  0
  132.0748  135.3031  161.0005 H   0  0  0  0  0  0  0  0  0  0  0  0
  132.8793  133.6904  162.6778 H   0  0  0  0  0  0  0  0  0  0  0  0
  131.2824  132.2101  163.8288 H   0  0  0  0  0  0  0  0  0  0  0  0
  128.8803  132.3505  163.3110 H   0  0  0  0  0  0  0  0  0  0  0  0
  131.7852  137.1087  159.6320 H   0  0  0  0  0  0  0  0  0  0  0  0
  132.3786  139.3918  160.3365 H   0  0  0  0  0  0  0  0  0  0  0  0
  130.8313  140.6872  161.7473 H   0  0  0  0  0  0  0  0  0  0  0  0
  128.6848  139.7040  162.4452 H   0  0  0  0  0  0  0  0  0  0  0  0
  129.5299  133.1986  154.2955 H   0  0  0  0  0  0  0  0  0  0  0  0
  130.1139  131.8878  152.2972 H   0  0  0  0  0  0  0  0  0  0  0  0
  1  2  1  0
  1 32  1  0
  1 33  1  0
  1 34  1  0
  2  3  1  0
  2 35  1  0
  2 36  1  0
  3 31  2  0
  3  4  1  0
  4  5  2  0
  4 37  1  0
  5  6  1  0
  5 38  1  0
  6  7  1  0
  6 30  2  0
  7 28  1  0
  7  8  2  0
  8  9  1  0
  8 39  1  0
  9 10  1  0
  9 11  1  0
 11 12  1  0
 11 28  2  0
 12 13  1  0
 12 40  1  0
 13 14  1  0
 13 21  1  0
 13 41  1  0
 14 19  1  0
 14 15  2  0
 15 16  1  0
 15 42  1  0
 16 17  2  0
 16 43  1  0
 17 18  1  0
 17 44  1  0
 18 19  2  0
 18 45  1  0
 19 20  1  0
 21 26  1  0
 21 22  2  0
 22 23  1  0
 22 46  1  0
 23 24  2  0
 23 47  1  0
 24 25  1  0
 24 48  1  0
 25 26  2  0
 25 49  1  0
 26 27  1  0
 28 29  1  0
 30 31  1  0
 30 50  1  0
 31 51  1  0
M  CHG  1  28   1
M  END
>  <DOCK_score>  (1) 
-58.567547

>  <SMILES>  (1) 
CCc1ccc(-c2c[nH]c(NC(c3ccccc3Cl)c3ccccc3Cl)[nH+]2)cc1

$$$$
