CNc1cnc(-c2ccc3c(c2)CC[C@@H](Nc2[nH]cc(-c4ccc(-c5ccccc5)cc4)[nH+]2)C3)cn1
     RDKit          3D

 65 70  0  0  1  0  0  0  0  0999 V2000
  133.3140  136.8698  172.6903 C   0  0  0  0  0  0  0  0  0  0  0  0
  132.1217  137.0042  171.8497 N   0  0  0  0  0  0  0  0  0  0  0  0
  132.2051  136.7688  170.4830 C   0  0  0  0  0  0  0  0  0  0  0  0
  133.4238  136.4048  169.9118 C   0  0  0  0  0  0  0  0  0  0  0  0
  133.5038  136.1817  168.6153 N   0  0  0  0  0  0  0  0  0  0  0  0
  132.4212  136.3037  167.8513 C   0  0  0  0  0  0  0  0  0  0  0  0
  132.5108  136.0532  166.3922 C   0  0  0  0  0  0  0  0  0  0  0  0
  133.7271  135.6902  165.8156 C   0  0  0  0  0  0  0  0  0  0  0  0
  133.7967  135.4634  164.4593 C   0  0  0  0  0  0  0  0  0  0  0  0
  132.6672  135.5918  163.6586 C   0  0  0  0  0  0  0  0  0  0  0  0
  131.4616  135.9464  164.2240 C   0  0  0  0  0  0  0  0  0  0  0  0
  131.3826  136.1793  165.5890 C   0  0  0  0  0  0  0  0  0  0  0  0
  130.1993  136.0951  163.4154 C   0  0  0  0  0  0  0  0  0  0  0  0
  130.5257  136.2331  161.9299 C   0  0  0  0  0  0  0  0  0  0  0  0
  131.4639  135.0872  161.5327 C   0  0  1  0  0  0  0  0  0  0  0  0
  131.0547  134.1396  161.8829 H   0  0  0  0  0  0  0  0  0  0  0  0
  131.6124  135.0524  160.0757 N   0  0  0  0  0  0  0  0  0  0  0  0
  131.2375  133.9229  159.3685 C   0  0  0  0  0  0  0  0  0  0  0  0
  130.7147  132.7876  159.9074 N   0  0  0  0  0  0  0  0  0  0  0  0
  130.5393  132.6260  160.8475 H   0  0  0  0  0  0  0  0  0  0  0  0
  130.4812  131.9133  158.8743 C   0  0  0  0  0  0  0  0  0  0  0  0
  130.8676  132.5389  157.7342 C   0  0  0  0  0  0  0  0  0  0  0  0
  130.7993  131.9766  156.3642 C   0  0  0  0  0  0  0  0  0  0  0  0
  130.0316  132.6109  155.3874 C   0  0  0  0  0  0  0  0  0  0  0  0
  129.9716  132.0907  154.1134 C   0  0  0  0  0  0  0  0  0  0  0  0
  130.6701  130.9251  153.8025 C   0  0  0  0  0  0  0  0  0  0  0  0
  130.6006  130.3610  152.4327 C   0  0  0  0  0  0  0  0  0  0  0  0
  130.7268  128.9872  152.2339 C   0  0  0  0  0  0  0  0  0  0  0  0
  130.6565  128.4680  150.9571 C   0  0  0  0  0  0  0  0  0  0  0  0
  130.4711  129.3102  149.8745 C   0  0  0  0  0  0  0  0  0  0  0  0
  130.3511  130.6743  150.0655 C   0  0  0  0  0  0  0  0  0  0  0  0
  130.4146  131.2040  151.3383 C   0  0  0  0  0  0  0  0  0  0  0  0
  131.4339  130.2874  154.7806 C   0  0  0  0  0  0  0  0  0  0  0  0
  131.4980  130.8100  156.0533 C   0  0  0  0  0  0  0  0  0  0  0  0
  131.3221  133.7728  158.0693 N   0  0  0  0  0  0  0  0  0  0  0  0
  131.6582  134.4366  157.4471 H   0  0  0  0  0  0  0  0  0  0  0  0
  132.8242  135.3319  162.1828 C   0  0  0  0  0  0  0  0  0  0  0  0
  131.2050  136.6724  168.4215 C   0  0  0  0  0  0  0  0  0  0  0  0
  131.1248  136.8907  169.7217 N   0  0  0  0  0  0  0  0  0  0  0  0
  133.0556  137.0920  173.7257 H   0  0  0  0  0  0  0  0  0  0  0  0
  133.6941  135.8505  172.6215 H   0  0  0  0  0  0  0  0  0  0  0  0
  134.0794  137.5668  172.3493 H   0  0  0  0  0  0  0  0  0  0  0  0
  131.2740  137.2576  172.2473 H   0  0  0  0  0  0  0  0  0  0  0  0
  134.3027  136.3062  170.5318 H   0  0  0  0  0  0  0  0  0  0  0  0
  134.6096  135.5867  166.4292 H   0  0  0  0  0  0  0  0  0  0  0  0
  134.7389  135.1823  164.0125 H   0  0  0  0  0  0  0  0  0  0  0  0
  130.4382  136.4601  166.0313 H   0  0  0  0  0  0  0  0  0  0  0  0
  129.6612  136.9824  163.7491 H   0  0  0  0  0  0  0  0  0  0  0  0
  129.5710  135.2171  163.5652 H   0  0  0  0  0  0  0  0  0  0  0  0
  131.0170  137.1893  161.7491 H   0  0  0  0  0  0  0  0  0  0  0  0
  129.6076  136.1752  161.3452 H   0  0  0  0  0  0  0  0  0  0  0  0
  131.9734  135.8208  159.6065 H   0  0  0  0  0  0  0  0  0  0  0  0
  130.0686  130.9184  158.9542 H   0  0  0  0  0  0  0  0  0  0  0  0
  129.4870  133.5116  155.6290 H   0  0  0  0  0  0  0  0  0  0  0  0
  129.3800  132.5836  153.3562 H   0  0  0  0  0  0  0  0  0  0  0  0
  130.8752  128.3297  153.0779 H   0  0  0  0  0  0  0  0  0  0  0  0
  130.7497  127.4032  150.8023 H   0  0  0  0  0  0  0  0  0  0  0  0
  130.4205  128.8999  148.8768 H   0  0  0  0  0  0  0  0  0  0  0  0
  130.2065  131.3264  149.2169 H   0  0  0  0  0  0  0  0  0  0  0  0
  130.3199  132.2696  151.4862 H   0  0  0  0  0  0  0  0  0  0  0  0
  131.9749  129.3842  154.5399 H   0  0  0  0  0  0  0  0  0  0  0  0
  132.0893  130.3166  156.8105 H   0  0  0  0  0  0  0  0  0  0  0  0
  133.4550  134.4550  162.0372 H   0  0  0  0  0  0  0  0  0  0  0  0
  133.2964  136.1953  161.7140 H   0  0  0  0  0  0  0  0  0  0  0  0
  130.3268  136.7756  167.8014 H   0  0  0  0  0  0  0  0  0  0  0  0
  1  2  1  0
  1 40  1  0
  1 41  1  0
  1 42  1  0
  2  3  1  0
  2 43  1  0
  3 39  2  0
  3  4  1  0
  4  5  2  0
  4 44  1  0
  5  6  1  0
  6  7  1  0
  6 38  2  0
  7 12  1  0
  7  8  2  0
  8  9  1  0
  8 45  1  0
  9 10  2  0
  9 46  1  0
 10 37  1  0
 10 11  1  0
 11 12  2  0
 11 13  1  0
 12 47  1  0
 13 14  1  0
 13 48  1  0
 13 49  1  0
 14 15  1  0
 14 50  1  0
 14 51  1  0
 15 16  1  1
 15 17  1  0
 15 37  1  0
 17 52  1  0
 18 17  1  0
 18 35  2  0
 18 19  1  0
 19 20  1  0
 19 21  1  0
 21 22  2  0
 21 53  1  0
 22 23  1  0
 22 35  1  0
 23 34  1  0
 23 24  2  0
 24 25  1  0
 24 54  1  0
 25 26  2  0
 25 55  1  0
 26 27  1  0
 26 33  1  0
 27 32  1  0
 27 28  2  0
 28 29  1  0
 28 56  1  0
 29 30  2  0
 29 57  1  0
 30 31  1  0
 30 58  1  0
 31 32  2  0
 31 59  1  0
 32 60  1  0
 33 34  2  0
 33 61  1  0
 34 62  1  0
 35 36  1  0
 37 63  1  0
 37 64  1  0
 38 39  1  0
 38 65  1  0
M  CHG  1  35   1
M  END
>  <DOCK_score>  (1) 
-56.869595

>  <SMILES>  (1) 
CNc1cnc(-c2ccc3c(c2)CC[C@@H](Nc2[nH]cc(-c4ccc(-c5ccccc5)cc4)[nH+]2)C3)cn1

$$$$
