CCCC=C1C=C([NH2+]Cc2ccccc2NCc2c[nH]c3ccc(F)cc23)CC1
     RDKit          3D

 58 61  0  0  0  0  0  0  0  0999 V2000
  131.0146  131.5073  152.9449 C   0  0  0  0  0  0  0  0  0  0  0  0
  130.1199  131.1524  154.1343 C   0  0  0  0  0  0  0  0  0  0  0  0
  130.3543  132.1550  155.2659 C   0  0  0  0  0  0  0  0  0  0  0  0
  129.4731  131.8055  156.4373 C   0  0  0  0  0  0  0  0  0  0  0  0
  129.5095  132.5455  157.5403 C   0  0  0  0  0  0  0  0  0  0  0  0
  130.3551  133.7230  157.7695 C   0  0  0  0  0  0  0  0  0  0  0  0
  130.1631  134.2497  158.9638 C   0  0  0  0  0  0  0  0  0  0  0  0
  130.8286  135.3783  159.4512 N   0  0  0  0  0  0  0  0  0  0  0  0
  131.4700  135.7191  158.7508 H   0  0  0  0  0  0  0  0  0  0  0  0
  130.1555  136.0977  159.6693 H   0  0  0  0  0  0  0  0  0  0  0  0
  131.5742  135.0210  160.6655 C   0  0  0  0  0  0  0  0  0  0  0  0
  132.2915  136.2376  161.1909 C   0  0  0  0  0  0  0  0  0  0  0  0
  133.5724  136.5244  160.7610 C   0  0  0  0  0  0  0  0  0  0  0  0
  134.2309  137.6411  161.2417 C   0  0  0  0  0  0  0  0  0  0  0  0
  133.6104  138.4740  162.1550 C   0  0  0  0  0  0  0  0  0  0  0  0
  132.3301  138.1929  162.5893 C   0  0  0  0  0  0  0  0  0  0  0  0
  131.6632  137.0751  162.1036 C   0  0  0  0  0  0  0  0  0  0  0  0
  130.3659  136.7910  162.5364 N   0  0  0  0  0  0  0  0  0  0  0  0
  129.5430  137.8489  163.1278 C   0  0  0  0  0  0  0  0  0  0  0  0
  128.1978  137.2856  163.5078 C   0  0  0  0  0  0  0  0  0  0  0  0
  127.1057  137.2321  162.7290 C   0  0  0  0  0  0  0  0  0  0  0  0
  126.0726  136.6527  163.4137 N   0  0  0  0  0  0  0  0  0  0  0  0
  125.1823  136.5045  163.0584 H   0  0  0  0  0  0  0  0  0  0  0  0
  126.4858  136.3103  164.6831 C   0  0  0  0  0  0  0  0  0  0  0  0
  125.8515  135.7080  165.7646 C   0  0  0  0  0  0  0  0  0  0  0  0
  126.5488  135.4779  166.9297 C   0  0  0  0  0  0  0  0  0  0  0  0
  127.8829  135.8525  167.0430 C   0  0  0  0  0  0  0  0  0  0  0  0
  128.5489  135.6258  168.1963 F   0  0  0  0  0  0  0  0  0  0  0  0
  128.5290  136.4542  165.9850 C   0  0  0  0  0  0  0  0  0  0  0  0
  127.8362  136.6869  164.7949 C   0  0  0  0  0  0  0  0  0  0  0  0
  129.1327  133.4628  159.7336 C   0  0  0  0  0  0  0  0  0  0  0  0
  128.6912  132.3262  158.7950 C   0  0  0  0  0  0  0  0  0  0  0  0
  130.8477  130.7930  152.1387 H   0  0  0  0  0  0  0  0  0  0  0  0
  130.7741  132.5116  152.5963 H   0  0  0  0  0  0  0  0  0  0  0  0
  132.0596  131.4701  153.2526 H   0  0  0  0  0  0  0  0  0  0  0  0
  130.3604  130.1481  154.4829 H   0  0  0  0  0  0  0  0  0  0  0  0
  129.0749  131.1896  153.8266 H   0  0  0  0  0  0  0  0  0  0  0  0
  130.1139  133.1593  154.9172 H   0  0  0  0  0  0  0  0  0  0  0  0
  131.3994  132.1179  155.5735 H   0  0  0  0  0  0  0  0  0  0  0  0
  128.8119  130.9534  156.3804 H   0  0  0  0  0  0  0  0  0  0  0  0
  131.0514  134.1153  157.0431 H   0  0  0  0  0  0  0  0  0  0  0  0
  130.8812  134.6528  161.4221 H   0  0  0  0  0  0  0  0  0  0  0  0
  132.3013  134.2439  160.4299 H   0  0  0  0  0  0  0  0  0  0  0  0
  134.0600  135.8759  160.0481 H   0  0  0  0  0  0  0  0  0  0  0  0
  135.2323  137.8631  160.9037 H   0  0  0  0  0  0  0  0  0  0  0  0
  134.1279  139.3449  162.5291 H   0  0  0  0  0  0  0  0  0  0  0  0
  131.8462  138.8438  163.3024 H   0  0  0  0  0  0  0  0  0  0  0  0
  130.0100  135.8933  162.4455 H   0  0  0  0  0  0  0  0  0  0  0  0
  130.0374  138.2399  164.0169 H   0  0  0  0  0  0  0  0  0  0  0  0
  129.4089  138.6525  162.4036 H   0  0  0  0  0  0  0  0  0  0  0  0
  127.0505  137.5934  161.7128 H   0  0  0  0  0  0  0  0  0  0  0  0
  124.8158  135.4117  165.6872 H   0  0  0  0  0  0  0  0  0  0  0  0
  126.0528  135.0070  167.7655 H   0  0  0  0  0  0  0  0  0  0  0  0
  129.5655  136.7439  166.0755 H   0  0  0  0  0  0  0  0  0  0  0  0
  128.2823  134.0979  159.9819 H   0  0  0  0  0  0  0  0  0  0  0  0
  129.5729  133.0515  160.6420 H   0  0  0  0  0  0  0  0  0  0  0  0
  127.6264  132.4044  158.5750 H   0  0  0  0  0  0  0  0  0  0  0  0
  128.9189  131.3550  159.2345 H   0  0  0  0  0  0  0  0  0  0  0  0
  1  2  1  0
  1 33  1  0
  1 34  1  0
  1 35  1  0
  2  3  1  0
  2 36  1  0
  2 37  1  0
  3  4  1  0
  3 38  1  0
  3 39  1  0
  4  5  2  0
  4 40  1  0
  5 32  1  0
  5  6  1  0
  6  7  2  0
  6 41  1  0
  7  8  1  0
  7 31  1  0
  8  9  1  0
  8 10  1  0
  8 11  1  0
 11 12  1  0
 11 42  1  0
 11 43  1  0
 12 17  1  0
 12 13  2  0
 13 14  1  0
 13 44  1  0
 14 15  2  0
 14 45  1  0
 15 16  1  0
 15 46  1  0
 16 17  2  0
 16 47  1  0
 17 18  1  0
 18 19  1  0
 18 48  1  0
 19 20  1  0
 19 49  1  0
 19 50  1  0
 20 30  1  0
 20 21  2  0
 21 22  1  0
 21 51  1  0
 22 23  1  0
 22 24  1  0
 24 30  2  0
 24 25  1  0
 25 26  2  0
 25 52  1  0
 26 27  1  0
 26 53  1  0
 27 28  1  0
 27 29  2  0
 29 30  1  0
 29 54  1  0
 31 32  1  0
 31 55  1  0
 31 56  1  0
 32 57  1  0
 32 58  1  0
M  CHG  1   8   1
M  END
>  <DOCK_score>  (1) 
-44.725445

>  <SMILES>  (1) 
CCCC=C1C=C([NH2+]Cc2ccccc2NCc2c[nH]c3ccc(F)cc23)CC1

$$$$
