ClCC=CC[NH2+]Cc1c[nH]nc1-c1ccc(NC(c2ccccc2)c2ccccc2)o1
     RDKit          3D

 57 60  0  0  0  0  0  0  0  0999 V2000
  135.1705  138.4198  156.8251 Cl  0  0  0  0  0  0  0  0  0  0  0  0
  134.7912  139.2893  158.3584 C   0  0  0  0  0  0  0  0  0  0  0  0
  133.6964  138.5589  159.0926 C   0  0  0  0  0  0  0  0  0  0  0  0
  133.9994  137.6214  159.9559 C   0  0  0  0  0  0  0  0  0  0  0  0
  132.9045  136.8910  160.6902 C   0  0  0  0  0  0  0  0  0  0  0  0
  132.5021  135.7079  159.9180 N   0  0  0  0  0  0  0  0  0  0  0  0
  133.2959  135.0957  159.8023 H   0  0  0  0  0  0  0  0  0  0  0  0
  132.1648  135.9963  159.0117 H   0  0  0  0  0  0  0  0  0  0  0  0
  131.4349  134.9959  160.6336 C   0  0  0  0  0  0  0  0  0  0  0  0
  131.0221  133.7821  159.8415 C   0  0  0  0  0  0  0  0  0  0  0  0
  131.8536  132.9001  159.2467 C   0  0  0  0  0  0  0  0  0  0  0  0
  131.0995  131.9567  158.6418 N   0  0  0  0  0  0  0  0  0  0  0  0
  131.4338  131.1977  158.1390 H   0  0  0  0  0  0  0  0  0  0  0  0
  129.7515  132.2678  158.8608 N   0  0  0  0  0  0  0  0  0  0  0  0
  129.6979  133.3687  159.5844 C   0  0  0  0  0  0  0  0  0  0  0  0
  128.4694  134.0483  160.0447 C   0  0  0  0  0  0  0  0  0  0  0  0
  127.1956  133.6427  159.7992 C   0  0  0  0  0  0  0  0  0  0  0  0
  126.3431  134.5771  160.4199 C   0  0  0  0  0  0  0  0  0  0  0  0
  127.1364  135.5044  161.0119 C   0  0  0  0  0  0  0  0  0  0  0  0
  126.6963  136.6065  161.7357 N   0  0  0  0  0  0  0  0  0  0  0  0
  127.6677  137.5320  162.3238 C   0  0  0  0  0  0  0  0  0  0  0  0
  126.9375  138.6319  163.0505 C   0  0  0  0  0  0  0  0  0  0  0  0
  127.5047  139.8884  163.1516 C   0  0  0  0  0  0  0  0  0  0  0  0
  126.8327  140.8988  163.8140 C   0  0  0  0  0  0  0  0  0  0  0  0
  125.5987  140.6502  164.3837 C   0  0  0  0  0  0  0  0  0  0  0  0
  125.0335  139.3916  164.2875 C   0  0  0  0  0  0  0  0  0  0  0  0
  125.7031  138.3828  163.6207 C   0  0  0  0  0  0  0  0  0  0  0  0
  128.5476  136.7868  163.2942 C   0  0  0  0  0  0  0  0  0  0  0  0
  129.8524  137.1953  163.4980 C   0  0  0  0  0  0  0  0  0  0  0  0
  130.6580  136.5146  164.3917 C   0  0  0  0  0  0  0  0  0  0  0  0
  130.1622  135.4192  165.0736 C   0  0  0  0  0  0  0  0  0  0  0  0
  128.8590  135.0076  164.8658 C   0  0  0  0  0  0  0  0  0  0  0  0
  128.0518  135.6912  163.9761 C   0  0  0  0  0  0  0  0  0  0  0  0
  128.4196  135.1751  160.7858 O   0  0  0  0  0  0  0  0  0  0  0  0
  134.4617  140.3028  158.1294 H   0  0  0  0  0  0  0  0  0  0  0  0
  135.6835  139.3297  158.9832 H   0  0  0  0  0  0  0  0  0  0  0  0
  132.6623  138.8085  158.9070 H   0  0  0  0  0  0  0  0  0  0  0  0
  135.0336  137.3719  160.1415 H   0  0  0  0  0  0  0  0  0  0  0  0
  132.0470  137.5523  160.8150 H   0  0  0  0  0  0  0  0  0  0  0  0
  133.2688  136.5793  161.6689 H   0  0  0  0  0  0  0  0  0  0  0  0
  130.5774  135.6571  160.7585 H   0  0  0  0  0  0  0  0  0  0  0  0
  131.7992  134.6842  161.6126 H   0  0  0  0  0  0  0  0  0  0  0  0
  132.9328  132.9407  159.2548 H   0  0  0  0  0  0  0  0  0  0  0  0
  126.8947  132.7712  159.2367 H   0  0  0  0  0  0  0  0  0  0  0  0
  125.2633  134.5583  160.4237 H   0  0  0  0  0  0  0  0  0  0  0  0
  125.7459  136.7629  161.8512 H   0  0  0  0  0  0  0  0  0  0  0  0
  128.2823  137.9639  161.5341 H   0  0  0  0  0  0  0  0  0  0  0  0
  128.4710  140.0819  162.7099 H   0  0  0  0  0  0  0  0  0  0  0  0
  127.2742  141.8815  163.8898 H   0  0  0  0  0  0  0  0  0  0  0  0
  125.0754  141.4378  164.9056 H   0  0  0  0  0  0  0  0  0  0  0  0
  124.0694  139.1969  164.7333 H   0  0  0  0  0  0  0  0  0  0  0  0
  125.2620  137.3999  163.5455 H   0  0  0  0  0  0  0  0  0  0  0  0
  130.2411  138.0484  162.9620 H   0  0  0  0  0  0  0  0  0  0  0  0
  131.6763  136.8362  164.5538 H   0  0  0  0  0  0  0  0  0  0  0  0
  130.7930  134.8847  165.7684 H   0  0  0  0  0  0  0  0  0  0  0  0
  128.4718  134.1514  165.3982 H   0  0  0  0  0  0  0  0  0  0  0  0
  127.0337  135.3694  163.8134 H   0  0  0  0  0  0  0  0  0  0  0  0
  1  2  1  0
  2  3  1  0
  2 35  1  0
  2 36  1  0
  3  4  2  0
  3 37  1  0
  4  5  1  0
  4 38  1  0
  5  6  1  0
  5 39  1  0
  5 40  1  0
  6  7  1  0
  6  8  1  0
  6  9  1  0
  9 10  1  0
  9 41  1  0
  9 42  1  0
 10 15  1  0
 10 11  2  0
 11 12  1  0
 11 43  1  0
 12 13  1  0
 12 14  1  0
 14 15  2  0
 15 16  1  0
 16 34  1  0
 16 17  2  0
 17 18  1  0
 17 44  1  0
 18 19  2  0
 18 45  1  0
 19 20  1  0
 19 34  1  0
 20 21  1  0
 20 46  1  0
 21 22  1  0
 21 28  1  0
 21 47  1  0
 22 27  1  0
 22 23  2  0
 23 24  1  0
 23 48  1  0
 24 25  2  0
 24 49  1  0
 25 26  1  0
 25 50  1  0
 26 27  2  0
 26 51  1  0
 27 52  1  0
 28 33  1  0
 28 29  2  0
 29 30  1  0
 29 53  1  0
 30 31  2  0
 30 54  1  0
 31 32  1  0
 31 55  1  0
 32 33  2  0
 32 56  1  0
 33 57  1  0
M  CHG  1   6   1
M  END
>  <DOCK_score>  (1) 
-46.311432

>  <SMILES>  (1) 
ClCC=CC[NH2+]Cc1c[nH]nc1-c1ccc(NC(c2ccccc2)c2ccccc2)o1

$$$$
