Cc1n[nH]cc1C[NH2+]Cc1c[nH]nc1-c1ccc(Nc2nc(-c3ccc(N)cc3)c[nH]2)o1
     RDKit          3D

 56 60  0  0  0  0  0  0  0  0999 V2000
  133.8835  140.5486  161.3564 C   0  0  0  0  0  0  0  0  0  0  0  0
  134.3090  139.6934  160.1908 C   0  0  0  0  0  0  0  0  0  0  0  0
  135.1976  140.0164  159.2864 N   0  0  0  0  0  0  0  0  0  0  0  0
  135.3042  138.9547  158.3788 N   0  0  0  0  0  0  0  0  0  0  0  0
  135.8887  138.9215  157.6053 H   0  0  0  0  0  0  0  0  0  0  0  0
  134.4539  137.9840  158.7733 C   0  0  0  0  0  0  0  0  0  0  0  0
  133.8219  138.4176  159.8886 C   0  0  0  0  0  0  0  0  0  0  0  0
  132.7818  137.6574  160.6706 C   0  0  0  0  0  0  0  0  0  0  0  0
  132.5428  136.3565  160.0316 N   0  0  0  0  0  0  0  0  0  0  0  0
  133.4022  135.8281  160.0128 H   0  0  0  0  0  0  0  0  0  0  0  0
  132.2157  136.5002  159.0880 H   0  0  0  0  0  0  0  0  0  0  0  0
  131.5290  135.6155  160.7939 C   0  0  0  0  0  0  0  0  0  0  0  0
  131.2839  134.2808  160.1385 C   0  0  0  0  0  0  0  0  0  0  0  0
  132.2303  133.4356  159.6770 C   0  0  0  0  0  0  0  0  0  0  0  0
  131.6092  132.3505  159.1660 N   0  0  0  0  0  0  0  0  0  0  0  0
  132.0446  131.5811  158.7670 H   0  0  0  0  0  0  0  0  0  0  0  0
  130.2272  132.5315  159.3060 N   0  0  0  0  0  0  0  0  0  0  0  0
  130.0242  133.6948  159.8923 C   0  0  0  0  0  0  0  0  0  0  0  0
  128.7110  134.2807  160.2318 C   0  0  0  0  0  0  0  0  0  0  0  0
  127.4998  133.7094  159.9977 C   0  0  0  0  0  0  0  0  0  0  0  0
  126.5259  134.6066  160.4777 C   0  0  0  0  0  0  0  0  0  0  0  0
  127.1882  135.6784  160.9798 C   0  0  0  0  0  0  0  0  0  0  0  0
  126.6007  136.8002  161.5555 N   0  0  0  0  0  0  0  0  0  0  0  0
  127.2701  137.5023  162.5442 C   0  0  0  0  0  0  0  0  0  0  0  0
  126.8221  138.5700  163.1592 N   0  0  0  0  0  0  0  0  0  0  0  0
  127.7444  138.9816  164.0641 C   0  0  0  0  0  0  0  0  0  0  0  0
  127.6197  140.1523  164.9669 C   0  0  0  0  0  0  0  0  0  0  0  0
  128.7595  140.8424  165.3764 C   0  0  0  0  0  0  0  0  0  0  0  0
  128.6409  141.9328  166.2121 C   0  0  0  0  0  0  0  0  0  0  0  0
  127.3878  142.3381  166.6538 C   0  0  0  0  0  0  0  0  0  0  0  0
  127.2695  143.4399  167.5043 N   0  0  0  0  0  0  0  0  0  0  0  0
  126.2496  141.6483  166.2507 C   0  0  0  0  0  0  0  0  0  0  0  0
  126.3631  140.5603  165.4114 C   0  0  0  0  0  0  0  0  0  0  0  0
  128.8033  138.1369  163.9944 C   0  0  0  0  0  0  0  0  0  0  0  0
  128.5041  137.2011  163.0333 N   0  0  0  0  0  0  0  0  0  0  0  0
  129.0681  136.4627  162.7551 H   0  0  0  0  0  0  0  0  0  0  0  0
  128.5082  135.4718  160.8324 O   0  0  0  0  0  0  0  0  0  0  0  0
  134.5204  140.3356  162.2148 H   0  0  0  0  0  0  0  0  0  0  0  0
  133.9757  141.6010  161.0877 H   0  0  0  0  0  0  0  0  0  0  0  0
  132.8467  140.3277  161.6096 H   0  0  0  0  0  0  0  0  0  0  0  0
  134.3027  137.0326  158.2851 H   0  0  0  0  0  0  0  0  0  0  0  0
  131.8534  138.2282  160.6908 H   0  0  0  0  0  0  0  0  0  0  0  0
  133.1352  137.5022  161.6899 H   0  0  0  0  0  0  0  0  0  0  0  0
  131.8825  135.4602  161.8133 H   0  0  0  0  0  0  0  0  0  0  0  0
  130.6006  136.1862  160.8143 H   0  0  0  0  0  0  0  0  0  0  0  0
  133.2975  133.5978  159.7124 H   0  0  0  0  0  0  0  0  0  0  0  0
  127.3191  132.7514  159.5332 H   0  0  0  0  0  0  0  0  0  0  0  0
  125.4553  134.4673  160.4513 H   0  0  0  0  0  0  0  0  0  0  0  0
  125.7222  137.0908  161.2645 H   0  0  0  0  0  0  0  0  0  0  0  0
  129.7344  140.5253  165.0368 H   0  0  0  0  0  0  0  0  0  0  0  0
  129.5234  142.4702  166.5267 H   0  0  0  0  0  0  0  0  0  0  0  0
  126.3948  143.7234  167.8130 H   0  0  0  0  0  0  0  0  0  0  0  0
  128.0629  143.9217  167.7862 H   0  0  0  0  0  0  0  0  0  0  0  0
  125.2762  141.9647  166.5955 H   0  0  0  0  0  0  0  0  0  0  0  0
  125.4790  140.0247  165.0984 H   0  0  0  0  0  0  0  0  0  0  0  0
  129.7084  138.1899  164.5811 H   0  0  0  0  0  0  0  0  0  0  0  0
  1  2  1  0
  1 38  1  0
  1 39  1  0
  1 40  1  0
  2  7  1  0
  2  3  2  0
  3  4  1  0
  4  5  1  0
  4  6  1  0
  6  7  2  0
  6 41  1  0
  7  8  1  0
  8  9  1  0
  8 42  1  0
  8 43  1  0
  9 10  1  0
  9 11  1  0
  9 12  1  0
 12 13  1  0
 12 44  1  0
 12 45  1  0
 13 18  1  0
 13 14  2  0
 14 15  1  0
 14 46  1  0
 15 16  1  0
 15 17  1  0
 17 18  2  0
 18 19  1  0
 19 37  1  0
 19 20  2  0
 20 21  1  0
 20 47  1  0
 21 22  2  0
 21 48  1  0
 22 23  1  0
 22 37  1  0
 23 24  1  0
 23 49  1  0
 24 35  1  0
 24 25  2  0
 25 26  1  0
 26 27  1  0
 26 34  2  0
 27 33  1  0
 27 28  2  0
 28 29  1  0
 28 50  1  0
 29 30  2  0
 29 51  1  0
 30 31  1  0
 30 32  1  0
 31 52  1  0
 31 53  1  0
 32 33  2  0
 32 54  1  0
 33 55  1  0
 34 35  1  0
 34 56  1  0
 35 36  1  0
M  CHG  1   9   1
M  END
>  <DOCK_score>  (1) 
-49.498688

>  <SMILES>  (1) 
Cc1n[nH]cc1C[NH2+]Cc1c[nH]nc1-c1ccc(Nc2nc(-c3ccc(N)cc3)c[nH]2)o1

$$$$
