Cc1ccc(-c2cccc(C3=CC[N@H+](Cc4cc5cc(C)ccc5s4)CC3)c2)nc1
     RDKit          3D

 57 61  0  0  1  0  0  0  0  0999 V2000
  137.2849  142.1029  167.2732 C   0  0  0  0  0  0  0  0  0  0  0  0
  136.8643  141.6992  165.8836 C   0  0  0  0  0  0  0  0  0  0  0  0
  136.9608  142.6007  164.8329 C   0  0  0  0  0  0  0  0  0  0  0  0
  136.5636  142.1907  163.5720 C   0  0  0  0  0  0  0  0  0  0  0  0
  136.0832  140.8939  163.4020 C   0  0  0  0  0  0  0  0  0  0  0  0
  135.6529  140.4392  162.0569 C   0  0  0  0  0  0  0  0  0  0  0  0
  136.2526  140.9703  160.9152 C   0  0  0  0  0  0  0  0  0  0  0  0
  135.8535  140.5490  159.6620 C   0  0  0  0  0  0  0  0  0  0  0  0
  134.8631  139.5958  159.5307 C   0  0  0  0  0  0  0  0  0  0  0  0
  134.2513  139.0610  160.6656 C   0  0  0  0  0  0  0  0  0  0  0  0
  133.1867  138.0452  160.5244 C   0  0  0  0  0  0  0  0  0  0  0  0
  131.9371  138.4450  160.4305 C   0  0  0  0  0  0  0  0  0  0  0  0
  130.7835  137.4940  160.2901 C   0  0  0  0  0  0  0  0  0  0  0  0
  131.2568  136.1776  159.8466 N   0  0  2  0  0  0  0  0  0  0  0  0
  131.6086  136.2454  158.9034 H   0  0  0  0  0  0  0  0  0  0  0  0
  130.1468  135.2162  159.8893 C   0  0  0  0  0  0  0  0  0  0  0  0
  130.4670  134.0397  159.0036 C   0  0  0  0  0  0  0  0  0  0  0  0
  130.1534  133.9651  157.7254 C   0  0  0  0  0  0  0  0  0  0  0  0
  130.5599  132.7346  157.0663 C   0  0  0  0  0  0  0  0  0  0  0  0
  130.3819  132.3376  155.7233 C   0  0  0  0  0  0  0  0  0  0  0  0
  130.8399  131.1301  155.2943 C   0  0  0  0  0  0  0  0  0  0  0  0
  130.6411  130.7237  153.8568 C   0  0  0  0  0  0  0  0  0  0  0  0
  131.4891  130.2692  156.1691 C   0  0  0  0  0  0  0  0  0  0  0  0
  131.6763  130.6301  157.4823 C   0  0  0  0  0  0  0  0  0  0  0  0
  131.2137  131.8664  157.9445 C   0  0  0  0  0  0  0  0  0  0  0  0
  131.3024  132.5960  159.5426 S   0  0  0  0  0  0  0  0  0  0  0  0
  132.3334  135.7268  160.7426 C   0  0  0  0  0  0  0  0  0  0  0  0
  133.5712  136.5914  160.4936 C   0  0  0  0  0  0  0  0  0  0  0  0
  134.6506  139.4829  161.9324 C   0  0  0  0  0  0  0  0  0  0  0  0
  136.0020  140.0644  164.4338 N   0  0  0  0  0  0  0  0  0  0  0  0
  136.3782  140.4275  165.6434 C   0  0  0  0  0  0  0  0  0  0  0  0
  136.4318  142.5281  167.8019 H   0  0  0  0  0  0  0  0  0  0  0  0
  137.6466  141.2272  167.8120 H   0  0  0  0  0  0  0  0  0  0  0  0
  138.0805  142.8453  167.2108 H   0  0  0  0  0  0  0  0  0  0  0  0
  137.3370  143.5999  164.9954 H   0  0  0  0  0  0  0  0  0  0  0  0
  136.6255  142.8663  162.7318 H   0  0  0  0  0  0  0  0  0  0  0  0
  137.0307  141.7131  161.0113 H   0  0  0  0  0  0  0  0  0  0  0  0
  136.3212  140.9635  158.7811 H   0  0  0  0  0  0  0  0  0  0  0  0
  134.5583  139.2669  158.5484 H   0  0  0  0  0  0  0  0  0  0  0  0
  131.7314  139.5049  160.4559 H   0  0  0  0  0  0  0  0  0  0  0  0
  130.0780  137.8886  159.5589 H   0  0  0  0  0  0  0  0  0  0  0  0
  130.2818  137.3915  161.2522 H   0  0  0  0  0  0  0  0  0  0  0  0
  129.2348  135.6984  159.5373 H   0  0  0  0  0  0  0  0  0  0  0  0
  130.0036  134.8717  160.9135 H   0  0  0  0  0  0  0  0  0  0  0  0
  129.6342  134.7579  157.2072 H   0  0  0  0  0  0  0  0  0  0  0  0
  129.8790  132.9970  155.0313 H   0  0  0  0  0  0  0  0  0  0  0  0
  131.4940  131.0549  153.2643 H   0  0  0  0  0  0  0  0  0  0  0  0
  130.5546  129.6390  153.7945 H   0  0  0  0  0  0  0  0  0  0  0  0
  129.7309  131.1835  153.4719 H   0  0  0  0  0  0  0  0  0  0  0  0
  131.8484  129.3137  155.8168 H   0  0  0  0  0  0  0  0  0  0  0  0
  132.1859  129.9590  158.1578 H   0  0  0  0  0  0  0  0  0  0  0  0
  132.0160  135.8356  161.7796 H   0  0  0  0  0  0  0  0  0  0  0  0
  132.5677  134.6824  160.5366 H   0  0  0  0  0  0  0  0  0  0  0  0
  133.9917  136.3478  159.5179 H   0  0  0  0  0  0  0  0  0  0  0  0
  134.3132  136.3957  161.2676 H   0  0  0  0  0  0  0  0  0  0  0  0
  134.1838  139.0689  162.8139 H   0  0  0  0  0  0  0  0  0  0  0  0
  136.3013  139.7236  166.4588 H   0  0  0  0  0  0  0  0  0  0  0  0
  1  2  1  0
  1 32  1  0
  1 33  1  0
  1 34  1  0
  2 31  2  0
  2  3  1  0
  3  4  2  0
  3 35  1  0
  4  5  1  0
  4 36  1  0
  5  6  1  0
  5 30  2  0
  6 29  1  0
  6  7  2  0
  7  8  1  0
  7 37  1  0
  8  9  2  0
  8 38  1  0
  9 10  1  0
  9 39  1  0
 10 11  1  0
 10 29  2  0
 11 28  1  0
 11 12  2  0
 12 13  1  0
 12 40  1  0
 13 14  1  0
 13 41  1  0
 13 42  1  0
 14 15  1  6
 14 16  1  0
 14 27  1  0
 16 17  1  0
 16 43  1  0
 16 44  1  0
 17 26  1  0
 17 18  2  0
 18 19  1  0
 18 45  1  0
 19 25  2  0
 19 20  1  0
 20 21  2  0
 20 46  1  0
 21 22  1  0
 21 23  1  0
 22 47  1  0
 22 48  1  0
 22 49  1  0
 23 24  2  0
 23 50  1  0
 24 25  1  0
 24 51  1  0
 25 26  1  0
 27 28  1  0
 27 52  1  0
 27 53  1  0
 28 54  1  0
 28 55  1  0
 29 56  1  0
 30 31  1  0
 31 57  1  0
M  CHG  1  14   1
M  END
>  <DOCK_score>  (1) 
-58.356293

>  <SMILES>  (1) 
Cc1ccc(-c2cccc(C3=CC[N@H+](Cc4cc5cc(C)ccc5s4)CC3)c2)nc1

$$$$
