CC[C@@H](Nc1[nH]cc(-c2ccc(N)cc2)[nH+]1)c1ccc(-c2ccccc2)cc1
     RDKit          3D

 53 56  0  0  1  0  0  0  0  0999 V2000
  129.4962  136.0544  162.5907 C   0  0  0  0  0  0  0  0  0  0  0  0
  129.2476  135.9477  161.0849 C   0  0  0  0  0  0  0  0  0  0  0  0
  130.4018  135.1861  160.4301 C   0  0  1  0  0  0  0  0  0  0  0  0
  130.4673  134.1863  160.8594 H   0  0  0  0  0  0  0  0  0  0  0  0
  130.1638  135.0838  158.9882 N   0  0  0  0  0  0  0  0  0  0  0  0
  130.0589  133.8394  158.3906 C   0  0  0  0  0  0  0  0  0  0  0  0
  129.5917  132.7099  158.9885 N   0  0  0  0  0  0  0  0  0  0  0  0
  129.2743  132.6323  159.9018 H   0  0  0  0  0  0  0  0  0  0  0  0
  129.6522  131.6989  158.0587 C   0  0  0  0  0  0  0  0  0  0  0  0
  130.1543  132.2403  156.9214 C   0  0  0  0  0  0  0  0  0  0  0  0
  130.3985  131.5221  155.6465 C   0  0  0  0  0  0  0  0  0  0  0  0
  129.7448  131.9238  154.4827 C   0  0  0  0  0  0  0  0  0  0  0  0
  129.9778  131.2584  153.2977 C   0  0  0  0  0  0  0  0  0  0  0  0
  130.8545  130.1805  153.2654 C   0  0  0  0  0  0  0  0  0  0  0  0
  131.0841  129.5041  152.0649 N   0  0  0  0  0  0  0  0  0  0  0  0
  131.5033  129.7748  154.4258 C   0  0  0  0  0  0  0  0  0  0  0  0
  131.2778  130.4408  155.6118 C   0  0  0  0  0  0  0  0  0  0  0  0
  130.3940  133.5548  157.1557 N   0  0  0  0  0  0  0  0  0  0  0  0
  130.7555  134.1839  156.5120 H   0  0  0  0  0  0  0  0  0  0  0  0
  131.6930  135.9235  160.6750 C   0  0  0  0  0  0  0  0  0  0  0  0
  131.8438  137.2200  160.2170 C   0  0  0  0  0  0  0  0  0  0  0  0
  133.0224  137.9017  160.4428 C   0  0  0  0  0  0  0  0  0  0  0  0
  134.0655  137.2778  161.1241 C   0  0  0  0  0  0  0  0  0  0  0  0
  135.3373  138.0035  161.3645 C   0  0  0  0  0  0  0  0  0  0  0  0
  136.1009  137.7207  162.4950 C   0  0  0  0  0  0  0  0  0  0  0  0
  137.2854  138.3954  162.7111 C   0  0  0  0  0  0  0  0  0  0  0  0
  137.7097  139.3582  161.8132 C   0  0  0  0  0  0  0  0  0  0  0  0
  136.9529  139.6467  160.6919 C   0  0  0  0  0  0  0  0  0  0  0  0
  135.7694  138.9744  160.4632 C   0  0  0  0  0  0  0  0  0  0  0  0
  133.9102  135.9699  161.5787 C   0  0  0  0  0  0  0  0  0  0  0  0
  132.7253  135.2993  161.3520 C   0  0  0  0  0  0  0  0  0  0  0  0
  130.4303  136.5878  162.7678 H   0  0  0  0  0  0  0  0  0  0  0  0
  128.6740  136.5970  163.0573 H   0  0  0  0  0  0  0  0  0  0  0  0
  129.5618  135.0546  163.0200 H   0  0  0  0  0  0  0  0  0  0  0  0
  129.1821  136.9475  160.6557 H   0  0  0  0  0  0  0  0  0  0  0  0
  128.3136  135.4142  160.9078 H   0  0  0  0  0  0  0  0  0  0  0  0
  130.0797  135.8879  158.4523 H   0  0  0  0  0  0  0  0  0  0  0  0
  129.3603  130.6698  158.2072 H   0  0  0  0  0  0  0  0  0  0  0  0
  129.0599  132.7584  154.5082 H   0  0  0  0  0  0  0  0  0  0  0  0
  129.4747  131.5719  152.3948 H   0  0  0  0  0  0  0  0  0  0  0  0
  131.6962  128.7516  152.0417 H   0  0  0  0  0  0  0  0  0  0  0  0
  130.6317  129.7863  151.2548 H   0  0  0  0  0  0  0  0  0  0  0  0
  132.1843  128.9371  154.3984 H   0  0  0  0  0  0  0  0  0  0  0  0
  131.7821  130.1252  156.5132 H   0  0  0  0  0  0  0  0  0  0  0  0
  131.0361  137.7011  159.6855 H   0  0  0  0  0  0  0  0  0  0  0  0
  133.1376  138.9153  160.0881 H   0  0  0  0  0  0  0  0  0  0  0  0
  135.7685  136.9720  163.1989 H   0  0  0  0  0  0  0  0  0  0  0  0
  137.8802  138.1740  163.5851 H   0  0  0  0  0  0  0  0  0  0  0  0
  138.6349  139.8869  161.9885 H   0  0  0  0  0  0  0  0  0  0  0  0
  137.2886  140.3997  159.9942 H   0  0  0  0  0  0  0  0  0  0  0  0
  135.1791  139.2007  159.5876 H   0  0  0  0  0  0  0  0  0  0  0  0
  134.7157  135.4815  162.1070 H   0  0  0  0  0  0  0  0  0  0  0  0
  132.6037  134.2856  161.7042 H   0  0  0  0  0  0  0  0  0  0  0  0
  1  2  1  0
  1 32  1  0
  1 33  1  0
  1 34  1  0
  2  3  1  0
  2 35  1  0
  2 36  1  0
  3  4  1  1
  3  5  1  0
  3 20  1  0
  5 37  1  0
  6  5  1  0
  6 18  2  0
  6  7  1  0
  7  8  1  0
  7  9  1  0
  9 10  2  0
  9 38  1  0
 10 11  1  0
 10 18  1  0
 11 17  1  0
 11 12  2  0
 12 13  1  0
 12 39  1  0
 13 14  2  0
 13 40  1  0
 14 15  1  0
 14 16  1  0
 15 41  1  0
 15 42  1  0
 16 17  2  0
 16 43  1  0
 17 44  1  0
 18 19  1  0
 20 31  1  0
 20 21  2  0
 21 22  1  0
 21 45  1  0
 22 23  2  0
 22 46  1  0
 23 24  1  0
 23 30  1  0
 24 29  1  0
 24 25  2  0
 25 26  1  0
 25 47  1  0
 26 27  2  0
 26 48  1  0
 27 28  1  0
 27 49  1  0
 28 29  2  0
 28 50  1  0
 29 51  1  0
 30 31  2  0
 30 52  1  0
 31 53  1  0
M  CHG  1  18   1
M  END
>  <DOCK_score>  (1) 
-57.100552

>  <SMILES>  (1) 
CC[C@@H](Nc1[nH]cc(-c2ccc(N)cc2)[nH+]1)c1ccc(-c2ccccc2)cc1

$$$$
