CCc1ccc(-c2c[nH]c(NC(Cc3ccnn3C)[C@@H](C)c3cccnc3)[nH+]2)cc1
     RDKit          3D

 59 62  0  0  1  0  0  0  0  0999 V2000
  130.3623  128.1714  151.9575 C   0  0  0  0  0  0  0  0  0  0  0  0
  131.3147  129.3627  152.0808 C   0  0  0  0  0  0  0  0  0  0  0  0
  131.0283  130.1046  153.3609 C   0  0  0  0  0  0  0  0  0  0  0  0
  131.6879  129.7509  154.5246 C   0  0  0  0  0  0  0  0  0  0  0  0
  131.4297  130.4267  155.6998 C   0  0  0  0  0  0  0  0  0  0  0  0
  130.5024  131.4672  155.7128 C   0  0  0  0  0  0  0  0  0  0  0  0
  130.2205  132.1974  156.9729 C   0  0  0  0  0  0  0  0  0  0  0  0
  129.7388  131.6552  158.1187 C   0  0  0  0  0  0  0  0  0  0  0  0
  129.6328  132.6779  159.0298 N   0  0  0  0  0  0  0  0  0  0  0  0
  129.3198  132.6020  159.9448 H   0  0  0  0  0  0  0  0  0  0  0  0
  130.0455  133.8176  158.4109 C   0  0  0  0  0  0  0  0  0  0  0  0
  130.0906  135.0762  158.9856 N   0  0  0  0  0  0  0  0  0  0  0  0
  129.1362  135.4359  160.0372 C   0  0  2  0  0  0  0  0  0  0  0  0
  128.3079  136.6399  159.5844 C   0  0  0  0  0  0  0  0  0  0  0  0
  127.5586  136.2890  158.3247 C   0  0  0  0  0  0  0  0  0  0  0  0
  128.0020  136.4628  157.0581 C   0  0  0  0  0  0  0  0  0  0  0  0
  127.0064  136.0076  156.1875 C   0  0  0  0  0  0  0  0  0  0  0  0
  125.9983  135.5833  156.9054 N   0  0  0  0  0  0  0  0  0  0  0  0
  126.3230  135.7507  158.2578 N   0  0  0  0  0  0  0  0  0  0  0  0
  125.4718  135.4023  159.3981 C   0  0  0  0  0  0  0  0  0  0  0  0
  129.8969  135.7923  161.3160 C   0  0  1  0  0  0  0  0  0  0  0  0
  129.2547  136.3849  161.9676 H   0  0  0  0  0  0  0  0  0  0  0  0
  130.3104  134.5083  162.0381 C   0  0  0  0  0  0  0  0  0  0  0  0
  131.1268  136.5886  160.9635 C   0  0  0  0  0  0  0  0  0  0  0  0
  132.3291  135.9471  160.7071 C   0  0  0  0  0  0  0  0  0  0  0  0
  133.4333  136.7197  160.3823 C   0  0  0  0  0  0  0  0  0  0  0  0
  133.3026  138.0951  160.3357 C   0  0  0  0  0  0  0  0  0  0  0  0
  132.1444  138.6715  160.5903 N   0  0  0  0  0  0  0  0  0  0  0  0
  131.0721  137.9677  160.8974 C   0  0  0  0  0  0  0  0  0  0  0  0
  130.3987  133.5259  157.1828 N   0  0  0  0  0  0  0  0  0  0  0  0
  130.7341  134.1587  156.5287 H   0  0  0  0  0  0  0  0  0  0  0  0
  129.8369  131.8153  154.5388 C   0  0  0  0  0  0  0  0  0  0  0  0
  130.1070  131.1359  153.3682 C   0  0  0  0  0  0  0  0  0  0  0  0
  130.5060  127.5019  152.8055 H   0  0  0  0  0  0  0  0  0  0  0  0
  129.3327  128.5293  151.9475 H   0  0  0  0  0  0  0  0  0  0  0  0
  130.5694  127.6349  151.0316 H   0  0  0  0  0  0  0  0  0  0  0  0
  131.1710  130.0321  151.2332 H   0  0  0  0  0  0  0  0  0  0  0  0
  132.3445  129.0047  152.0911 H   0  0  0  0  0  0  0  0  0  0  0  0
  132.4064  128.9445  154.5133 H   0  0  0  0  0  0  0  0  0  0  0  0
  131.9452  130.1501  156.6076 H   0  0  0  0  0  0  0  0  0  0  0  0
  129.4903  130.6174  158.2847 H   0  0  0  0  0  0  0  0  0  0  0  0
  130.7540  135.7200  158.6917 H   0  0  0  0  0  0  0  0  0  0  0  0
  128.4743  134.5918  160.2314 H   0  0  0  0  0  0  0  0  0  0  0  0
  127.5979  136.9075  160.3668 H   0  0  0  0  0  0  0  0  0  0  0  0
  128.9697  137.4839  159.3901 H   0  0  0  0  0  0  0  0  0  0  0  0
  128.9567  136.8775  156.7704 H   0  0  0  0  0  0  0  0  0  0  0  0
  127.0592  136.0097  155.1088 H   0  0  0  0  0  0  0  0  0  0  0  0
  124.8510  136.2582  159.6630 H   0  0  0  0  0  0  0  0  0  0  0  0
  124.8339  134.5597  159.1313 H   0  0  0  0  0  0  0  0  0  0  0  0
  126.0970  135.1298  160.2484 H   0  0  0  0  0  0  0  0  0  0  0  0
  130.9525  133.9158  161.3865 H   0  0  0  0  0  0  0  0  0  0  0  0
  130.8524  134.7623  162.9492 H   0  0  0  0  0  0  0  0  0  0  0  0
  129.4208  133.9322  162.2930 H   0  0  0  0  0  0  0  0  0  0  0  0
  132.4026  134.8706  160.7555 H   0  0  0  0  0  0  0  0  0  0  0  0
  134.3847  136.2534  160.1731 H   0  0  0  0  0  0  0  0  0  0  0  0
  134.1591  138.7045  160.0881 H   0  0  0  0  0  0  0  0  0  0  0  0
  130.1405  138.4753  161.0996 H   0  0  0  0  0  0  0  0  0  0  0  0
  129.1138  132.6176  154.5442 H   0  0  0  0  0  0  0  0  0  0  0  0
  129.5949  131.4076  152.4570 H   0  0  0  0  0  0  0  0  0  0  0  0
  1  2  1  0
  1 34  1  0
  1 35  1  0
  1 36  1  0
  2  3  1  0
  2 37  1  0
  2 38  1  0
  3 33  2  0
  3  4  1  0
  4  5  2  0
  4 39  1  0
  5  6  1  0
  5 40  1  0
  6  7  1  0
  6 32  2  0
  7 30  1  0
  7  8  2  0
  8  9  1  0
  8 41  1  0
  9 10  1  0
  9 11  1  0
 11 12  1  0
 11 30  2  0
 12 13  1  0
 12 42  1  0
 13 14  1  0
 13 21  1  0
 13 43  1  1
 14 15  1  0
 14 44  1  0
 14 45  1  0
 15 19  1  0
 15 16  2  0
 16 17  1  0
 16 46  1  0
 17 18  2  0
 17 47  1  0
 18 19  1  0
 19 20  1  0
 20 48  1  0
 20 49  1  0
 20 50  1  0
 21 22  1  1
 21 23  1  0
 21 24  1  0
 23 51  1  0
 23 52  1  0
 23 53  1  0
 24 29  1  0
 24 25  2  0
 25 26  1  0
 25 54  1  0
 26 27  2  0
 26 55  1  0
 27 28  1  0
 27 56  1  0
 28 29  2  0
 29 57  1  0
 30 31  1  0
 32 33  1  0
 32 58  1  0
 33 59  1  0
M  CHG  1  30   1
M  END
>  <DOCK_score>  (1) 
-60.27058

>  <SMILES>  (1) 
CCc1ccc(-c2c[nH]c(NC(Cc3ccnn3C)[C@@H](C)c3cccnc3)[nH+]2)cc1

$$$$
