CCc1ccc(-c2c[nH]c(N[C@H](CO)Cc3ccc(-c4ccc(C)cc4)cc3)[nH+]2)cc1
     RDKit          3D

 61 64  0  0  1  0  0  0  0  0999 V2000
  130.0637  128.5766  151.0895 C   0  0  0  0  0  0  0  0  0  0  0  0
  131.2360  129.4940  151.4427 C   0  0  0  0  0  0  0  0  0  0  0  0
  130.9169  130.2540  152.7044 C   0  0  0  0  0  0  0  0  0  0  0  0
  131.2622  129.7235  153.9338 C   0  0  0  0  0  0  0  0  0  0  0  0
  130.9776  130.4175  155.0924 C   0  0  0  0  0  0  0  0  0  0  0  0
  130.3307  131.6500  155.0221 C   0  0  0  0  0  0  0  0  0  0  0  0
  130.0171  132.3981  156.2641 C   0  0  0  0  0  0  0  0  0  0  0  0
  129.2395  131.9597  157.2850 C   0  0  0  0  0  0  0  0  0  0  0  0
  129.2160  132.9602  158.2261 N   0  0  0  0  0  0  0  0  0  0  0  0
  128.7417  132.9421  159.0720 H   0  0  0  0  0  0  0  0  0  0  0  0
  129.9807  133.9814  157.7523 C   0  0  0  0  0  0  0  0  0  0  0  0
  130.2158  135.1811  158.4018 N   0  0  0  0  0  0  0  0  0  0  0  0
  129.2043  135.7358  159.3048 C   0  0  2  0  0  0  0  0  0  0  0  0
  129.0142  135.0311  160.1142 H   0  0  0  0  0  0  0  0  0  0  0  0
  127.9088  135.9830  158.5291 C   0  0  0  0  0  0  0  0  0  0  0  0
  127.4364  134.7489  157.9851 O   0  0  0  0  0  0  0  0  0  0  0  0
  129.7101  137.0571  159.8872 C   0  0  0  0  0  0  0  0  0  0  0  0
  130.9860  136.8137  160.6512 C   0  0  0  0  0  0  0  0  0  0  0  0
  131.1986  135.5932  161.2664 C   0  0  0  0  0  0  0  0  0  0  0  0
  132.3680  135.3629  161.9624 C   0  0  0  0  0  0  0  0  0  0  0  0
  133.3300  136.3665  162.0547 C   0  0  0  0  0  0  0  0  0  0  0  0
  134.5868  136.1267  162.8062 C   0  0  0  0  0  0  0  0  0  0  0  0
  135.2407  137.1864  163.4316 C   0  0  0  0  0  0  0  0  0  0  0  0
  136.4062  136.9566  164.1344 C   0  0  0  0  0  0  0  0  0  0  0  0
  136.9314  135.6790  164.2087 C   0  0  0  0  0  0  0  0  0  0  0  0
  138.2077  135.4351  164.9720 C   0  0  0  0  0  0  0  0  0  0  0  0
  136.2893  134.6244  163.5854 C   0  0  0  0  0  0  0  0  0  0  0  0
  135.1203  134.8418  162.8849 C   0  0  0  0  0  0  0  0  0  0  0  0
  133.1082  137.5960  161.4376 C   0  0  0  0  0  0  0  0  0  0  0  0
  131.9378  137.8136  160.7392 C   0  0  0  0  0  0  0  0  0  0  0  0
  130.4624  133.6395  156.5823 N   0  0  0  0  0  0  0  0  0  0  0  0
  131.0426  134.1874  156.0310 H   0  0  0  0  0  0  0  0  0  0  0  0
  129.9799  132.1773  153.7806 C   0  0  0  0  0  0  0  0  0  0  0  0
  130.2746  131.4772  152.6283 C   0  0  0  0  0  0  0  0  0  0  0  0
  129.8954  127.8728  151.9046 H   0  0  0  0  0  0  0  0  0  0  0  0
  129.1664  129.1759  150.9357 H   0  0  0  0  0  0  0  0  0  0  0  0
  130.2945  128.0271  150.1769 H   0  0  0  0  0  0  0  0  0  0  0  0
  132.1332  128.8954  151.5960 H   0  0  0  0  0  0  0  0  0  0  0  0
  131.4042  130.1984  150.6271 H   0  0  0  0  0  0  0  0  0  0  0  0
  131.7592  128.7662  153.9874 H   0  0  0  0  0  0  0  0  0  0  0  0
  131.2518  130.0044  156.0518 H   0  0  0  0  0  0  0  0  0  0  0  0
  128.7350  131.0068  157.3461 H   0  0  0  0  0  0  0  0  0  0  0  0
  131.0504  135.6544  158.2592 H   0  0  0  0  0  0  0  0  0  0  0  0
  127.1563  136.3957  159.2008 H   0  0  0  0  0  0  0  0  0  0  0  0
  128.0989  136.6877  157.7195 H   0  0  0  0  0  0  0  0  0  0  0  0
  128.0566  134.3242  157.3768 H   0  0  0  0  0  0  0  0  0  0  0  0
  129.9000  137.7620  159.0778 H   0  0  0  0  0  0  0  0  0  0  0  0
  128.9574  137.4698  160.5591 H   0  0  0  0  0  0  0  0  0  0  0  0
  130.4504  134.8176  161.1980 H   0  0  0  0  0  0  0  0  0  0  0  0
  132.5349  134.4080  162.4388 H   0  0  0  0  0  0  0  0  0  0  0  0
  134.8341  138.1851  163.3698 H   0  0  0  0  0  0  0  0  0  0  0  0
  136.9114  137.7765  164.6232 H   0  0  0  0  0  0  0  0  0  0  0  0
  139.0597  135.5506  164.3012 H   0  0  0  0  0  0  0  0  0  0  0  0
  138.2872  136.1554  165.7865 H   0  0  0  0  0  0  0  0  0  0  0  0
  138.2003  134.4247  165.3794 H   0  0  0  0  0  0  0  0  0  0  0  0
  136.7038  133.6289  163.6468 H   0  0  0  0  0  0  0  0  0  0  0  0
  134.6198  134.0176  162.3985 H   0  0  0  0  0  0  0  0  0  0  0  0
  133.8506  138.3775  161.5061 H   0  0  0  0  0  0  0  0  0  0  0  0
  131.7649  138.7660  160.2604 H   0  0  0  0  0  0  0  0  0  0  0  0
  129.4783  133.1319  153.7203 H   0  0  0  0  0  0  0  0  0  0  0  0
  130.0030  131.8847  151.6657 H   0  0  0  0  0  0  0  0  0  0  0  0
  1  2  1  0
  1 35  1  0
  1 36  1  0
  1 37  1  0
  2  3  1  0
  2 38  1  0
  2 39  1  0
  3 34  2  0
  3  4  1  0
  4  5  2  0
  4 40  1  0
  5  6  1  0
  5 41  1  0
  6  7  1  0
  6 33  2  0
  7 31  1  0
  7  8  2  0
  8  9  1  0
  8 42  1  0
  9 10  1  0
  9 11  1  0
 11 12  1  0
 11 31  2  0
 12 13  1  0
 12 43  1  0
 13 14  1  1
 13 15  1  0
 13 17  1  0
 15 16  1  0
 15 44  1  0
 15 45  1  0
 16 46  1  0
 17 18  1  0
 17 47  1  0
 17 48  1  0
 18 30  1  0
 18 19  2  0
 19 20  1  0
 19 49  1  0
 20 21  2  0
 20 50  1  0
 21 22  1  0
 21 29  1  0
 22 28  1  0
 22 23  2  0
 23 24  1  0
 23 51  1  0
 24 25  2  0
 24 52  1  0
 25 26  1  0
 25 27  1  0
 26 53  1  0
 26 54  1  0
 26 55  1  0
 27 28  2  0
 27 56  1  0
 28 57  1  0
 29 30  2  0
 29 58  1  0
 30 59  1  0
 31 32  1  0
 33 34  1  0
 33 60  1  0
 34 61  1  0
M  CHG  1  31   1
M  END
>  <DOCK_score>  (1) 
-63.396736

>  <SMILES>  (1) 
CCc1ccc(-c2c[nH]c(N[C@H](CO)Cc3ccc(-c4ccc(C)cc4)cc3)[nH+]2)cc1

$$$$
