C=CNC(=O)[C@@H](C)n1cc(CC([NH3+])C(=O)Nc2cccc(O)c2)nn1
     RDKit          3D

 46 47  0  0  1  0  0  0  0  0999 V2000
  130.0924  142.2120  162.3929 C   0  0  0  0  0  0  0  0  0  0  0  0
  129.7806  141.0297  162.8878 C   0  0  0  0  0  0  0  0  0  0  0  0
  130.6246  139.9426  162.6779 N   0  0  0  0  0  0  0  0  0  0  0  0
  130.3060  138.7345  163.1836 C   0  0  0  0  0  0  0  0  0  0  0  0
  129.2841  138.5945  163.8217 O   0  0  0  0  0  0  0  0  0  0  0  0
  131.2195  137.5578  162.9562 C   0  0  1  0  0  0  0  0  0  0  0  0
  132.2483  137.9077  162.8701 H   0  0  0  0  0  0  0  0  0  0  0  0
  131.1073  136.5896  164.1355 C   0  0  0  0  0  0  0  0  0  0  0  0
  130.8326  136.8706  161.7216 N   0  0  0  0  0  0  0  0  0  0  0  0
  131.4307  135.7723  161.2047 C   0  0  0  0  0  0  0  0  0  0  0  0
  130.7580  135.4763  160.0681 C   0  0  0  0  0  0  0  0  0  0  0  0
  131.0395  134.3353  159.1247 C   0  0  0  0  0  0  0  0  0  0  0  0
  130.0437  134.3756  157.9640 C   0  0  1  0  0  0  0  0  0  0  0  0
  130.5792  133.6071  156.8323 N   0  0  0  0  0  0  0  0  0  0  0  0
  129.9225  133.6338  156.0669 H   0  0  0  0  0  0  0  0  0  0  0  0
  131.4562  134.0098  156.5374 H   0  0  0  0  0  0  0  0  0  0  0  0
  130.7270  132.6502  157.1156 H   0  0  0  0  0  0  0  0  0  0  0  0
  128.7340  133.7743  158.4046 C   0  0  0  0  0  0  0  0  0  0  0  0
  128.2904  132.8013  157.8322 O   0  0  0  0  0  0  0  0  0  0  0  0
  128.0556  134.3176  159.4347 N   0  0  0  0  0  0  0  0  0  0  0  0
  126.8396  133.7593  159.8438 C   0  0  0  0  0  0  0  0  0  0  0  0
  126.6093  132.3989  159.6814 C   0  0  0  0  0  0  0  0  0  0  0  0
  125.4112  131.8468  160.0909 C   0  0  0  0  0  0  0  0  0  0  0  0
  124.4341  132.6474  160.6517 C   0  0  0  0  0  0  0  0  0  0  0  0
  124.6565  134.0078  160.8111 C   0  0  0  0  0  0  0  0  0  0  0  0
  123.6950  134.7939  161.3628 O   0  0  0  0  0  0  0  0  0  0  0  0
  125.8600  134.5646  160.4070 C   0  0  0  0  0  0  0  0  0  0  0  0
  129.7976  136.3992  159.9438 N   0  0  0  0  0  0  0  0  0  0  0  0
  129.8651  137.2074  160.9424 N   0  0  0  0  0  0  0  0  0  0  0  0
  131.0024  142.3368  161.8248 H   0  0  0  0  0  0  0  0  0  0  0  0
  129.4378  143.0554  162.5559 H   0  0  0  0  0  0  0  0  0  0  0  0
  128.8707  140.9050  163.4561 H   0  0  0  0  0  0  0  0  0  0  0  0
  131.4418  140.0545  162.1676 H   0  0  0  0  0  0  0  0  0  0  0  0
  130.0787  136.2396  164.2217 H   0  0  0  0  0  0  0  0  0  0  0  0
  131.7680  135.7384  163.9711 H   0  0  0  0  0  0  0  0  0  0  0  0
  131.3953  137.1009  165.0540 H   0  0  0  0  0  0  0  0  0  0  0  0
  132.2747  135.2389  161.6165 H   0  0  0  0  0  0  0  0  0  0  0  0
  130.9383  133.3898  159.6577 H   0  0  0  0  0  0  0  0  0  0  0  0
  132.0539  134.4267  158.7365 H   0  0  0  0  0  0  0  0  0  0  0  0
  129.8840  135.4096  157.6580 H   0  0  0  0  0  0  0  0  0  0  0  0
  128.4103  135.0957  159.8923 H   0  0  0  0  0  0  0  0  0  0  0  0
  127.3692  131.7719  159.2390 H   0  0  0  0  0  0  0  0  0  0  0  0
  125.2358  130.7882  159.9683 H   0  0  0  0  0  0  0  0  0  0  0  0
  123.4966  132.2136  160.9666 H   0  0  0  0  0  0  0  0  0  0  0  0
  123.9415  135.7264  161.4324 H   0  0  0  0  0  0  0  0  0  0  0  0
  126.0350  135.6232  160.5307 H   0  0  0  0  0  0  0  0  0  0  0  0
  1  2  2  0
  1 30  1  0
  1 31  1  0
  2  3  1  0
  2 32  1  0
  3  4  1  0
  3 33  1  0
  4  5  2  0
  4  6  1  0
  6  7  1  6
  6  8  1  0
  6  9  1  0
  8 34  1  0
  8 35  1  0
  8 36  1  0
  9 29  1  0
  9 10  1  0
 10 11  2  0
 10 37  1  0
 11 12  1  0
 11 28  1  0
 12 13  1  0
 12 38  1  0
 12 39  1  0
 13 14  1  0
 13 18  1  0
 13 40  1  6
 14 15  1  0
 14 16  1  0
 14 17  1  0
 18 19  2  0
 18 20  1  0
 20 21  1  0
 20 41  1  0
 21 27  1  0
 21 22  2  0
 22 23  1  0
 22 42  1  0
 23 24  2  0
 23 43  1  0
 24 25  1  0
 24 44  1  0
 25 26  1  0
 25 27  2  0
 26 45  1  0
 27 46  1  0
 28 29  2  0
M  CHG  1  14   1
M  END
>  <DOCK_score>  (1) 
-45.037285

>  <SMILES>  (1) 
C=CNC(=O)[C@@H](C)n1cc(CC([NH3+])C(=O)Nc2cccc(O)c2)nn1

$$$$
