Cn1nccc1C[C@@H](Nc1[nH]cc(-c2ccc(N)cc2)[nH+]1)c1cccc2cc[nH]c12
     RDKit          3D

 54 58  0  0  1  0  0  0  0  0999 V2000
  127.1901  134.9180  161.4644 C   0  0  0  0  0  0  0  0  0  0  0  0
  127.4209  135.4345  160.1131 N   0  0  0  0  0  0  0  0  0  0  0  0
  126.5073  135.4030  159.0515 N   0  0  0  0  0  0  0  0  0  0  0  0
  127.0743  135.9516  158.0078 C   0  0  0  0  0  0  0  0  0  0  0  0
  128.3634  136.3540  158.3720 C   0  0  0  0  0  0  0  0  0  0  0  0
  128.5500  136.0274  159.6717 C   0  0  0  0  0  0  0  0  0  0  0  0
  129.7975  136.2753  160.4800 C   0  0  0  0  0  0  0  0  0  0  0  0
  130.7364  135.0742  160.3497 C   0  0  1  0  0  0  0  0  0  0  0  0
  130.2357  134.1797  160.7196 H   0  0  0  0  0  0  0  0  0  0  0  0
  131.0960  134.8860  158.9420 N   0  0  0  0  0  0  0  0  0  0  0  0
  130.7855  133.6987  158.3012 C   0  0  0  0  0  0  0  0  0  0  0  0
  130.1458  132.6379  158.8642 N   0  0  0  0  0  0  0  0  0  0  0  0
  129.8284  132.5777  159.7788 H   0  0  0  0  0  0  0  0  0  0  0  0
  130.0331  131.6670  157.8974 C   0  0  0  0  0  0  0  0  0  0  0  0
  130.6066  132.1631  156.7734 C   0  0  0  0  0  0  0  0  0  0  0  0
  130.7202  131.4640  155.4698 C   0  0  0  0  0  0  0  0  0  0  0  0
  130.1303  132.0104  154.3311 C   0  0  0  0  0  0  0  0  0  0  0  0
  130.2416  131.3615  153.1194 C   0  0  0  0  0  0  0  0  0  0  0  0
  130.9311  130.1583  153.0350 C   0  0  0  0  0  0  0  0  0  0  0  0
  131.0375  129.5000  151.8074 N   0  0  0  0  0  0  0  0  0  0  0  0
  131.5157  129.6085  154.1704 C   0  0  0  0  0  0  0  0  0  0  0  0
  131.4119  130.2568  155.3830 C   0  0  0  0  0  0  0  0  0  0  0  0
  131.0541  133.4134  157.0503 N   0  0  0  0  0  0  0  0  0  0  0  0
  131.5034  134.0017  156.4233 H   0  0  0  0  0  0  0  0  0  0  0  0
  131.9841  135.3221  161.1580 C   0  0  0  0  0  0  0  0  0  0  0  0
  132.3243  134.4674  162.1838 C   0  0  0  0  0  0  0  0  0  0  0  0
  133.4703  134.6852  162.9358 C   0  0  0  0  0  0  0  0  0  0  0  0
  134.2823  135.7520  162.6707 C   0  0  0  0  0  0  0  0  0  0  0  0
  133.9569  136.6302  161.6358 C   0  0  0  0  0  0  0  0  0  0  0  0
  134.5836  137.8360  161.0885 C   0  0  0  0  0  0  0  0  0  0  0  0
  133.8027  138.2626  160.0835 C   0  0  0  0  0  0  0  0  0  0  0  0
  132.7318  137.4236  159.9363 N   0  0  0  0  0  0  0  0  0  0  0  0
  132.0319  137.5246  159.2723 H   0  0  0  0  0  0  0  0  0  0  0  0
  132.7960  136.4142  160.8706 C   0  0  0  0  0  0  0  0  0  0  0  0
  126.7644  135.7053  162.0866 H   0  0  0  0  0  0  0  0  0  0  0  0
  126.4981  134.0770  161.4186 H   0  0  0  0  0  0  0  0  0  0  0  0
  128.1358  134.5874  161.8935 H   0  0  0  0  0  0  0  0  0  0  0  0
  126.6248  136.0723  157.0333 H   0  0  0  0  0  0  0  0  0  0  0  0
  129.0830  136.8393  157.7292 H   0  0  0  0  0  0  0  0  0  0  0  0
  129.5300  136.4154  161.5274 H   0  0  0  0  0  0  0  0  0  0  0  0
  130.2984  137.1699  160.1102 H   0  0  0  0  0  0  0  0  0  0  0  0
  131.5515  135.5931  158.4590 H   0  0  0  0  0  0  0  0  0  0  0  0
  129.5754  130.6955  158.0114 H   0  0  0  0  0  0  0  0  0  0  0  0
  129.5903  132.9433  154.3969 H   0  0  0  0  0  0  0  0  0  0  0  0
  129.7886  131.7867  152.2360 H   0  0  0  0  0  0  0  0  0  0  0  0
  131.5191  128.6593  151.7483 H   0  0  0  0  0  0  0  0  0  0  0  0
  130.6302  129.8820  151.0152 H   0  0  0  0  0  0  0  0  0  0  0  0
  132.0512  128.6730  154.1028 H   0  0  0  0  0  0  0  0  0  0  0  0
  131.8664  129.8297  156.2648 H   0  0  0  0  0  0  0  0  0  0  0  0
  131.6928  133.6198  162.4051 H   0  0  0  0  0  0  0  0  0  0  0  0
  133.7226  134.0060  163.7367 H   0  0  0  0  0  0  0  0  0  0  0  0
  135.1729  135.9148  163.2597 H   0  0  0  0  0  0  0  0  0  0  0  0
  135.4992  138.2957  161.4302 H   0  0  0  0  0  0  0  0  0  0  0  0
  133.9938  139.1361  159.4776 H   0  0  0  0  0  0  0  0  0  0  0  0
  1  2  1  0
  1 35  1  0
  1 36  1  0
  1 37  1  0
  2  6  1  0
  2  3  1  0
  3  4  2  0
  4  5  1  0
  4 38  1  0
  5  6  2  0
  5 39  1  0
  6  7  1  0
  7  8  1  0
  7 40  1  0
  7 41  1  0
  8  9  1  1
  8 10  1  0
  8 25  1  0
 10 42  1  0
 11 10  1  0
 11 23  2  0
 11 12  1  0
 12 13  1  0
 12 14  1  0
 14 15  2  0
 14 43  1  0
 15 16  1  0
 15 23  1  0
 16 22  1  0
 16 17  2  0
 17 18  1  0
 17 44  1  0
 18 19  2  0
 18 45  1  0
 19 20  1  0
 19 21  1  0
 20 46  1  0
 20 47  1  0
 21 22  2  0
 21 48  1  0
 22 49  1  0
 23 24  1  0
 25 34  1  0
 25 26  2  0
 26 27  1  0
 26 50  1  0
 27 28  2  0
 27 51  1  0
 28 29  1  0
 28 52  1  0
 29 34  2  0
 29 30  1  0
 30 31  2  0
 30 53  1  0
 31 32  1  0
 31 54  1  0
 32 33  1  0
 32 34  1  0
M  CHG  1  23   1
M  END
>  <DOCK_score>  (1) 
-64.525421

>  <SMILES>  (1) 
Cn1nccc1C[C@@H](Nc1[nH]cc(-c2ccc(N)cc2)[nH+]1)c1cccc2cc[nH]c12

$$$$
