C1=CCC(Sc2c[nH]nc2NCc2c[nH]nc2-c2nc([C@H]3CC[NH+](C4CC4)C3)no2)C1
     RDKit          3D

 58 63  0  0  1  0  0  0  0  0999 V2000
  137.8318  139.8015  160.5964 C   0  0  0  0  0  0  0  0  0  0  0  0
  137.8514  139.2323  161.7708 C   0  0  0  0  0  0  0  0  0  0  0  0
  136.5409  138.5386  162.0614 C   0  0  0  0  0  0  0  0  0  0  0  0
  135.5471  139.1300  161.0347 C   0  0  0  0  0  0  0  0  0  0  0  0
  134.3942  137.8622  160.4396 S   0  0  0  0  0  0  0  0  0  0  0  0
  133.3799  138.7499  159.3049 C   0  0  0  0  0  0  0  0  0  0  0  0
  133.6122  138.9046  157.9777 C   0  0  0  0  0  0  0  0  0  0  0  0
  132.6003  139.6574  157.4669 N   0  0  0  0  0  0  0  0  0  0  0  0
  132.5044  139.9316  156.5415 H   0  0  0  0  0  0  0  0  0  0  0  0
  131.7193  139.9633  158.5120 N   0  0  0  0  0  0  0  0  0  0  0  0
  132.1839  139.4253  159.6143 C   0  0  0  0  0  0  0  0  0  0  0  0
  131.5922  139.5087  160.8818 N   0  0  0  0  0  0  0  0  0  0  0  0
  130.3404  140.2491  161.0584 C   0  0  0  0  0  0  0  0  0  0  0  0
  129.9193  140.1862  162.5040 C   0  0  0  0  0  0  0  0  0  0  0  0
  130.2689  141.0588  163.4725 C   0  0  0  0  0  0  0  0  0  0  0  0
  129.6878  140.6599  164.6252 N   0  0  0  0  0  0  0  0  0  0  0  0
  129.7654  141.1031  165.4845 H   0  0  0  0  0  0  0  0  0  0  0  0
  128.9588  139.4921  164.3657 N   0  0  0  0  0  0  0  0  0  0  0  0
  129.0946  139.2010  163.0868 C   0  0  0  0  0  0  0  0  0  0  0  0
  128.4909  138.0473  162.3885 C   0  0  0  0  0  0  0  0  0  0  0  0
  128.9896  137.4064  161.3459 N   0  0  0  0  0  0  0  0  0  0  0  0
  128.1033  136.4399  161.0602 C   0  0  0  0  0  0  0  0  0  0  0  0
  128.2158  135.4303  159.9471 C   0  0  1  0  0  0  0  0  0  0  0  0
  127.3542  134.7628  159.9456 H   0  0  0  0  0  0  0  0  0  0  0  0
  128.3669  136.1403  158.5759 C   0  0  0  0  0  0  0  0  0  0  0  0
  129.1163  135.0665  157.7485 C   0  0  0  0  0  0  0  0  0  0  0  0
  130.0535  134.4392  158.7046 N   0  0  2  0  0  0  0  0  0  0  0  0
  130.9602  134.8751  158.6268 H   0  0  0  0  0  0  0  0  0  0  0  0
  130.1669  133.0041  158.4120 C   0  0  0  0  0  0  0  0  0  0  0  0
  131.5062  132.3263  158.7085 C   0  0  0  0  0  0  0  0  0  0  0  0
  131.0852  132.5882  157.2610 C   0  0  0  0  0  0  0  0  0  0  0  0
  129.5279  134.6274  160.0692 C   0  0  0  0  0  0  0  0  0  0  0  0
  127.1302  136.5319  161.9180 N   0  0  0  0  0  0  0  0  0  0  0  0
  127.3322  137.4426  162.6931 O   0  0  0  0  0  0  0  0  0  0  0  0
  136.5040  139.5832  159.9075 C   0  0  0  0  0  0  0  0  0  0  0  0
  138.6556  140.3564  160.1725 H   0  0  0  0  0  0  0  0  0  0  0  0
  138.6938  139.2545  162.4464 H   0  0  0  0  0  0  0  0  0  0  0  0
  136.2123  138.7579  163.0773 H   0  0  0  0  0  0  0  0  0  0  0  0
  136.6405  137.4629  161.9174 H   0  0  0  0  0  0  0  0  0  0  0  0
  135.0086  139.9789  161.4556 H   0  0  0  0  0  0  0  0  0  0  0  0
  134.4512  138.5061  157.4266 H   0  0  0  0  0  0  0  0  0  0  0  0
  132.0112  139.0761  161.6422 H   0  0  0  0  0  0  0  0  0  0  0  0
  130.4896  141.2894  160.7685 H   0  0  0  0  0  0  0  0  0  0  0  0
  129.5647  139.8057  160.4343 H   0  0  0  0  0  0  0  0  0  0  0  0
  130.9003  141.9261  163.3473 H   0  0  0  0  0  0  0  0  0  0  0  0
  127.3919  136.3590  158.1400 H   0  0  0  0  0  0  0  0  0  0  0  0
  128.9633  137.0477  158.6696 H   0  0  0  0  0  0  0  0  0  0  0  0
  129.6647  135.5325  156.9300 H   0  0  0  0  0  0  0  0  0  0  0  0
  128.4149  134.3261  157.3635 H   0  0  0  0  0  0  0  0  0  0  0  0
  129.2608  132.4192  158.5694 H   0  0  0  0  0  0  0  0  0  0  0  0
  132.3032  132.9453  159.1205 H   0  0  0  0  0  0  0  0  0  0  0  0
  131.4814  131.2953  159.0612 H   0  0  0  0  0  0  0  0  0  0  0  0
  130.7833  131.7294  156.6614 H   0  0  0  0  0  0  0  0  0  0  0  0
  131.6051  133.3794  156.7209 H   0  0  0  0  0  0  0  0  0  0  0  0
  130.2477  135.1825  160.6705 H   0  0  0  0  0  0  0  0  0  0  0  0
  129.3288  133.6595  160.5293 H   0  0  0  0  0  0  0  0  0  0  0  0
  136.5931  138.8051  159.1494 H   0  0  0  0  0  0  0  0  0  0  0  0
  136.1505  140.5120  159.4599 H   0  0  0  0  0  0  0  0  0  0  0  0
  1 35  1  0
  1  2  2  0
  1 36  1  0
  2  3  1  0
  2 37  1  0
  3  4  1  0
  3 38  1  0
  3 39  1  0
  4  5  1  0
  4 35  1  0
  4 40  1  0
  5  6  1  0
  6 11  1  0
  6  7  2  0
  7  8  1  0
  7 41  1  0
  8  9  1  0
  8 10  1  0
 10 11  2  0
 11 12  1  0
 12 13  1  0
 12 42  1  0
 13 14  1  0
 13 43  1  0
 13 44  1  0
 14 19  1  0
 14 15  2  0
 15 16  1  0
 15 45  1  0
 16 17  1  0
 16 18  1  0
 18 19  2  0
 19 20  1  0
 20 34  1  0
 20 21  2  0
 21 22  1  0
 22 23  1  0
 22 33  2  0
 23 24  1  6
 23 32  1  0
 23 25  1  0
 25 26  1  0
 25 46  1  0
 25 47  1  0
 26 27  1  0
 26 48  1  0
 26 49  1  0
 27 28  1  1
 27 29  1  0
 27 32  1  0
 29 31  1  0
 29 30  1  0
 29 50  1  0
 30 31  1  0
 30 51  1  0
 30 52  1  0
 31 53  1  0
 31 54  1  0
 32 55  1  0
 32 56  1  0
 33 34  1  0
 35 57  1  0
 35 58  1  0
M  CHG  1  27   1
M  END
>  <DOCK_score>  (1) 
-41.497757

>  <SMILES>  (1) 
C1=CCC(Sc2c[nH]nc2NCc2c[nH]nc2-c2nc([C@H]3CC[NH+](C4CC4)C3)no2)C1

$$$$
