Fc1ccc([C@H](Nc2[nH]cc(-c3ccc(C4CC=CC4)cc3)[nH+]2)c2cccc(F)c2)cc1
     RDKit          3D

 56 60  0  0  1  0  0  0  0  0999 V2000
  131.2332  141.1548  161.6891 F   0  0  0  0  0  0  0  0  0  0  0  0
  130.8780  139.8954  161.3533 C   0  0  0  0  0  0  0  0  0  0  0  0
  130.7251  138.9331  162.3371 C   0  0  0  0  0  0  0  0  0  0  0  0
  130.3622  137.6449  161.9924 C   0  0  0  0  0  0  0  0  0  0  0  0
  130.1513  137.3170  160.6660 C   0  0  0  0  0  0  0  0  0  0  0  0
  129.7552  135.9121  160.2914 C   0  0  2  0  0  0  0  0  0  0  0  0
  130.1729  135.2118  161.0147 H   0  0  0  0  0  0  0  0  0  0  0  0
  130.2692  135.5994  158.9558 N   0  0  0  0  0  0  0  0  0  0  0  0
  130.0291  134.3566  158.3951 C   0  0  0  0  0  0  0  0  0  0  0  0
  129.3274  133.3463  158.9777 N   0  0  0  0  0  0  0  0  0  0  0  0
  128.9096  133.3673  159.8527 H   0  0  0  0  0  0  0  0  0  0  0  0
  129.3206  132.2915  158.0977 C   0  0  0  0  0  0  0  0  0  0  0  0
  130.0176  132.6871  157.0038 C   0  0  0  0  0  0  0  0  0  0  0  0
  130.2728  131.8734  155.7901 C   0  0  0  0  0  0  0  0  0  0  0  0
  129.8164  132.3088  154.5473 C   0  0  0  0  0  0  0  0  0  0  0  0
  130.0620  131.5506  153.4205 C   0  0  0  0  0  0  0  0  0  0  0  0
  130.7497  130.3546  153.5250 C   0  0  0  0  0  0  0  0  0  0  0  0
  131.0099  129.5280  152.2919 C   0  0  0  0  0  0  0  0  0  0  0  0
  129.7996  129.5711  151.3297 C   0  0  0  0  0  0  0  0  0  0  0  0
  129.7187  128.1759  150.7536 C   0  0  0  0  0  0  0  0  0  0  0  0
  130.4145  127.3319  151.4657 C   0  0  0  0  0  0  0  0  0  0  0  0
  131.0751  128.0226  152.6360 C   0  0  0  0  0  0  0  0  0  0  0  0
  131.1996  129.9147  154.7564 C   0  0  0  0  0  0  0  0  0  0  0  0
  130.9650  130.6677  155.8891 C   0  0  0  0  0  0  0  0  0  0  0  0
  130.4350  133.9609  157.2134 N   0  0  0  0  0  0  0  0  0  0  0  0
  130.9530  134.4929  156.5893 H   0  0  0  0  0  0  0  0  0  0  0  0
  128.2526  135.7971  160.2910 C   0  0  0  0  0  0  0  0  0  0  0  0
  127.5399  136.0591  159.1355 C   0  0  0  0  0  0  0  0  0  0  0  0
  126.1615  135.9545  159.1337 C   0  0  0  0  0  0  0  0  0  0  0  0
  125.4943  135.5878  160.2873 C   0  0  0  0  0  0  0  0  0  0  0  0
  126.2069  135.3252  161.4447 C   0  0  0  0  0  0  0  0  0  0  0  0
  125.5557  134.9664  162.5727 F   0  0  0  0  0  0  0  0  0  0  0  0
  127.5877  135.4304  161.4454 C   0  0  0  0  0  0  0  0  0  0  0  0
  130.3091  138.2756  159.6824 C   0  0  0  0  0  0  0  0  0  0  0  0
  130.6669  139.5658  160.0252 C   0  0  0  0  0  0  0  0  0  0  0  0
  130.8898  139.1889  163.3732 H   0  0  0  0  0  0  0  0  0  0  0  0
  130.2430  136.8941  162.7594 H   0  0  0  0  0  0  0  0  0  0  0  0
  130.7780  136.2631  158.4642 H   0  0  0  0  0  0  0  0  0  0  0  0
  128.8501  131.3311  158.2483 H   0  0  0  0  0  0  0  0  0  0  0  0
  129.2752  133.2399  154.4656 H   0  0  0  0  0  0  0  0  0  0  0  0
  129.7130  131.8895  152.4563 H   0  0  0  0  0  0  0  0  0  0  0  0
  131.9203  129.8551  151.7894 H   0  0  0  0  0  0  0  0  0  0  0  0
  128.8876  129.8093  151.8771 H   0  0  0  0  0  0  0  0  0  0  0  0
  129.9697  130.3004  150.5376 H   0  0  0  0  0  0  0  0  0  0  0  0
  129.1590  127.9124  149.8683 H   0  0  0  0  0  0  0  0  0  0  0  0
  130.5062  126.2782  151.2470 H   0  0  0  0  0  0  0  0  0  0  0  0
  132.1117  127.6996  152.7316 H   0  0  0  0  0  0  0  0  0  0  0  0
  130.5284  127.8196  153.5568 H   0  0  0  0  0  0  0  0  0  0  0  0
  131.7359  128.9804  154.8320 H   0  0  0  0  0  0  0  0  0  0  0  0
  131.3175  130.3234  156.8501 H   0  0  0  0  0  0  0  0  0  0  0  0
  128.0600  136.3500  158.2348 H   0  0  0  0  0  0  0  0  0  0  0  0
  125.6058  136.1597  158.2307 H   0  0  0  0  0  0  0  0  0  0  0  0
  124.4172  135.5065  160.2857 H   0  0  0  0  0  0  0  0  0  0  0  0
  128.1446  135.2262  162.3479 H   0  0  0  0  0  0  0  0  0  0  0  0
  130.1488  138.0172  158.6461 H   0  0  0  0  0  0  0  0  0  0  0  0
  130.7861  140.3154  159.2570 H   0  0  0  0  0  0  0  0  0  0  0  0
  1  2  1  0
  2 35  2  0
  2  3  1  0
  3  4  2  0
  3 36  1  0
  4  5  1  0
  4 37  1  0
  5  6  1  0
  5 34  2  0
  6  7  1  1
  6  8  1  0
  6 27  1  0
  8 38  1  0
  9  8  1  0
  9 25  2  0
  9 10  1  0
 10 11  1  0
 10 12  1  0
 12 13  2  0
 12 39  1  0
 13 14  1  0
 13 25  1  0
 14 24  1  0
 14 15  2  0
 15 16  1  0
 15 40  1  0
 16 17  2  0
 16 41  1  0
 17 18  1  0
 17 23  1  0
 18 22  1  0
 18 19  1  0
 18 42  1  0
 19 20  1  0
 19 43  1  0
 19 44  1  0
 20 21  2  0
 20 45  1  0
 21 22  1  0
 21 46  1  0
 22 47  1  0
 22 48  1  0
 23 24  2  0
 23 49  1  0
 24 50  1  0
 25 26  1  0
 27 33  1  0
 27 28  2  0
 28 29  1  0
 28 51  1  0
 29 30  2  0
 29 52  1  0
 30 31  1  0
 30 53  1  0
 31 32  1  0
 31 33  2  0
 33 54  1  0
 34 35  1  0
 34 55  1  0
 35 56  1  0
M  CHG  1  25   1
M  END
>  <DOCK_score>  (1) 
-63.686146

>  <SMILES>  (1) 
Fc1ccc([C@H](Nc2[nH]cc(-c3ccc(C4CC=CC4)cc3)[nH+]2)c2cccc(F)c2)cc1

$$$$
