Cc1cccc(-c2cc(Cl)cc(COC(=O)c3c[nH]nc3[C@H]3CCC[NH2+]C3)c2)c1
     RDKit          3D

 54 57  0  0  1  0  0  0  0  0999 V2000
  134.2085  139.5798  157.7720 C   0  0  0  0  0  0  0  0  0  0  0  0
  134.5761  140.0307  159.1621 C   0  0  0  0  0  0  0  0  0  0  0  0
  135.5672  140.9793  159.3408 C   0  0  0  0  0  0  0  0  0  0  0  0
  135.9099  141.3973  160.6139 C   0  0  0  0  0  0  0  0  0  0  0  0
  135.2642  140.8691  161.7136 C   0  0  0  0  0  0  0  0  0  0  0  0
  134.2654  139.9137  161.5395 C   0  0  0  0  0  0  0  0  0  0  0  0
  133.5681  139.3420  162.7180 C   0  0  0  0  0  0  0  0  0  0  0  0
  133.4075  140.1046  163.8732 C   0  0  0  0  0  0  0  0  0  0  0  0
  132.7579  139.5673  164.9673 C   0  0  0  0  0  0  0  0  0  0  0  0
  132.5565  140.5153  166.4075 Cl  0  0  0  0  0  0  0  0  0  0  0  0
  132.2623  138.2755  164.9150 C   0  0  0  0  0  0  0  0  0  0  0  0
  132.4245  137.5133  163.7727 C   0  0  0  0  0  0  0  0  0  0  0  0
  131.8876  136.1059  163.7253 C   0  0  0  0  0  0  0  0  0  0  0  0
  130.5240  136.1245  163.2269 O   0  0  0  0  0  0  0  0  0  0  0  0
  130.2759  135.4327  162.0975 C   0  0  0  0  0  0  0  0  0  0  0  0
  131.1747  134.8303  161.5441 O   0  0  0  0  0  0  0  0  0  0  0  0
  128.9143  135.4017  161.5369 C   0  0  0  0  0  0  0  0  0  0  0  0
  127.7978  136.0248  162.0596 C   0  0  0  0  0  0  0  0  0  0  0  0
  126.7661  135.7480  161.2468 N   0  0  0  0  0  0  0  0  0  0  0  0
  125.8538  136.0559  161.3642 H   0  0  0  0  0  0  0  0  0  0  0  0
  127.2270  134.9363  160.2045 N   0  0  0  0  0  0  0  0  0  0  0  0
  128.5037  134.7237  160.3667 C   0  0  0  0  0  0  0  0  0  0  0  0
  129.3859  133.8991  159.4651 C   0  0  1  0  0  0  0  0  0  0  0  0
  130.1914  133.4557  160.0506 H   0  0  0  0  0  0  0  0  0  0  0  0
  128.5562  132.7889  158.8138 C   0  0  0  0  0  0  0  0  0  0  0  0
  129.4429  132.0063  157.8410 C   0  0  0  0  0  0  0  0  0  0  0  0
  130.0334  132.9701  156.8096 C   0  0  0  0  0  0  0  0  0  0  0  0
  130.8365  133.9915  157.4924 N   0  0  0  0  0  0  0  0  0  0  0  0
  131.5541  133.5423  158.0412 H   0  0  0  0  0  0  0  0  0  0  0  0
  131.2664  134.5938  156.8066 H   0  0  0  0  0  0  0  0  0  0  0  0
  129.9793  134.7930  158.3742 C   0  0  0  0  0  0  0  0  0  0  0  0
  133.0720  138.0409  162.6736 C   0  0  0  0  0  0  0  0  0  0  0  0
  133.9275  139.4926  160.2548 C   0  0  0  0  0  0  0  0  0  0  0  0
  134.8241  138.7248  157.4927 H   0  0  0  0  0  0  0  0  0  0  0  0
  133.1571  139.2936  157.7489 H   0  0  0  0  0  0  0  0  0  0  0  0
  134.3786  140.3951  157.0686 H   0  0  0  0  0  0  0  0  0  0  0  0
  136.0755  141.3946  158.4831 H   0  0  0  0  0  0  0  0  0  0  0  0
  136.6844  142.1379  160.7478 H   0  0  0  0  0  0  0  0  0  0  0  0
  135.5327  141.1962  162.7074 H   0  0  0  0  0  0  0  0  0  0  0  0
  133.7898  141.1140  163.9127 H   0  0  0  0  0  0  0  0  0  0  0  0
  131.7511  137.8602  165.7709 H   0  0  0  0  0  0  0  0  0  0  0  0
  131.9025  135.6776  164.7275 H   0  0  0  0  0  0  0  0  0  0  0  0
  132.5083  135.5023  163.0630 H   0  0  0  0  0  0  0  0  0  0  0  0
  127.7620  136.6262  162.9559 H   0  0  0  0  0  0  0  0  0  0  0  0
  128.1784  132.1165  159.5841 H   0  0  0  0  0  0  0  0  0  0  0  0
  127.7200  133.2295  158.2710 H   0  0  0  0  0  0  0  0  0  0  0  0
  130.2501  131.5237  158.3921 H   0  0  0  0  0  0  0  0  0  0  0  0
  128.8457  131.2492  157.3327 H   0  0  0  0  0  0  0  0  0  0  0  0
  130.6652  132.4162  156.1152 H   0  0  0  0  0  0  0  0  0  0  0  0
  129.2254  133.4524  156.2594 H   0  0  0  0  0  0  0  0  0  0  0  0
  129.1729  135.2367  157.7901 H   0  0  0  0  0  0  0  0  0  0  0  0
  130.5707  135.5842  158.8351 H   0  0  0  0  0  0  0  0  0  0  0  0
  133.1937  137.4460  161.7806 H   0  0  0  0  0  0  0  0  0  0  0  0
  133.1567  138.7492  160.1144 H   0  0  0  0  0  0  0  0  0  0  0  0
  1  2  1  0
  1 34  1  0
  1 35  1  0
  1 36  1  0
  2 33  2  0
  2  3  1  0
  3  4  2  0
  3 37  1  0
  4  5  1  0
  4 38  1  0
  5  6  2  0
  5 39  1  0
  6  7  1  0
  6 33  1  0
  7 32  1  0
  7  8  2  0
  8  9  1  0
  8 40  1  0
  9 10  1  0
  9 11  2  0
 11 12  1  0
 11 41  1  0
 12 13  1  0
 12 32  2  0
 13 14  1  0
 13 42  1  0
 13 43  1  0
 14 15  1  0
 15 16  2  0
 15 17  1  0
 17 22  1  0
 17 18  2  0
 18 19  1  0
 18 44  1  0
 19 20  1  0
 19 21  1  0
 21 22  2  0
 22 23  1  0
 23 24  1  1
 23 31  1  0
 23 25  1  0
 25 26  1  0
 25 45  1  0
 25 46  1  0
 26 27  1  0
 26 47  1  0
 26 48  1  0
 27 28  1  0
 27 49  1  0
 27 50  1  0
 28 29  1  0
 28 30  1  0
 28 31  1  0
 31 51  1  0
 31 52  1  0
 32 53  1  0
 33 54  1  0
M  CHG  1  28   1
M  END
>  <DOCK_score>  (1) 
-42.261005

>  <SMILES>  (1) 
Cc1cccc(-c2cc(Cl)cc(COC(=O)c3c[nH]nc3[C@H]3CCC[NH2+]C3)c2)c1

$$$$
