Nc1ccc(-c2c[nH]c(N[C@H](Nc3ccc(-c4cc[nH]n4)cc3)c3ccccc3)[nH+]2)cc1
     RDKit          3D

 56 60  0  0  1  0  0  0  0  0999 V2000
  130.9197  129.4703  152.2540 N   0  0  0  0  0  0  0  0  0  0  0  0
  130.7470  130.2166  153.4223 C   0  0  0  0  0  0  0  0  0  0  0  0
  129.9764  131.3736  153.3991 C   0  0  0  0  0  0  0  0  0  0  0  0
  129.8043  132.1114  154.5511 C   0  0  0  0  0  0  0  0  0  0  0  0
  130.4033  131.6964  155.7395 C   0  0  0  0  0  0  0  0  0  0  0  0
  130.2199  132.4889  156.9801 C   0  0  0  0  0  0  0  0  0  0  0  0
  129.6607  132.0472  158.1337 C   0  0  0  0  0  0  0  0  0  0  0  0
  129.6906  133.0984  159.0193 N   0  0  0  0  0  0  0  0  0  0  0  0
  129.3579  133.0919  159.9303 H   0  0  0  0  0  0  0  0  0  0  0  0
  130.2677  134.1515  158.3794 C   0  0  0  0  0  0  0  0  0  0  0  0
  130.4860  135.4052  158.9247 N   0  0  0  0  0  0  0  0  0  0  0  0
  130.0826  135.6837  160.3053 C   0  0  2  0  0  0  0  0  0  0  0  0
  130.3329  136.7145  160.5560 H   0  0  0  0  0  0  0  0  0  0  0  0
  130.7878  134.7753  161.2128 N   0  0  0  0  0  0  0  0  0  0  0  0
  132.0244  135.1429  161.7468 C   0  0  0  0  0  0  0  0  0  0  0  0
  132.8709  135.9775  161.0266 C   0  0  0  0  0  0  0  0  0  0  0  0
  134.0899  136.3463  161.5546 C   0  0  0  0  0  0  0  0  0  0  0  0
  134.4783  135.8721  162.8063 C   0  0  0  0  0  0  0  0  0  0  0  0
  135.7929  136.2619  163.3735 C   0  0  0  0  0  0  0  0  0  0  0  0
  136.0012  136.9597  164.5793 C   0  0  0  0  0  0  0  0  0  0  0  0
  137.3331  137.1157  164.7426 C   0  0  0  0  0  0  0  0  0  0  0  0
  137.9519  136.5516  163.6832 N   0  0  0  0  0  0  0  0  0  0  0  0
  138.9099  136.5190  163.5346 H   0  0  0  0  0  0  0  0  0  0  0  0
  136.9702  136.0217  162.8362 N   0  0  0  0  0  0  0  0  0  0  0  0
  133.6304  135.0307  163.5245 C   0  0  0  0  0  0  0  0  0  0  0  0
  132.4095  134.6692  162.9955 C   0  0  0  0  0  0  0  0  0  0  0  0
  128.5960  135.4796  160.4452 C   0  0  0  0  0  0  0  0  0  0  0  0
  128.0659  135.0653  161.6528 C   0  0  0  0  0  0  0  0  0  0  0  0
  126.7018  134.8820  161.7823 C   0  0  0  0  0  0  0  0  0  0  0  0
  125.8689  135.1048  160.7018 C   0  0  0  0  0  0  0  0  0  0  0  0
  126.3997  135.5140  159.4927 C   0  0  0  0  0  0  0  0  0  0  0  0
  127.7632  135.7012  159.3644 C   0  0  0  0  0  0  0  0  0  0  0  0
  130.5827  133.7835  157.1613 N   0  0  0  0  0  0  0  0  0  0  0  0
  131.0069  134.3470  156.4955 H   0  0  0  0  0  0  0  0  0  0  0  0
  131.1798  130.5389  155.7589 C   0  0  0  0  0  0  0  0  0  0  0  0
  131.3449  129.8013  154.6055 C   0  0  0  0  0  0  0  0  0  0  0  0
  130.5020  129.7600  151.4273 H   0  0  0  0  0  0  0  0  0  0  0  0
  131.4569  128.6634  152.2688 H   0  0  0  0  0  0  0  0  0  0  0  0
  129.5128  131.6949  152.4781 H   0  0  0  0  0  0  0  0  0  0  0  0
  129.2052  133.0099  154.5329 H   0  0  0  0  0  0  0  0  0  0  0  0
  129.2669  131.0591  158.3208 H   0  0  0  0  0  0  0  0  0  0  0  0
  130.9059  136.0991  158.3928 H   0  0  0  0  0  0  0  0  0  0  0  0
  130.3957  133.9183  161.4425 H   0  0  0  0  0  0  0  0  0  0  0  0
  132.5719  136.3407  160.0544 H   0  0  0  0  0  0  0  0  0  0  0  0
  134.7456  136.9984  160.9966 H   0  0  0  0  0  0  0  0  0  0  0  0
  135.2328  137.3059  165.2547 H   0  0  0  0  0  0  0  0  0  0  0  0
  137.8175  137.6095  165.5720 H   0  0  0  0  0  0  0  0  0  0  0  0
  133.9293  134.6623  164.4947 H   0  0  0  0  0  0  0  0  0  0  0  0
  131.7522  134.0172  163.5517 H   0  0  0  0  0  0  0  0  0  0  0  0
  128.7170  134.8880  162.4959 H   0  0  0  0  0  0  0  0  0  0  0  0
  126.2873  134.5618  162.7267 H   0  0  0  0  0  0  0  0  0  0  0  0
  124.8036  134.9588  160.8022 H   0  0  0  0  0  0  0  0  0  0  0  0
  125.7489  135.6878  158.6485 H   0  0  0  0  0  0  0  0  0  0  0  0
  128.1779  136.0208  158.4198 H   0  0  0  0  0  0  0  0  0  0  0  0
  131.6486  130.2179  156.6774 H   0  0  0  0  0  0  0  0  0  0  0  0
  131.9435  128.9024  154.6210 H   0  0  0  0  0  0  0  0  0  0  0  0
  1  2  1  0
  1 37  1  0
  1 38  1  0
  2 36  2  0
  2  3  1  0
  3  4  2  0
  3 39  1  0
  4  5  1  0
  4 40  1  0
  5  6  1  0
  5 35  2  0
  6 33  1  0
  6  7  2  0
  7  8  1  0
  7 41  1  0
  8  9  1  0
  8 10  1  0
 10 11  1  0
 10 33  2  0
 11 12  1  0
 11 42  1  0
 12 13  1  1
 12 14  1  0
 12 27  1  0
 14 15  1  0
 14 43  1  0
 15 26  1  0
 15 16  2  0
 16 17  1  0
 16 44  1  0
 17 18  2  0
 17 45  1  0
 18 19  1  0
 18 25  1  0
 19 24  2  0
 19 20  1  0
 20 21  2  0
 20 46  1  0
 21 22  1  0
 21 47  1  0
 22 23  1  0
 22 24  1  0
 25 26  2  0
 25 48  1  0
 26 49  1  0
 27 32  1  0
 27 28  2  0
 28 29  1  0
 28 50  1  0
 29 30  2  0
 29 51  1  0
 30 31  1  0
 30 52  1  0
 31 32  2  0
 31 53  1  0
 32 54  1  0
 33 34  1  0
 35 36  1  0
 35 55  1  0
 36 56  1  0
M  CHG  1  33   1
M  END
>  <DOCK_score>  (1) 
-60.687313

>  <SMILES>  (1) 
Nc1ccc(-c2c[nH]c(N[C@H](Nc3ccc(-c4cc[nH]n4)cc3)c3ccccc3)[nH+]2)cc1

$$$$
