CCc1ccc(-n2cc(C[NH2+]Cc3cn(-c4ccccc4)nc3-c3ccccc3)c(C)n2)cc1
     RDKit          3D

 64 68  0  0  0  0  0  0  0  0999 V2000
  130.7328  129.1886  152.0797 C   0  0  0  0  0  0  0  0  0  0  0  0
  131.9387  129.7161  152.8598 C   0  0  0  0  0  0  0  0  0  0  0  0
  131.4609  130.5416  154.0266 C   0  0  0  0  0  0  0  0  0  0  0  0
  131.2254  129.9386  155.2482 C   0  0  0  0  0  0  0  0  0  0  0  0
  130.7865  130.6925  156.3190 C   0  0  0  0  0  0  0  0  0  0  0  0
  130.5815  132.0573  156.1676 C   0  0  0  0  0  0  0  0  0  0  0  0
  130.1361  132.8252  157.2526 N   0  0  0  0  0  0  0  0  0  0  0  0
  129.8983  134.1563  157.2411 C   0  0  0  0  0  0  0  0  0  0  0  0
  129.4848  134.5113  158.4797 C   0  0  0  0  0  0  0  0  0  0  0  0
  129.1077  135.9012  158.9241 C   0  0  0  0  0  0  0  0  0  0  0  0
  130.2984  136.5906  159.4386 N   0  0  0  0  0  0  0  0  0  0  0  0
  130.9949  136.6476  158.7108 H   0  0  0  0  0  0  0  0  0  0  0  0
  130.6722  136.0767  160.2225 H   0  0  0  0  0  0  0  0  0  0  0  0
  129.9309  137.9453  159.8717 C   0  0  0  0  0  0  0  0  0  0  0  0
  131.1524  138.6527  160.3996 C   0  0  0  0  0  0  0  0  0  0  0  0
  132.3729  138.6704  159.8211 C   0  0  0  0  0  0  0  0  0  0  0  0
  133.1961  139.4118  160.6076 N   0  0  0  0  0  0  0  0  0  0  0  0
  134.5503  139.6757  160.3637 C   0  0  0  0  0  0  0  0  0  0  0  0
  135.2776  140.4575  161.2515 C   0  0  0  0  0  0  0  0  0  0  0  0
  136.6110  140.7203  161.0057 C   0  0  0  0  0  0  0  0  0  0  0  0
  137.2216  140.2065  159.8763 C   0  0  0  0  0  0  0  0  0  0  0  0
  136.5001  139.4275  158.9903 C   0  0  0  0  0  0  0  0  0  0  0  0
  135.1665  139.1608  159.2309 C   0  0  0  0  0  0  0  0  0  0  0  0
  132.4520  139.8711  161.7018 N   0  0  0  0  0  0  0  0  0  0  0  0
  131.2221  139.4170  161.5810 C   0  0  0  0  0  0  0  0  0  0  0  0
  130.1044  139.6666  162.5245 C   0  0  0  0  0  0  0  0  0  0  0  0
  129.2776  140.7748  162.3516 C   0  0  0  0  0  0  0  0  0  0  0  0
  128.2359  140.9990  163.2289 C   0  0  0  0  0  0  0  0  0  0  0  0
  128.0191  140.1323  164.2849 C   0  0  0  0  0  0  0  0  0  0  0  0
  128.8402  139.0338  164.4647 C   0  0  0  0  0  0  0  0  0  0  0  0
  129.8813  138.7968  163.5901 C   0  0  0  0  0  0  0  0  0  0  0  0
  129.4748  133.3613  159.2767 C   0  0  0  0  0  0  0  0  0  0  0  0
  129.0851  133.2980  160.7311 C   0  0  0  0  0  0  0  0  0  0  0  0
  129.8590  132.3495  158.5408 N   0  0  0  0  0  0  0  0  0  0  0  0
  130.8132  132.6590  154.9382 C   0  0  0  0  0  0  0  0  0  0  0  0
  131.2567  131.9008  153.8723 C   0  0  0  0  0  0  0  0  0  0  0  0
  130.1186  128.5706  152.7345 H   0  0  0  0  0  0  0  0  0  0  0  0
  130.1421  130.0279  151.7128 H   0  0  0  0  0  0  0  0  0  0  0  0
  131.0789  128.5914  151.2360 H   0  0  0  0  0  0  0  0  0  0  0  0
  132.5531  130.3340  152.2050 H   0  0  0  0  0  0  0  0  0  0  0  0
  132.5295  128.8767  153.2268 H   0  0  0  0  0  0  0  0  0  0  0  0
  131.3850  128.8769  155.3653 H   0  0  0  0  0  0  0  0  0  0  0  0
  130.6032  130.2210  157.2731 H   0  0  0  0  0  0  0  0  0  0  0  0
  130.0167  134.8173  156.3952 H   0  0  0  0  0  0  0  0  0  0  0  0
  128.3553  135.8396  159.7102 H   0  0  0  0  0  0  0  0  0  0  0  0
  128.7039  136.4563  158.0773 H   0  0  0  0  0  0  0  0  0  0  0  0
  129.1785  137.8838  160.6580 H   0  0  0  0  0  0  0  0  0  0  0  0
  129.5271  138.5005  159.0250 H   0  0  0  0  0  0  0  0  0  0  0  0
  132.6463  138.1805  158.8982 H   0  0  0  0  0  0  0  0  0  0  0  0
  134.8011  140.8597  162.1332 H   0  0  0  0  0  0  0  0  0  0  0  0
  137.1774  141.3277  161.6960 H   0  0  0  0  0  0  0  0  0  0  0  0
  138.2644  140.4136  159.6861 H   0  0  0  0  0  0  0  0  0  0  0  0
  136.9800  139.0270  158.1096 H   0  0  0  0  0  0  0  0  0  0  0  0
  134.6036  138.5522  158.5388 H   0  0  0  0  0  0  0  0  0  0  0  0
  129.4490  141.4548  161.5303 H   0  0  0  0  0  0  0  0  0  0  0  0
  127.5916  141.8549  163.0930 H   0  0  0  0  0  0  0  0  0  0  0  0
  127.2058  140.3144  164.9719 H   0  0  0  0  0  0  0  0  0  0  0  0
  128.6662  138.3601  165.2906 H   0  0  0  0  0  0  0  0  0  0  0  0
  130.5216  137.9386  163.7312 H   0  0  0  0  0  0  0  0  0  0  0  0
  128.0155  133.1047  160.8125 H   0  0  0  0  0  0  0  0  0  0  0  0
  129.6376  132.4961  161.2206 H   0  0  0  0  0  0  0  0  0  0  0  0
  129.3204  134.2475  161.2119 H   0  0  0  0  0  0  0  0  0  0  0  0
  130.6500  133.7196  154.8161 H   0  0  0  0  0  0  0  0  0  0  0  0
  131.4406  132.3689  152.9166 H   0  0  0  0  0  0  0  0  0  0  0  0
  1  2  1  0
  1 37  1  0
  1 38  1  0
  1 39  1  0
  2  3  1  0
  2 40  1  0
  2 41  1  0
  3 36  2  0
  3  4  1  0
  4  5  2  0
  4 42  1  0
  5  6  1  0
  5 43  1  0
  6  7  1  0
  6 35  2  0
  7 34  1  0
  7  8  1  0
  8  9  2  0
  8 44  1  0
  9 10  1  0
  9 32  1  0
 10 11  1  0
 10 45  1  0
 10 46  1  0
 11 12  1  0
 11 13  1  0
 11 14  1  0
 14 15  1  0
 14 47  1  0
 14 48  1  0
 15 25  1  0
 15 16  2  0
 16 17  1  0
 16 49  1  0
 17 18  1  0
 17 24  1  0
 18 23  1  0
 18 19  2  0
 19 20  1  0
 19 50  1  0
 20 21  2  0
 20 51  1  0
 21 22  1  0
 21 52  1  0
 22 23  2  0
 22 53  1  0
 23 54  1  0
 24 25  2  0
 25 26  1  0
 26 31  1  0
 26 27  2  0
 27 28  1  0
 27 55  1  0
 28 29  2  0
 28 56  1  0
 29 30  1  0
 29 57  1  0
 30 31  2  0
 30 58  1  0
 31 59  1  0
 32 33  1  0
 32 34  2  0
 33 60  1  0
 33 61  1  0
 33 62  1  0
 35 36  1  0
 35 63  1  0
 36 64  1  0
M  CHG  1  11   1
M  END
>  <DOCK_score>  (1) 
-60.55587

>  <SMILES>  (1) 
CCc1ccc(-n2cc(C[NH2+]Cc3cn(-c4ccccc4)nc3-c3ccccc3)c(C)n2)cc1

$$$$
