Brc1c[nH]c(C[N@H+]2CC=C(c3ccccc3NCC3COC4(CCC4)C3)CC2)c1
     RDKit          3D

 60 64  0  0  1  0  0  0  0  0999 V2000
  131.0251  129.6627  158.4450 Br  0  0  0  0  0  0  0  0  0  0  0  0
  130.9048  131.5499  158.4383 C   0  0  0  0  0  0  0  0  0  0  0  0
  131.2679  132.3696  157.4303 C   0  0  0  0  0  0  0  0  0  0  0  0
  131.0241  133.6549  157.8175 N   0  0  0  0  0  0  0  0  0  0  0  0
  131.1932  134.4474  157.2844 H   0  0  0  0  0  0  0  0  0  0  0  0
  130.5045  133.6413  159.0778 C   0  0  0  0  0  0  0  0  0  0  0  0
  130.0951  134.8512  159.8776 C   0  0  0  0  0  0  0  0  0  0  0  0
  131.1340  135.8841  159.7693 N   0  0  1  0  0  0  0  0  0  0  0  0
  131.4845  135.9127  158.8237 H   0  0  0  0  0  0  0  0  0  0  0  0
  130.5669  137.1902  160.1247 C   0  0  0  0  0  0  0  0  0  0  0  0
  131.6494  138.2281  160.1990 C   0  0  0  0  0  0  0  0  0  0  0  0
  132.9248  137.9250  160.3179 C   0  0  0  0  0  0  0  0  0  0  0  0
  133.9134  139.0200  160.3894 C   0  0  0  0  0  0  0  0  0  0  0  0
  134.9171  139.1226  159.4262 C   0  0  0  0  0  0  0  0  0  0  0  0
  135.8375  140.1478  159.4977 C   0  0  0  0  0  0  0  0  0  0  0  0
  135.7695  141.0774  160.5224 C   0  0  0  0  0  0  0  0  0  0  0  0
  134.7813  140.9871  161.4825 C   0  0  0  0  0  0  0  0  0  0  0  0
  133.8446  139.9651  161.4223 C   0  0  0  0  0  0  0  0  0  0  0  0
  132.8423  139.8761  162.3873 N   0  0  0  0  0  0  0  0  0  0  0  0
  132.4881  141.0519  163.1861 C   0  0  0  0  0  0  0  0  0  0  0  0
  131.3686  140.6864  164.1630 C   0  0  1  0  0  0  0  0  0  0  0  0
  130.8207  141.9462  164.8807 C   0  0  0  0  0  0  0  0  0  0  0  0
  129.4693  141.6143  165.2445 O   0  0  0  0  0  0  0  0  0  0  0  0
  128.9757  140.5941  164.3784 C   0  0  0  0  0  0  0  0  0  0  0  0
  127.6301  140.8936  163.7101 C   0  0  0  0  0  0  0  0  0  0  0  0
  127.2951  139.4046  163.9071 C   0  0  0  0  0  0  0  0  0  0  0  0
  128.2950  139.4126  165.0769 C   0  0  0  0  0  0  0  0  0  0  0  0
  130.1014  140.2000  163.4057 C   0  0  0  0  0  0  0  0  0  0  0  0
  133.4113  136.5033  160.3832 C   0  0  0  0  0  0  0  0  0  0  0  0
  132.2359  135.5730  160.6937 C   0  0  0  0  0  0  0  0  0  0  0  0
  130.4139  132.3582  159.4831 C   0  0  0  0  0  0  0  0  0  0  0  0
  131.6806  132.0616  156.4810 H   0  0  0  0  0  0  0  0  0  0  0  0
  129.1536  135.2409  159.4908 H   0  0  0  0  0  0  0  0  0  0  0  0
  129.9698  134.5701  160.9232 H   0  0  0  0  0  0  0  0  0  0  0  0
  129.8374  137.4838  159.3698 H   0  0  0  0  0  0  0  0  0  0  0  0
  130.0705  137.1165  161.0923 H   0  0  0  0  0  0  0  0  0  0  0  0
  131.3689  139.2701  160.1529 H   0  0  0  0  0  0  0  0  0  0  0  0
  134.9739  138.4001  158.6255 H   0  0  0  0  0  0  0  0  0  0  0  0
  136.6143  140.2259  158.7515 H   0  0  0  0  0  0  0  0  0  0  0  0
  136.4949  141.8760  160.5706 H   0  0  0  0  0  0  0  0  0  0  0  0
  134.7345  141.7155  162.2785 H   0  0  0  0  0  0  0  0  0  0  0  0
  132.3796  139.0356  162.5299 H   0  0  0  0  0  0  0  0  0  0  0  0
  133.3618  141.3887  163.7441 H   0  0  0  0  0  0  0  0  0  0  0  0
  132.1484  141.8504  162.5264 H   0  0  0  0  0  0  0  0  0  0  0  0
  131.7066  139.9405  164.8823 H   0  0  0  0  0  0  0  0  0  0  0  0
  131.4106  142.1604  165.7719 H   0  0  0  0  0  0  0  0  0  0  0  0
  130.8312  142.8013  164.2048 H   0  0  0  0  0  0  0  0  0  0  0  0
  126.9948  141.5647  164.2882 H   0  0  0  0  0  0  0  0  0  0  0  0
  127.7172  141.1875  162.6642 H   0  0  0  0  0  0  0  0  0  0  0  0
  127.6040  138.7740  163.0734 H   0  0  0  0  0  0  0  0  0  0  0  0
  126.2649  139.2260  164.2150 H   0  0  0  0  0  0  0  0  0  0  0  0
  128.9159  138.5181  165.1274 H   0  0  0  0  0  0  0  0  0  0  0  0
  127.8460  139.6714  166.0357 H   0  0  0  0  0  0  0  0  0  0  0  0
  129.9930  140.7203  162.4541 H   0  0  0  0  0  0  0  0  0  0  0  0
  130.1275  139.1206  163.2566 H   0  0  0  0  0  0  0  0  0  0  0  0
  134.1631  136.4125  161.1673 H   0  0  0  0  0  0  0  0  0  0  0  0
  133.8506  136.2259  159.4250 H   0  0  0  0  0  0  0  0  0  0  0  0
  131.9069  135.7295  161.7210 H   0  0  0  0  0  0  0  0  0  0  0  0
  132.5423  134.5353  160.5616 H   0  0  0  0  0  0  0  0  0  0  0  0
  130.0371  132.0137  160.4348 H   0  0  0  0  0  0  0  0  0  0  0  0
  1  2  1  0
  2 31  1  0
  2  3  2  0
  3  4  1  0
  3 32  1  0
  4  5  1  0
  4  6  1  0
  6  7  1  0
  6 31  2  0
  7  8  1  0
  7 33  1  0
  7 34  1  0
  8  9  1  6
  8 30  1  0
  8 10  1  0
 10 11  1  0
 10 35  1  0
 10 36  1  0
 11 12  2  0
 11 37  1  0
 12 13  1  0
 12 29  1  0
 13 18  1  0
 13 14  2  0
 14 15  1  0
 14 38  1  0
 15 16  2  0
 15 39  1  0
 16 17  1  0
 16 40  1  0
 17 18  2  0
 17 41  1  0
 18 19  1  0
 19 20  1  0
 19 42  1  0
 20 21  1  0
 20 43  1  0
 20 44  1  0
 21 28  1  0
 21 22  1  0
 21 45  1  1
 22 23  1  0
 22 46  1  0
 22 47  1  0
 23 24  1  0
 24 27  1  0
 24 25  1  0
 24 28  1  0
 25 26  1  0
 25 48  1  0
 25 49  1  0
 26 27  1  0
 26 50  1  0
 26 51  1  0
 27 52  1  0
 27 53  1  0
 28 54  1  0
 28 55  1  0
 29 30  1  0
 29 56  1  0
 29 57  1  0
 30 58  1  0
 30 59  1  0
 31 60  1  0
M  CHG  1   8   1
M  END
>  <DOCK_score>  (1) 
-59.442516

>  <SMILES>  (1) 
Brc1c[nH]c(C[N@H+]2CC=C(c3ccccc3NCC3COC4(CCC4)C3)CC2)c1

$$$$
