CCc1ccc(-c2c[nH]c(N[C@H](CC=C3C=C(C4=CCC4)CC3)CCCl)[nH+]2)cc1
     RDKit          3D

 60 63  0  0  1  0  0  0  0  0999 V2000
  130.2801  128.4895  151.5423 C   0  0  0  0  0  0  0  0  0  0  0  0
  131.3629  129.5329  151.8253 C   0  0  0  0  0  0  0  0  0  0  0  0
  131.0385  130.2596  153.1051 C   0  0  0  0  0  0  0  0  0  0  0  0
  131.5139  129.7753  154.3112 C   0  0  0  0  0  0  0  0  0  0  0  0
  131.2198  130.4357  155.4867 C   0  0  0  0  0  0  0  0  0  0  0  0
  130.4424  131.5923  155.4574 C   0  0  0  0  0  0  0  0  0  0  0  0
  130.1229  132.3065  156.7175 C   0  0  0  0  0  0  0  0  0  0  0  0
  129.4467  131.7946  157.7757 C   0  0  0  0  0  0  0  0  0  0  0  0
  129.3749  132.7882  158.7215 N   0  0  0  0  0  0  0  0  0  0  0  0
  128.9504  132.7238  159.5913 H   0  0  0  0  0  0  0  0  0  0  0  0
  130.0097  133.8794  158.2131 C   0  0  0  0  0  0  0  0  0  0  0  0
  130.1595  135.0970  158.8548 N   0  0  0  0  0  0  0  0  0  0  0  0
  129.6090  135.2892  160.1987 C   0  0  2  0  0  0  0  0  0  0  0  0
  128.6344  134.8056  160.2647 H   0  0  0  0  0  0  0  0  0  0  0  0
  129.4556  136.7857  160.4779 C   0  0  0  0  0  0  0  0  0  0  0  0
  130.8030  137.4545  160.3866 C   0  0  0  0  0  0  0  0  0  0  0  0
  131.0622  138.5343  161.1237 C   0  0  0  0  0  0  0  0  0  0  0  0
  130.1451  139.1808  162.0594 C   0  0  0  0  0  0  0  0  0  0  0  0
  130.7009  140.2483  162.6495 C   0  0  0  0  0  0  0  0  0  0  0  0
  130.0330  141.1024  163.6342 C   0  0  0  0  0  0  0  0  0  0  0  0
  130.4158  142.1746  164.3076 C   0  0  0  0  0  0  0  0  0  0  0  0
  129.1060  142.3166  165.0230 C   0  0  0  0  0  0  0  0  0  0  0  0
  128.6651  141.0818  164.2474 C   0  0  0  0  0  0  0  0  0  0  0  0
  132.1096  140.4484  162.1499 C   0  0  0  0  0  0  0  0  0  0  0  0
  132.3595  139.3130  161.1426 C   0  0  0  0  0  0  0  0  0  0  0  0
  130.5554  134.6724  161.2306 C   0  0  0  0  0  0  0  0  0  0  0  0
  129.7943  134.4191  162.5335 C   0  0  0  0  0  0  0  0  0  0  0  0
  128.4264  133.2870  162.2200 Cl  0  0  0  0  0  0  0  0  0  0  0  0
  130.4511  133.5893  157.0136 N   0  0  0  0  0  0  0  0  0  0  0  0
  130.9365  134.1944  156.4312 H   0  0  0  0  0  0  0  0  0  0  0  0
  129.9617  132.0718  154.2403 C   0  0  0  0  0  0  0  0  0  0  0  0
  130.2670  131.4065  153.0703 C   0  0  0  0  0  0  0  0  0  0  0  0
  130.2400  127.7754  152.3649 H   0  0  0  0  0  0  0  0  0  0  0  0
  129.3144  128.9854  151.4442 H   0  0  0  0  0  0  0  0  0  0  0  0
  130.5146  127.9645  150.6164 H   0  0  0  0  0  0  0  0  0  0  0  0
  131.4029  130.2471  151.0028 H   0  0  0  0  0  0  0  0  0  0  0  0
  132.3284  129.0371  151.9234 H   0  0  0  0  0  0  0  0  0  0  0  0
  132.1161  128.8791  154.3327 H   0  0  0  0  0  0  0  0  0  0  0  0
  131.5914  130.0573  156.4274 H   0  0  0  0  0  0  0  0  0  0  0  0
  129.0417  130.7968  157.8587 H   0  0  0  0  0  0  0  0  0  0  0  0
  130.6289  135.8227  158.4146 H   0  0  0  0  0  0  0  0  0  0  0  0
  129.0461  136.9286  161.4779 H   0  0  0  0  0  0  0  0  0  0  0  0
  128.7812  137.2251  159.7429 H   0  0  0  0  0  0  0  0  0  0  0  0
  131.5584  137.0590  159.7238 H   0  0  0  0  0  0  0  0  0  0  0  0
  129.1388  138.8394  162.2523 H   0  0  0  0  0  0  0  0  0  0  0  0
  131.3364  142.7384  164.3356 H   0  0  0  0  0  0  0  0  0  0  0  0
  129.1739  142.1580  166.0993 H   0  0  0  0  0  0  0  0  0  0  0  0
  128.5570  143.2204  164.7587 H   0  0  0  0  0  0  0  0  0  0  0  0
  127.8619  141.2737  163.5359 H   0  0  0  0  0  0  0  0  0  0  0  0
  128.4783  140.2104  164.8749 H   0  0  0  0  0  0  0  0  0  0  0  0
  132.2009  141.4171  161.6586 H   0  0  0  0  0  0  0  0  0  0  0  0
  132.8160  140.3771  162.9770 H   0  0  0  0  0  0  0  0  0  0  0  0
  133.1802  138.6776  161.4753 H   0  0  0  0  0  0  0  0  0  0  0  0
  132.5713  139.7242  160.1555 H   0  0  0  0  0  0  0  0  0  0  0  0
  130.9449  133.7290  160.8480 H   0  0  0  0  0  0  0  0  0  0  0  0
  131.3823  135.3568  161.4201 H   0  0  0  0  0  0  0  0  0  0  0  0
  130.4684  133.9796  163.2686 H   0  0  0  0  0  0  0  0  0  0  0  0
  129.4047  135.3625  162.9159 H   0  0  0  0  0  0  0  0  0  0  0  0
  129.3549  132.9649  154.2122 H   0  0  0  0  0  0  0  0  0  0  0  0
  129.8988  131.7797  152.1261 H   0  0  0  0  0  0  0  0  0  0  0  0
  1  2  1  0
  1 33  1  0
  1 34  1  0
  1 35  1  0
  2  3  1  0
  2 36  1  0
  2 37  1  0
  3 32  2  0
  3  4  1  0
  4  5  2  0
  4 38  1  0
  5  6  1  0
  5 39  1  0
  6  7  1  0
  6 31  2  0
  7 29  1  0
  7  8  2  0
  8  9  1  0
  8 40  1  0
  9 10  1  0
  9 11  1  0
 11 12  1  0
 11 29  2  0
 12 13  1  0
 12 41  1  0
 13 14  1  6
 13 15  1  0
 13 26  1  0
 15 16  1  0
 15 42  1  0
 15 43  1  0
 16 17  2  0
 16 44  1  0
 17 25  1  0
 17 18  1  0
 18 19  2  0
 18 45  1  0
 19 20  1  0
 19 24  1  0
 20 23  1  0
 20 21  2  0
 21 22  1  0
 21 46  1  0
 22 23  1  0
 22 47  1  0
 22 48  1  0
 23 49  1  0
 23 50  1  0
 24 25  1  0
 24 51  1  0
 24 52  1  0
 25 53  1  0
 25 54  1  0
 26 27  1  0
 26 55  1  0
 26 56  1  0
 27 28  1  0
 27 57  1  0
 27 58  1  0
 29 30  1  0
 31 32  1  0
 31 59  1  0
 32 60  1  0
M  CHG  1  29   1
M  END
>  <DOCK_score>  (1) 
-60.270641

>  <SMILES>  (1) 
CCc1ccc(-c2c[nH]c(N[C@H](CC=C3C=C(C4=CCC4)CC3)CCCl)[nH+]2)cc1

$$$$
