Cn1nccc1[C@@H](Nc1[nH]cc(-c2ccc(N)cc2)[nH+]1)c1ccc2c(c1)CCC(O)C2
     RDKit          3D

 58 62  0  0  1  0  0  0  0  0999 V2000
  127.8336  134.2827  162.5434 C   0  0  0  0  0  0  0  0  0  0  0  0
  127.4712  135.0193  161.3300 N   0  0  0  0  0  0  0  0  0  0  0  0
  126.1947  135.4967  161.0061 N   0  0  0  0  0  0  0  0  0  0  0  0
  126.2659  136.1003  159.8474 C   0  0  0  0  0  0  0  0  0  0  0  0
  127.5891  136.0312  159.3993 C   0  0  0  0  0  0  0  0  0  0  0  0
  128.3081  135.3575  160.3268 C   0  0  0  0  0  0  0  0  0  0  0  0
  129.7807  135.0461  160.2552 C   0  0  1  0  0  0  0  0  0  0  0  0
  129.9821  134.1172  160.7889 H   0  0  0  0  0  0  0  0  0  0  0  0
  130.1816  134.9006  158.8536 N   0  0  0  0  0  0  0  0  0  0  0  0
  130.1256  133.6595  158.2429 C   0  0  0  0  0  0  0  0  0  0  0  0
  129.7126  132.5043  158.8316 N   0  0  0  0  0  0  0  0  0  0  0  0
  129.4075  132.4030  159.7468 H   0  0  0  0  0  0  0  0  0  0  0  0
  129.8083  131.5074  157.8898 C   0  0  0  0  0  0  0  0  0  0  0  0
  130.2764  132.0825  156.7546 C   0  0  0  0  0  0  0  0  0  0  0  0
  130.5402  131.3896  155.4696 C   0  0  0  0  0  0  0  0  0  0  0  0
  129.8593  131.7752  154.3160 C   0  0  0  0  0  0  0  0  0  0  0  0
  130.1101  131.1332  153.1217 C   0  0  0  0  0  0  0  0  0  0  0  0
  131.0320  130.0951  153.0696 C   0  0  0  0  0  0  0  0  0  0  0  0
  131.2799  129.4424  151.8597 N   0  0  0  0  0  0  0  0  0  0  0  0
  131.7084  129.7050  154.2200 C   0  0  0  0  0  0  0  0  0  0  0  0
  131.4651  130.3479  155.4153 C   0  0  0  0  0  0  0  0  0  0  0  0
  130.4563  133.4044  157.0003 N   0  0  0  0  0  0  0  0  0  0  0  0
  130.7801  134.0565  156.3594 H   0  0  0  0  0  0  0  0  0  0  0  0
  130.5628  136.1684  160.8875 C   0  0  0  0  0  0  0  0  0  0  0  0
  130.0067  136.9091  161.9140 C   0  0  0  0  0  0  0  0  0  0  0  0
  130.7273  137.9372  162.4852 C   0  0  0  0  0  0  0  0  0  0  0  0
  132.0109  138.2306  162.0423 C   0  0  0  0  0  0  0  0  0  0  0  0
  132.5654  137.4917  161.0218 C   0  0  0  0  0  0  0  0  0  0  0  0
  131.8380  136.4568  160.4478 C   0  0  0  0  0  0  0  0  0  0  0  0
  133.9469  137.7598  160.4846 C   0  0  0  0  0  0  0  0  0  0  0  0
  134.7532  138.6012  161.4719 C   0  0  0  0  0  0  0  0  0  0  0  0
  133.9175  139.8275  161.8573 C   0  0  2  0  0  0  0  0  0  0  0  0
  134.7231  140.7448  162.6002 O   0  0  0  0  0  0  0  0  0  0  0  0
  132.7443  139.3604  162.7165 C   0  0  0  0  0  0  0  0  0  0  0  0
  128.1349  134.9864  163.3194 H   0  0  0  0  0  0  0  0  0  0  0  0
  126.9751  133.7066  162.8887 H   0  0  0  0  0  0  0  0  0  0  0  0
  128.6605  133.6069  162.3248 H   0  0  0  0  0  0  0  0  0  0  0  0
  125.4455  136.5736  159.3285 H   0  0  0  0  0  0  0  0  0  0  0  0
  127.9694  136.4411  158.4754 H   0  0  0  0  0  0  0  0  0  0  0  0
  130.4863  135.6740  158.3536 H   0  0  0  0  0  0  0  0  0  0  0  0
  129.5585  130.4657  158.0277 H   0  0  0  0  0  0  0  0  0  0  0  0
  129.1391  132.5790  154.3568 H   0  0  0  0  0  0  0  0  0  0  0  0
  129.5861  131.4345  152.2267 H   0  0  0  0  0  0  0  0  0  0  0  0
  131.9239  128.7172  151.8230 H   0  0  0  0  0  0  0  0  0  0  0  0
  130.8088  129.7132  151.0570 H   0  0  0  0  0  0  0  0  0  0  0  0
  132.4246  128.8978  154.1775 H   0  0  0  0  0  0  0  0  0  0  0  0
  131.9910  130.0450  156.3087 H   0  0  0  0  0  0  0  0  0  0  0  0
  129.0096  136.6864  162.2644 H   0  0  0  0  0  0  0  0  0  0  0  0
  130.2902  138.5186  163.2834 H   0  0  0  0  0  0  0  0  0  0  0  0
  132.2727  135.8761  159.6476 H   0  0  0  0  0  0  0  0  0  0  0  0
  134.4585  136.8117  160.3189 H   0  0  0  0  0  0  0  0  0  0  0  0
  133.8671  138.2953  159.5385 H   0  0  0  0  0  0  0  0  0  0  0  0
  134.9728  138.0121  162.3625 H   0  0  0  0  0  0  0  0  0  0  0  0
  135.6844  138.9226  161.0055 H   0  0  0  0  0  0  0  0  0  0  0  0
  133.5424  140.3139  160.9568 H   0  0  0  0  0  0  0  0  0  0  0  0
  134.2552  141.5448  162.8763 H   0  0  0  0  0  0  0  0  0  0  0  0
  133.1189  139.0203  163.6820 H   0  0  0  0  0  0  0  0  0  0  0  0
  132.0576  140.1928  162.8704 H   0  0  0  0  0  0  0  0  0  0  0  0
  1  2  1  0
  1 35  1  0
  1 36  1  0
  1 37  1  0
  2  6  1  0
  2  3  1  0
  3  4  2  0
  4  5  1  0
  4 38  1  0
  5  6  2  0
  5 39  1  0
  6  7  1  0
  7  8  1  1
  7  9  1  0
  7 24  1  0
  9 40  1  0
 10  9  1  0
 10 22  2  0
 10 11  1  0
 11 12  1  0
 11 13  1  0
 13 14  2  0
 13 41  1  0
 14 15  1  0
 14 22  1  0
 15 21  1  0
 15 16  2  0
 16 17  1  0
 16 42  1  0
 17 18  2  0
 17 43  1  0
 18 19  1  0
 18 20  1  0
 19 44  1  0
 19 45  1  0
 20 21  2  0
 20 46  1  0
 21 47  1  0
 22 23  1  0
 24 29  1  0
 24 25  2  0
 25 26  1  0
 25 48  1  0
 26 27  2  0
 26 49  1  0
 27 34  1  0
 27 28  1  0
 28 29  2  0
 28 30  1  0
 29 50  1  0
 30 31  1  0
 30 51  1  0
 30 52  1  0
 31 32  1  0
 31 53  1  0
 31 54  1  0
 32 33  1  0
 32 34  1  0
 32 55  1  6
 33 56  1  0
 34 57  1  0
 34 58  1  0
M  CHG  1  22   1
M  END
>  <DOCK_score>  (1) 
-57.417473

>  <SMILES>  (1) 
Cn1nccc1[C@@H](Nc1[nH]cc(-c2ccc(N)cc2)[nH+]1)c1ccc2c(c1)CCC(O)C2

$$$$
