CCc1ccc(-c2c[nH]c(NC(CC)[C@@H](Br)Cc3ccc(C)cc3)[nH+]2)cc1
     RDKit          3D

 56 58  0  0  1  0  0  0  0  0999 V2000
  129.9319  129.1571  151.1709 C   0  0  0  0  0  0  0  0  0  0  0  0
  131.2473  129.6839  151.7496 C   0  0  0  0  0  0  0  0  0  0  0  0
  130.9787  130.3682  153.0652 C   0  0  0  0  0  0  0  0  0  0  0  0
  131.0190  129.6408  154.2411 C   0  0  0  0  0  0  0  0  0  0  0  0
  130.7738  130.2621  155.4487 C   0  0  0  0  0  0  0  0  0  0  0  0
  130.4849  131.6252  155.4820 C   0  0  0  0  0  0  0  0  0  0  0  0
  130.2205  132.2987  156.7770 C   0  0  0  0  0  0  0  0  0  0  0  0
  129.6736  131.7255  157.8775 C   0  0  0  0  0  0  0  0  0  0  0  0
  129.6136  132.6983  158.8455 N   0  0  0  0  0  0  0  0  0  0  0  0
  129.2724  132.5913  159.7473 H   0  0  0  0  0  0  0  0  0  0  0  0
  130.1187  133.8406  158.3051 C   0  0  0  0  0  0  0  0  0  0  0  0
  130.2342  135.0577  158.9548 N   0  0  0  0  0  0  0  0  0  0  0  0
  129.7917  135.1907  160.3451 C   0  0  1  0  0  0  0  0  0  0  0  0
  130.9747  135.6126  161.2187 C   0  0  0  0  0  0  0  0  0  0  0  0
  132.0754  134.5534  161.1329 C   0  0  0  0  0  0  0  0  0  0  0  0
  128.6910  136.2499  160.4309 C   0  0  1  0  0  0  0  0  0  0  0  0
  129.1411  137.2427  160.4295 H   0  0  0  0  0  0  0  0  0  0  0  0
  127.4895  136.0731  158.8849 Br  0  0  0  0  0  0  0  0  0  0  0  0
  127.8935  136.0534  161.7217 C   0  0  0  0  0  0  0  0  0  0  0  0
  127.2712  134.6810  161.7237 C   0  0  0  0  0  0  0  0  0  0  0  0
  127.9612  133.6099  162.2601 C   0  0  0  0  0  0  0  0  0  0  0  0
  127.3885  132.3518  162.2658 C   0  0  0  0  0  0  0  0  0  0  0  0
  126.1297  132.1629  161.7266 C   0  0  0  0  0  0  0  0  0  0  0  0
  125.5074  130.7905  161.7285 C   0  0  0  0  0  0  0  0  0  0  0  0
  125.4416  133.2330  161.1858 C   0  0  0  0  0  0  0  0  0  0  0  0
  126.0125  134.4920  161.1841 C   0  0  0  0  0  0  0  0  0  0  0  0
  130.4832  133.5972  157.0699 N   0  0  0  0  0  0  0  0  0  0  0  0
  130.8776  134.2421  156.4623 H   0  0  0  0  0  0  0  0  0  0  0  0
  130.4396  132.3519  154.2937 C   0  0  0  0  0  0  0  0  0  0  0  0
  130.6917  131.7212  153.0923 C   0  0  0  0  0  0  0  0  0  0  0  0
  130.1262  128.6622  150.2193 H   0  0  0  0  0  0  0  0  0  0  0  0
  129.4881  128.4453  151.8667 H   0  0  0  0  0  0  0  0  0  0  0  0
  129.2448  129.9887  151.0142 H   0  0  0  0  0  0  0  0  0  0  0  0
  131.6904  130.3959  151.0537 H   0  0  0  0  0  0  0  0  0  0  0  0
  131.9337  128.8523  151.9061 H   0  0  0  0  0  0  0  0  0  0  0  0
  131.2431  128.5846  154.2140 H   0  0  0  0  0  0  0  0  0  0  0  0
  130.8062  129.6932  156.3662 H   0  0  0  0  0  0  0  0  0  0  0  0
  129.3509  130.6996  157.9756 H   0  0  0  0  0  0  0  0  0  0  0  0
  130.6043  135.8233  158.4883 H   0  0  0  0  0  0  0  0  0  0  0  0
  129.4038  134.2344  160.6959 H   0  0  0  0  0  0  0  0  0  0  0  0
  131.3627  136.5689  160.8678 H   0  0  0  0  0  0  0  0  0  0  0  0
  130.6456  135.7116  162.2530 H   0  0  0  0  0  0  0  0  0  0  0  0
  131.6875  133.5971  161.4838 H   0  0  0  0  0  0  0  0  0  0  0  0
  132.4047  134.4544  160.0986 H   0  0  0  0  0  0  0  0  0  0  0  0
  132.9183  134.8540  161.7553 H   0  0  0  0  0  0  0  0  0  0  0  0
  128.5598  136.1515  162.5788 H   0  0  0  0  0  0  0  0  0  0  0  0
  127.1093  136.8081  161.7828 H   0  0  0  0  0  0  0  0  0  0  0  0
  128.9462  133.7567  162.6777 H   0  0  0  0  0  0  0  0  0  0  0  0
  127.9259  131.5157  162.6885 H   0  0  0  0  0  0  0  0  0  0  0  0
  125.7787  130.2671  160.8117 H   0  0  0  0  0  0  0  0  0  0  0  0
  125.8703  130.2281  162.5890 H   0  0  0  0  0  0  0  0  0  0  0  0
  124.4228  130.8833  161.7864 H   0  0  0  0  0  0  0  0  0  0  0  0
  124.4583  133.0855  160.7645 H   0  0  0  0  0  0  0  0  0  0  0  0
  125.4753  135.3281  160.7614 H   0  0  0  0  0  0  0  0  0  0  0  0
  130.2116  133.4073  154.3131 H   0  0  0  0  0  0  0  0  0  0  0  0
  130.6609  132.2842  152.1710 H   0  0  0  0  0  0  0  0  0  0  0  0
  1  2  1  0
  1 31  1  0
  1 32  1  0
  1 33  1  0
  2  3  1  0
  2 34  1  0
  2 35  1  0
  3 30  2  0
  3  4  1  0
  4  5  2  0
  4 36  1  0
  5  6  1  0
  5 37  1  0
  6  7  1  0
  6 29  2  0
  7 27  1  0
  7  8  2  0
  8  9  1  0
  8 38  1  0
  9 10  1  0
  9 11  1  0
 11 12  1  0
 11 27  2  0
 12 13  1  0
 12 39  1  0
 13 14  1  0
 13 16  1  0
 13 40  1  1
 14 15  1  0
 14 41  1  0
 14 42  1  0
 15 43  1  0
 15 44  1  0
 15 45  1  0
 16 17  1  1
 16 18  1  0
 16 19  1  0
 19 20  1  0
 19 46  1  0
 19 47  1  0
 20 26  1  0
 20 21  2  0
 21 22  1  0
 21 48  1  0
 22 23  2  0
 22 49  1  0
 23 24  1  0
 23 25  1  0
 24 50  1  0
 24 51  1  0
 24 52  1  0
 25 26  2  0
 25 53  1  0
 26 54  1  0
 27 28  1  0
 29 30  1  0
 29 55  1  0
 30 56  1  0
M  CHG  1  27   1
M  END
>  <DOCK_score>  (1) 
-59.914886

>  <SMILES>  (1) 
CCc1ccc(-c2c[nH]c(NC(CC)[C@@H](Br)Cc3ccc(C)cc3)[nH+]2)cc1

$$$$
