CC1=CC[C@H](Nc2ncsc2C[NH2+]Cc2cccc(C3CC3)c2)CC1
     RDKit          3D

 53 56  0  0  1  0  0  0  0  0999 V2000
  126.8746  138.6289  166.4824 C   0  0  0  0  0  0  0  0  0  0  0  0
  127.3056  137.8707  165.2533 C   0  0  0  0  0  0  0  0  0  0  0  0
  126.6678  136.7843  164.9557 C   0  0  0  0  0  0  0  0  0  0  0  0
  126.9873  135.9193  163.7717 C   0  0  0  0  0  0  0  0  0  0  0  0
  127.8431  136.6948  162.7680 C   0  0  2  0  0  0  0  0  0  0  0  0
  127.2421  137.4682  162.2898 H   0  0  0  0  0  0  0  0  0  0  0  0
  128.3636  135.7770  161.7517 N   0  0  0  0  0  0  0  0  0  0  0  0
  127.6282  135.5371  160.5795 C   0  0  0  0  0  0  0  0  0  0  0  0
  126.4630  136.1082  160.3362 N   0  0  0  0  0  0  0  0  0  0  0  0
  125.8796  135.8038  159.2252 C   0  0  0  0  0  0  0  0  0  0  0  0
  126.8344  134.6973  158.3383 S   0  0  0  0  0  0  0  0  0  0  0  0
  128.0526  134.7117  159.6110 C   0  0  0  0  0  0  0  0  0  0  0  0
  129.3408  133.9297  159.6141 C   0  0  0  0  0  0  0  0  0  0  0  0
  130.4032  134.7338  158.9954 N   0  0  0  0  0  0  0  0  0  0  0  0
  130.1467  134.9558  158.0451 H   0  0  0  0  0  0  0  0  0  0  0  0
  130.5267  135.5876  159.5186 H   0  0  0  0  0  0  0  0  0  0  0  0
  131.6589  133.9716  158.9984 C   0  0  0  0  0  0  0  0  0  0  0  0
  131.4744  132.6963  158.2171 C   0  0  0  0  0  0  0  0  0  0  0  0
  131.9558  131.5017  158.7199 C   0  0  0  0  0  0  0  0  0  0  0  0
  131.7823  130.3313  158.0055 C   0  0  0  0  0  0  0  0  0  0  0  0
  131.1366  130.3568  156.7832 C   0  0  0  0  0  0  0  0  0  0  0  0
  130.6599  131.5517  156.2783 C   0  0  0  0  0  0  0  0  0  0  0  0
  129.9564  131.5796  154.9458 C   0  0  0  0  0  0  0  0  0  0  0  0
  130.6635  130.9204  153.7598 C   0  0  0  0  0  0  0  0  0  0  0  0
  130.5678  132.4452  153.8422 C   0  0  0  0  0  0  0  0  0  0  0  0
  130.8289  132.7216  156.9953 C   0  0  0  0  0  0  0  0  0  0  0  0
  129.0102  137.3426  163.5239 C   0  0  0  0  0  0  0  0  0  0  0  0
  128.4469  138.4225  164.4503 C   0  0  0  0  0  0  0  0  0  0  0  0
  126.1086  139.3554  166.2112 H   0  0  0  0  0  0  0  0  0  0  0  0
  126.4706  137.9317  167.2163 H   0  0  0  0  0  0  0  0  0  0  0  0
  127.7331  139.1480  166.9086 H   0  0  0  0  0  0  0  0  0  0  0  0
  125.8555  136.4813  165.5997 H   0  0  0  0  0  0  0  0  0  0  0  0
  126.0599  135.6078  163.2911 H   0  0  0  0  0  0  0  0  0  0  0  0
  127.5329  135.0368  164.1058 H   0  0  0  0  0  0  0  0  0  0  0  0
  129.2160  135.3349  161.8885 H   0  0  0  0  0  0  0  0  0  0  0  0
  124.9248  136.1922  158.9027 H   0  0  0  0  0  0  0  0  0  0  0  0
  129.2073  133.0073  159.0489 H   0  0  0  0  0  0  0  0  0  0  0  0
  129.6178  133.6899  160.6406 H   0  0  0  0  0  0  0  0  0  0  0  0
  132.4473  134.5682  158.5393 H   0  0  0  0  0  0  0  0  0  0  0  0
  131.9359  133.7319  160.0251 H   0  0  0  0  0  0  0  0  0  0  0  0
  132.4642  131.4825  159.6725 H   0  0  0  0  0  0  0  0  0  0  0  0
  132.1551  129.3975  158.4000 H   0  0  0  0  0  0  0  0  0  0  0  0
  131.0049  129.4429  156.2230 H   0  0  0  0  0  0  0  0  0  0  0  0
  128.8694  131.5095  154.9864 H   0  0  0  0  0  0  0  0  0  0  0  0
  131.6373  130.4666  153.9433 H   0  0  0  0  0  0  0  0  0  0  0  0
  130.0415  130.4164  153.0200 H   0  0  0  0  0  0  0  0  0  0  0  0
  129.8830  132.9443  153.1566 H   0  0  0  0  0  0  0  0  0  0  0  0
  131.4788  132.9945  154.0798 H   0  0  0  0  0  0  0  0  0  0  0  0
  130.4567  133.6555  156.6004 H   0  0  0  0  0  0  0  0  0  0  0  0
  129.5285  136.5872  164.1145 H   0  0  0  0  0  0  0  0  0  0  0  0
  129.7017  137.7943  162.8127 H   0  0  0  0  0  0  0  0  0  0  0  0
  129.2314  138.7647  165.1253 H   0  0  0  0  0  0  0  0  0  0  0  0
  128.0928  139.2625  163.8527 H   0  0  0  0  0  0  0  0  0  0  0  0
  1  2  1  0
  1 29  1  0
  1 30  1  0
  1 31  1  0
  2 28  1  0
  2  3  2  0
  3  4  1  0
  3 32  1  0
  4  5  1  0
  4 33  1  0
  4 34  1  0
  5  6  1  6
  5  7  1  0
  5 27  1  0
  7  8  1  0
  7 35  1  0
  8 12  2  0
  8  9  1  0
  9 10  2  0
 10 11  1  0
 10 36  1  0
 11 12  1  0
 12 13  1  0
 13 14  1  0
 13 37  1  0
 13 38  1  0
 14 15  1  0
 14 16  1  0
 14 17  1  0
 17 18  1  0
 17 39  1  0
 17 40  1  0
 18 26  1  0
 18 19  2  0
 19 20  1  0
 19 41  1  0
 20 21  2  0
 20 42  1  0
 21 22  1  0
 21 43  1  0
 22 23  1  0
 22 26  2  0
 23 25  1  0
 23 24  1  0
 23 44  1  0
 24 25  1  0
 24 45  1  0
 24 46  1  0
 25 47  1  0
 25 48  1  0
 26 49  1  0
 27 28  1  0
 27 50  1  0
 27 51  1  0
 28 52  1  0
 28 53  1  0
M  CHG  1  14   1
M  END
>  <DOCK_score>  (1) 
-42.2654

>  <SMILES>  (1) 
CC1=CC[C@H](Nc2ncsc2C[NH2+]Cc2cccc(C3CC3)c2)CC1

$$$$
