O=C1CCC(NC(NC2CC=CC2)=[NH+][C@H]2COc3cc(NCc4cccs4)ccc3C2)CN1
     RDKit          3D

 65 69  0  0  1  0  0  0  0  0999 V2000
  123.9565  133.7109  162.0894 O   0  0  0  0  0  0  0  0  0  0  0  0
  125.1046  133.9755  161.8016 C   0  0  0  0  0  0  0  0  0  0  0  0
  125.9677  132.8806  161.2435 C   0  0  0  0  0  0  0  0  0  0  0  0
  127.4433  133.2715  161.3573 C   0  0  0  0  0  0  0  0  0  0  0  0
  127.6120  134.6926  160.8063 C   0  0  2  0  0  0  0  0  0  0  0  0
  129.0364  135.0286  160.7412 N   0  0  0  0  0  0  0  0  0  0  0  0
  129.7570  134.7510  159.6037 C   0  0  0  0  0  0  0  0  0  0  0  0
  129.1408  134.1580  158.5273 N   0  0  0  0  0  0  0  0  0  0  0  0
  129.9086  133.8622  157.3152 C   0  0  0  0  0  0  0  0  0  0  0  0
  129.0729  133.0251  156.3193 C   0  0  0  0  0  0  0  0  0  0  0  0
  130.0619  132.0620  155.7033 C   0  0  0  0  0  0  0  0  0  0  0  0
  131.1554  131.9930  156.4129 C   0  0  0  0  0  0  0  0  0  0  0  0
  131.0783  132.8979  157.6205 C   0  0  0  0  0  0  0  0  0  0  0  0
  131.0242  135.0501  159.5458 N   0  0  0  0  0  0  0  0  0  0  0  0
  131.4314  135.2743  158.6945 H   0  0  0  0  0  0  0  0  0  0  0  0
  131.8340  135.0475  160.7668 C   0  0  1  0  0  0  0  0  0  0  0  0
  131.2122  134.7740  161.6193 H   0  0  0  0  0  0  0  0  0  0  0  0
  132.9848  134.0437  160.6219 C   0  0  0  0  0  0  0  0  0  0  0  0
  133.6921  133.9878  161.8614 O   0  0  0  0  0  0  0  0  0  0  0  0
  134.0634  135.1625  162.4341 C   0  0  0  0  0  0  0  0  0  0  0  0
  135.0407  135.1372  163.4223 C   0  0  0  0  0  0  0  0  0  0  0  0
  135.4404  136.3138  164.0371 C   0  0  0  0  0  0  0  0  0  0  0  0
  136.4228  136.2869  165.0295 N   0  0  0  0  0  0  0  0  0  0  0  0
  136.8434  137.5315  165.6777 C   0  0  0  0  0  0  0  0  0  0  0  0
  137.9059  137.2299  166.7028 C   0  0  0  0  0  0  0  0  0  0  0  0
  137.6773  136.9354  167.9835 C   0  0  0  0  0  0  0  0  0  0  0  0
  138.8122  136.6941  168.7382 C   0  0  0  0  0  0  0  0  0  0  0  0
  139.9627  136.7926  168.0704 C   0  0  0  0  0  0  0  0  0  0  0  0
  139.6369  137.2046  166.3919 S   0  0  0  0  0  0  0  0  0  0  0  0
  134.8610  137.5200  163.6623 C   0  0  0  0  0  0  0  0  0  0  0  0
  133.8927  137.5423  162.6799 C   0  0  0  0  0  0  0  0  0  0  0  0
  133.4923  136.3678  162.0628 C   0  0  0  0  0  0  0  0  0  0  0  0
  132.4337  136.4378  160.9909 C   0  0  0  0  0  0  0  0  0  0  0  0
  126.8970  135.6685  161.7418 C   0  0  0  0  0  0  0  0  0  0  0  0
  125.5330  135.2229  161.9980 N   0  0  0  0  0  0  0  0  0  0  0  0
  125.7156  132.7194  160.1953 H   0  0  0  0  0  0  0  0  0  0  0  0
  125.7926  131.9612  161.8021 H   0  0  0  0  0  0  0  0  0  0  0  0
  128.0523  132.5783  160.7770 H   0  0  0  0  0  0  0  0  0  0  0  0
  127.7511  133.2441  162.4025 H   0  0  0  0  0  0  0  0  0  0  0  0
  127.1761  134.7525  159.8091 H   0  0  0  0  0  0  0  0  0  0  0  0
  129.4722  135.4432  161.5023 H   0  0  0  0  0  0  0  0  0  0  0  0
  128.1977  133.9354  158.5703 H   0  0  0  0  0  0  0  0  0  0  0  0
  130.2690  134.7792  156.8494 H   0  0  0  0  0  0  0  0  0  0  0  0
  128.2893  132.4798  156.8454 H   0  0  0  0  0  0  0  0  0  0  0  0
  128.6401  133.6678  155.5527 H   0  0  0  0  0  0  0  0  0  0  0  0
  129.8867  131.5042  154.7952 H   0  0  0  0  0  0  0  0  0  0  0  0
  132.0040  131.3713  156.1685 H   0  0  0  0  0  0  0  0  0  0  0  0
  132.0082  133.4541  157.7383 H   0  0  0  0  0  0  0  0  0  0  0  0
  130.8665  132.3163  158.5178 H   0  0  0  0  0  0  0  0  0  0  0  0
  132.5847  133.0584  160.3827 H   0  0  0  0  0  0  0  0  0  0  0  0
  133.6584  134.3694  159.8293 H   0  0  0  0  0  0  0  0  0  0  0  0
  135.4901  134.1986  163.7117 H   0  0  0  0  0  0  0  0  0  0  0  0
  136.8264  135.4442  165.2897 H   0  0  0  0  0  0  0  0  0  0  0  0
  137.2447  138.2139  164.9284 H   0  0  0  0  0  0  0  0  0  0  0  0
  135.9864  137.9937  166.1678 H   0  0  0  0  0  0  0  0  0  0  0  0
  136.6819  136.8885  168.4001 H   0  0  0  0  0  0  0  0  0  0  0  0
  138.7696  136.4447  169.7882 H   0  0  0  0  0  0  0  0  0  0  0  0
  140.9441  136.6391  168.4946 H   0  0  0  0  0  0  0  0  0  0  0  0
  135.1685  138.4389  164.1393 H   0  0  0  0  0  0  0  0  0  0  0  0
  133.4440  138.4809  162.3897 H   0  0  0  0  0  0  0  0  0  0  0  0
  132.8807  136.7938  160.0627 H   0  0  0  0  0  0  0  0  0  0  0  0
  131.6480  137.1258  161.3025 H   0  0  0  0  0  0  0  0  0  0  0  0
  127.4401  135.7268  162.6850 H   0  0  0  0  0  0  0  0  0  0  0  0
  126.8729  136.6563  161.2818 H   0  0  0  0  0  0  0  0  0  0  0  0
  124.8972  135.8747  162.3323 H   0  0  0  0  0  0  0  0  0  0  0  0
  1  2  2  0
  2 35  1  0
  2  3  1  0
  3  4  1  0
  3 36  1  0
  3 37  1  0
  4  5  1  0
  4 38  1  0
  4 39  1  0
  5  6  1  0
  5 34  1  0
  5 40  1  6
  6 41  1  0
  7  6  1  0
  7  8  1  0
  7 14  2  0
  8  9  1  0
  8 42  1  0
  9 13  1  0
  9 10  1  0
  9 43  1  0
 10 11  1  0
 10 44  1  0
 10 45  1  0
 11 12  2  0
 11 46  1  0
 12 13  1  0
 12 47  1  0
 13 48  1  0
 13 49  1  0
 14 15  1  0
 14 16  1  0
 16 17  1  1
 16 33  1  0
 16 18  1  0
 18 19  1  0
 18 50  1  0
 18 51  1  0
 19 20  1  0
 20 32  2  0
 20 21  1  0
 21 22  2  0
 21 52  1  0
 22 23  1  0
 22 30  1  0
 23 24  1  0
 23 53  1  0
 24 25  1  0
 24 54  1  0
 24 55  1  0
 25 29  1  0
 25 26  2  0
 26 27  1  0
 26 56  1  0
 27 28  2  0
 27 57  1  0
 28 29  1  0
 28 58  1  0
 30 31  2  0
 30 59  1  0
 31 32  1  0
 31 60  1  0
 32 33  1  0
 33 61  1  0
 33 62  1  0
 34 35  1  0
 34 63  1  0
 34 64  1  0
 35 65  1  0
M  CHG  1  14   1
M  END
>  <DOCK_score>  (1) 
-51.352013

>  <SMILES>  (1) 
O=C1CCC(NC(NC2CC=CC2)=[NH+][C@H]2COc3cc(NCc4cccs4)ccc3C2)CN1

$$$$
