Cc1cccc(Nc2ccccc2Nc2cccc(Cl)c2NC2=[NH+]CCN2)c1
     RDKit          3D

 51 54  0  0  0  0  0  0  0  0999 V2000
  137.5382  139.8460  159.0972 C   0  0  0  0  0  0  0  0  0  0  0  0
  136.4737  139.3490  160.0410 C   0  0  0  0  0  0  0  0  0  0  0  0
  136.7772  139.1343  161.3733 C   0  0  0  0  0  0  0  0  0  0  0  0
  135.8036  138.6779  162.2426 C   0  0  0  0  0  0  0  0  0  0  0  0
  134.5225  138.4409  161.7844 C   0  0  0  0  0  0  0  0  0  0  0  0
  134.2153  138.6508  160.4459 C   0  0  0  0  0  0  0  0  0  0  0  0
  132.9221  138.4076  159.9780 N   0  0  0  0  0  0  0  0  0  0  0  0
  131.8387  139.1111  160.5174 C   0  0  0  0  0  0  0  0  0  0  0  0
  132.0183  140.3960  161.0075 C   0  0  0  0  0  0  0  0  0  0  0  0
  130.9456  141.0913  161.5340 C   0  0  0  0  0  0  0  0  0  0  0  0
  129.6930  140.5073  161.5798 C   0  0  0  0  0  0  0  0  0  0  0  0
  129.5056  139.2249  161.0988 C   0  0  0  0  0  0  0  0  0  0  0  0
  130.5759  138.5199  160.5684 C   0  0  0  0  0  0  0  0  0  0  0  0
  130.3886  137.2214  160.0808 N   0  0  0  0  0  0  0  0  0  0  0  0
  130.5493  136.1240  160.9337 C   0  0  0  0  0  0  0  0  0  0  0  0
  130.2717  136.2485  162.2877 C   0  0  0  0  0  0  0  0  0  0  0  0
  130.4309  135.1634  163.1287 C   0  0  0  0  0  0  0  0  0  0  0  0
  130.8659  133.9510  162.6253 C   0  0  0  0  0  0  0  0  0  0  0  0
  131.1440  133.8173  161.2768 C   0  0  0  0  0  0  0  0  0  0  0  0
  131.6887  132.2929  160.6496 Cl  0  0  0  0  0  0  0  0  0  0  0  0
  130.9832  134.9006  160.4247 C   0  0  0  0  0  0  0  0  0  0  0  0
  131.2598  134.7664  159.0565 N   0  0  0  0  0  0  0  0  0  0  0  0
  130.5656  133.8577  158.3036 C   0  0  0  0  0  0  0  0  0  0  0  0
  130.7791  133.6906  157.0083 N   0  0  0  0  0  0  0  0  0  0  0  0
  131.4277  134.1797  156.4784 H   0  0  0  0  0  0  0  0  0  0  0  0
  129.8792  132.6435  156.4998 C   0  0  0  0  0  0  0  0  0  0  0  0
  129.0765  132.2231  157.7476 C   0  0  0  0  0  0  0  0  0  0  0  0
  129.6236  133.0796  158.8115 N   0  0  0  0  0  0  0  0  0  0  0  0
  135.1964  139.1091  159.5749 C   0  0  0  0  0  0  0  0  0  0  0  0
  137.5337  140.9359  159.0858 H   0  0  0  0  0  0  0  0  0  0  0  0
  138.5134  139.4901  159.4296 H   0  0  0  0  0  0  0  0  0  0  0  0
  137.3375  139.4713  158.0934 H   0  0  0  0  0  0  0  0  0  0  0  0
  137.7771  139.3232  161.7353 H   0  0  0  0  0  0  0  0  0  0  0  0
  136.0441  138.5114  163.2822 H   0  0  0  0  0  0  0  0  0  0  0  0
  133.7614  138.0891  162.4650 H   0  0  0  0  0  0  0  0  0  0  0  0
  132.7745  137.7510  159.2794 H   0  0  0  0  0  0  0  0  0  0  0  0
  132.9952  140.8552  160.9738 H   0  0  0  0  0  0  0  0  0  0  0  0
  131.0864  142.0934  161.9111 H   0  0  0  0  0  0  0  0  0  0  0  0
  128.8586  141.0547  161.9927 H   0  0  0  0  0  0  0  0  0  0  0  0
  128.5258  138.7720  161.1358 H   0  0  0  0  0  0  0  0  0  0  0  0
  130.1475  137.0822  159.1517 H   0  0  0  0  0  0  0  0  0  0  0  0
  129.9316  137.1938  162.6844 H   0  0  0  0  0  0  0  0  0  0  0  0
  130.2148  135.2625  164.1821 H   0  0  0  0  0  0  0  0  0  0  0  0
  130.9884  133.1061  163.2867 H   0  0  0  0  0  0  0  0  0  0  0  0
  131.9430  135.3174  158.6436 H   0  0  0  0  0  0  0  0  0  0  0  0
  130.4483  131.8007  156.1075 H   0  0  0  0  0  0  0  0  0  0  0  0
  129.2161  133.0470  155.7346 H   0  0  0  0  0  0  0  0  0  0  0  0
  129.2458  131.1710  157.9766 H   0  0  0  0  0  0  0  0  0  0  0  0
  128.0133  132.4179  157.6066 H   0  0  0  0  0  0  0  0  0  0  0  0
  129.3384  133.0747  159.7387 H   0  0  0  0  0  0  0  0  0  0  0  0
  134.9600  139.2770  158.5345 H   0  0  0  0  0  0  0  0  0  0  0  0
  1  2  1  0
  1 30  1  0
  1 31  1  0
  1 32  1  0
  2 29  2  0
  2  3  1  0
  3  4  2  0
  3 33  1  0
  4  5  1  0
  4 34  1  0
  5  6  2  0
  5 35  1  0
  6  7  1  0
  6 29  1  0
  7  8  1  0
  7 36  1  0
  8 13  1  0
  8  9  2  0
  9 10  1  0
  9 37  1  0
 10 11  2  0
 10 38  1  0
 11 12  1  0
 11 39  1  0
 12 13  2  0
 12 40  1  0
 13 14  1  0
 14 15  1  0
 14 41  1  0
 15 21  1  0
 15 16  2  0
 16 17  1  0
 16 42  1  0
 17 18  2  0
 17 43  1  0
 18 19  1  0
 18 44  1  0
 19 20  1  0
 19 21  2  0
 21 22  1  0
 22 23  1  0
 22 45  1  0
 23 28  2  0
 23 24  1  0
 24 25  1  0
 24 26  1  0
 26 27  1  0
 26 46  1  0
 26 47  1  0
 27 28  1  0
 27 48  1  0
 27 49  1  0
 28 50  1  0
 29 51  1  0
M  CHG  1  28   1
M  END
>  <DOCK_score>  (1) 
-59.048077

>  <SMILES>  (1) 
Cc1cccc(Nc2ccccc2Nc2cccc(Cl)c2NC2=[NH+]CCN2)c1

$$$$
