CCc1ccc(-c2c[nH]c(N[C@H](CCl)Cc3ccc(F)cc3)[nH+]2)cc1
     RDKit          3D

 47 49  0  0  1  0  0  0  0  0999 V2000
  129.9160  128.7693  150.9237 C   0  0  0  0  0  0  0  0  0  0  0  0
  131.1098  129.6516  151.2942 C   0  0  0  0  0  0  0  0  0  0  0  0
  130.8176  130.3774  152.5822 C   0  0  0  0  0  0  0  0  0  0  0  0
  131.1635  129.8015  153.7909 C   0  0  0  0  0  0  0  0  0  0  0  0
  130.9036  130.4640  154.9734 C   0  0  0  0  0  0  0  0  0  0  0  0
  130.2809  131.7106  154.9484 C   0  0  0  0  0  0  0  0  0  0  0  0
  129.9940  132.4250  156.2163 C   0  0  0  0  0  0  0  0  0  0  0  0
  129.2171  131.9701  157.2305 C   0  0  0  0  0  0  0  0  0  0  0  0
  129.2224  132.9404  158.2028 N   0  0  0  0  0  0  0  0  0  0  0  0
  128.7556  132.9050  159.0524 H   0  0  0  0  0  0  0  0  0  0  0  0
  130.0031  133.9608  157.7540 C   0  0  0  0  0  0  0  0  0  0  0  0
  130.2683  135.1345  158.4386 N   0  0  0  0  0  0  0  0  0  0  0  0
  129.6873  135.3560  159.7652 C   0  0  2  0  0  0  0  0  0  0  0  0
  129.7174  134.4272  160.3346 H   0  0  0  0  0  0  0  0  0  0  0  0
  128.2357  135.8159  159.6158 C   0  0  0  0  0  0  0  0  0  0  0  0
  127.1812  134.3866  159.3066 Cl  0  0  0  0  0  0  0  0  0  0  0  0
  130.4900  136.4314  160.5003 C   0  0  0  0  0  0  0  0  0  0  0  0
  131.7396  135.8184  161.0780 C   0  0  0  0  0  0  0  0  0  0  0  0
  132.2933  136.3379  162.2333 C   0  0  0  0  0  0  0  0  0  0  0  0
  133.4361  135.7730  162.7670 C   0  0  0  0  0  0  0  0  0  0  0  0
  134.0331  134.6940  162.1380 C   0  0  0  0  0  0  0  0  0  0  0  0
  135.1539  134.1449  162.6550 F   0  0  0  0  0  0  0  0  0  0  0  0
  133.4809  134.1780  160.9776 C   0  0  0  0  0  0  0  0  0  0  0  0
  132.3346  134.7406  160.4490 C   0  0  0  0  0  0  0  0  0  0  0  0
  130.4670  133.6466  156.5691 N   0  0  0  0  0  0  0  0  0  0  0  0
  131.0531  134.2002  156.0296 H   0  0  0  0  0  0  0  0  0  0  0  0
  129.9295  132.2839  153.7276 C   0  0  0  0  0  0  0  0  0  0  0  0
  130.1994  131.6149  152.5510 C   0  0  0  0  0  0  0  0  0  0  0  0
  130.1273  128.2445  149.9921 H   0  0  0  0  0  0  0  0  0  0  0  0
  129.7411  128.0435  151.7179 H   0  0  0  0  0  0  0  0  0  0  0  0
  129.0295  129.3909  150.7978 H   0  0  0  0  0  0  0  0  0  0  0  0
  131.9961  129.0308  151.4196 H   0  0  0  0  0  0  0  0  0  0  0  0
  131.2845  130.3781  150.4995 H   0  0  0  0  0  0  0  0  0  0  0  0
  131.6416  128.8333  153.8093 H   0  0  0  0  0  0  0  0  0  0  0  0
  131.1783  130.0153  155.9166 H   0  0  0  0  0  0  0  0  0  0  0  0
  128.6941  131.0259  157.2666 H   0  0  0  0  0  0  0  0  0  0  0  0
  130.8389  135.8101  158.0401 H   0  0  0  0  0  0  0  0  0  0  0  0
  127.9158  136.3121  160.5321 H   0  0  0  0  0  0  0  0  0  0  0  0
  128.1591  136.5115  158.7801 H   0  0  0  0  0  0  0  0  0  0  0  0
  130.7625  137.2224  159.8018 H   0  0  0  0  0  0  0  0  0  0  0  0
  129.8850  136.8497  161.3049 H   0  0  0  0  0  0  0  0  0  0  0  0
  131.8304  137.1828  162.7211 H   0  0  0  0  0  0  0  0  0  0  0  0
  133.8662  136.1764  163.6718 H   0  0  0  0  0  0  0  0  0  0  0  0
  133.9458  133.3364  160.4855 H   0  0  0  0  0  0  0  0  0  0  0  0
  131.9036  134.3384  159.5441 H   0  0  0  0  0  0  0  0  0  0  0  0
  129.4466  133.2497  153.7023 H   0  0  0  0  0  0  0  0  0  0  0  0
  129.9272  132.0581  151.6044 H   0  0  0  0  0  0  0  0  0  0  0  0
  1  2  1  0
  1 29  1  0
  1 30  1  0
  1 31  1  0
  2  3  1  0
  2 32  1  0
  2 33  1  0
  3 28  2  0
  3  4  1  0
  4  5  2  0
  4 34  1  0
  5  6  1  0
  5 35  1  0
  6  7  1  0
  6 27  2  0
  7 25  1  0
  7  8  2  0
  8  9  1  0
  8 36  1  0
  9 10  1  0
  9 11  1  0
 11 12  1  0
 11 25  2  0
 12 13  1  0
 12 37  1  0
 13 14  1  1
 13 15  1  0
 13 17  1  0
 15 16  1  0
 15 38  1  0
 15 39  1  0
 17 18  1  0
 17 40  1  0
 17 41  1  0
 18 24  1  0
 18 19  2  0
 19 20  1  0
 19 42  1  0
 20 21  2  0
 20 43  1  0
 21 22  1  0
 21 23  1  0
 23 24  2  0
 23 44  1  0
 24 45  1  0
 25 26  1  0
 27 28  1  0
 27 46  1  0
 28 47  1  0
M  CHG  1  25   1
M  END
>  <DOCK_score>  (1) 
-58.233356

>  <SMILES>  (1) 
CCc1ccc(-c2c[nH]c(N[C@H](CCl)Cc3ccc(F)cc3)[nH+]2)cc1

$$$$
