[NH3+][C@@H](Cc1cc(F)c(F)c(F)c1F)C(=O)Nc1c(Nc2ccccc2)ccc2c1CCCC2
     RDKit          3D

 57 60  0  0  1  0  0  0  0  0999 V2000
  133.4565  136.1935  159.4565 N   0  0  0  0  0  0  0  0  0  0  0  0
  132.9197  136.2721  158.6058 H   0  0  0  0  0  0  0  0  0  0  0  0
  134.2888  136.7590  159.3827 H   0  0  0  0  0  0  0  0  0  0  0  0
  133.7168  135.2294  159.6020 H   0  0  0  0  0  0  0  0  0  0  0  0
  132.6471  136.6585  160.5909 C   0  0  1  0  0  0  0  0  0  0  0  0
  133.2270  136.5735  161.5099 H   0  0  0  0  0  0  0  0  0  0  0  0
  132.2525  138.1202  160.3702 C   0  0  0  0  0  0  0  0  0  0  0  0
  133.4071  139.0141  160.7429 C   0  0  0  0  0  0  0  0  0  0  0  0
  133.5242  139.4878  162.0366 C   0  0  0  0  0  0  0  0  0  0  0  0
  134.5868  140.3040  162.3824 C   0  0  0  0  0  0  0  0  0  0  0  0
  134.7033  140.7612  163.6483 F   0  0  0  0  0  0  0  0  0  0  0  0
  135.5288  140.6570  161.4284 C   0  0  0  0  0  0  0  0  0  0  0  0
  136.5637  141.4581  161.7640 F   0  0  0  0  0  0  0  0  0  0  0  0
  135.4082  140.1871  160.1308 C   0  0  0  0  0  0  0  0  0  0  0  0
  136.3253  140.5295  159.1998 F   0  0  0  0  0  0  0  0  0  0  0  0
  134.3459  139.3648  159.7887 C   0  0  0  0  0  0  0  0  0  0  0  0
  134.2272  138.9055  158.5237 F   0  0  0  0  0  0  0  0  0  0  0  0
  131.4041  135.8137  160.7011 C   0  0  0  0  0  0  0  0  0  0  0  0
  131.4121  134.8089  161.3806 O   0  0  0  0  0  0  0  0  0  0  0  0
  130.2838  136.1745  160.0446 N   0  0  0  0  0  0  0  0  0  0  0  0
  129.1279  135.3890  160.1471 C   0  0  0  0  0  0  0  0  0  0  0  0
  128.9074  134.3593  159.2362 C   0  0  0  0  0  0  0  0  0  0  0  0
  129.8344  134.1084  158.2189 N   0  0  0  0  0  0  0  0  0  0  0  0
  130.4627  132.8636  158.1378 C   0  0  0  0  0  0  0  0  0  0  0  0
  130.8543  132.3604  156.9034 C   0  0  0  0  0  0  0  0  0  0  0  0
  131.4807  131.1320  156.8276 C   0  0  0  0  0  0  0  0  0  0  0  0
  131.7078  130.3976  157.9773 C   0  0  0  0  0  0  0  0  0  0  0  0
  131.3137  130.8928  159.2069 C   0  0  0  0  0  0  0  0  0  0  0  0
  130.6923  132.1231  159.2908 C   0  0  0  0  0  0  0  0  0  0  0  0
  127.7652  133.5801  159.3479 C   0  0  0  0  0  0  0  0  0  0  0  0
  126.8530  133.8417  160.3502 C   0  0  0  0  0  0  0  0  0  0  0  0
  127.0667  134.8739  161.2541 C   0  0  0  0  0  0  0  0  0  0  0  0
  128.2029  135.6464  161.1561 C   0  0  0  0  0  0  0  0  0  0  0  0
  128.5014  136.7745  162.1087 C   0  0  0  0  0  0  0  0  0  0  0  0
  127.2367  137.1982  162.8529 C   0  0  0  0  0  0  0  0  0  0  0  0
  126.5876  135.9463  163.4546 C   0  0  0  0  0  0  0  0  0  0  0  0
  126.0212  135.1022  162.3146 C   0  0  0  0  0  0  0  0  0  0  0  0
  131.3905  138.3617  160.9923 H   0  0  0  0  0  0  0  0  0  0  0  0
  131.9980  138.2735  159.3215 H   0  0  0  0  0  0  0  0  0  0  0  0
  132.7880  139.2170  162.7790 H   0  0  0  0  0  0  0  0  0  0  0  0
  130.2775  136.9780  159.5011 H   0  0  0  0  0  0  0  0  0  0  0  0
  130.0408  134.7991  157.5698 H   0  0  0  0  0  0  0  0  0  0  0  0
  130.6730  132.9312  156.0047 H   0  0  0  0  0  0  0  0  0  0  0  0
  131.7897  130.7424  155.8688 H   0  0  0  0  0  0  0  0  0  0  0  0
  132.1935  129.4351  157.9146 H   0  0  0  0  0  0  0  0  0  0  0  0
  131.4926  130.3166  160.1027 H   0  0  0  0  0  0  0  0  0  0  0  0
  130.3849  132.5092  160.2513 H   0  0  0  0  0  0  0  0  0  0  0  0
  127.5884  132.7746  158.6504 H   0  0  0  0  0  0  0  0  0  0  0  0
  125.9627  133.2355  160.4315 H   0  0  0  0  0  0  0  0  0  0  0  0
  129.2502  136.4471  162.8302 H   0  0  0  0  0  0  0  0  0  0  0  0
  128.8907  137.6245  161.5485 H   0  0  0  0  0  0  0  0  0  0  0  0
  127.4956  137.8963  163.6490 H   0  0  0  0  0  0  0  0  0  0  0  0
  126.5438  137.6733  162.1583 H   0  0  0  0  0  0  0  0  0  0  0  0
  127.3355  135.3712  164.0005 H   0  0  0  0  0  0  0  0  0  0  0  0
  125.7833  136.2382  164.1299 H   0  0  0  0  0  0  0  0  0  0  0  0
  125.6927  134.1404  162.7084 H   0  0  0  0  0  0  0  0  0  0  0  0
  125.1694  135.6198  161.8733 H   0  0  0  0  0  0  0  0  0  0  0  0
  1  2  1  0
  1  3  1  0
  1  4  1  0
  1  5  1  0
  5  6  1  1
  5  7  1  0
  5 18  1  0
  7  8  1  0
  7 38  1  0
  7 39  1  0
  8 16  1  0
  8  9  2  0
  9 10  1  0
  9 40  1  0
 10 11  1  0
 10 12  2  0
 12 13  1  0
 12 14  1  0
 14 15  1  0
 14 16  2  0
 16 17  1  0
 18 19  2  0
 18 20  1  0
 20 21  1  0
 20 41  1  0
 21 33  2  0
 21 22  1  0
 22 23  1  0
 22 30  2  0
 23 24  1  0
 23 42  1  0
 24 29  1  0
 24 25  2  0
 25 26  1  0
 25 43  1  0
 26 27  2  0
 26 44  1  0
 27 28  1  0
 27 45  1  0
 28 29  2  0
 28 46  1  0
 29 47  1  0
 30 31  1  0
 30 48  1  0
 31 32  2  0
 31 49  1  0
 32 37  1  0
 32 33  1  0
 33 34  1  0
 34 35  1  0
 34 50  1  0
 34 51  1  0
 35 36  1  0
 35 52  1  0
 35 53  1  0
 36 37  1  0
 36 54  1  0
 36 55  1  0
 37 56  1  0
 37 57  1  0
M  CHG  1   1   1
M  END
>  <DOCK_score>  (1) 
-57.887161

>  <SMILES>  (1) 
[NH3+][C@@H](Cc1cc(F)c(F)c(F)c1F)C(=O)Nc1c(Nc2ccccc2)ccc2c1CCCC2

$$$$
