O=C(C1=CCCCC1)c1ccc(CNc2ccc(-c3n[nH]cc3C[NH2+][C@H]3C[C@@H](CO)C3)o2)cc1
     RDKit          3D

 67 71  0  0  1  0  0  0  0  0999 V2000
  130.2872  136.0640  168.0558 O   0  0  0  0  0  0  0  0  0  0  0  0
  129.1212  136.2566  167.7683 C   0  0  0  0  0  0  0  0  0  0  0  0
  128.0761  136.0923  168.7884 C   0  0  0  0  0  0  0  0  0  0  0  0
  128.1331  136.8515  169.8640 C   0  0  0  0  0  0  0  0  0  0  0  0
  127.1391  136.7837  170.9866 C   0  0  0  0  0  0  0  0  0  0  0  0
  125.8724  136.0597  170.5255 C   0  0  0  0  0  0  0  0  0  0  0  0
  126.2813  134.7432  169.8534 C   0  0  0  0  0  0  0  0  0  0  0  0
  127.0015  135.0736  168.5425 C   0  0  0  0  0  0  0  0  0  0  0  0
  128.7553  136.6560  166.3929 C   0  0  0  0  0  0  0  0  0  0  0  0
  127.6316  137.4546  166.1698 C   0  0  0  0  0  0  0  0  0  0  0  0
  127.2956  137.8232  164.8838 C   0  0  0  0  0  0  0  0  0  0  0  0
  128.0691  137.4033  163.8159 C   0  0  0  0  0  0  0  0  0  0  0  0
  127.6956  137.8097  162.4137 C   0  0  0  0  0  0  0  0  0  0  0  0
  126.7936  136.8085  161.8390 N   0  0  0  0  0  0  0  0  0  0  0  0
  127.3127  135.7261  161.1380 C   0  0  0  0  0  0  0  0  0  0  0  0
  126.5888  134.7321  160.5655 C   0  0  0  0  0  0  0  0  0  0  0  0
  127.5068  133.8501  159.9620 C   0  0  0  0  0  0  0  0  0  0  0  0
  128.7482  134.3475  160.2047 C   0  0  0  0  0  0  0  0  0  0  0  0
  130.0232  133.7461  159.7621 C   0  0  0  0  0  0  0  0  0  0  0  0
  130.1566  132.6387  159.0590 N   0  0  0  0  0  0  0  0  0  0  0  0
  131.5240  132.4182  158.8506 N   0  0  0  0  0  0  0  0  0  0  0  0
  131.9126  131.6746  158.3638 H   0  0  0  0  0  0  0  0  0  0  0  0
  132.2080  133.4196  159.4451 C   0  0  0  0  0  0  0  0  0  0  0  0
  131.3140  134.2582  160.0113 C   0  0  0  0  0  0  0  0  0  0  0  0
  131.6375  135.5159  160.7761 C   0  0  0  0  0  0  0  0  0  0  0  0
  131.6795  136.6551  159.8498 N   0  0  0  0  0  0  0  0  0  0  0  0
  132.3894  136.4944  159.1510 H   0  0  0  0  0  0  0  0  0  0  0  0
  130.7819  136.7565  159.4002 H   0  0  0  0  0  0  0  0  0  0  0  0
  131.9949  137.8810  160.5953 C   0  0  1  0  0  0  0  0  0  0  0  0
  131.2601  138.1075  161.3678 H   0  0  0  0  0  0  0  0  0  0  0  0
  133.4499  137.9445  161.0890 C   0  0  0  0  0  0  0  0  0  0  0  0
  133.4312  139.4345  160.7087 C   0  0  1  0  0  0  0  0  0  0  0  0
  133.0904  140.0873  161.5124 H   0  0  0  0  0  0  0  0  0  0  0  0
  134.7302  139.9181  160.0610 C   0  0  0  0  0  0  0  0  0  0  0  0
  135.2175  138.9167  159.1656 O   0  0  0  0  0  0  0  0  0  0  0  0
  132.3312  139.0808  159.6941 C   0  0  0  0  0  0  0  0  0  0  0  0
  128.6165  135.4851  160.9187 O   0  0  0  0  0  0  0  0  0  0  0  0
  129.1807  136.6072  164.0292 C   0  0  0  0  0  0  0  0  0  0  0  0
  129.5317  136.2363  165.3106 C   0  0  0  0  0  0  0  0  0  0  0  0
  128.9414  137.5634  169.9421 H   0  0  0  0  0  0  0  0  0  0  0  0
  127.5783  136.2446  171.8261 H   0  0  0  0  0  0  0  0  0  0  0  0
  126.8824  137.7945  171.3035 H   0  0  0  0  0  0  0  0  0  0  0  0
  125.2370  135.8497  171.3858 H   0  0  0  0  0  0  0  0  0  0  0  0
  125.3335  136.6831  169.8120 H   0  0  0  0  0  0  0  0  0  0  0  0
  126.9489  134.1877  170.5121 H   0  0  0  0  0  0  0  0  0  0  0  0
  125.3927  134.1486  169.6420 H   0  0  0  0  0  0  0  0  0  0  0  0
  126.2853  135.4702  167.8230 H   0  0  0  0  0  0  0  0  0  0  0  0
  127.4499  134.1653  168.1399 H   0  0  0  0  0  0  0  0  0  0  0  0
  127.0270  137.7830  167.0023 H   0  0  0  0  0  0  0  0  0  0  0  0
  126.4268  138.4408  164.7099 H   0  0  0  0  0  0  0  0  0  0  0  0
  127.1960  138.7781  162.4369 H   0  0  0  0  0  0  0  0  0  0  0  0
  128.5962  137.8799  161.8037 H   0  0  0  0  0  0  0  0  0  0  0  0
  125.8341  136.9010  161.9475 H   0  0  0  0  0  0  0  0  0  0  0  0
  125.5130  134.6361  160.5697 H   0  0  0  0  0  0  0  0  0  0  0  0
  127.2698  132.9498  159.4148 H   0  0  0  0  0  0  0  0  0  0  0  0
  133.2819  133.5323  159.4611 H   0  0  0  0  0  0  0  0  0  0  0  0
  130.8705  135.6894  161.5309 H   0  0  0  0  0  0  0  0  0  0  0  0
  132.6071  135.4065  161.2618 H   0  0  0  0  0  0  0  0  0  0  0  0
  133.5559  137.7683  162.1595 H   0  0  0  0  0  0  0  0  0  0  0  0
  134.1404  137.3499  160.4908 H   0  0  0  0  0  0  0  0  0  0  0  0
  134.5399  140.8382  159.5083 H   0  0  0  0  0  0  0  0  0  0  0  0
  135.4740  140.1064  160.8352 H   0  0  0  0  0  0  0  0  0  0  0  0
  134.6057  138.6980  158.4493 H   0  0  0  0  0  0  0  0  0  0  0  0
  132.7157  138.7968  158.7145 H   0  0  0  0  0  0  0  0  0  0  0  0
  131.5339  139.8220  159.6382 H   0  0  0  0  0  0  0  0  0  0  0  0
  129.7773  136.2789  163.1909 H   0  0  0  0  0  0  0  0  0  0  0  0
  130.4017  135.6184  165.4761 H   0  0  0  0  0  0  0  0  0  0  0  0
  1  2  2  0
  2  3  1  0
  2  9  1  0
  3  8  1  0
  3  4  2  0
  4  5  1  0
  4 40  1  0
  5  6  1  0
  5 41  1  0
  5 42  1  0
  6  7  1  0
  6 43  1  0
  6 44  1  0
  7  8  1  0
  7 45  1  0
  7 46  1  0
  8 47  1  0
  8 48  1  0
  9 39  1  0
  9 10  2  0
 10 11  1  0
 10 49  1  0
 11 12  2  0
 11 50  1  0
 12 13  1  0
 12 38  1  0
 13 14  1  0
 13 51  1  0
 13 52  1  0
 14 15  1  0
 14 53  1  0
 15 37  1  0
 15 16  2  0
 16 17  1  0
 16 54  1  0
 17 18  2  0
 17 55  1  0
 18 19  1  0
 18 37  1  0
 19 24  1  0
 19 20  2  0
 20 21  1  0
 21 22  1  0
 21 23  1  0
 23 24  2  0
 23 56  1  0
 24 25  1  0
 25 26  1  0
 25 57  1  0
 25 58  1  0
 26 27  1  0
 26 28  1  0
 26 29  1  0
 29 30  1  1
 29 36  1  0
 29 31  1  0
 31 32  1  0
 31 59  1  0
 31 60  1  0
 32 33  1  1
 32 34  1  0
 32 36  1  0
 34 35  1  0
 34 61  1  0
 34 62  1  0
 35 63  1  0
 36 64  1  0
 36 65  1  0
 38 39  2  0
 38 66  1  0
 39 67  1  0
M  CHG  1  26   1
M  END
>  <DOCK_score>  (1) 
-42.509117

>  <SMILES>  (1) 
O=C(C1=CCCCC1)c1ccc(CNc2ccc(-c3n[nH]cc3C[NH2+][C@H]3C[C@@H](CO)C3)o2)cc1

$$$$
