Oc1ccc(SC[C@@H]2C=CCC2)c(Nc2[nH]cc(-c3ccc(Br)cc3)[nH+]2)c1
     RDKit          3D

 48 51  0  0  1  0  0  0  0  0999 V2000
  125.9025  135.3337  160.7745 O   0  0  0  0  0  0  0  0  0  0  0  0
  127.1895  135.7731  160.7661 C   0  0  0  0  0  0  0  0  0  0  0  0
  127.6236  136.6638  161.7368 C   0  0  0  0  0  0  0  0  0  0  0  0
  128.9309  137.1133  161.7318 C   0  0  0  0  0  0  0  0  0  0  0  0
  129.8111  136.6781  160.7522 C   0  0  0  0  0  0  0  0  0  0  0  0
  131.4755  137.2562  160.7418 S   0  0  0  0  0  0  0  0  0  0  0  0
  131.2829  139.0513  160.5650 C   0  0  0  0  0  0  0  0  0  0  0  0
  132.6625  139.7122  160.5390 C   0  0  2  0  0  0  0  0  0  0  0  0
  132.5632  140.7925  160.4330 H   0  0  0  0  0  0  0  0  0  0  0  0
  133.4967  139.1451  159.4139 C   0  0  0  0  0  0  0  0  0  0  0  0
  134.7106  138.8824  159.8152 C   0  0  0  0  0  0  0  0  0  0  0  0
  134.8884  139.2306  161.2747 C   0  0  0  0  0  0  0  0  0  0  0  0
  133.4496  139.3671  161.8245 C   0  0  0  0  0  0  0  0  0  0  0  0
  129.3780  135.7784  159.7781 C   0  0  0  0  0  0  0  0  0  0  0  0
  130.2650  135.3333  158.7901 N   0  0  0  0  0  0  0  0  0  0  0  0
  130.1116  134.0720  158.2392 C   0  0  0  0  0  0  0  0  0  0  0  0
  129.5969  132.9852  158.8773 N   0  0  0  0  0  0  0  0  0  0  0  0
  129.2744  132.9550  159.7915 H   0  0  0  0  0  0  0  0  0  0  0  0
  129.6160  131.9399  157.9864 C   0  0  0  0  0  0  0  0  0  0  0  0
  130.1492  132.4151  156.8334 C   0  0  0  0  0  0  0  0  0  0  0  0
  130.3712  131.6384  155.5892 C   0  0  0  0  0  0  0  0  0  0  0  0
  129.7446  132.0213  154.4046 C   0  0  0  0  0  0  0  0  0  0  0  0
  129.9593  131.2988  153.2486 C   0  0  0  0  0  0  0  0  0  0  0  0
  130.7858  130.1885  153.2670 C   0  0  0  0  0  0  0  0  0  0  0  0
  131.0685  129.1987  151.6808 Br  0  0  0  0  0  0  0  0  0  0  0  0
  131.4061  129.8009  154.4420 C   0  0  0  0  0  0  0  0  0  0  0  0
  131.2027  130.5199  155.6020 C   0  0  0  0  0  0  0  0  0  0  0  0
  130.4433  133.7261  157.0190 N   0  0  0  0  0  0  0  0  0  0  0  0
  130.8364  134.3138  156.3550 H   0  0  0  0  0  0  0  0  0  0  0  0
  128.0657  135.3304  159.7868 C   0  0  0  0  0  0  0  0  0  0  0  0
  125.6929  134.7167  160.0600 H   0  0  0  0  0  0  0  0  0  0  0  0
  126.9387  137.0070  162.4981 H   0  0  0  0  0  0  0  0  0  0  0  0
  129.2658  137.8073  162.4885 H   0  0  0  0  0  0  0  0  0  0  0  0
  130.7575  139.2705  159.6355 H   0  0  0  0  0  0  0  0  0  0  0  0
  130.7096  139.4399  161.4067 H   0  0  0  0  0  0  0  0  0  0  0  0
  133.1357  138.9785  158.4097 H   0  0  0  0  0  0  0  0  0  0  0  0
  135.4860  138.4700  159.1868 H   0  0  0  0  0  0  0  0  0  0  0  0
  135.4252  140.1737  161.3775 H   0  0  0  0  0  0  0  0  0  0  0  0
  135.4197  138.4337  161.7951 H   0  0  0  0  0  0  0  0  0  0  0  0
  133.3838  140.1758  162.5525 H   0  0  0  0  0  0  0  0  0  0  0  0
  133.1035  138.4272  162.2547 H   0  0  0  0  0  0  0  0  0  0  0  0
  130.9867  135.9084  158.4915 H   0  0  0  0  0  0  0  0  0  0  0  0
  129.2757  130.9316  158.1702 H   0  0  0  0  0  0  0  0  0  0  0  0
  129.0956  132.8845  154.3904 H   0  0  0  0  0  0  0  0  0  0  0  0
  129.4774  131.5970  152.3292 H   0  0  0  0  0  0  0  0  0  0  0  0
  132.0498  128.9338  154.4510 H   0  0  0  0  0  0  0  0  0  0  0  0
  131.6874  130.2167  156.5184 H   0  0  0  0  0  0  0  0  0  0  0  0
  127.7265  134.6370  159.0314 H   0  0  0  0  0  0  0  0  0  0  0  0
  1  2  1  0
  1 31  1  0
  2 30  2  0
  2  3  1  0
  3  4  2  0
  3 32  1  0
  4  5  1  0
  4 33  1  0
  5  6  1  0
  5 14  2  0
  6  7  1  0
  7  8  1  0
  7 34  1  0
  7 35  1  0
  8  9  1  6
  8 13  1  0
  8 10  1  0
 10 11  2  0
 10 36  1  0
 11 12  1  0
 11 37  1  0
 12 13  1  0
 12 38  1  0
 12 39  1  0
 13 40  1  0
 13 41  1  0
 14 15  1  0
 14 30  1  0
 15 42  1  0
 16 15  1  0
 16 28  2  0
 16 17  1  0
 17 18  1  0
 17 19  1  0
 19 20  2  0
 19 43  1  0
 20 21  1  0
 20 28  1  0
 21 27  1  0
 21 22  2  0
 22 23  1  0
 22 44  1  0
 23 24  2  0
 23 45  1  0
 24 25  1  0
 24 26  1  0
 26 27  2  0
 26 46  1  0
 27 47  1  0
 28 29  1  0
 30 48  1  0
M  CHG  1  28   1
M  END
>  <DOCK_score>  (1) 
-57.301037

>  <SMILES>  (1) 
Oc1ccc(SC[C@@H]2C=CCC2)c(Nc2[nH]cc(-c3ccc(Br)cc3)[nH+]2)c1

$$$$
