CCc1ccc(-c2c[nH]c(NC(c3cccc(F)c3[N+](=O)[O-])[C@H]3CCCC3O)[nH+]2)cc1
     RDKit          3D

 57 60  0  0  1  0  0  0  0  0999 V2000
  131.6020  130.0617  152.1822 C   0  0  0  0  0  0  0  0  0  0  0  0
  130.4405  129.6880  153.1055 C   0  0  0  0  0  0  0  0  0  0  0  0
  130.5311  130.4920  154.3769 C   0  0  0  0  0  0  0  0  0  0  0  0
  129.9014  131.7200  154.4627 C   0  0  0  0  0  0  0  0  0  0  0  0
  129.9773  132.4578  155.6265 C   0  0  0  0  0  0  0  0  0  0  0  0
  130.6986  131.9674  156.7136 C   0  0  0  0  0  0  0  0  0  0  0  0
  130.7876  132.7579  157.9655 C   0  0  0  0  0  0  0  0  0  0  0  0
  130.3568  132.3648  159.1899 C   0  0  0  0  0  0  0  0  0  0  0  0
  130.6341  133.3920  160.0588 N   0  0  0  0  0  0  0  0  0  0  0  0
  130.4441  133.4071  161.0099 H   0  0  0  0  0  0  0  0  0  0  0  0
  131.2190  134.3871  159.3378 C   0  0  0  0  0  0  0  0  0  0  0  0
  131.6475  135.6032  159.8417 N   0  0  0  0  0  0  0  0  0  0  0  0
  131.4848  135.9040  161.2663 C   0  0  2  0  0  0  0  0  0  0  0  0
  130.0222  135.8558  161.6260 C   0  0  0  0  0  0  0  0  0  0  0  0
  129.0670  136.1787  160.6799 C   0  0  0  0  0  0  0  0  0  0  0  0
  127.7250  136.1347  161.0081 C   0  0  0  0  0  0  0  0  0  0  0  0
  127.3364  135.7687  162.2831 C   0  0  0  0  0  0  0  0  0  0  0  0
  128.2920  135.4456  163.2313 C   0  0  0  0  0  0  0  0  0  0  0  0
  127.9134  135.0874  164.4777 F   0  0  0  0  0  0  0  0  0  0  0  0
  129.6360  135.4837  162.8994 C   0  0  0  0  0  0  0  0  0  0  0  0
  130.6584  135.1323  163.9101 N   0  0  0  0  0  0  0  0  0  0  0  0
  131.8405  135.1710  163.6195 O   0  0  0  0  0  0  0  0  0  0  0  0
  130.3177  134.8043  165.0325 O   0  0  0  0  0  0  0  0  0  0  0  0
  132.0362  137.3009  161.5588 C   0  0  1  0  0  0  0  0  0  0  0  0
  131.9196  137.5341  162.6171 H   0  0  0  0  0  0  0  0  0  0  0  0
  133.5215  137.3747  161.1633 C   0  0  0  0  0  0  0  0  0  0  0  0
  133.6352  138.4661  160.0791 C   0  0  0  0  0  0  0  0  0  0  0  0
  132.4007  139.3701  160.3192 C   0  0  0  0  0  0  0  0  0  0  0  0
  131.2994  138.3501  160.7010 C   0  0  2  0  0  0  0  0  0  0  0  0
  130.2711  138.9861  161.4628 O   0  0  0  0  0  0  0  0  0  0  0  0
  131.3090  134.0045  158.0874 N   0  0  0  0  0  0  0  0  0  0  0  0
  131.6876  134.5289  157.3646 H   0  0  0  0  0  0  0  0  0  0  0  0
  131.3356  130.7313  156.6201 C   0  0  0  0  0  0  0  0  0  0  0  0
  131.2491  129.9999  155.4530 C   0  0  0  0  0  0  0  0  0  0  0  0
  131.5363  129.4806  151.2624 H   0  0  0  0  0  0  0  0  0  0  0  0
  132.5467  129.8462  152.6813 H   0  0  0  0  0  0  0  0  0  0  0  0
  131.5502  131.1243  151.9452 H   0  0  0  0  0  0  0  0  0  0  0  0
  129.4958  129.9035  152.6064 H   0  0  0  0  0  0  0  0  0  0  0  0
  130.4922  128.6253  153.3425 H   0  0  0  0  0  0  0  0  0  0  0  0
  129.3458  132.1006  153.6184 H   0  0  0  0  0  0  0  0  0  0  0  0
  129.4820  133.4151  155.6933 H   0  0  0  0  0  0  0  0  0  0  0  0
  129.8878  131.4234  159.4352 H   0  0  0  0  0  0  0  0  0  0  0  0
  132.0554  136.2562  159.2516 H   0  0  0  0  0  0  0  0  0  0  0  0
  132.0288  135.1675  161.8576 H   0  0  0  0  0  0  0  0  0  0  0  0
  129.3695  136.4653  159.6835 H   0  0  0  0  0  0  0  0  0  0  0  0
  126.9797  136.3868  160.2683 H   0  0  0  0  0  0  0  0  0  0  0  0
  126.2879  135.7349  162.5396 H   0  0  0  0  0  0  0  0  0  0  0  0
  134.1256  137.6445  162.0295 H   0  0  0  0  0  0  0  0  0  0  0  0
  133.8495  136.4153  160.7632 H   0  0  0  0  0  0  0  0  0  0  0  0
  134.5557  139.0358  160.2064 H   0  0  0  0  0  0  0  0  0  0  0  0
  133.5950  138.0216  159.0847 H   0  0  0  0  0  0  0  0  0  0  0  0
  132.5843  140.0652  161.1385 H   0  0  0  0  0  0  0  0  0  0  0  0
  132.1338  139.9088  159.4099 H   0  0  0  0  0  0  0  0  0  0  0  0
  130.8818  137.8870  159.8070 H   0  0  0  0  0  0  0  0  0  0  0  0
  130.5928  139.4486  162.2488 H   0  0  0  0  0  0  0  0  0  0  0  0
  131.8961  130.3466  157.4592 H   0  0  0  0  0  0  0  0  0  0  0  0
  131.7422  129.0419  155.3794 H   0  0  0  0  0  0  0  0  0  0  0  0
  1  2  1  0
  1 35  1  0
  1 36  1  0
  1 37  1  0
  2  3  1  0
  2 38  1  0
  2 39  1  0
  3 34  2  0
  3  4  1  0
  4  5  2  0
  4 40  1  0
  5  6  1  0
  5 41  1  0
  6  7  1  0
  6 33  2  0
  7 31  1  0
  7  8  2  0
  8  9  1  0
  8 42  1  0
  9 10  1  0
  9 11  1  0
 11 12  1  0
 11 31  2  0
 12 13  1  0
 12 43  1  0
 13 14  1  0
 13 24  1  0
 13 44  1  1
 14 20  1  0
 14 15  2  0
 15 16  1  0
 15 45  1  0
 16 17  2  0
 16 46  1  0
 17 18  1  0
 17 47  1  0
 18 19  1  0
 18 20  2  0
 20 21  1  0
 21 22  2  0
 21 23  1  0
 24 25  1  1
 24 29  1  0
 24 26  1  0
 26 27  1  0
 26 48  1  0
 26 49  1  0
 27 28  1  0
 27 50  1  0
 27 51  1  0
 28 29  1  0
 28 52  1  0
 28 53  1  0
 29 30  1  0
 29 54  1  6
 30 55  1  0
 31 32  1  0
 33 34  1  0
 33 56  1  0
 34 57  1  0
M  CHG  3  21   1  23  -1  31   1
M  END
>  <DOCK_score>  (1) 
-57.380989

>  <SMILES>  (1) 
CCc1ccc(-c2c[nH]c(NC(c3cccc(F)c3[N+](=O)[O-])[C@H]3CCCC3O)[nH+]2)cc1

$$$$
