C1=C(Cc2cccc(C3=CC[N@H+](Cc4ccc(-c5ccccc5)[nH]4)CC3)c2)CCOC1
     RDKit          3D

 62 66  0  0  1  0  0  0  0  0999 V2000
  136.5392  136.2165  165.2286 C   0  0  0  0  0  0  0  0  0  0  0  0
  137.0284  136.4405  164.0455 C   0  0  0  0  0  0  0  0  0  0  0  0
  137.2016  137.8670  163.5910 C   0  0  0  0  0  0  0  0  0  0  0  0
  136.3834  138.1009  162.3473 C   0  0  0  0  0  0  0  0  0  0  0  0
  136.8015  139.0292  161.4103 C   0  0  0  0  0  0  0  0  0  0  0  0
  136.0560  139.2497  160.2661 C   0  0  0  0  0  0  0  0  0  0  0  0
  134.8890  138.5448  160.0528 C   0  0  0  0  0  0  0  0  0  0  0  0
  134.4618  137.6077  160.9939 C   0  0  0  0  0  0  0  0  0  0  0  0
  133.2095  136.8535  160.7747 C   0  0  0  0  0  0  0  0  0  0  0  0
  132.0799  137.5185  160.6633 C   0  0  0  0  0  0  0  0  0  0  0  0
  130.7554  136.8472  160.4405 C   0  0  0  0  0  0  0  0  0  0  0  0
  130.9504  135.4756  159.9560 N   0  0  2  0  0  0  0  0  0  0  0  0
  131.3473  135.4970  159.0286 H   0  0  0  0  0  0  0  0  0  0  0  0
  129.6581  134.7780  159.9219 C   0  0  0  0  0  0  0  0  0  0  0  0
  129.7518  133.5919  158.9971 C   0  0  0  0  0  0  0  0  0  0  0  0
  129.2903  132.3496  159.2576 C   0  0  0  0  0  0  0  0  0  0  0  0
  129.5729  131.5464  158.1408 C   0  0  0  0  0  0  0  0  0  0  0  0
  130.2128  132.3304  157.2286 C   0  0  0  0  0  0  0  0  0  0  0  0
  130.7027  131.8990  155.9017 C   0  0  0  0  0  0  0  0  0  0  0  0
  130.7534  132.8081  154.8441 C   0  0  0  0  0  0  0  0  0  0  0  0
  131.2178  132.4010  153.6103 C   0  0  0  0  0  0  0  0  0  0  0  0
  131.6205  131.0916  153.4170 C   0  0  0  0  0  0  0  0  0  0  0  0
  131.5670  130.1839  154.4599 C   0  0  0  0  0  0  0  0  0  0  0  0
  131.1109  130.5799  155.7003 C   0  0  0  0  0  0  0  0  0  0  0  0
  130.3217  133.5904  157.7589 N   0  0  0  0  0  0  0  0  0  0  0  0
  130.7355  134.3531  157.3254 H   0  0  0  0  0  0  0  0  0  0  0  0
  131.8662  134.7716  160.8675 C   0  0  0  0  0  0  0  0  0  0  0  0
  133.2715  135.3531  160.6931 C   0  0  0  0  0  0  0  0  0  0  0  0
  135.2186  137.3896  162.1460 C   0  0  0  0  0  0  0  0  0  0  0  0
  137.4341  135.3309  163.1151 C   0  0  0  0  0  0  0  0  0  0  0  0
  137.5674  134.0240  163.9018 C   0  0  0  0  0  0  0  0  0  0  0  0
  136.4030  133.8700  164.7229 O   0  0  0  0  0  0  0  0  0  0  0  0
  136.3304  134.8331  165.7759 C   0  0  0  0  0  0  0  0  0  0  0  0
  136.2672  137.0617  165.8436 H   0  0  0  0  0  0  0  0  0  0  0  0
  138.2533  138.0543  163.3746 H   0  0  0  0  0  0  0  0  0  0  0  0
  136.8669  138.5423  164.3784 H   0  0  0  0  0  0  0  0  0  0  0  0
  137.7138  139.5838  161.5728 H   0  0  0  0  0  0  0  0  0  0  0  0
  136.3879  139.9754  159.5384 H   0  0  0  0  0  0  0  0  0  0  0  0
  134.3075  138.7184  159.1594 H   0  0  0  0  0  0  0  0  0  0  0  0
  132.1069  138.5960  160.7313 H   0  0  0  0  0  0  0  0  0  0  0  0
  130.1820  137.4112  159.7049 H   0  0  0  0  0  0  0  0  0  0  0  0
  130.2078  136.8224  161.3825 H   0  0  0  0  0  0  0  0  0  0  0  0
  129.4026  134.4372  160.9253 H   0  0  0  0  0  0  0  0  0  0  0  0
  128.8869  135.4592  159.5623 H   0  0  0  0  0  0  0  0  0  0  0  0
  128.7917  132.0316  160.1613 H   0  0  0  0  0  0  0  0  0  0  0  0
  129.3316  130.4999  158.0278 H   0  0  0  0  0  0  0  0  0  0  0  0
  130.4345  133.8292  154.9922 H   0  0  0  0  0  0  0  0  0  0  0  0
  131.2624  133.1047  152.7924 H   0  0  0  0  0  0  0  0  0  0  0  0
  131.9787  130.7767  152.4481 H   0  0  0  0  0  0  0  0  0  0  0  0
  131.8831  129.1632  154.3026 H   0  0  0  0  0  0  0  0  0  0  0  0
  131.0702  129.8704  156.5136 H   0  0  0  0  0  0  0  0  0  0  0  0
  131.8774  133.7087  160.6260 H   0  0  0  0  0  0  0  0  0  0  0  0
  131.5386  134.9092  161.8980 H   0  0  0  0  0  0  0  0  0  0  0  0
  133.6684  135.0583  159.7217 H   0  0  0  0  0  0  0  0  0  0  0  0
  133.9217  134.9732  161.4813 H   0  0  0  0  0  0  0  0  0  0  0  0
  134.8930  136.6658  162.8784 H   0  0  0  0  0  0  0  0  0  0  0  0
  136.6771  135.2123  162.3399 H   0  0  0  0  0  0  0  0  0  0  0  0
  138.3906  135.5758  162.6534 H   0  0  0  0  0  0  0  0  0  0  0  0
  137.6425  133.1851  163.2100 H   0  0  0  0  0  0  0  0  0  0  0  0
  138.4575  134.0627  164.5299 H   0  0  0  0  0  0  0  0  0  0  0  0
  135.3519  134.7743  166.2527 H   0  0  0  0  0  0  0  0  0  0  0  0
  137.1048  134.6215  166.5132 H   0  0  0  0  0  0  0  0  0  0  0  0
  1 33  1  0
  1  2  2  0
  1 34  1  0
  2  3  1  0
  2 30  1  0
  3  4  1  0
  3 35  1  0
  3 36  1  0
  4 29  1  0
  4  5  2  0
  5  6  1  0
  5 37  1  0
  6  7  2  0
  6 38  1  0
  7  8  1  0
  7 39  1  0
  8  9  1  0
  8 29  2  0
  9 28  1  0
  9 10  2  0
 10 11  1  0
 10 40  1  0
 11 12  1  0
 11 41  1  0
 11 42  1  0
 12 13  1  6
 12 14  1  0
 12 27  1  0
 14 15  1  0
 14 43  1  0
 14 44  1  0
 15 25  1  0
 15 16  2  0
 16 17  1  0
 16 45  1  0
 17 18  2  0
 17 46  1  0
 18 19  1  0
 18 25  1  0
 19 24  1  0
 19 20  2  0
 20 21  1  0
 20 47  1  0
 21 22  2  0
 21 48  1  0
 22 23  1  0
 22 49  1  0
 23 24  2  0
 23 50  1  0
 24 51  1  0
 25 26  1  0
 27 28  1  0
 27 52  1  0
 27 53  1  0
 28 54  1  0
 28 55  1  0
 29 56  1  0
 30 31  1  0
 30 57  1  0
 30 58  1  0
 31 32  1  0
 31 59  1  0
 31 60  1  0
 32 33  1  0
 33 61  1  0
 33 62  1  0
M  CHG  1  12   1
M  END
>  <DOCK_score>  (1) 
-60.60796

>  <SMILES>  (1) 
C1=C(Cc2cccc(C3=CC[N@H+](Cc4ccc(-c5ccccc5)[nH]4)CC3)c2)CCOC1

$$$$
