CCc1ccc(-c2c[nH]c(N[C@@H](CNc3ccc(O)cc3)c3cccs3)[nH+]2)cc1
     RDKit          3D

 54 57  0  0  1  0  0  0  0  0999 V2000
  130.1503  128.4652  151.3557 C   0  0  0  0  0  0  0  0  0  0  0  0
  131.2832  129.4532  151.6406 C   0  0  0  0  0  0  0  0  0  0  0  0
  130.9810  130.2127  152.9067 C   0  0  0  0  0  0  0  0  0  0  0  0
  131.4143  129.7215  154.1245 C   0  0  0  0  0  0  0  0  0  0  0  0
  131.1454  130.4156  155.2868 C   0  0  0  0  0  0  0  0  0  0  0  0
  130.4259  131.6080  155.2325 C   0  0  0  0  0  0  0  0  0  0  0  0
  130.1290  132.3556  156.4788 C   0  0  0  0  0  0  0  0  0  0  0  0
  129.4273  131.8892  157.5414 C   0  0  0  0  0  0  0  0  0  0  0  0
  129.3908  132.9008  158.4700 N   0  0  0  0  0  0  0  0  0  0  0  0
  128.9590  132.8685  159.3380 H   0  0  0  0  0  0  0  0  0  0  0  0
  130.0720  133.9567  157.9474 C   0  0  0  0  0  0  0  0  0  0  0  0
  130.2680  135.1776  158.5699 N   0  0  0  0  0  0  0  0  0  0  0  0
  129.7193  135.4143  159.9075 C   0  0  1  0  0  0  0  0  0  0  0  0
  130.1409  134.6918  160.6062 H   0  0  0  0  0  0  0  0  0  0  0  0
  130.0760  136.8312  160.3615 C   0  0  0  0  0  0  0  0  0  0  0  0
  131.5331  136.9799  160.3981 N   0  0  0  0  0  0  0  0  0  0  0  0
  132.1025  138.1979  160.7863 C   0  0  0  0  0  0  0  0  0  0  0  0
  133.4835  138.3376  160.8266 C   0  0  0  0  0  0  0  0  0  0  0  0
  134.0446  139.5416  161.2048 C   0  0  0  0  0  0  0  0  0  0  0  0
  133.2291  140.6077  161.5546 C   0  0  0  0  0  0  0  0  0  0  0  0
  133.7824  141.7913  161.9319 O   0  0  0  0  0  0  0  0  0  0  0  0
  131.8496  140.4673  161.5201 C   0  0  0  0  0  0  0  0  0  0  0  0
  131.2869  139.2656  161.1370 C   0  0  0  0  0  0  0  0  0  0  0  0
  128.2205  135.2614  159.8698 C   0  0  0  0  0  0  0  0  0  0  0  0
  127.3919  135.9888  159.1191 C   0  0  0  0  0  0  0  0  0  0  0  0
  126.0519  135.6677  159.2505 C   0  0  0  0  0  0  0  0  0  0  0  0
  125.7923  134.6795  160.1082 C   0  0  0  0  0  0  0  0  0  0  0  0
  127.2970  134.0914  160.8036 S   0  0  0  0  0  0  0  0  0  0  0  0
  130.5165  133.6251  156.7598 N   0  0  0  0  0  0  0  0  0  0  0  0
  131.0373  134.1969  156.1744 H   0  0  0  0  0  0  0  0  0  0  0  0
  129.9868  132.0956  154.0029 C   0  0  0  0  0  0  0  0  0  0  0  0
  130.2663  131.3961  152.8465 C   0  0  0  0  0  0  0  0  0  0  0  0
  130.0618  127.7654  152.1867 H   0  0  0  0  0  0  0  0  0  0  0  0
  129.2136  129.0099  151.2381 H   0  0  0  0  0  0  0  0  0  0  0  0
  130.3689  127.9160  150.4400 H   0  0  0  0  0  0  0  0  0  0  0  0
  132.2197  128.9091  151.7578 H   0  0  0  0  0  0  0  0  0  0  0  0
  131.3715  130.1536  150.8092 H   0  0  0  0  0  0  0  0  0  0  0  0
  131.9676  128.7950  154.1659 H   0  0  0  0  0  0  0  0  0  0  0  0
  131.4883  130.0334  156.2369 H   0  0  0  0  0  0  0  0  0  0  0  0
  128.9820  130.9101  157.6386 H   0  0  0  0  0  0  0  0  0  0  0  0
  130.7690  135.8762  158.1204 H   0  0  0  0  0  0  0  0  0  0  0  0
  129.6544  137.5537  159.6629 H   0  0  0  0  0  0  0  0  0  0  0  0
  129.6679  137.0073  161.3568 H   0  0  0  0  0  0  0  0  0  0  0  0
  132.1029  136.2343  160.1530 H   0  0  0  0  0  0  0  0  0  0  0  0
  134.1185  137.5064  160.5581 H   0  0  0  0  0  0  0  0  0  0  0  0
  135.1185  139.6517  161.2325 H   0  0  0  0  0  0  0  0  0  0  0  0
  134.7493  141.7933  161.9252 H   0  0  0  0  0  0  0  0  0  0  0  0
  131.2154  141.2976  161.7933 H   0  0  0  0  0  0  0  0  0  0  0  0
  130.2127  139.1561  161.1106 H   0  0  0  0  0  0  0  0  0  0  0  0
  127.7403  136.7689  158.4584 H   0  0  0  0  0  0  0  0  0  0  0  0
  125.2755  136.1782  158.7002 H   0  0  0  0  0  0  0  0  0  0  0  0
  124.8088  134.2967  160.3377 H   0  0  0  0  0  0  0  0  0  0  0  0
  129.4286  133.0190  153.9551 H   0  0  0  0  0  0  0  0  0  0  0  0
  129.9263  131.7728  151.8932 H   0  0  0  0  0  0  0  0  0  0  0  0
  1  2  1  0
  1 33  1  0
  1 34  1  0
  1 35  1  0
  2  3  1  0
  2 36  1  0
  2 37  1  0
  3 32  2  0
  3  4  1  0
  4  5  2  0
  4 38  1  0
  5  6  1  0
  5 39  1  0
  6  7  1  0
  6 31  2  0
  7 29  1  0
  7  8  2  0
  8  9  1  0
  8 40  1  0
  9 10  1  0
  9 11  1  0
 11 12  1  0
 11 29  2  0
 12 13  1  0
 12 41  1  0
 13 14  1  1
 13 15  1  0
 13 24  1  0
 15 16  1  0
 15 42  1  0
 15 43  1  0
 16 17  1  0
 16 44  1  0
 17 23  1  0
 17 18  2  0
 18 19  1  0
 18 45  1  0
 19 20  2  0
 19 46  1  0
 20 21  1  0
 20 22  1  0
 21 47  1  0
 22 23  2  0
 22 48  1  0
 23 49  1  0
 24 28  1  0
 24 25  2  0
 25 26  1  0
 25 50  1  0
 26 27  2  0
 26 51  1  0
 27 28  1  0
 27 52  1  0
 29 30  1  0
 31 32  1  0
 31 53  1  0
 32 54  1  0
M  CHG  1  29   1
M  END
>  <DOCK_score>  (1) 
-61.944527

>  <SMILES>  (1) 
CCc1ccc(-c2c[nH]c(N[C@@H](CNc3ccc(O)cc3)c3cccs3)[nH+]2)cc1

$$$$
