CCCc1nc(CNc2[nH]c(-c3ccccc3)c(C)[nH+]2)no1
     RDKit          3D

 42 44  0  0  1  0  0  0  0  0999 V2000
  126.1227  132.6095  159.2143 C   0  0  0  0  0  0  0  0  0  0  0  0
  126.0657  132.2663  160.7042 C   0  0  0  0  0  0  0  0  0  0  0  0
  125.8416  133.5450  161.5140 C   0  0  0  0  0  0  0  0  0  0  0  0
  126.9764  134.5040  161.2625 C   0  0  0  0  0  0  0  0  0  0  0  0
  128.2545  134.2120  161.2359 N   0  0  0  0  0  0  0  0  0  0  0  0
  128.8858  135.3720  160.9816 C   0  0  0  0  0  0  0  0  0  0  0  0
  130.3746  135.5678  160.8536 C   0  0  0  0  0  0  0  0  0  0  0  0
  130.7735  135.3794  159.4566 N   0  0  0  0  0  0  0  0  0  0  0  0
  130.5404  134.1700  158.8280 C   0  0  0  0  0  0  0  0  0  0  0  0
  130.8667  133.8690  157.5421 N   0  0  0  0  0  0  0  0  0  0  0  0
  131.3008  134.4561  156.9035 H   0  0  0  0  0  0  0  0  0  0  0  0
  130.4577  132.5658  157.3179 C   0  0  0  0  0  0  0  0  0  0  0  0
  130.5983  131.7996  156.0618 C   0  0  0  0  0  0  0  0  0  0  0  0
  131.3382  130.6160  156.0416 C   0  0  0  0  0  0  0  0  0  0  0  0
  131.4602  129.9025  154.8672 C   0  0  0  0  0  0  0  0  0  0  0  0
  130.8615  130.3640  153.7084 C   0  0  0  0  0  0  0  0  0  0  0  0
  130.1315  131.5394  153.7202 C   0  0  0  0  0  0  0  0  0  0  0  0
  129.9964  132.2594  154.8892 C   0  0  0  0  0  0  0  0  0  0  0  0
  129.9072  132.1262  158.4797 C   0  0  0  0  0  0  0  0  0  0  0  0
  129.3241  130.7574  158.7191 C   0  0  0  0  0  0  0  0  0  0  0  0
  129.9718  133.1201  159.3752 N   0  0  0  0  0  0  0  0  0  0  0  0
  129.6481  133.0718  160.2883 H   0  0  0  0  0  0  0  0  0  0  0  0
  127.9758  136.2919  160.8610 N   0  0  0  0  0  0  0  0  0  0  0  0
  126.8722  135.8140  161.0189 O   0  0  0  0  0  0  0  0  0  0  0  0
  125.1827  133.0712  158.9116 H   0  0  0  0  0  0  0  0  0  0  0  0
  126.9434  133.3032  159.0324 H   0  0  0  0  0  0  0  0  0  0  0  0
  126.2822  131.6985  158.6375 H   0  0  0  0  0  0  0  0  0  0  0  0
  127.0055  131.8044  161.0069 H   0  0  0  0  0  0  0  0  0  0  0  0
  125.2449  131.5724  160.8861 H   0  0  0  0  0  0  0  0  0  0  0  0
  125.8010  133.3003  162.5754 H   0  0  0  0  0  0  0  0  0  0  0  0
  124.9018  134.0067  161.2113 H   0  0  0  0  0  0  0  0  0  0  0  0
  130.8917  134.8413  161.4803 H   0  0  0  0  0  0  0  0  0  0  0  0
  130.6373  136.5761  161.1737 H   0  0  0  0  0  0  0  0  0  0  0  0
  131.2012  136.1031  158.9726 H   0  0  0  0  0  0  0  0  0  0  0  0
  131.8101  130.2572  156.9444 H   0  0  0  0  0  0  0  0  0  0  0  0
  132.0280  128.9841  154.8513 H   0  0  0  0  0  0  0  0  0  0  0  0
  130.9643  129.8042  152.7906 H   0  0  0  0  0  0  0  0  0  0  0  0
  129.6661  131.8937  152.8122 H   0  0  0  0  0  0  0  0  0  0  0  0
  129.4259  133.1764  154.8971 H   0  0  0  0  0  0  0  0  0  0  0  0
  130.1038  130.0893  159.0851 H   0  0  0  0  0  0  0  0  0  0  0  0
  128.5276  130.8262  159.4600 H   0  0  0  0  0  0  0  0  0  0  0  0
  128.9194  130.3665  157.7856 H   0  0  0  0  0  0  0  0  0  0  0  0
  1  2  1  0
  1 25  1  0
  1 26  1  0
  1 27  1  0
  2  3  1  0
  2 28  1  0
  2 29  1  0
  3  4  1  0
  3 30  1  0
  3 31  1  0
  4 24  1  0
  4  5  2  0
  5  6  1  0
  6  7  1  0
  6 23  2  0
  7  8  1  0
  7 32  1  0
  7 33  1  0
  8 34  1  0
  9  8  1  0
  9 21  2  0
  9 10  1  0
 10 11  1  0
 10 12  1  0
 12 13  1  0
 12 19  2  0
 13 18  1  0
 13 14  2  0
 14 15  1  0
 14 35  1  0
 15 16  2  0
 15 36  1  0
 16 17  1  0
 16 37  1  0
 17 18  2  0
 17 38  1  0
 18 39  1  0
 19 20  1  0
 19 21  1  0
 20 40  1  0
 20 41  1  0
 20 42  1  0
 21 22  1  0
 23 24  1  0
M  CHG  1  21   1
M  END
>  <DOCK_score>  (1) 
-48.653336

>  <SMILES>  (1) 
CCCc1nc(CNc2[nH]c(-c3ccccc3)c(C)[nH+]2)no1

$$$$
