Cc1cccc(N2CC[NH+](C(c3ccccc3)c3ccccc3)CC2)c1CC(=O)CC1=CCOCC1
     RDKit          3D

 73 77  0  0  1  0  0  0  0  0999 V2000
  135.9341  141.1079  162.5356 C   0  0  0  0  0  0  0  0  0  0  0  0
  135.3038  140.3734  161.3804 C   0  0  0  0  0  0  0  0  0  0  0  0
  135.6989  140.6541  160.0851 C   0  0  0  0  0  0  0  0  0  0  0  0
  135.1276  139.9781  159.0228 C   0  0  0  0  0  0  0  0  0  0  0  0
  134.1558  139.0238  159.2519 C   0  0  0  0  0  0  0  0  0  0  0  0
  133.7526  138.7433  160.5511 C   0  0  0  0  0  0  0  0  0  0  0  0
  132.7704  137.7785  160.7863 N   0  0  0  0  0  0  0  0  0  0  0  0
  133.2267  136.4478  160.3604 C   0  0  0  0  0  0  0  0  0  0  0  0
  132.1484  135.4129  160.6890 C   0  0  0  0  0  0  0  0  0  0  0  0
  130.9024  135.7670  159.9967 N   0  0  0  0  0  0  0  0  0  0  0  0
  131.0661  135.7919  159.0014 H   0  0  0  0  0  0  0  0  0  0  0  0
  129.8728  134.7634  160.2980 C   0  0  0  0  0  0  0  0  0  0  0  0
  128.5943  135.1264  159.5878 C   0  0  0  0  0  0  0  0  0  0  0  0
  127.3753  134.7687  160.1328 C   0  0  0  0  0  0  0  0  0  0  0  0
  126.2023  135.1060  159.4836 C   0  0  0  0  0  0  0  0  0  0  0  0
  126.2487  135.7920  158.2845 C   0  0  0  0  0  0  0  0  0  0  0  0
  127.4677  136.1451  157.7368 C   0  0  0  0  0  0  0  0  0  0  0  0
  128.6407  135.8124  158.3885 C   0  0  0  0  0  0  0  0  0  0  0  0
  130.3398  133.4089  159.8308 C   0  0  0  0  0  0  0  0  0  0  0  0
  129.9257  132.2686  160.4935 C   0  0  0  0  0  0  0  0  0  0  0  0
  130.3502  131.0258  160.0620 C   0  0  0  0  0  0  0  0  0  0  0  0
  131.1972  130.9241  158.9743 C   0  0  0  0  0  0  0  0  0  0  0  0
  131.6153  132.0647  158.3148 C   0  0  0  0  0  0  0  0  0  0  0  0
  131.1866  133.3071  158.7430 C   0  0  0  0  0  0  0  0  0  0  0  0
  130.4462  137.0874  160.4507 C   0  0  0  0  0  0  0  0  0  0  0  0
  131.5103  138.1363  160.1200 C   0  0  0  0  0  0  0  0  0  0  0  0
  134.3287  139.4245  161.6161 C   0  0  0  0  0  0  0  0  0  0  0  0
  133.8945  139.1236  163.0275 C   0  0  0  0  0  0  0  0  0  0  0  0
  134.7500  138.0185  163.5916 C   0  0  0  0  0  0  0  0  0  0  0  0
  135.6223  137.5261  162.9170 O   0  0  0  0  0  0  0  0  0  0  0  0
  134.5170  137.5280  164.9973 C   0  0  0  0  0  0  0  0  0  0  0  0
  135.8169  137.0358  165.5796 C   0  0  0  0  0  0  0  0  0  0  0  0
  136.1396  135.7868  165.4207 C   0  0  0  0  0  0  0  0  0  0  0  0
  137.4101  135.1974  165.9644 C   0  0  0  0  0  0  0  0  0  0  0  0
  138.3165  136.2377  166.3362 O   0  0  0  0  0  0  0  0  0  0  0  0
  137.7122  137.2375  167.1663 C   0  0  0  0  0  0  0  0  0  0  0  0
  136.6881  138.0070  166.3275 C   0  0  0  0  0  0  0  0  0  0  0  0
  135.3599  142.0094  162.7496 H   0  0  0  0  0  0  0  0  0  0  0  0
  135.9410  140.4642  163.4151 H   0  0  0  0  0  0  0  0  0  0  0  0
  136.9571  141.3815  162.2773 H   0  0  0  0  0  0  0  0  0  0  0  0
  136.4586  141.4000  159.9033 H   0  0  0  0  0  0  0  0  0  0  0  0
  135.4413  140.1969  158.0128 H   0  0  0  0  0  0  0  0  0  0  0  0
  133.7102  138.4958  158.4217 H   0  0  0  0  0  0  0  0  0  0  0  0
  133.4103  136.4531  159.2859 H   0  0  0  0  0  0  0  0  0  0  0  0
  134.1471  136.1935  160.8858 H   0  0  0  0  0  0  0  0  0  0  0  0
  131.9748  135.3983  161.7650 H   0  0  0  0  0  0  0  0  0  0  0  0
  132.4789  134.4274  160.3610 H   0  0  0  0  0  0  0  0  0  0  0  0
  129.6960  134.7359  161.3733 H   0  0  0  0  0  0  0  0  0  0  0  0
  127.3392  134.2289  161.0675 H   0  0  0  0  0  0  0  0  0  0  0  0
  125.2498  134.8297  159.9113 H   0  0  0  0  0  0  0  0  0  0  0  0
  125.3324  136.0515  157.7752 H   0  0  0  0  0  0  0  0  0  0  0  0
  127.5039  136.6807  156.7996 H   0  0  0  0  0  0  0  0  0  0  0  0
  129.5931  136.0880  157.9605 H   0  0  0  0  0  0  0  0  0  0  0  0
  129.2676  132.3484  161.3461 H   0  0  0  0  0  0  0  0  0  0  0  0
  130.0238  130.1348  160.5774 H   0  0  0  0  0  0  0  0  0  0  0  0
  131.5324  129.9533  158.6398 H   0  0  0  0  0  0  0  0  0  0  0  0
  132.2774  131.9852  157.4651 H   0  0  0  0  0  0  0  0  0  0  0  0
  131.5137  134.1983  158.2280 H   0  0  0  0  0  0  0  0  0  0  0  0
  130.2813  137.0643  161.5278 H   0  0  0  0  0  0  0  0  0  0  0  0
  129.5147  137.3434  159.9459 H   0  0  0  0  0  0  0  0  0  0  0  0
  131.1786  139.1138  160.4701 H   0  0  0  0  0  0  0  0  0  0  0  0
  131.6656  138.1693  159.0417 H   0  0  0  0  0  0  0  0  0  0  0  0
  134.0056  140.0180  163.6404 H   0  0  0  0  0  0  0  0  0  0  0  0
  132.8503  138.8106  163.0275 H   0  0  0  0  0  0  0  0  0  0  0  0
  134.1314  138.3446  165.6079 H   0  0  0  0  0  0  0  0  0  0  0  0
  133.7937  136.7127  164.9824 H   0  0  0  0  0  0  0  0  0  0  0  0
  135.4671  135.1455  164.8705 H   0  0  0  0  0  0  0  0  0  0  0  0
  137.8739  134.5684  165.2045 H   0  0  0  0  0  0  0  0  0  0  0  0
  137.1754  134.5925  166.8402 H   0  0  0  0  0  0  0  0  0  0  0  0
  138.4771  137.9227  167.5315 H   0  0  0  0  0  0  0  0  0  0  0  0
  137.2124  136.7612  168.0098 H   0  0  0  0  0  0  0  0  0  0  0  0
  137.2094  138.6486  165.6170 H   0  0  0  0  0  0  0  0  0  0  0  0
  136.0691  138.6196  166.9828 H   0  0  0  0  0  0  0  0  0  0  0  0
  1  2  1  0
  1 38  1  0
  1 39  1  0
  1 40  1  0
  2 27  2  0
  2  3  1  0
  3  4  2  0
  3 41  1  0
  4  5  1  0
  4 42  1  0
  5  6  2  0
  5 43  1  0
  6  7  1  0
  6 27  1  0
  7 26  1  0
  7  8  1  0
  8  9  1  0
  8 44  1  0
  8 45  1  0
  9 10  1  0
  9 46  1  0
  9 47  1  0
 10 11  1  0
 10 12  1  0
 10 25  1  0
 12 13  1  0
 12 19  1  0
 12 48  1  0
 13 18  1  0
 13 14  2  0
 14 15  1  0
 14 49  1  0
 15 16  2  0
 15 50  1  0
 16 17  1  0
 16 51  1  0
 17 18  2  0
 17 52  1  0
 18 53  1  0
 19 24  1  0
 19 20  2  0
 20 21  1  0
 20 54  1  0
 21 22  2  0
 21 55  1  0
 22 23  1  0
 22 56  1  0
 23 24  2  0
 23 57  1  0
 24 58  1  0
 25 26  1  0
 25 59  1  0
 25 60  1  0
 26 61  1  0
 26 62  1  0
 27 28  1  0
 28 29  1  0
 28 63  1  0
 28 64  1  0
 29 30  2  0
 29 31  1  0
 31 32  1  0
 31 65  1  0
 31 66  1  0
 32 37  1  0
 32 33  2  0
 33 34  1  0
 33 67  1  0
 34 35  1  0
 34 68  1  0
 34 69  1  0
 35 36  1  0
 36 37  1  0
 36 70  1  0
 36 71  1  0
 37 72  1  0
 37 73  1  0
M  CHG  1  10   1
M  END
>  <DOCK_score>  (1) 
-57.47826

>  <SMILES>  (1) 
Cc1cccc(N2CC[NH+](C(c3ccccc3)c3ccccc3)CC2)c1CC(=O)CC1=CCOCC1

$$$$
