CCc1ccc(C[C@H](Nc2[nH]cc(-c3ccc(CC)cc3)[nH+]2)c2cccc3cc[nH]c23)cc1
     RDKit          3D

 64 68  0  0  1  0  0  0  0  0999 V2000
  135.3504  138.7323  158.4807 C   0  0  0  0  0  0  0  0  0  0  0  0
  134.8808  138.9483  159.9208 C   0  0  0  0  0  0  0  0  0  0  0  0
  133.4556  138.4791  160.0606 C   0  0  0  0  0  0  0  0  0  0  0  0
  133.1897  137.1702  160.4144 C   0  0  0  0  0  0  0  0  0  0  0  0
  131.8821  136.7402  160.5415 C   0  0  0  0  0  0  0  0  0  0  0  0
  130.8402  137.6197  160.3142 C   0  0  0  0  0  0  0  0  0  0  0  0
  129.4146  137.1507  160.4523 C   0  0  0  0  0  0  0  0  0  0  0  0
  129.3326  135.6612  160.1126 C   0  0  2  0  0  0  0  0  0  0  0  0
  129.9684  135.0973  160.7952 H   0  0  0  0  0  0  0  0  0  0  0  0
  129.7853  135.4487  158.7355 N   0  0  0  0  0  0  0  0  0  0  0  0
  129.8001  134.1717  158.2009 C   0  0  0  0  0  0  0  0  0  0  0  0
  129.4257  133.0360  158.8507 N   0  0  0  0  0  0  0  0  0  0  0  0
  129.1031  132.9761  159.7635 H   0  0  0  0  0  0  0  0  0  0  0  0
  129.5886  131.9902  157.9750 C   0  0  0  0  0  0  0  0  0  0  0  0
  130.0574  132.5164  156.8164 C   0  0  0  0  0  0  0  0  0  0  0  0
  130.3829  131.7598  155.5827 C   0  0  0  0  0  0  0  0  0  0  0  0
  129.7187  132.0458  154.3912 C   0  0  0  0  0  0  0  0  0  0  0  0
  130.0260  131.3390  153.2464 C   0  0  0  0  0  0  0  0  0  0  0  0
  130.9913  130.3482  153.2802 C   0  0  0  0  0  0  0  0  0  0  0  0
  131.3225  129.5798  152.0268 C   0  0  0  0  0  0  0  0  0  0  0  0
  130.4180  128.3497  151.9287 C   0  0  0  0  0  0  0  0  0  0  0  0
  131.6494  130.0566  154.4609 C   0  0  0  0  0  0  0  0  0  0  0  0
  131.3543  130.7608  155.6106 C   0  0  0  0  0  0  0  0  0  0  0  0
  130.1818  133.8566  156.9874 N   0  0  0  0  0  0  0  0  0  0  0  0
  130.5003  134.4819  156.3177 H   0  0  0  0  0  0  0  0  0  0  0  0
  127.9071  135.1921  160.2507 C   0  0  0  0  0  0  0  0  0  0  0  0
  126.9144  135.7621  159.4838 C   0  0  0  0  0  0  0  0  0  0  0  0
  125.5987  135.3356  159.5983 C   0  0  0  0  0  0  0  0  0  0  0  0
  125.2631  134.3489  160.4824 C   0  0  0  0  0  0  0  0  0  0  0  0
  126.2521  133.7613  161.2731 C   0  0  0  0  0  0  0  0  0  0  0  0
  126.2490  132.7106  162.2939 C   0  0  0  0  0  0  0  0  0  0  0  0
  127.5158  132.5680  162.7143 C   0  0  0  0  0  0  0  0  0  0  0  0
  128.3303  133.4415  162.0462 N   0  0  0  0  0  0  0  0  0  0  0  0
  129.2876  133.5233  162.1790 H   0  0  0  0  0  0  0  0  0  0  0  0
  127.5884  134.1864  161.1571 C   0  0  0  0  0  0  0  0  0  0  0  0
  131.1056  138.9278  159.9546 C   0  0  0  0  0  0  0  0  0  0  0  0
  132.4133  139.3591  159.8325 C   0  0  0  0  0  0  0  0  0  0  0  0
  135.2908  137.6722  158.2343 H   0  0  0  0  0  0  0  0  0  0  0  0
  134.7136  139.2995  157.8019 H   0  0  0  0  0  0  0  0  0  0  0  0
  136.3816  139.0713  158.3802 H   0  0  0  0  0  0  0  0  0  0  0  0
  134.9404  140.0085  160.1673 H   0  0  0  0  0  0  0  0  0  0  0  0
  135.5177  138.3811  160.5996 H   0  0  0  0  0  0  0  0  0  0  0  0
  134.0038  136.4831  160.5917 H   0  0  0  0  0  0  0  0  0  0  0  0
  131.6747  135.7170  160.8181 H   0  0  0  0  0  0  0  0  0  0  0  0
  128.7788  137.7146  159.7697 H   0  0  0  0  0  0  0  0  0  0  0  0
  129.0778  137.3088  161.4768 H   0  0  0  0  0  0  0  0  0  0  0  0
  130.0747  136.2028  158.1984 H   0  0  0  0  0  0  0  0  0  0  0  0
  129.3825  130.9485  158.1715 H   0  0  0  0  0  0  0  0  0  0  0  0
  128.9649  132.8187  154.3639 H   0  0  0  0  0  0  0  0  0  0  0  0
  129.5117  131.5595  152.3226 H   0  0  0  0  0  0  0  0  0  0  0  0
  132.3645  129.2637  152.0589 H   0  0  0  0  0  0  0  0  0  0  0  0
  131.1629  130.2179  151.1568 H   0  0  0  0  0  0  0  0  0  0  0  0
  130.6576  127.7941  151.0220 H   0  0  0  0  0  0  0  0  0  0  0  0
  130.5771  127.7121  152.7983 H   0  0  0  0  0  0  0  0  0  0  0  0
  129.3756  128.6663  151.8962 H   0  0  0  0  0  0  0  0  0  0  0  0
  132.3986  129.2791  154.4824 H   0  0  0  0  0  0  0  0  0  0  0  0
  131.8722  130.5353  156.5311 H   0  0  0  0  0  0  0  0  0  0  0  0
  127.1633  136.5460  158.7839 H   0  0  0  0  0  0  0  0  0  0  0  0
  124.8333  135.7897  158.9866 H   0  0  0  0  0  0  0  0  0  0  0  0
  124.2365  134.0252  160.5693 H   0  0  0  0  0  0  0  0  0  0  0  0
  125.3904  132.1557  162.6420 H   0  0  0  0  0  0  0  0  0  0  0  0
  127.8438  131.8677  163.4682 H   0  0  0  0  0  0  0  0  0  0  0  0
  130.2914  139.6136  159.7726 H   0  0  0  0  0  0  0  0  0  0  0  0
  132.6207  140.3820  159.5551 H   0  0  0  0  0  0  0  0  0  0  0  0
  1  2  1  0
  1 38  1  0
  1 39  1  0
  1 40  1  0
  2  3  1  0
  2 41  1  0
  2 42  1  0
  3 37  2  0
  3  4  1  0
  4  5  2  0
  4 43  1  0
  5  6  1  0
  5 44  1  0
  6  7  1  0
  6 36  2  0
  7  8  1  0
  7 45  1  0
  7 46  1  0
  8  9  1  1
  8 10  1  0
  8 26  1  0
 10 47  1  0
 11 10  1  0
 11 24  2  0
 11 12  1  0
 12 13  1  0
 12 14  1  0
 14 15  2  0
 14 48  1  0
 15 16  1  0
 15 24  1  0
 16 23  1  0
 16 17  2  0
 17 18  1  0
 17 49  1  0
 18 19  2  0
 18 50  1  0
 19 20  1  0
 19 22  1  0
 20 21  1  0
 20 51  1  0
 20 52  1  0
 21 53  1  0
 21 54  1  0
 21 55  1  0
 22 23  2  0
 22 56  1  0
 23 57  1  0
 24 25  1  0
 26 35  1  0
 26 27  2  0
 27 28  1  0
 27 58  1  0
 28 29  2  0
 28 59  1  0
 29 30  1  0
 29 60  1  0
 30 35  2  0
 30 31  1  0
 31 32  2  0
 31 61  1  0
 32 33  1  0
 32 62  1  0
 33 34  1  0
 33 35  1  0
 36 37  1  0
 36 63  1  0
 37 64  1  0
M  CHG  1  24   1
M  END
>  <DOCK_score>  (1) 
-61.185699

>  <SMILES>  (1) 
CCc1ccc(C[C@H](Nc2[nH]cc(-c3ccc(CC)cc3)[nH+]2)c2cccc3cc[nH]c23)cc1

$$$$
