Cc1cccnc1C[NH+]=C(NC1COc2cc(Cl)ccc2C1)N[C@H]1CCC(=O)NC1
     RDKit          3D

 57 60  0  0  1  0  0  0  0  0999 V2000
  130.5757  132.3816  154.4998 C   0  0  0  0  0  0  0  0  0  0  0  0
  130.4126  131.6604  155.8129 C   0  0  0  0  0  0  0  0  0  0  0  0
  130.8201  130.3415  155.9449 C   0  0  0  0  0  0  0  0  0  0  0  0
  130.6462  129.7166  157.1701 C   0  0  0  0  0  0  0  0  0  0  0  0
  130.0852  130.4270  158.2148 C   0  0  0  0  0  0  0  0  0  0  0  0
  129.7091  131.6803  158.0529 N   0  0  0  0  0  0  0  0  0  0  0  0
  129.8552  132.3050  156.9007 C   0  0  0  0  0  0  0  0  0  0  0  0
  129.4086  133.7382  156.7685 C   0  0  0  0  0  0  0  0  0  0  0  0
  128.8558  134.1971  158.0452 N   0  0  0  0  0  0  0  0  0  0  0  0
  127.9361  134.5014  158.0941 H   0  0  0  0  0  0  0  0  0  0  0  0
  129.5998  134.1964  159.1155 C   0  0  0  0  0  0  0  0  0  0  0  0
  130.9584  134.3777  159.0084 N   0  0  0  0  0  0  0  0  0  0  0  0
  131.7945  134.3769  160.2113 C   0  0  1  0  0  0  0  0  0  0  0  0
  133.2035  133.8812  159.8614 C   0  0  0  0  0  0  0  0  0  0  0  0
  133.9626  133.7932  161.0681 O   0  0  0  0  0  0  0  0  0  0  0  0
  133.9539  134.8647  161.9030 C   0  0  0  0  0  0  0  0  0  0  0  0
  134.9437  134.9556  162.8764 C   0  0  0  0  0  0  0  0  0  0  0  0
  134.9660  136.0274  163.7466 C   0  0  0  0  0  0  0  0  0  0  0  0
  136.2036  136.1365  164.9592 Cl  0  0  0  0  0  0  0  0  0  0  0  0
  134.0008  137.0148  163.6510 C   0  0  0  0  0  0  0  0  0  0  0  0
  133.0183  136.9278  162.6847 C   0  0  0  0  0  0  0  0  0  0  0  0
  132.9924  135.8555  161.8080 C   0  0  0  0  0  0  0  0  0  0  0  0
  131.9090  135.8009  160.7610 C   0  0  0  0  0  0  0  0  0  0  0  0
  129.0259  134.0144  160.3515 N   0  0  0  0  0  0  0  0  0  0  0  0
  127.5782  133.8212  160.4656 C   0  0  1  0  0  0  0  0  0  0  0  0
  127.2022  133.3339  159.5661 H   0  0  0  0  0  0  0  0  0  0  0  0
  127.2700  132.9536  161.6920 C   0  0  0  0  0  0  0  0  0  0  0  0
  125.7768  132.6169  161.6830 C   0  0  0  0  0  0  0  0  0  0  0  0
  124.9726  133.8665  161.4657 C   0  0  0  0  0  0  0  0  0  0  0  0
  123.7935  133.8467  161.7491 O   0  0  0  0  0  0  0  0  0  0  0  0
  125.4857  134.9966  160.9781 N   0  0  0  0  0  0  0  0  0  0  0  0
  126.8918  135.1765  160.6398 C   0  0  0  0  0  0  0  0  0  0  0  0
  129.6818  132.2379  153.8928 H   0  0  0  0  0  0  0  0  0  0  0  0
  130.7217  133.4457  154.6854 H   0  0  0  0  0  0  0  0  0  0  0  0
  131.4416  131.9827  153.9713 H   0  0  0  0  0  0  0  0  0  0  0  0
  131.2587  129.8124  155.1118 H   0  0  0  0  0  0  0  0  0  0  0  0
  130.9484  128.6889  157.3076 H   0  0  0  0  0  0  0  0  0  0  0  0
  129.9497  129.9486  159.1735 H   0  0  0  0  0  0  0  0  0  0  0  0
  130.2611  134.3609  156.4969 H   0  0  0  0  0  0  0  0  0  0  0  0
  128.6445  133.8108  155.9947 H   0  0  0  0  0  0  0  0  0  0  0  0
  131.3633  134.5061  158.1363 H   0  0  0  0  0  0  0  0  0  0  0  0
  131.3527  133.7257  160.9654 H   0  0  0  0  0  0  0  0  0  0  0  0
  133.1414  132.8983  159.3941 H   0  0  0  0  0  0  0  0  0  0  0  0
  133.6804  134.5833  159.1773 H   0  0  0  0  0  0  0  0  0  0  0  0
  135.6969  134.1852  162.9518 H   0  0  0  0  0  0  0  0  0  0  0  0
  134.0160  137.8529  164.3321 H   0  0  0  0  0  0  0  0  0  0  0  0
  132.2662  137.6994  162.6122 H   0  0  0  0  0  0  0  0  0  0  0  0
  132.1548  136.4847  159.9487 H   0  0  0  0  0  0  0  0  0  0  0  0
  130.9586  136.0951  161.2068 H   0  0  0  0  0  0  0  0  0  0  0  0
  129.5796  134.0138  161.1480 H   0  0  0  0  0  0  0  0  0  0  0  0
  127.8537  132.0341  161.6469 H   0  0  0  0  0  0  0  0  0  0  0  0
  127.5175  133.5018  162.6009 H   0  0  0  0  0  0  0  0  0  0  0  0
  125.5006  132.1701  162.6382 H   0  0  0  0  0  0  0  0  0  0  0  0
  125.5711  131.9095  160.8797 H   0  0  0  0  0  0  0  0  0  0  0  0
  124.8852  135.7458  160.8397 H   0  0  0  0  0  0  0  0  0  0  0  0
  127.3864  135.7309  161.4376 H   0  0  0  0  0  0  0  0  0  0  0  0
  126.9664  135.7402  159.7098 H   0  0  0  0  0  0  0  0  0  0  0  0
  1  2  1  0
  1 33  1  0
  1 34  1  0
  1 35  1  0
  2  7  2  0
  2  3  1  0
  3  4  2  0
  3 36  1  0
  4  5  1  0
  4 37  1  0
  5  6  2  0
  5 38  1  0
  6  7  1  0
  7  8  1  0
  8  9  1  0
  8 39  1  0
  8 40  1  0
  9 10  1  0
 11  9  2  0
 11 12  1  0
 11 24  1  0
 12 13  1  0
 12 41  1  0
 13 23  1  0
 13 14  1  0
 13 42  1  1
 14 15  1  0
 14 43  1  0
 14 44  1  0
 15 16  1  0
 16 22  2  0
 16 17  1  0
 17 18  2  0
 17 45  1  0
 18 19  1  0
 18 20  1  0
 20 21  2  0
 20 46  1  0
 21 22  1  0
 21 47  1  0
 22 23  1  0
 23 48  1  0
 23 49  1  0
 24 25  1  0
 24 50  1  0
 25 26  1  6
 25 32  1  0
 25 27  1  0
 27 28  1  0
 27 51  1  0
 27 52  1  0
 28 29  1  0
 28 53  1  0
 28 54  1  0
 29 30  2  0
 29 31  1  0
 31 32  1  0
 31 55  1  0
 32 56  1  0
 32 57  1  0
M  CHG  1   9   1
M  END
>  <DOCK_score>  (1) 
-53.466694

>  <SMILES>  (1) 
Cc1cccnc1C[NH+]=C(NC1COc2cc(Cl)ccc2C1)N[C@H]1CCC(=O)NC1

$$$$
