Nc1ccc(-c2c[nH]c(N[C@@H](CO)CC3CCCC3)[nH+]2)cc1
     RDKit          3D

 47 49  0  0  1  0  0  0  0  0999 V2000
  131.3918  129.5496  151.2368 N   0  0  0  0  0  0  0  0  0  0  0  0
  131.1441  130.1706  152.4632 C   0  0  0  0  0  0  0  0  0  0  0  0
  130.3908  131.3377  152.5104 C   0  0  0  0  0  0  0  0  0  0  0  0
  130.1450  131.9525  153.7199 C   0  0  0  0  0  0  0  0  0  0  0  0
  130.6527  131.4026  154.8959 C   0  0  0  0  0  0  0  0  0  0  0  0
  130.3896  132.0622  156.1986 C   0  0  0  0  0  0  0  0  0  0  0  0
  129.7395  131.5130  157.2540 C   0  0  0  0  0  0  0  0  0  0  0  0
  129.7196  132.4625  158.2480 N   0  0  0  0  0  0  0  0  0  0  0  0
  129.3235  132.3650  159.1281 H   0  0  0  0  0  0  0  0  0  0  0  0
  130.3588  133.5642  157.7693 C   0  0  0  0  0  0  0  0  0  0  0  0
  130.5555  134.7468  158.4617 N   0  0  0  0  0  0  0  0  0  0  0  0
  130.0556  134.8853  159.8318 C   0  0  1  0  0  0  0  0  0  0  0  0
  130.2205  133.9547  160.3746 H   0  0  0  0  0  0  0  0  0  0  0  0
  130.7991  136.0237  160.5334 C   0  0  0  0  0  0  0  0  0  0  0  0
  132.1808  135.9849  160.1708 O   0  0  0  0  0  0  0  0  0  0  0  0
  128.5582  135.1981  159.7991 C   0  0  0  0  0  0  0  0  0  0  0  0
  127.9364  134.8576  161.1549 C   0  0  0  0  0  0  0  0  0  0  0  0
  128.0565  136.0549  162.1301 C   0  0  0  0  0  0  0  0  0  0  0  0
  126.9211  135.8312  163.1503 C   0  0  0  0  0  0  0  0  0  0  0  0
  125.8677  134.9546  162.4505 C   0  0  0  0  0  0  0  0  0  0  0  0
  126.3997  134.6763  161.0295 C   0  0  0  0  0  0  0  0  0  0  0  0
  130.7527  133.3232  156.5425 N   0  0  0  0  0  0  0  0  0  0  0  0
  131.2298  133.9463  155.9725 H   0  0  0  0  0  0  0  0  0  0  0  0
  131.4129  130.2351  154.8456 C   0  0  0  0  0  0  0  0  0  0  0  0
  131.6509  129.6204  153.6345 C   0  0  0  0  0  0  0  0  0  0  0  0
  131.0382  129.9328  150.4188 H   0  0  0  0  0  0  0  0  0  0  0  0
  131.9176  128.7350  151.2029 H   0  0  0  0  0  0  0  0  0  0  0  0
  129.9978  131.7636  151.5989 H   0  0  0  0  0  0  0  0  0  0  0  0
  129.5592  132.8590  153.7561 H   0  0  0  0  0  0  0  0  0  0  0  0
  129.3177  130.5199  157.3042 H   0  0  0  0  0  0  0  0  0  0  0  0
  131.0242  135.4838  158.0397 H   0  0  0  0  0  0  0  0  0  0  0  0
  130.3705  136.9789  160.2300 H   0  0  0  0  0  0  0  0  0  0  0  0
  130.7033  135.9091  161.6130 H   0  0  0  0  0  0  0  0  0  0  0  0
  132.3412  136.0812  159.2222 H   0  0  0  0  0  0  0  0  0  0  0  0
  128.0799  134.6041  159.0205 H   0  0  0  0  0  0  0  0  0  0  0  0
  128.4129  136.2578  159.5886 H   0  0  0  0  0  0  0  0  0  0  0  0
  128.3973  133.9658  161.5795 H   0  0  0  0  0  0  0  0  0  0  0  0
  127.9120  136.9957  161.5988 H   0  0  0  0  0  0  0  0  0  0  0  0
  129.0254  136.0447  162.6293 H   0  0  0  0  0  0  0  0  0  0  0  0
  127.3067  135.3194  164.0319 H   0  0  0  0  0  0  0  0  0  0  0  0
  126.4817  136.7871  163.4355 H   0  0  0  0  0  0  0  0  0  0  0  0
  125.7422  134.0174  162.9925 H   0  0  0  0  0  0  0  0  0  0  0  0
  124.9171  135.4852  162.3960 H   0  0  0  0  0  0  0  0  0  0  0  0
  126.1597  133.6575  160.7251 H   0  0  0  0  0  0  0  0  0  0  0  0
  125.9859  135.3929  160.3200 H   0  0  0  0  0  0  0  0  0  0  0  0
  131.8111  129.8099  155.7551 H   0  0  0  0  0  0  0  0  0  0  0  0
  132.2361  128.7135  153.5955 H   0  0  0  0  0  0  0  0  0  0  0  0
  1  2  1  0
  1 26  1  0
  1 27  1  0
  2 25  2  0
  2  3  1  0
  3  4  2  0
  3 28  1  0
  4  5  1  0
  4 29  1  0
  5  6  1  0
  5 24  2  0
  6 22  1  0
  6  7  2  0
  7  8  1  0
  7 30  1  0
  8  9  1  0
  8 10  1  0
 10 11  1  0
 10 22  2  0
 11 12  1  0
 11 31  1  0
 12 13  1  1
 12 14  1  0
 12 16  1  0
 14 15  1  0
 14 32  1  0
 14 33  1  0
 15 34  1  0
 16 17  1  0
 16 35  1  0
 16 36  1  0
 17 21  1  0
 17 18  1  0
 17 37  1  0
 18 19  1  0
 18 38  1  0
 18 39  1  0
 19 20  1  0
 19 40  1  0
 19 41  1  0
 20 21  1  0
 20 42  1  0
 20 43  1  0
 21 44  1  0
 21 45  1  0
 22 23  1  0
 24 25  1  0
 24 46  1  0
 25 47  1  0
M  CHG  1  22   1
M  END
>  <DOCK_score>  (1) 
-58.499973

>  <SMILES>  (1) 
Nc1ccc(-c2c[nH]c(N[C@@H](CO)CC3CCCC3)[nH+]2)cc1

$$$$
