O=C1CC[C@H](NC(NC2CCC2)=[NH+]Cc2ncccc2N[C@@H]2C=C[C@@H](O)[C@H]2O)CN1
     RDKit          3D

 61 64  0  0  1  0  0  0  0  0999 V2000
  123.8615  133.6501  162.0660 O   0  0  0  0  0  0  0  0  0  0  0  0
  125.0142  133.9548  161.8435 C   0  0  0  0  0  0  0  0  0  0  0  0
  125.9616  132.8766  161.4016 C   0  0  0  0  0  0  0  0  0  0  0  0
  127.4068  133.3425  161.5938 C   0  0  0  0  0  0  0  0  0  0  0  0
  127.5505  134.7420  160.9836 C   0  0  2  0  0  0  0  0  0  0  0  0
  127.1822  134.7358  159.9577 H   0  0  0  0  0  0  0  0  0  0  0  0
  128.9599  135.1419  160.9974 N   0  0  0  0  0  0  0  0  0  0  0  0
  129.7693  134.8446  159.9266 C   0  0  0  0  0  0  0  0  0  0  0  0
  129.2561  134.1721  158.8430 N   0  0  0  0  0  0  0  0  0  0  0  0
  130.1184  133.8552  157.7020 C   0  0  0  0  0  0  0  0  0  0  0  0
  129.3595  133.2675  156.5004 C   0  0  0  0  0  0  0  0  0  0  0  0
  130.5463  132.3063  156.3211 C   0  0  0  0  0  0  0  0  0  0  0  0
  130.8237  132.4939  157.8220 C   0  0  0  0  0  0  0  0  0  0  0  0
  131.0232  135.2005  159.9388 N   0  0  0  0  0  0  0  0  0  0  0  0
  131.5942  134.9907  159.1833 H   0  0  0  0  0  0  0  0  0  0  0  0
  131.5699  135.9172  161.0936 C   0  0  0  0  0  0  0  0  0  0  0  0
  130.8220  137.2121  161.2811 C   0  0  0  0  0  0  0  0  0  0  0  0
  129.7522  137.2421  162.0507 N   0  0  0  0  0  0  0  0  0  0  0  0
  129.0631  138.3503  162.2396 C   0  0  0  0  0  0  0  0  0  0  0  0
  129.4433  139.5351  161.6364 C   0  0  0  0  0  0  0  0  0  0  0  0
  130.5645  139.5512  160.8238 C   0  0  0  0  0  0  0  0  0  0  0  0
  131.2697  138.3630  160.6455 C   0  0  0  0  0  0  0  0  0  0  0  0
  132.4069  138.3282  159.8348 N   0  0  0  0  0  0  0  0  0  0  0  0
  133.2500  139.5193  159.7041 C   0  0  2  0  0  0  0  0  0  0  0  0
  132.6745  140.3499  159.2955 H   0  0  0  0  0  0  0  0  0  0  0  0
  134.4464  139.2248  158.8275 C   0  0  0  0  0  0  0  0  0  0  0  0
  135.5217  139.0441  159.5450 C   0  0  0  0  0  0  0  0  0  0  0  0
  135.2228  139.1880  161.0191 C   0  0  1  0  0  0  0  0  0  0  0  0
  135.1578  138.2083  161.4925 H   0  0  0  0  0  0  0  0  0  0  0  0
  136.2265  139.9816  161.6555 O   0  0  0  0  0  0  0  0  0  0  0  0
  133.8539  139.9047  161.0745 C   0  0  1  0  0  0  0  0  0  0  0  0
  133.2441  139.5212  161.8925 H   0  0  0  0  0  0  0  0  0  0  0  0
  134.0198  141.3199  161.1821 O   0  0  0  0  0  0  0  0  0  0  0  0
  126.7296  135.7264  161.8176 C   0  0  0  0  0  0  0  0  0  0  0  0
  125.3722  135.2293  162.0038 N   0  0  0  0  0  0  0  0  0  0  0  0
  125.7891  131.9780  161.9938 H   0  0  0  0  0  0  0  0  0  0  0  0
  125.7902  132.6532  160.3486 H   0  0  0  0  0  0  0  0  0  0  0  0
  128.0849  132.6521  161.0922 H   0  0  0  0  0  0  0  0  0  0  0  0
  127.6415  133.3802  162.6576 H   0  0  0  0  0  0  0  0  0  0  0  0
  129.3219  135.6164  161.7621 H   0  0  0  0  0  0  0  0  0  0  0  0
  128.3229  133.9074  158.8338 H   0  0  0  0  0  0  0  0  0  0  0  0
  130.7895  134.6728  157.4386 H   0  0  0  0  0  0  0  0  0  0  0  0
  128.4301  132.7678  156.7732 H   0  0  0  0  0  0  0  0  0  0  0  0
  129.2374  133.9694  155.6754 H   0  0  0  0  0  0  0  0  0  0  0  0
  131.3340  132.7003  155.6788 H   0  0  0  0  0  0  0  0  0  0  0  0
  130.2501  131.2916  156.0553 H   0  0  0  0  0  0  0  0  0  0  0  0
  131.8838  132.5711  158.0637 H   0  0  0  0  0  0  0  0  0  0  0  0
  130.2953  131.7830  158.4571 H   0  0  0  0  0  0  0  0  0  0  0  0
  132.6255  136.1287  160.9235 H   0  0  0  0  0  0  0  0  0  0  0  0
  131.4619  135.3026  161.9873 H   0  0  0  0  0  0  0  0  0  0  0  0
  128.1898  138.3325  162.8746 H   0  0  0  0  0  0  0  0  0  0  0  0
  128.8722  140.4376  161.7971 H   0  0  0  0  0  0  0  0  0  0  0  0
  130.8847  140.4624  160.3403 H   0  0  0  0  0  0  0  0  0  0  0  0
  132.6384  137.5156  159.3584 H   0  0  0  0  0  0  0  0  0  0  0  0
  134.4150  139.1705  157.7494 H   0  0  0  0  0  0  0  0  0  0  0  0
  136.4971  138.8213  159.1383 H   0  0  0  0  0  0  0  0  0  0  0  0
  136.0486  140.1674  162.5877 H   0  0  0  0  0  0  0  0  0  0  0  0
  134.4414  141.6053  162.0043 H   0  0  0  0  0  0  0  0  0  0  0  0
  127.2026  135.8558  162.7910 H   0  0  0  0  0  0  0  0  0  0  0  0
  126.6909  136.6878  161.3052 H   0  0  0  0  0  0  0  0  0  0  0  0
  124.6865  135.8653  162.2607 H   0  0  0  0  0  0  0  0  0  0  0  0
  1  2  2  0
  2 35  1  0
  2  3  1  0
  3  4  1  0
  3 36  1  0
  3 37  1  0
  4  5  1  0
  4 38  1  0
  4 39  1  0
  5  6  1  6
  5  7  1  0
  5 34  1  0
  7 40  1  0
  8  7  1  0
  8  9  1  0
  8 14  2  0
  9 10  1  0
  9 41  1  0
 10 13  1  0
 10 11  1  0
 10 42  1  0
 11 12  1  0
 11 43  1  0
 11 44  1  0
 12 13  1  0
 12 45  1  0
 12 46  1  0
 13 47  1  0
 13 48  1  0
 14 15  1  0
 14 16  1  0
 16 17  1  0
 16 49  1  0
 16 50  1  0
 17 22  1  0
 17 18  2  0
 18 19  1  0
 19 20  2  0
 19 51  1  0
 20 21  1  0
 20 52  1  0
 21 22  2  0
 21 53  1  0
 22 23  1  0
 23 24  1  0
 23 54  1  0
 24 25  1  6
 24 31  1  0
 24 26  1  0
 26 27  2  0
 26 55  1  0
 27 28  1  0
 27 56  1  0
 28 29  1  1
 28 30  1  0
 28 31  1  0
 30 57  1  0
 31 32  1  1
 31 33  1  0
 33 58  1  0
 34 35  1  0
 34 59  1  0
 34 60  1  0
 35 61  1  0
M  CHG  1  14   1
M  END
>  <DOCK_score>  (1) 
-51.937649

>  <SMILES>  (1) 
O=C1CC[C@H](NC(NC2CCC2)=[NH+]Cc2ncccc2N[C@@H]2C=C[C@@H](O)[C@H]2O)CN1

$$$$
