Brc1ccc(-c2c[nH]c(N[C@@H](c3ccccc3)c3ccc(Br)cc3)[nH+]2)cc1
     RDKit          3D

 45 48  0  0  1  0  0  0  0  0999 V2000
  131.6234  129.4915  152.0277 Br  0  0  0  0  0  0  0  0  0  0  0  0
  131.1303  130.4973  153.5513 C   0  0  0  0  0  0  0  0  0  0  0  0
  130.8488  131.8467  153.4255 C   0  0  0  0  0  0  0  0  0  0  0  0
  130.4891  132.5852  154.5343 C   0  0  0  0  0  0  0  0  0  0  0  0
  130.4089  131.9699  155.7823 C   0  0  0  0  0  0  0  0  0  0  0  0
  130.0231  132.7590  156.9776 C   0  0  0  0  0  0  0  0  0  0  0  0
  129.3640  132.2890  158.0656 C   0  0  0  0  0  0  0  0  0  0  0  0
  129.2124  133.3476  158.9280 N   0  0  0  0  0  0  0  0  0  0  0  0
  128.7785  133.3246  159.7953 H   0  0  0  0  0  0  0  0  0  0  0  0
  129.7839  134.4345  158.3413 C   0  0  0  0  0  0  0  0  0  0  0  0
  129.8441  135.7061  158.8851 N   0  0  0  0  0  0  0  0  0  0  0  0
  129.2599  135.9677  160.2029 C   0  0  1  0  0  0  0  0  0  0  0  0
  128.1939  135.7416  160.1791 H   0  0  0  0  0  0  0  0  0  0  0  0
  129.9348  135.0989  161.2328 C   0  0  0  0  0  0  0  0  0  0  0  0
  129.2368  134.6839  162.3515 C   0  0  0  0  0  0  0  0  0  0  0  0
  129.8580  133.8928  163.2998 C   0  0  0  0  0  0  0  0  0  0  0  0
  131.1764  133.5148  163.1282 C   0  0  0  0  0  0  0  0  0  0  0  0
  131.8743  133.9293  162.0093 C   0  0  0  0  0  0  0  0  0  0  0  0
  131.2536  134.7215  161.0618 C   0  0  0  0  0  0  0  0  0  0  0  0
  129.4581  137.4180  160.5613 C   0  0  0  0  0  0  0  0  0  0  0  0
  128.5365  138.0635  161.3645 C   0  0  0  0  0  0  0  0  0  0  0  0
  128.7204  139.3922  161.6974 C   0  0  0  0  0  0  0  0  0  0  0  0
  129.8213  140.0791  161.2180 C   0  0  0  0  0  0  0  0  0  0  0  0
  130.0692  141.8993  161.6668 Br  0  0  0  0  0  0  0  0  0  0  0  0
  130.7403  139.4342  160.4102 C   0  0  0  0  0  0  0  0  0  0  0  0
  130.5583  138.1040  160.0820 C   0  0  0  0  0  0  0  0  0  0  0  0
  130.2629  134.0799  157.1739 N   0  0  0  0  0  0  0  0  0  0  0  0
  130.7178  134.6676  156.5505 H   0  0  0  0  0  0  0  0  0  0  0  0
  130.6980  130.6119  155.9044 C   0  0  0  0  0  0  0  0  0  0  0  0
  131.0516  129.8814  154.7883 C   0  0  0  0  0  0  0  0  0  0  0  0
  130.9115  132.3224  152.4579 H   0  0  0  0  0  0  0  0  0  0  0  0
  130.2697  133.6380  154.4350 H   0  0  0  0  0  0  0  0  0  0  0  0
  129.0230  131.2765  158.2235 H   0  0  0  0  0  0  0  0  0  0  0  0
  130.2730  136.4240  158.3935 H   0  0  0  0  0  0  0  0  0  0  0  0
  128.2064  134.9787  162.4852 H   0  0  0  0  0  0  0  0  0  0  0  0
  129.3124  133.5684  164.1736 H   0  0  0  0  0  0  0  0  0  0  0  0
  131.6613  132.8952  163.8681 H   0  0  0  0  0  0  0  0  0  0  0  0
  132.9044  133.6338  161.8752 H   0  0  0  0  0  0  0  0  0  0  0  0
  131.7988  135.0454  160.1875 H   0  0  0  0  0  0  0  0  0  0  0  0
  127.6749  137.5281  161.7352 H   0  0  0  0  0  0  0  0  0  0  0  0
  128.0024  139.8954  162.3280 H   0  0  0  0  0  0  0  0  0  0  0  0
  131.5998  139.9704  160.0354 H   0  0  0  0  0  0  0  0  0  0  0  0
  131.2761  137.6004  159.4515 H   0  0  0  0  0  0  0  0  0  0  0  0
  130.6412  130.1314  156.8699 H   0  0  0  0  0  0  0  0  0  0  0  0
  131.2722  128.8282  154.8813 H   0  0  0  0  0  0  0  0  0  0  0  0
  1  2  1  0
  2 30  2  0
  2  3  1  0
  3  4  2  0
  3 31  1  0
  4  5  1  0
  4 32  1  0
  5  6  1  0
  5 29  2  0
  6 27  1  0
  6  7  2  0
  7  8  1  0
  7 33  1  0
  8  9  1  0
  8 10  1  0
 10 11  1  0
 10 27  2  0
 11 12  1  0
 11 34  1  0
 12 13  1  6
 12 14  1  0
 12 20  1  0
 14 19  1  0
 14 15  2  0
 15 16  1  0
 15 35  1  0
 16 17  2  0
 16 36  1  0
 17 18  1  0
 17 37  1  0
 18 19  2  0
 18 38  1  0
 19 39  1  0
 20 26  1  0
 20 21  2  0
 21 22  1  0
 21 40  1  0
 22 23  2  0
 22 41  1  0
 23 24  1  0
 23 25  1  0
 25 26  2  0
 25 42  1  0
 26 43  1  0
 27 28  1  0
 29 30  1  0
 29 44  1  0
 30 45  1  0
M  CHG  1  27   1
M  END
>  <DOCK_score>  (1) 
-56.750847

>  <SMILES>  (1) 
Brc1ccc(-c2c[nH]c(N[C@@H](c3ccccc3)c3ccc(Br)cc3)[nH+]2)cc1

$$$$
