CCNc1ccc(C(=O)C2=CCCC2)c(Nc2[nH]c3ccccc3[nH+]2)c1
     RDKit          3D

 49 52  0  0  0  0  0  0  0  0999 V2000
  130.7359  131.1039  157.0256 C   0  0  0  0  0  0  0  0  0  0  0  0
  130.0172  132.4453  157.1837 C   0  0  0  0  0  0  0  0  0  0  0  0
  130.8443  133.3510  157.9847 N   0  0  0  0  0  0  0  0  0  0  0  0
  130.2439  134.3213  158.7789 C   0  0  0  0  0  0  0  0  0  0  0  0
  128.9327  134.7191  158.5176 C   0  0  0  0  0  0  0  0  0  0  0  0
  128.3331  135.6705  159.2896 C   0  0  0  0  0  0  0  0  0  0  0  0
  129.0316  136.2555  160.3524 C   0  0  0  0  0  0  0  0  0  0  0  0
  128.3855  137.2825  161.1848 C   0  0  0  0  0  0  0  0  0  0  0  0
  127.3702  137.0163  161.8008 O   0  0  0  0  0  0  0  0  0  0  0  0
  128.9670  138.6308  161.2725 C   0  0  0  0  0  0  0  0  0  0  0  0
  129.6548  139.2200  160.3022 C   0  0  0  0  0  0  0  0  0  0  0  0
  130.0995  140.6012  160.7244 C   0  0  0  0  0  0  0  0  0  0  0  0
  129.9440  140.6145  162.2621 C   0  0  0  0  0  0  0  0  0  0  0  0
  128.8572  139.5366  162.4769 C   0  0  0  0  0  0  0  0  0  0  0  0
  130.3556  135.8617  160.6176 C   0  0  0  0  0  0  0  0  0  0  0  0
  131.0609  136.4408  161.6677 N   0  0  0  0  0  0  0  0  0  0  0  0
  132.2297  137.1247  161.4178 C   0  0  0  0  0  0  0  0  0  0  0  0
  132.9777  137.7197  162.3440 N   0  0  0  0  0  0  0  0  0  0  0  0
  132.7907  137.7421  163.2956 H   0  0  0  0  0  0  0  0  0  0  0  0
  134.0577  138.2927  161.7266 C   0  0  0  0  0  0  0  0  0  0  0  0
  135.1489  139.0280  162.1810 C   0  0  0  0  0  0  0  0  0  0  0  0
  136.0899  139.4829  161.2831 C   0  0  0  0  0  0  0  0  0  0  0  0
  135.9579  139.2135  159.9286 C   0  0  0  0  0  0  0  0  0  0  0  0
  134.8841  138.4872  159.4619 C   0  0  0  0  0  0  0  0  0  0  0  0
  133.9241  138.0200  160.3553 C   0  0  0  0  0  0  0  0  0  0  0  0
  132.7728  137.2917  160.2141 N   0  0  0  0  0  0  0  0  0  0  0  0
  132.4136  136.9550  159.3783 H   0  0  0  0  0  0  0  0  0  0  0  0
  130.9518  134.8902  159.8297 C   0  0  0  0  0  0  0  0  0  0  0  0
  131.6918  131.2604  156.5260 H   0  0  0  0  0  0  0  0  0  0  0  0
  130.9073  130.6654  158.0088 H   0  0  0  0  0  0  0  0  0  0  0  0
  130.1204  130.4299  156.4296 H   0  0  0  0  0  0  0  0  0  0  0  0
  129.0612  132.2886  157.6834 H   0  0  0  0  0  0  0  0  0  0  0  0
  129.8458  132.8836  156.2005 H   0  0  0  0  0  0  0  0  0  0  0  0
  131.8109  133.2738  157.9608 H   0  0  0  0  0  0  0  0  0  0  0  0
  128.3891  134.2713  157.6988 H   0  0  0  0  0  0  0  0  0  0  0  0
  127.3176  135.9732  159.0804 H   0  0  0  0  0  0  0  0  0  0  0  0
  129.8673  138.7734  159.3422 H   0  0  0  0  0  0  0  0  0  0  0  0
  131.1407  140.7656  160.4469 H   0  0  0  0  0  0  0  0  0  0  0  0
  129.4610  141.3600  160.2720 H   0  0  0  0  0  0  0  0  0  0  0  0
  130.8763  140.3316  162.7511 H   0  0  0  0  0  0  0  0  0  0  0  0
  129.6026  141.5890  162.6115 H   0  0  0  0  0  0  0  0  0  0  0  0
  127.8697  139.9964  162.5170 H   0  0  0  0  0  0  0  0  0  0  0  0
  129.0533  138.9771  163.3915 H   0  0  0  0  0  0  0  0  0  0  0  0
  130.7293  136.3627  162.5760 H   0  0  0  0  0  0  0  0  0  0  0  0
  135.2579  139.2410  163.2342 H   0  0  0  0  0  0  0  0  0  0  0  0
  136.9365  140.0530  161.6364 H   0  0  0  0  0  0  0  0  0  0  0  0
  136.7021  139.5759  159.2349 H   0  0  0  0  0  0  0  0  0  0  0  0
  134.7876  138.2807  158.4062 H   0  0  0  0  0  0  0  0  0  0  0  0
  131.9668  134.5797  160.0291 H   0  0  0  0  0  0  0  0  0  0  0  0
  1  2  1  0
  1 29  1  0
  1 30  1  0
  1 31  1  0
  2  3  1  0
  2 32  1  0
  2 33  1  0
  3  4  1  0
  3 34  1  0
  4 28  2  0
  4  5  1  0
  5  6  2  0
  5 35  1  0
  6  7  1  0
  6 36  1  0
  7  8  1  0
  7 15  2  0
  8  9  2  0
  8 10  1  0
 10 14  1  0
 10 11  2  0
 11 12  1  0
 11 37  1  0
 12 13  1  0
 12 38  1  0
 12 39  1  0
 13 14  1  0
 13 40  1  0
 13 41  1  0
 14 42  1  0
 14 43  1  0
 15 16  1  0
 15 28  1  0
 16 17  1  0
 16 44  1  0
 17 26  1  0
 17 18  2  0
 18 19  1  0
 18 20  1  0
 20 25  2  0
 20 21  1  0
 21 22  2  0
 21 45  1  0
 22 23  1  0
 22 46  1  0
 23 24  2  0
 23 47  1  0
 24 25  1  0
 24 48  1  0
 25 26  1  0
 26 27  1  0
 28 49  1  0
M  CHG  1  18   1
M  END
>  <DOCK_score>  (1) 
-47.616165

>  <SMILES>  (1) 
CCNc1ccc(C(=O)C2=CCCC2)c(Nc2[nH]c3ccccc3[nH+]2)c1

$$$$
