CCc1ccc(-c2c[nH]c(N[C@@H](C3=CCCC3)c3ccnn3C)[nH+]2)cc1
     RDKit          3D

 52 55  0  0  1  0  0  0  0  0999 V2000
  130.4093  128.4397  151.8626 C   0  0  0  0  0  0  0  0  0  0  0  0
  131.5123  129.4563  152.1636 C   0  0  0  0  0  0  0  0  0  0  0  0
  131.1182  130.2863  153.3582 C   0  0  0  0  0  0  0  0  0  0  0  0
  131.4708  129.8738  154.6300 C   0  0  0  0  0  0  0  0  0  0  0  0
  131.1176  130.6327  155.7274 C   0  0  0  0  0  0  0  0  0  0  0  0
  130.3943  131.8111  155.5526 C   0  0  0  0  0  0  0  0  0  0  0  0
  130.0069  132.6282  156.7284 C   0  0  0  0  0  0  0  0  0  0  0  0
  129.2377  132.2177  157.7671 C   0  0  0  0  0  0  0  0  0  0  0  0
  129.1299  133.2823  158.6285 N   0  0  0  0  0  0  0  0  0  0  0  0
  128.6399  133.2968  159.4655 H   0  0  0  0  0  0  0  0  0  0  0  0
  129.8371  134.3132  158.0906 C   0  0  0  0  0  0  0  0  0  0  0  0
  129.9806  135.5713  158.6501 N   0  0  0  0  0  0  0  0  0  0  0  0
  129.9550  135.7327  160.1061 C   0  0  1  0  0  0  0  0  0  0  0  0
  130.5014  134.9128  160.5721 H   0  0  0  0  0  0  0  0  0  0  0  0
  130.6011  137.0424  160.4776 C   0  0  0  0  0  0  0  0  0  0  0  0
  131.6533  137.1560  161.2418 C   0  0  0  0  0  0  0  0  0  0  0  0
  132.0472  138.6047  161.4133 C   0  0  0  0  0  0  0  0  0  0  0  0
  131.2977  139.3534  160.2869 C   0  0  0  0  0  0  0  0  0  0  0  0
  130.1124  138.3970  160.0200 C   0  0  0  0  0  0  0  0  0  0  0  0
  128.5271  135.7227  160.5875 C   0  0  0  0  0  0  0  0  0  0  0  0
  127.4473  136.1471  159.8910 C   0  0  0  0  0  0  0  0  0  0  0  0
  126.3176  135.9655  160.6956 C   0  0  0  0  0  0  0  0  0  0  0  0
  126.7052  135.4507  161.8342 N   0  0  0  0  0  0  0  0  0  0  0  0
  128.0953  135.2833  161.7882 N   0  0  0  0  0  0  0  0  0  0  0  0
  128.9328  134.7318  162.8562 C   0  0  0  0  0  0  0  0  0  0  0  0
  130.3645  133.9167  156.9581 N   0  0  0  0  0  0  0  0  0  0  0  0
  130.9197  134.4586  156.3759 H   0  0  0  0  0  0  0  0  0  0  0  0
  130.0367  132.2193  154.2688 C   0  0  0  0  0  0  0  0  0  0  0  0
  130.4002  131.4554  153.1784 C   0  0  0  0  0  0  0  0  0  0  0  0
  130.2694  127.7897  152.7263 H   0  0  0  0  0  0  0  0  0  0  0  0
  129.4786  128.9653  151.6490 H   0  0  0  0  0  0  0  0  0  0  0  0
  130.6942  127.8395  150.9986 H   0  0  0  0  0  0  0  0  0  0  0  0
  132.4427  128.9313  152.3767 H   0  0  0  0  0  0  0  0  0  0  0  0
  131.6519  130.1069  151.2994 H   0  0  0  0  0  0  0  0  0  0  0  0
  132.0272  128.9580  154.7646 H   0  0  0  0  0  0  0  0  0  0  0  0
  131.3976  130.3119  156.7199 H   0  0  0  0  0  0  0  0  0  0  0  0
  128.7945  131.2409  157.8928 H   0  0  0  0  0  0  0  0  0  0  0  0
  130.0982  136.3459  158.0783 H   0  0  0  0  0  0  0  0  0  0  0  0
  132.1751  136.3238  161.6906 H   0  0  0  0  0  0  0  0  0  0  0  0
  133.1244  138.7242  161.2974 H   0  0  0  0  0  0  0  0  0  0  0  0
  131.7283  138.9701  162.3895 H   0  0  0  0  0  0  0  0  0  0  0  0
  131.9246  139.4564  159.4012 H   0  0  0  0  0  0  0  0  0  0  0  0
  130.9458  140.3264  160.6298 H   0  0  0  0  0  0  0  0  0  0  0  0
  129.8741  138.3752  158.9565 H   0  0  0  0  0  0  0  0  0  0  0  0
  129.2395  138.7008  160.5977 H   0  0  0  0  0  0  0  0  0  0  0  0
  127.4561  136.5542  158.8908 H   0  0  0  0  0  0  0  0  0  0  0  0
  125.3010  136.2088  160.4241 H   0  0  0  0  0  0  0  0  0  0  0  0
  129.2648  135.5378  163.5106 H   0  0  0  0  0  0  0  0  0  0  0  0
  128.3563  134.0091  163.4334 H   0  0  0  0  0  0  0  0  0  0  0  0
  129.8007  134.2381  162.4189 H   0  0  0  0  0  0  0  0  0  0  0  0
  129.4759  133.1316  154.1276 H   0  0  0  0  0  0  0  0  0  0  0  0
  130.1239  131.7711  152.1832 H   0  0  0  0  0  0  0  0  0  0  0  0
  1  2  1  0
  1 30  1  0
  1 31  1  0
  1 32  1  0
  2  3  1  0
  2 33  1  0
  2 34  1  0
  3 29  2  0
  3  4  1  0
  4  5  2  0
  4 35  1  0
  5  6  1  0
  5 36  1  0
  6  7  1  0
  6 28  2  0
  7 26  1  0
  7  8  2  0
  8  9  1  0
  8 37  1  0
  9 10  1  0
  9 11  1  0
 11 12  1  0
 11 26  2  0
 12 13  1  0
 12 38  1  0
 13 14  1  1
 13 15  1  0
 13 20  1  0
 15 19  1  0
 15 16  2  0
 16 17  1  0
 16 39  1  0
 17 18  1  0
 17 40  1  0
 17 41  1  0
 18 19  1  0
 18 42  1  0
 18 43  1  0
 19 44  1  0
 19 45  1  0
 20 24  1  0
 20 21  2  0
 21 22  1  0
 21 46  1  0
 22 23  2  0
 22 47  1  0
 23 24  1  0
 24 25  1  0
 25 48  1  0
 25 49  1  0
 25 50  1  0
 26 27  1  0
 28 29  1  0
 28 51  1  0
 29 52  1  0
M  CHG  1  26   1
M  END
>  <DOCK_score>  (1) 
-52.335335

>  <SMILES>  (1) 
CCc1ccc(-c2c[nH]c(N[C@@H](C3=CCCC3)c3ccnn3C)[nH+]2)cc1

$$$$
