C[C@H](Cc1c[nH]c2ccc(OCc3ccncc3)cc12)[NH2+]C1CC(Cc2cccc3nonc23)C1
     RDKit          3D

 65 70  0  0  1  0  0  0  0  0999 V2000
  130.8042  138.3810  162.3276 C   0  0  0  0  0  0  0  0  0  0  0  0
  131.7932  138.2148  161.1721 C   0  0  2  0  0  0  0  0  0  0  0  0
  132.7468  137.8553  161.5588 H   0  0  0  0  0  0  0  0  0  0  0  0
  131.9997  139.5633  160.4795 C   0  0  0  0  0  0  0  0  0  0  0  0
  133.2876  139.5344  159.6975 C   0  0  0  0  0  0  0  0  0  0  0  0
  133.4373  139.1510  158.4196 C   0  0  0  0  0  0  0  0  0  0  0  0
  134.7496  139.2624  158.0499 N   0  0  0  0  0  0  0  0  0  0  0  0
  135.1020  139.0450  157.1727 H   0  0  0  0  0  0  0  0  0  0  0  0
  135.4981  139.7235  159.1125 C   0  0  0  0  0  0  0  0  0  0  0  0
  136.8504  140.0040  159.2777 C   0  0  0  0  0  0  0  0  0  0  0  0
  137.3148  140.4641  160.4893 C   0  0  0  0  0  0  0  0  0  0  0  0
  136.4423  140.6530  161.5582 C   0  0  0  0  0  0  0  0  0  0  0  0
  136.9177  141.1081  162.7483 O   0  0  0  0  0  0  0  0  0  0  0  0
  135.9689  141.2795  163.8031 C   0  0  0  0  0  0  0  0  0  0  0  0
  136.6734  141.7866  165.0350 C   0  0  0  0  0  0  0  0  0  0  0  0
  136.4027  141.2432  166.2814 C   0  0  0  0  0  0  0  0  0  0  0  0
  137.0714  141.7310  167.3882 C   0  0  0  0  0  0  0  0  0  0  0  0
  137.9500  142.7071  167.2695 N   0  0  0  0  0  0  0  0  0  0  0  0
  138.2290  143.2507  166.1009 C   0  0  0  0  0  0  0  0  0  0  0  0
  137.6032  142.8114  164.9495 C   0  0  0  0  0  0  0  0  0  0  0  0
  135.0967  140.3809  161.4143 C   0  0  0  0  0  0  0  0  0  0  0  0
  134.6143  139.9136  160.1896 C   0  0  0  0  0  0  0  0  0  0  0  0
  131.2595  137.2450  160.2063 N   0  0  0  0  0  0  0  0  0  0  0  0
  131.7175  137.3699  159.3161 H   0  0  0  0  0  0  0  0  0  0  0  0
  130.2670  137.3904  160.0973 H   0  0  0  0  0  0  0  0  0  0  0  0
  131.5038  135.8816  160.6956 C   0  0  1  0  0  0  0  0  0  0  0  0
  130.2611  135.2119  161.3056 C   0  0  0  0  0  0  0  0  0  0  0  0
  130.7145  133.9172  160.6109 C   0  0  1  0  0  0  0  0  0  0  0  0
  129.5649  133.1094  160.0053 C   0  0  0  0  0  0  0  0  0  0  0  0
  130.1243  132.0241  159.1220 C   0  0  0  0  0  0  0  0  0  0  0  0
  130.4136  130.8037  159.6373 C   0  0  0  0  0  0  0  0  0  0  0  0
  130.9292  129.7687  158.8468 C   0  0  0  0  0  0  0  0  0  0  0  0
  131.1788  129.9325  157.5242 C   0  0  0  0  0  0  0  0  0  0  0  0
  130.9088  131.1749  156.9183 C   0  0  0  0  0  0  0  0  0  0  0  0
  130.9973  131.7309  155.7353 N   0  0  0  0  0  0  0  0  0  0  0  0
  130.6037  132.8779  155.8049 O   0  0  0  0  0  0  0  0  0  0  0  0
  130.2296  133.2528  156.8980 N   0  0  0  0  0  0  0  0  0  0  0  0
  130.3566  132.2698  157.7548 C   0  0  0  0  0  0  0  0  0  0  0  0
  131.4425  134.8113  159.5932 C   0  0  0  0  0  0  0  0  0  0  0  0
  131.2002  139.1005  163.0441 H   0  0  0  0  0  0  0  0  0  0  0  0
  129.8507  138.7406  161.9408 H   0  0  0  0  0  0  0  0  0  0  0  0
  130.6571  137.4202  162.8209 H   0  0  0  0  0  0  0  0  0  0  0  0
  131.1675  139.7551  159.8022 H   0  0  0  0  0  0  0  0  0  0  0  0
  132.0475  140.3531  161.2290 H   0  0  0  0  0  0  0  0  0  0  0  0
  132.6393  138.8078  157.7780 H   0  0  0  0  0  0  0  0  0  0  0  0
  137.5360  139.8604  158.4557 H   0  0  0  0  0  0  0  0  0  0  0  0
  138.3659  140.6803  160.6122 H   0  0  0  0  0  0  0  0  0  0  0  0
  135.2104  141.9997  163.4959 H   0  0  0  0  0  0  0  0  0  0  0  0
  135.4939  140.3236  164.0235 H   0  0  0  0  0  0  0  0  0  0  0  0
  135.6810  140.4467  166.3858 H   0  0  0  0  0  0  0  0  0  0  0  0
  136.8688  141.3108  168.3624 H   0  0  0  0  0  0  0  0  0  0  0  0
  138.9545  144.0485  166.0429 H   0  0  0  0  0  0  0  0  0  0  0  0
  137.8359  143.2606  163.9953 H   0  0  0  0  0  0  0  0  0  0  0  0
  134.4210  140.5280  162.2438 H   0  0  0  0  0  0  0  0  0  0  0  0
  132.3914  135.8102  161.3245 H   0  0  0  0  0  0  0  0  0  0  0  0
  130.2857  135.1552  162.3939 H   0  0  0  0  0  0  0  0  0  0  0  0
  129.3201  135.6067  160.9225 H   0  0  0  0  0  0  0  0  0  0  0  0
  131.3863  133.3089  161.2166 H   0  0  0  0  0  0  0  0  0  0  0  0
  128.9761  132.6599  160.8049 H   0  0  0  0  0  0  0  0  0  0  0  0
  128.9301  133.7686  159.4132 H   0  0  0  0  0  0  0  0  0  0  0  0
  130.2370  130.6230  160.6874 H   0  0  0  0  0  0  0  0  0  0  0  0
  131.1384  128.8136  159.3053 H   0  0  0  0  0  0  0  0  0  0  0  0
  131.5812  129.1177  156.9406 H   0  0  0  0  0  0  0  0  0  0  0  0
  130.8243  135.0963  158.7417 H   0  0  0  0  0  0  0  0  0  0  0  0
  132.4206  134.4308  159.2989 H   0  0  0  0  0  0  0  0  0  0  0  0
  1  2  1  0
  1 40  1  0
  1 41  1  0
  1 42  1  0
  2  3  1  1
  2  4  1  0
  2 23  1  0
  4  5  1  0
  4 43  1  0
  4 44  1  0
  5 22  1  0
  5  6  2  0
  6  7  1  0
  6 45  1  0
  7  8  1  0
  7  9  1  0
  9 22  2  0
  9 10  1  0
 10 11  2  0
 10 46  1  0
 11 12  1  0
 11 47  1  0
 12 13  1  0
 12 21  2  0
 13 14  1  0
 14 15  1  0
 14 48  1  0
 14 49  1  0
 15 20  1  0
 15 16  2  0
 16 17  1  0
 16 50  1  0
 17 18  2  0
 17 51  1  0
 18 19  1  0
 19 20  2  0
 19 52  1  0
 20 53  1  0
 21 22  1  0
 21 54  1  0
 23 24  1  0
 23 25  1  0
 23 26  1  0
 26 39  1  0
 26 27  1  0
 26 55  1  1
 27 28  1  0
 27 56  1  0
 27 57  1  0
 28 29  1  0
 28 39  1  0
 28 58  1  1
 29 30  1  0
 29 59  1  0
 29 60  1  0
 30 38  1  0
 30 31  2  0
 31 32  1  0
 31 61  1  0
 32 33  2  0
 32 62  1  0
 33 34  1  0
 33 63  1  0
 34 38  1  0
 34 35  2  0
 35 36  1  0
 36 37  1  0
 37 38  2  0
 39 64  1  0
 39 65  1  0
M  CHG  1  23   1
M  END
>  <DOCK_score>  (1) 
-56.207932

>  <SMILES>  (1) 
C[C@H](Cc1c[nH]c2ccc(OCc3ccncc3)cc12)[NH2+]C1CC(Cc2cccc3nonc23)C1

$$$$
