C[C@H](NC(N[C@H]1C[C@@H](O)C1)=[NH+]Cc1cccs1)C1CCC1
     RDKit          3D

 47 49  0  0  1  0  0  0  0  0999 V2000
  132.7053  135.9369  161.2494 C   0  0  0  0  0  0  0  0  0  0  0  0
  131.4506  136.7001  160.8204 C   0  0  2  0  0  0  0  0  0  0  0  0
  130.7610  136.7677  161.6619 H   0  0  0  0  0  0  0  0  0  0  0  0
  130.8026  135.9920  159.7138 N   0  0  0  0  0  0  0  0  0  0  0  0
  129.8515  135.0340  159.9736 C   0  0  0  0  0  0  0  0  0  0  0  0
  129.0659  135.1322  161.0976 N   0  0  0  0  0  0  0  0  0  0  0  0
  128.0524  134.1112  161.3744 C   0  0  1  0  0  0  0  0  0  0  0  0
  128.4762  133.1130  161.4847 H   0  0  0  0  0  0  0  0  0  0  0  0
  127.0821  134.4966  162.5035 C   0  0  0  0  0  0  0  0  0  0  0  0
  125.9654  133.8724  161.6501 C   0  0  1  0  0  0  0  0  0  0  0  0
  125.8175  132.8085  161.8351 H   0  0  0  0  0  0  0  0  0  0  0  0
  124.7445  134.6146  161.6734 O   0  0  0  0  0  0  0  0  0  0  0  0
  126.8462  134.1664  160.4221 C   0  0  0  0  0  0  0  0  0  0  0  0
  129.6946  134.0323  159.1544 N   0  0  0  0  0  0  0  0  0  0  0  0
  129.0236  133.3563  159.3377 H   0  0  0  0  0  0  0  0  0  0  0  0
  130.5317  133.9277  157.9566 C   0  0  0  0  0  0  0  0  0  0  0  0
  130.7204  132.4755  157.6008 C   0  0  0  0  0  0  0  0  0  0  0  0
  131.7047  131.6955  158.0502 C   0  0  0  0  0  0  0  0  0  0  0  0
  131.6707  130.3903  157.5903 C   0  0  0  0  0  0  0  0  0  0  0  0
  130.6587  130.1104  156.7675 C   0  0  0  0  0  0  0  0  0  0  0  0
  129.6722  131.5480  156.5359 S   0  0  0  0  0  0  0  0  0  0  0  0
  131.8405  138.1082  160.3663 C   0  0  0  0  0  0  0  0  0  0  0  0
  132.0138  139.1035  161.5257 C   0  0  0  0  0  0  0  0  0  0  0  0
  131.3177  140.1444  160.6299 C   0  0  0  0  0  0  0  0  0  0  0  0
  130.6450  138.9622  159.9124 C   0  0  0  0  0  0  0  0  0  0  0  0
  133.3351  135.7546  160.3786 H   0  0  0  0  0  0  0  0  0  0  0  0
  133.2578  136.5273  161.9801 H   0  0  0  0  0  0  0  0  0  0  0  0
  132.4169  134.9847  161.6947 H   0  0  0  0  0  0  0  0  0  0  0  0
  131.0446  136.1991  158.7974 H   0  0  0  0  0  0  0  0  0  0  0  0
  129.1827  135.8775  161.7073 H   0  0  0  0  0  0  0  0  0  0  0  0
  127.2662  133.9660  163.4376 H   0  0  0  0  0  0  0  0  0  0  0  0
  126.9782  135.5729  162.6414 H   0  0  0  0  0  0  0  0  0  0  0  0
  124.8286  135.5206  161.3460 H   0  0  0  0  0  0  0  0  0  0  0  0
  126.6766  135.1522  159.9891 H   0  0  0  0  0  0  0  0  0  0  0  0
  126.8401  133.3696  159.6785 H   0  0  0  0  0  0  0  0  0  0  0  0
  131.5028  134.3832  158.1512 H   0  0  0  0  0  0  0  0  0  0  0  0
  130.0473  134.4449  157.1283 H   0  0  0  0  0  0  0  0  0  0  0  0
  132.4700  132.0548  158.7222 H   0  0  0  0  0  0  0  0  0  0  0  0
  132.4075  129.6541  157.8763 H   0  0  0  0  0  0  0  0  0  0  0  0
  130.4740  129.1484  156.3127 H   0  0  0  0  0  0  0  0  0  0  0  0
  132.6716  138.1105  159.6610 H   0  0  0  0  0  0  0  0  0  0  0  0
  131.4418  138.8411  162.4156 H   0  0  0  0  0  0  0  0  0  0  0  0
  133.0546  139.3414  161.7451 H   0  0  0  0  0  0  0  0  0  0  0  0
  132.0064  140.7045  159.9975 H   0  0  0  0  0  0  0  0  0  0  0  0
  130.6178  140.7851  161.1664 H   0  0  0  0  0  0  0  0  0  0  0  0
  130.5824  139.0862  158.8312 H   0  0  0  0  0  0  0  0  0  0  0  0
  129.6981  138.6610  160.3603 H   0  0  0  0  0  0  0  0  0  0  0  0
  1  2  1  0
  1 26  1  0
  1 27  1  0
  1 28  1  0
  2  3  1  1
  2  4  1  0
  2 22  1  0
  4 29  1  0
  5  4  1  0
  5  6  1  0
  5 14  2  0
  6  7  1  0
  6 30  1  0
  7  8  1  1
  7 13  1  0
  7  9  1  0
  9 10  1  0
  9 31  1  0
  9 32  1  0
 10 11  1  1
 10 12  1  0
 10 13  1  0
 12 33  1  0
 13 34  1  0
 13 35  1  0
 14 15  1  0
 14 16  1  0
 16 17  1  0
 16 36  1  0
 16 37  1  0
 17 21  1  0
 17 18  2  0
 18 19  1  0
 18 38  1  0
 19 20  2  0
 19 39  1  0
 20 21  1  0
 20 40  1  0
 22 25  1  0
 22 23  1  0
 22 41  1  0
 23 24  1  0
 23 42  1  0
 23 43  1  0
 24 25  1  0
 24 44  1  0
 24 45  1  0
 25 46  1  0
 25 47  1  0
M  CHG  1  14   1
M  END
>  <DOCK_score>  (1) 
-44.799347

>  <SMILES>  (1) 
C[C@H](NC(N[C@H]1C[C@@H](O)C1)=[NH+]Cc1cccs1)C1CCC1

$$$$
