C1=CCCC([NH2+]Cc2c[nH]nc2-c2ccc(NCCc3cccc4ccccc34)o2)CC1
     RDKit          3D

 63 67  0  0  1  0  0  0  0  0999 V2000
  133.6102  140.3430  161.3001 C   0  0  0  0  0  0  0  0  0  0  0  0
  134.6816  139.7486  161.7201 C   0  0  0  0  0  0  0  0  0  0  0  0
  134.5940  138.3879  162.3771 C   0  0  0  0  0  0  0  0  0  0  0  0
  134.2660  137.3473  161.3039 C   0  0  0  0  0  0  0  0  0  0  0  0
  132.7665  137.2571  161.0824 C   0  0  0  0  0  0  0  0  0  0  0  0
  132.4913  136.1270  160.1852 N   0  0  0  0  0  0  0  0  0  0  0  0
  133.0927  135.3531  160.4248 H   0  0  0  0  0  0  0  0  0  0  0  0
  132.6651  136.4050  159.2309 H   0  0  0  0  0  0  0  0  0  0  0  0
  131.0874  135.7187  160.3282 C   0  0  0  0  0  0  0  0  0  0  0  0
  130.8052  134.5594  159.4078 C   0  0  0  0  0  0  0  0  0  0  0  0
  131.6885  133.9762  158.5695 C   0  0  0  0  0  0  0  0  0  0  0  0
  131.0530  132.9753  157.9223 N   0  0  0  0  0  0  0  0  0  0  0  0
  131.4469  132.3855  157.2605 H   0  0  0  0  0  0  0  0  0  0  0  0
  129.7254  132.9404  158.3674 N   0  0  0  0  0  0  0  0  0  0  0  0
  129.5693  133.8941  159.2642 C   0  0  0  0  0  0  0  0  0  0  0  0
  128.3219  134.2100  159.9904 C   0  0  0  0  0  0  0  0  0  0  0  0
  127.1349  133.5622  159.8529 C   0  0  0  0  0  0  0  0  0  0  0  0
  126.2250  134.1877  160.7279 C   0  0  0  0  0  0  0  0  0  0  0  0
  126.8995  135.1837  161.3546 C   0  0  0  0  0  0  0  0  0  0  0  0
  126.3703  136.0510  162.3034 N   0  0  0  0  0  0  0  0  0  0  0  0
  127.2624  136.7758  163.2117 C   0  0  0  0  0  0  0  0  0  0  0  0
  126.6256  138.1139  163.5920 C   0  0  0  0  0  0  0  0  0  0  0  0
  127.5433  138.8595  164.5263 C   0  0  0  0  0  0  0  0  0  0  0  0
  128.4870  139.7048  164.0285 C   0  0  0  0  0  0  0  0  0  0  0  0
  129.3412  140.4062  164.8770 C   0  0  0  0  0  0  0  0  0  0  0  0
  129.2631  140.2591  166.2280 C   0  0  0  0  0  0  0  0  0  0  0  0
  128.3051  139.3914  166.7785 C   0  0  0  0  0  0  0  0  0  0  0  0
  128.1943  139.2141  168.1683 C   0  0  0  0  0  0  0  0  0  0  0  0
  127.2539  138.3655  168.6660 C   0  0  0  0  0  0  0  0  0  0  0  0
  126.3967  137.6669  167.8175 C   0  0  0  0  0  0  0  0  0  0  0  0
  126.4744  137.8137  166.4668 C   0  0  0  0  0  0  0  0  0  0  0  0
  127.4331  138.6813  165.9156 C   0  0  0  0  0  0  0  0  0  0  0  0
  128.1671  135.1873  160.9082 O   0  0  0  0  0  0  0  0  0  0  0  0
  132.1663  138.5142  160.4782 C   0  0  0  0  0  0  0  0  0  0  0  0
  132.2567  139.6844  161.4613 C   0  0  0  0  0  0  0  0  0  0  0  0
  133.6826  141.3138  160.8326 H   0  0  0  0  0  0  0  0  0  0  0  0
  135.6427  140.2268  161.6012 H   0  0  0  0  0  0  0  0  0  0  0  0
  133.8074  138.3957  163.1315 H   0  0  0  0  0  0  0  0  0  0  0  0
  135.5488  138.1442  162.8430 H   0  0  0  0  0  0  0  0  0  0  0  0
  134.6411  136.3742  161.6210 H   0  0  0  0  0  0  0  0  0  0  0  0
  134.7503  137.6315  160.3696 H   0  0  0  0  0  0  0  0  0  0  0  0
  132.2834  137.0660  162.0406 H   0  0  0  0  0  0  0  0  0  0  0  0
  130.8996  135.4184  161.3591 H   0  0  0  0  0  0  0  0  0  0  0  0
  130.4377  136.5548  160.0692 H   0  0  0  0  0  0  0  0  0  0  0  0
  132.7228  134.2591  158.4405 H   0  0  0  0  0  0  0  0  0  0  0  0
  126.9290  132.7279  159.1988 H   0  0  0  0  0  0  0  0  0  0  0  0
  125.1877  133.9242  160.8724 H   0  0  0  0  0  0  0  0  0  0  0  0
  125.4104  136.1763  162.3640 H   0  0  0  0  0  0  0  0  0  0  0  0
  127.4254  136.1822  164.1113 H   0  0  0  0  0  0  0  0  0  0  0  0
  128.2169  136.9553  162.7170 H   0  0  0  0  0  0  0  0  0  0  0  0
  126.4626  138.7074  162.6923 H   0  0  0  0  0  0  0  0  0  0  0  0
  125.6711  137.9345  164.0867 H   0  0  0  0  0  0  0  0  0  0  0  0
  128.5725  139.8364  162.9599 H   0  0  0  0  0  0  0  0  0  0  0  0
  130.0787  141.0736  164.4562 H   0  0  0  0  0  0  0  0  0  0  0  0
  129.9340  140.8069  166.8732 H   0  0  0  0  0  0  0  0  0  0  0  0
  128.8522  139.7482  168.8380 H   0  0  0  0  0  0  0  0  0  0  0  0
  127.1708  138.2311  169.7344 H   0  0  0  0  0  0  0  0  0  0  0  0
  125.6594  136.9993  168.2384 H   0  0  0  0  0  0  0  0  0  0  0  0
  125.8032  137.2664  165.8217 H   0  0  0  0  0  0  0  0  0  0  0  0
  132.7060  138.7668  159.5655 H   0  0  0  0  0  0  0  0  0  0  0  0
  131.1192  138.3314  160.2361 H   0  0  0  0  0  0  0  0  0  0  0  0
  132.1482  139.3164  162.4815 H   0  0  0  0  0  0  0  0  0  0  0  0
  131.4700  140.4073  161.2449 H   0  0  0  0  0  0  0  0  0  0  0  0
  1 35  1  0
  1  2  2  0
  1 36  1  0
  2  3  1  0
  2 37  1  0
  3  4  1  0
  3 38  1  0
  3 39  1  0
  4  5  1  0
  4 40  1  0
  4 41  1  0
  5  6  1  0
  5 34  1  0
  5 42  1  0
  6  7  1  0
  6  8  1  0
  6  9  1  0
  9 10  1  0
  9 43  1  0
  9 44  1  0
 10 15  1  0
 10 11  2  0
 11 12  1  0
 11 45  1  0
 12 13  1  0
 12 14  1  0
 14 15  2  0
 15 16  1  0
 16 33  1  0
 16 17  2  0
 17 18  1  0
 17 46  1  0
 18 19  2  0
 18 47  1  0
 19 20  1  0
 19 33  1  0
 20 21  1  0
 20 48  1  0
 21 22  1  0
 21 49  1  0
 21 50  1  0
 22 23  1  0
 22 51  1  0
 22 52  1  0
 23 32  1  0
 23 24  2  0
 24 25  1  0
 24 53  1  0
 25 26  2  0
 25 54  1  0
 26 27  1  0
 26 55  1  0
 27 32  2  0
 27 28  1  0
 28 29  2  0
 28 56  1  0
 29 30  1  0
 29 57  1  0
 30 31  2  0
 30 58  1  0
 31 32  1  0
 31 59  1  0
 34 35  1  0
 34 60  1  0
 34 61  1  0
 35 62  1  0
 35 63  1  0
M  CHG  1   6   1
M  END
>  <DOCK_score>  (1) 
-44.60194

>  <SMILES>  (1) 
C1=CCCC([NH2+]Cc2c[nH]nc2-c2ccc(NCCc3cccc4ccccc34)o2)CC1

$$$$
