C=CC[C@H](Nc1[nH]cc(-c2ccc(O)cc2)[nH+]1)c1ccccc1
     RDKit          3D

 43 45  0  0  1  0  0  0  0  0999 V2000
  131.9677  137.4335  160.3899 C   0  0  0  0  0  0  0  0  0  0  0  0
  130.9763  136.6835  160.8027 C   0  0  0  0  0  0  0  0  0  0  0  0
  129.6305  136.7768  160.1308 C   0  0  0  0  0  0  0  0  0  0  0  0
  129.2566  135.4131  159.5463 C   0  0  2  0  0  0  0  0  0  0  0  0
  129.2127  134.6745  160.3467 H   0  0  0  0  0  0  0  0  0  0  0  0
  130.2659  135.0095  158.5642 N   0  0  0  0  0  0  0  0  0  0  0  0
  130.1400  133.8021  157.8985 C   0  0  0  0  0  0  0  0  0  0  0  0
  129.5392  132.6848  158.3905 N   0  0  0  0  0  0  0  0  0  0  0  0
  129.1259  132.5913  159.2631 H   0  0  0  0  0  0  0  0  0  0  0  0
  129.6266  131.7125  157.4226 C   0  0  0  0  0  0  0  0  0  0  0  0
  130.2777  132.2641  156.3689 C   0  0  0  0  0  0  0  0  0  0  0  0
  130.6020  131.5849  155.0904 C   0  0  0  0  0  0  0  0  0  0  0  0
  130.0994  132.0814  153.8887 C   0  0  0  0  0  0  0  0  0  0  0  0
  130.4064  131.4502  152.7014 C   0  0  0  0  0  0  0  0  0  0  0  0
  131.2061  130.3164  152.7029 C   0  0  0  0  0  0  0  0  0  0  0  0
  131.5031  129.6933  151.5321 O   0  0  0  0  0  0  0  0  0  0  0  0
  131.7044  129.8161  153.8987 C   0  0  0  0  0  0  0  0  0  0  0  0
  131.4050  130.4457  155.0890 C   0  0  0  0  0  0  0  0  0  0  0  0
  130.5750  133.5487  156.6882 N   0  0  0  0  0  0  0  0  0  0  0  0
  131.0374  134.1784  156.1134 H   0  0  0  0  0  0  0  0  0  0  0  0
  127.9109  135.5064  158.8745 C   0  0  0  0  0  0  0  0  0  0  0  0
  126.7593  135.2519  159.5955 C   0  0  0  0  0  0  0  0  0  0  0  0
  125.5249  135.3371  158.9790 C   0  0  0  0  0  0  0  0  0  0  0  0
  125.4423  135.6756  157.6414 C   0  0  0  0  0  0  0  0  0  0  0  0
  126.5939  135.9288  156.9200 C   0  0  0  0  0  0  0  0  0  0  0  0
  127.8283  135.8441  157.5365 C   0  0  0  0  0  0  0  0  0  0  0  0
  132.9322  137.3667  160.8714 H   0  0  0  0  0  0  0  0  0  0  0  0
  131.8208  138.1188  159.5682 H   0  0  0  0  0  0  0  0  0  0  0  0
  131.1232  135.9984  161.6244 H   0  0  0  0  0  0  0  0  0  0  0  0
  129.6745  137.5155  159.3304 H   0  0  0  0  0  0  0  0  0  0  0  0
  128.8797  137.0771  160.8616 H   0  0  0  0  0  0  0  0  0  0  0  0
  131.0223  135.5882  158.3803 H   0  0  0  0  0  0  0  0  0  0  0  0
  129.2488  130.7029  157.4887 H   0  0  0  0  0  0  0  0  0  0  0  0
  129.4736  132.9615  153.8871 H   0  0  0  0  0  0  0  0  0  0  0  0
  130.0204  131.8365  151.7697 H   0  0  0  0  0  0  0  0  0  0  0  0
  131.1126  130.1131  150.7535 H   0  0  0  0  0  0  0  0  0  0  0  0
  132.3266  128.9334  153.8969 H   0  0  0  0  0  0  0  0  0  0  0  0
  131.7928  130.0565  156.0188 H   0  0  0  0  0  0  0  0  0  0  0  0
  126.8238  134.9877  160.6407 H   0  0  0  0  0  0  0  0  0  0  0  0
  124.6249  135.1435  159.5437 H   0  0  0  0  0  0  0  0  0  0  0  0
  124.4779  135.7417  157.1597 H   0  0  0  0  0  0  0  0  0  0  0  0
  126.5295  136.1926  155.8747 H   0  0  0  0  0  0  0  0  0  0  0  0
  128.7282  136.0413  156.9728 H   0  0  0  0  0  0  0  0  0  0  0  0
  1  2  2  0
  1 27  1  0
  1 28  1  0
  2  3  1  0
  2 29  1  0
  3  4  1  0
  3 30  1  0
  3 31  1  0
  4  5  1  1
  4  6  1  0
  4 21  1  0
  6 32  1  0
  7  6  1  0
  7 19  2  0
  7  8  1  0
  8  9  1  0
  8 10  1  0
 10 11  2  0
 10 33  1  0
 11 12  1  0
 11 19  1  0
 12 18  1  0
 12 13  2  0
 13 14  1  0
 13 34  1  0
 14 15  2  0
 14 35  1  0
 15 16  1  0
 15 17  1  0
 16 36  1  0
 17 18  2  0
 17 37  1  0
 18 38  1  0
 19 20  1  0
 21 26  1  0
 21 22  2  0
 22 23  1  0
 22 39  1  0
 23 24  2  0
 23 40  1  0
 24 25  1  0
 24 41  1  0
 25 26  2  0
 25 42  1  0
 26 43  1  0
M  CHG  1  19   1
M  END
>  <DOCK_score>  (1) 
-56.781506

>  <SMILES>  (1) 
C=CC[C@H](Nc1[nH]cc(-c2ccc(O)cc2)[nH+]1)c1ccccc1

$$$$
