Oc1ccc2c(c1)C([NH+]1CCC[C@@H]1CC#CC1CC1)c1cc(O)ccc1-2
     RDKit          3D

 50 54  0  0  1  0  0  0  0  0999 V2000
  123.7843  134.8139  161.8208 O   0  0  0  0  0  0  0  0  0  0  0  0
  124.7382  134.2572  161.0294 C   0  0  0  0  0  0  0  0  0  0  0  0
  124.6380  132.9245  160.6538 C   0  0  0  0  0  0  0  0  0  0  0  0
  125.6001  132.3576  159.8460 C   0  0  0  0  0  0  0  0  0  0  0  0
  126.6870  133.1201  159.4125 C   0  0  0  0  0  0  0  0  0  0  0  0
  126.7838  134.4549  159.7980 C   0  0  0  0  0  0  0  0  0  0  0  0
  125.8167  135.0196  160.6006 C   0  0  0  0  0  0  0  0  0  0  0  0
  128.0445  135.0146  159.1858 C   0  0  0  0  0  0  0  0  0  0  0  0
  128.9597  135.4709  160.2405 N   0  0  1  0  0  0  0  0  0  0  0  0
  128.4353  135.9264  160.9723 H   0  0  0  0  0  0  0  0  0  0  0  0
  129.6894  134.3171  160.7975 C   0  0  0  0  0  0  0  0  0  0  0  0
  131.1945  134.5807  160.5815 C   0  0  0  0  0  0  0  0  0  0  0  0
  131.2607  136.1230  160.4275 C   0  0  0  0  0  0  0  0  0  0  0  0
  129.9413  136.4188  159.6718 C   0  0  2  0  0  0  0  0  0  0  0  0
  130.0672  136.2396  158.6040 H   0  0  0  0  0  0  0  0  0  0  0  0
  129.4958  137.8610  159.9220 C   0  0  0  0  0  0  0  0  0  0  0  0
  129.8377  138.2481  161.3003 C   0  0  0  0  0  0  0  0  0  0  0  0
  130.1104  138.5568  162.3997 C   0  0  0  0  0  0  0  0  0  0  0  0
  130.4523  138.9438  163.7783 C   0  0  0  0  0  0  0  0  0  0  0  0
  129.2974  139.1619  164.7578 C   0  0  0  0  0  0  0  0  0  0  0  0
  130.0858  140.3601  164.2257 C   0  0  0  0  0  0  0  0  0  0  0  0
  128.6699  133.8815  158.4097 C   0  0  0  0  0  0  0  0  0  0  0  0
  129.8194  133.8027  157.6542 C   0  0  0  0  0  0  0  0  0  0  0  0
  130.1634  132.6076  157.0359 C   0  0  0  0  0  0  0  0  0  0  0  0
  131.2973  132.5294  156.2911 O   0  0  0  0  0  0  0  0  0  0  0  0
  129.3485  131.4928  157.1795 C   0  0  0  0  0  0  0  0  0  0  0  0
  128.1976  131.5678  157.9341 C   0  0  0  0  0  0  0  0  0  0  0  0
  127.8477  132.7671  158.5581 C   0  0  0  0  0  0  0  0  0  0  0  0
  123.9422  135.7442  162.0322 H   0  0  0  0  0  0  0  0  0  0  0  0
  123.8009  132.3314  160.9918 H   0  0  0  0  0  0  0  0  0  0  0  0
  125.5160  131.3218  159.5519 H   0  0  0  0  0  0  0  0  0  0  0  0
  125.8973  136.0554  160.8958 H   0  0  0  0  0  0  0  0  0  0  0  0
  127.8022  135.8395  158.5157 H   0  0  0  0  0  0  0  0  0  0  0  0
  129.4784  134.2240  161.8628 H   0  0  0  0  0  0  0  0  0  0  0  0
  129.3943  133.4056  160.2777 H   0  0  0  0  0  0  0  0  0  0  0  0
  131.7710  134.2548  161.4473 H   0  0  0  0  0  0  0  0  0  0  0  0
  131.5461  134.0874  159.6752 H   0  0  0  0  0  0  0  0  0  0  0  0
  131.2712  136.6125  161.4012 H   0  0  0  0  0  0  0  0  0  0  0  0
  132.1259  136.4194  159.8344 H   0  0  0  0  0  0  0  0  0  0  0  0
  130.0033  138.5246  159.2217 H   0  0  0  0  0  0  0  0  0  0  0  0
  128.4179  137.9381  159.7797 H   0  0  0  0  0  0  0  0  0  0  0  0
  131.3729  138.5137  164.1726 H   0  0  0  0  0  0  0  0  0  0  0  0
  128.2845  139.0186  164.3816 H   0  0  0  0  0  0  0  0  0  0  0  0
  129.4580  138.8750  165.7970 H   0  0  0  0  0  0  0  0  0  0  0  0
  130.7652  140.8619  164.9151 H   0  0  0  0  0  0  0  0  0  0  0  0
  129.5916  141.0054  163.4995 H   0  0  0  0  0  0  0  0  0  0  0  0
  130.4528  134.6702  157.5425 H   0  0  0  0  0  0  0  0  0  0  0  0
  131.7986  133.3552  156.2500 H   0  0  0  0  0  0  0  0  0  0  0  0
  129.6174  130.5639  156.6983 H   0  0  0  0  0  0  0  0  0  0  0  0
  127.5664  130.6982  158.0434 H   0  0  0  0  0  0  0  0  0  0  0  0
  1  2  1  0
  1 29  1  0
  2  7  2  0
  2  3  1  0
  3  4  2  0
  3 30  1  0
  4  5  1  0
  4 31  1  0
  5 28  1  0
  5  6  2  0
  6  7  1  0
  6  8  1  0
  7 32  1  0
  8  9  1  0
  8 22  1  0
  8 33  1  0
  9 10  1  1
  9 14  1  0
  9 11  1  0
 11 12  1  0
 11 34  1  0
 11 35  1  0
 12 13  1  0
 12 36  1  0
 12 37  1  0
 13 14  1  0
 13 38  1  0
 13 39  1  0
 14 15  1  6
 14 16  1  0
 16 17  1  0
 16 40  1  0
 16 41  1  0
 17 18  3  0
 18 19  1  0
 19 21  1  0
 19 20  1  0
 19 42  1  0
 20 21  1  0
 20 43  1  0
 20 44  1  0
 21 45  1  0
 21 46  1  0
 22 28  2  0
 22 23  1  0
 23 24  2  0
 23 47  1  0
 24 25  1  0
 24 26  1  0
 25 48  1  0
 26 27  2  0
 26 49  1  0
 27 28  1  0
 27 50  1  0
M  CHG  1   9   1
M  END
>  <DOCK_score>  (1) 
-41.313156

>  <SMILES>  (1) 
Oc1ccc2c(c1)C([NH+]1CCC[C@@H]1CC#CC1CC1)c1cc(O)ccc1-2

$$$$
