CC(c1nc2ccccc2[nH]1)[C@@H](Nc1[nH]cc(-c2ccc(N)cc2)[nH+]1)c1ccccc1
     RDKit          3D

 56 60  0  0  1  0  0  0  0  0999 V2000
  129.8762  136.3645  160.1905 C   0  0  0  0  0  0  0  0  0  0  0  0
  130.0339  135.0782  161.0038 C   0  0  1  0  0  0  0  0  0  0  0  0
  128.8454  134.1833  160.7640 C   0  0  0  0  0  0  0  0  0  0  0  0
  128.9050  132.9824  160.2666 N   0  0  0  0  0  0  0  0  0  0  0  0
  127.6539  132.4619  160.1796 C   0  0  0  0  0  0  0  0  0  0  0  0
  127.1474  131.2412  159.7256 C   0  0  0  0  0  0  0  0  0  0  0  0
  125.8025  131.0050  159.7662 C   0  0  0  0  0  0  0  0  0  0  0  0
  124.9292  131.9668  160.2542 C   0  0  0  0  0  0  0  0  0  0  0  0
  125.4063  133.1781  160.7074 C   0  0  0  0  0  0  0  0  0  0  0  0
  126.7701  133.4359  160.6743 C   0  0  0  0  0  0  0  0  0  0  0  0
  127.5544  134.5117  161.0396 N   0  0  0  0  0  0  0  0  0  0  0  0
  127.2423  135.3483  161.4185 H   0  0  0  0  0  0  0  0  0  0  0  0
  131.3118  134.3556  160.5725 C   0  0  1  0  0  0  0  0  0  0  0  0
  131.2537  133.3077  160.8672 H   0  0  0  0  0  0  0  0  0  0  0  0
  131.4566  134.4463  159.1174 N   0  0  0  0  0  0  0  0  0  0  0  0
  131.4993  133.2929  158.3529 C   0  0  0  0  0  0  0  0  0  0  0  0
  131.9761  132.0865  158.7641 N   0  0  0  0  0  0  0  0  0  0  0  0
  132.3445  131.8818  159.6377 H   0  0  0  0  0  0  0  0  0  0  0  0
  131.8395  131.2117  157.7123 C   0  0  0  0  0  0  0  0  0  0  0  0
  131.2838  131.9090  156.6907 C   0  0  0  0  0  0  0  0  0  0  0  0
  130.9497  131.3732  155.3481 C   0  0  0  0  0  0  0  0  0  0  0  0
  130.3734  132.2042  154.3887 C   0  0  0  0  0  0  0  0  0  0  0  0
  130.0692  131.7056  153.1395 C   0  0  0  0  0  0  0  0  0  0  0  0
  130.3259  130.3727  152.8407 C   0  0  0  0  0  0  0  0  0  0  0  0
  130.0118  129.8685  151.5764 N   0  0  0  0  0  0  0  0  0  0  0  0
  130.8951  129.5410  153.7978 C   0  0  0  0  0  0  0  0  0  0  0  0
  131.2063  130.0368  155.0463 C   0  0  0  0  0  0  0  0  0  0  0  0
  131.0817  133.1813  157.1153 N   0  0  0  0  0  0  0  0  0  0  0  0
  130.6924  133.8955  156.5868 H   0  0  0  0  0  0  0  0  0  0  0  0
  132.5014  134.9991  161.2368 C   0  0  0  0  0  0  0  0  0  0  0  0
  133.1621  136.0405  160.6127 C   0  0  0  0  0  0  0  0  0  0  0  0
  134.2508  136.6338  161.2240 C   0  0  0  0  0  0  0  0  0  0  0  0
  134.6844  136.1795  162.4556 C   0  0  0  0  0  0  0  0  0  0  0  0
  134.0269  135.1345  163.0773 C   0  0  0  0  0  0  0  0  0  0  0  0
  132.9355  134.5442  162.4679 C   0  0  0  0  0  0  0  0  0  0  0  0
  130.7359  137.0118  160.3638 H   0  0  0  0  0  0  0  0  0  0  0  0
  129.8144  136.1187  159.1303 H   0  0  0  0  0  0  0  0  0  0  0  0
  128.9658  136.8793  160.4977 H   0  0  0  0  0  0  0  0  0  0  0  0
  130.0957  135.3239  162.0639 H   0  0  0  0  0  0  0  0  0  0  0  0
  127.8179  130.4859  159.3431 H   0  0  0  0  0  0  0  0  0  0  0  0
  125.4149  130.0603  159.4144 H   0  0  0  0  0  0  0  0  0  0  0  0
  123.8685  131.7648  160.2794 H   0  0  0  0  0  0  0  0  0  0  0  0
  124.7225  133.9230  161.0868 H   0  0  0  0  0  0  0  0  0  0  0  0
  131.5226  135.3144  158.6899 H   0  0  0  0  0  0  0  0  0  0  0  0
  132.1209  130.1692  157.7019 H   0  0  0  0  0  0  0  0  0  0  0  0
  130.1693  133.2387  154.6220 H   0  0  0  0  0  0  0  0  0  0  0  0
  129.6264  132.3500  152.3945 H   0  0  0  0  0  0  0  0  0  0  0  0
  130.1910  128.9384  151.3669 H   0  0  0  0  0  0  0  0  0  0  0  0
  129.6144  130.4482  150.9079 H   0  0  0  0  0  0  0  0  0  0  0  0
  131.0934  128.5055  153.5636 H   0  0  0  0  0  0  0  0  0  0  0  0
  131.6490  129.3901  155.7895 H   0  0  0  0  0  0  0  0  0  0  0  0
  132.8258  136.3931  159.6488 H   0  0  0  0  0  0  0  0  0  0  0  0
  134.7643  137.4505  160.7383 H   0  0  0  0  0  0  0  0  0  0  0  0
  135.5366  136.6411  162.9320 H   0  0  0  0  0  0  0  0  0  0  0  0
  134.3656  134.7796  164.0394 H   0  0  0  0  0  0  0  0  0  0  0  0
  132.4219  133.7278  162.9537 H   0  0  0  0  0  0  0  0  0  0  0  0
  1  2  1  0
  1 36  1  0
  1 37  1  0
  1 38  1  0
  2  3  1  0
  2 13  1  0
  2 39  1  1
  3 11  1  0
  3  4  2  0
  4  5  1  0
  5 10  2  0
  5  6  1  0
  6  7  2  0
  6 40  1  0
  7  8  1  0
  7 41  1  0
  8  9  2  0
  8 42  1  0
  9 10  1  0
  9 43  1  0
 10 11  1  0
 11 12  1  0
 13 14  1  6
 13 15  1  0
 13 30  1  0
 15 44  1  0
 16 15  1  0
 16 28  2  0
 16 17  1  0
 17 18  1  0
 17 19  1  0
 19 20  2  0
 19 45  1  0
 20 21  1  0
 20 28  1  0
 21 27  1  0
 21 22  2  0
 22 23  1  0
 22 46  1  0
 23 24  2  0
 23 47  1  0
 24 25  1  0
 24 26  1  0
 25 48  1  0
 25 49  1  0
 26 27  2  0
 26 50  1  0
 27 51  1  0
 28 29  1  0
 30 35  1  0
 30 31  2  0
 31 32  1  0
 31 52  1  0
 32 33  2  0
 32 53  1  0
 33 34  1  0
 33 54  1  0
 34 35  2  0
 34 55  1  0
 35 56  1  0
M  CHG  1  28   1
M  END
>  <DOCK_score>  (1) 
-58.550827

>  <SMILES>  (1) 
CC(c1nc2ccccc2[nH]1)[C@@H](Nc1[nH]cc(-c2ccc(N)cc2)[nH+]1)c1ccccc1

$$$$
