Cc1cc(O)cc(C[NH+]=C(NCc2cccc3ccccc23)NC2CC=CC2)c1
     RDKit          3D

 57 60  0  0  1  0  0  0  0  0999 V2000
  127.5844  135.2351  167.4264 C   0  0  0  0  0  0  0  0  0  0  0  0
  127.4137  135.6443  165.9861 C   0  0  0  0  0  0  0  0  0  0  0  0
  126.1592  135.6256  165.4074 C   0  0  0  0  0  0  0  0  0  0  0  0
  126.0026  136.0025  164.0817 C   0  0  0  0  0  0  0  0  0  0  0  0
  124.7696  135.9854  163.5103 O   0  0  0  0  0  0  0  0  0  0  0  0
  127.1060  136.4021  163.3415 C   0  0  0  0  0  0  0  0  0  0  0  0
  128.3589  136.4136  163.9230 C   0  0  0  0  0  0  0  0  0  0  0  0
  129.5586  136.8421  163.1179 C   0  0  0  0  0  0  0  0  0  0  0  0
  129.5132  136.2074  161.7983 N   0  0  0  0  0  0  0  0  0  0  0  0
  128.7796  135.6153  161.5700 H   0  0  0  0  0  0  0  0  0  0  0  0
  130.4586  136.4382  160.9313 C   0  0  0  0  0  0  0  0  0  0  0  0
  131.4985  137.2770  161.2549 N   0  0  0  0  0  0  0  0  0  0  0  0
  132.5611  137.5364  160.2803 C   0  0  0  0  0  0  0  0  0  0  0  0
  133.5714  138.4813  160.8782 C   0  0  0  0  0  0  0  0  0  0  0  0
  133.4215  139.8262  160.7304 C   0  0  0  0  0  0  0  0  0  0  0  0
  134.3458  140.7151  161.2755 C   0  0  0  0  0  0  0  0  0  0  0  0
  135.4244  140.2646  161.9731 C   0  0  0  0  0  0  0  0  0  0  0  0
  135.6123  138.8831  162.1469 C   0  0  0  0  0  0  0  0  0  0  0  0
  136.7141  138.3800  162.8599 C   0  0  0  0  0  0  0  0  0  0  0  0
  136.8642  137.0355  163.0067 C   0  0  0  0  0  0  0  0  0  0  0  0
  135.9400  136.1462  162.4607 C   0  0  0  0  0  0  0  0  0  0  0  0
  134.8611  136.5968  161.7643 C   0  0  0  0  0  0  0  0  0  0  0  0
  134.6727  137.9788  161.5913 C   0  0  0  0  0  0  0  0  0  0  0  0
  130.4158  135.8425  159.6929 N   0  0  0  0  0  0  0  0  0  0  0  0
  129.3075  134.9485  159.3480 C   0  0  0  0  0  0  0  0  0  0  0  0
  129.3624  133.6486  160.1836 C   0  0  0  0  0  0  0  0  0  0  0  0
  128.9194  132.5615  159.2323 C   0  0  0  0  0  0  0  0  0  0  0  0
  128.9760  132.9692  157.9936 C   0  0  0  0  0  0  0  0  0  0  0  0
  129.4661  134.3962  157.9124 C   0  0  0  0  0  0  0  0  0  0  0  0
  128.5122  136.0379  165.2450 C   0  0  0  0  0  0  0  0  0  0  0  0
  127.4758  136.1095  168.0680 H   0  0  0  0  0  0  0  0  0  0  0  0
  126.8260  134.4968  167.6867 H   0  0  0  0  0  0  0  0  0  0  0  0
  128.5754  134.8028  167.5662 H   0  0  0  0  0  0  0  0  0  0  0  0
  125.3014  135.3175  165.9867 H   0  0  0  0  0  0  0  0  0  0  0  0
  124.7613  136.2641  162.5843 H   0  0  0  0  0  0  0  0  0  0  0  0
  126.9861  136.6999  162.3103 H   0  0  0  0  0  0  0  0  0  0  0  0
  130.4696  136.5406  163.6349 H   0  0  0  0  0  0  0  0  0  0  0  0
  129.5492  137.9257  163.0005 H   0  0  0  0  0  0  0  0  0  0  0  0
  131.5287  137.6973  162.1287 H   0  0  0  0  0  0  0  0  0  0  0  0
  132.1309  137.9838  159.3843 H   0  0  0  0  0  0  0  0  0  0  0  0
  133.0510  136.5985  160.0188 H   0  0  0  0  0  0  0  0  0  0  0  0
  132.5740  140.2099  160.1821 H   0  0  0  0  0  0  0  0  0  0  0  0
  134.2036  141.7776  161.1435 H   0  0  0  0  0  0  0  0  0  0  0  0
  136.1297  140.9656  162.3946 H   0  0  0  0  0  0  0  0  0  0  0  0
  137.4383  139.0571  163.2884 H   0  0  0  0  0  0  0  0  0  0  0  0
  137.7119  136.6516  163.5547 H   0  0  0  0  0  0  0  0  0  0  0  0
  136.0825  135.0839  162.5921 H   0  0  0  0  0  0  0  0  0  0  0  0
  134.1532  135.8960  161.3469 H   0  0  0  0  0  0  0  0  0  0  0  0
  131.1192  136.0143  159.0475 H   0  0  0  0  0  0  0  0  0  0  0  0
  128.3487  135.4525  159.4697 H   0  0  0  0  0  0  0  0  0  0  0  0
  130.3795  133.4609  160.5276 H   0  0  0  0  0  0  0  0  0  0  0  0
  128.6798  133.7128  161.0310 H   0  0  0  0  0  0  0  0  0  0  0  0
  128.5980  131.5765  159.5371 H   0  0  0  0  0  0  0  0  0  0  0  0
  128.7075  132.3659  157.1390 H   0  0  0  0  0  0  0  0  0  0  0  0
  128.8540  134.9688  157.2155 H   0  0  0  0  0  0  0  0  0  0  0  0
  130.5125  134.4234  157.6084 H   0  0  0  0  0  0  0  0  0  0  0  0
  129.4921  136.0516  165.6991 H   0  0  0  0  0  0  0  0  0  0  0  0
  1  2  1  0
  1 31  1  0
  1 32  1  0
  1 33  1  0
  2 30  2  0
  2  3  1  0
  3  4  2  0
  3 34  1  0
  4  5  1  0
  4  6  1  0
  5 35  1  0
  6  7  2  0
  6 36  1  0
  7  8  1  0
  7 30  1  0
  8  9  1  0
  8 37  1  0
  8 38  1  0
  9 10  1  0
 11  9  2  0
 11 12  1  0
 11 24  1  0
 12 13  1  0
 12 39  1  0
 13 14  1  0
 13 40  1  0
 13 41  1  0
 14 23  1  0
 14 15  2  0
 15 16  1  0
 15 42  1  0
 16 17  2  0
 16 43  1  0
 17 18  1  0
 17 44  1  0
 18 23  2  0
 18 19  1  0
 19 20  2  0
 19 45  1  0
 20 21  1  0
 20 46  1  0
 21 22  2  0
 21 47  1  0
 22 23  1  0
 22 48  1  0
 24 25  1  0
 24 49  1  0
 25 29  1  0
 25 26  1  0
 25 50  1  0
 26 27  1  0
 26 51  1  0
 26 52  1  0
 27 28  2  0
 27 53  1  0
 28 29  1  0
 28 54  1  0
 29 55  1  0
 29 56  1  0
 30 57  1  0
M  CHG  1   9   1
M  END
>  <DOCK_score>  (1) 
-45.016582

>  <SMILES>  (1) 
Cc1cc(O)cc(C[NH+]=C(NCc2cccc3ccccc23)NC2CC=CC2)c1

$$$$
