Nc1ccc(-c2c[nH]c(Nc3cc(Nc4nc5ccccc5[nH]4)c4ccccc4c3)[nH+]2)cc1
     RDKit          3D

 55 60  0  0  1  0  0  0  0  0999 V2000
  131.0390  129.3868  150.8533 N   0  0  0  0  0  0  0  0  0  0  0  0
  131.0067  129.9590  152.1273 C   0  0  0  0  0  0  0  0  0  0  0  0
  130.5607  131.2654  152.2898 C   0  0  0  0  0  0  0  0  0  0  0  0
  130.5278  131.8326  153.5462 C   0  0  0  0  0  0  0  0  0  0  0  0
  130.9422  131.0946  154.6539 C   0  0  0  0  0  0  0  0  0  0  0  0
  130.9077  131.7025  156.0067 C   0  0  0  0  0  0  0  0  0  0  0  0
  130.7108  131.0408  157.1741 C   0  0  0  0  0  0  0  0  0  0  0  0
  130.7545  131.9797  158.1767 N   0  0  0  0  0  0  0  0  0  0  0  0
  130.6469  131.8120  159.1260 H   0  0  0  0  0  0  0  0  0  0  0  0
  130.9770  133.1880  157.5915 C   0  0  0  0  0  0  0  0  0  0  0  0
  131.0888  134.3983  158.2565 N   0  0  0  0  0  0  0  0  0  0  0  0
  130.9718  134.4443  159.6478 C   0  0  0  0  0  0  0  0  0  0  0  0
  132.0364  134.9270  160.4151 C   0  0  0  0  0  0  0  0  0  0  0  0
  131.9510  134.9773  161.7779 C   0  0  0  0  0  0  0  0  0  0  0  0
  133.0242  135.4557  162.5291 N   0  0  0  0  0  0  0  0  0  0  0  0
  133.8693  136.4080  161.9964 C   0  0  0  0  0  0  0  0  0  0  0  0
  133.7566  136.9296  160.8002 N   0  0  0  0  0  0  0  0  0  0  0  0
  134.7499  137.8351  160.6020 C   0  0  0  0  0  0  0  0  0  0  0  0
  135.0933  138.6643  159.5310 C   0  0  0  0  0  0  0  0  0  0  0  0
  136.1902  139.4903  159.6301 C   0  0  0  0  0  0  0  0  0  0  0  0
  136.9577  139.5059  160.7854 C   0  0  0  0  0  0  0  0  0  0  0  0
  136.6320  138.6934  161.8518 C   0  0  0  0  0  0  0  0  0  0  0  0
  135.5305  137.8549  161.7695 C   0  0  0  0  0  0  0  0  0  0  0  0
  134.9513  136.9426  162.6357 N   0  0  0  0  0  0  0  0  0  0  0  0
  135.2571  136.7240  163.5300 H   0  0  0  0  0  0  0  0  0  0  0  0
  130.7722  134.5424  162.4229 C   0  0  0  0  0  0  0  0  0  0  0  0
  130.6538  134.5809  163.8208 C   0  0  0  0  0  0  0  0  0  0  0  0
  129.5041  134.1539  164.4127 C   0  0  0  0  0  0  0  0  0  0  0  0
  128.4390  133.6781  163.6507 C   0  0  0  0  0  0  0  0  0  0  0  0
  128.5183  133.6258  162.2929 C   0  0  0  0  0  0  0  0  0  0  0  0
  129.6899  134.0583  161.6472 C   0  0  0  0  0  0  0  0  0  0  0  0
  129.8061  134.0182  160.2479 C   0  0  0  0  0  0  0  0  0  0  0  0
  131.0622  133.0187  156.2944 N   0  0  0  0  0  0  0  0  0  0  0  0
  131.2137  133.7224  155.6442 H   0  0  0  0  0  0  0  0  0  0  0  0
  131.3945  129.7865  154.4878 C   0  0  0  0  0  0  0  0  0  0  0  0
  131.4207  129.2217  153.2300 C   0  0  0  0  0  0  0  0  0  0  0  0
  130.7505  129.9010  150.0831 H   0  0  0  0  0  0  0  0  0  0  0  0
  131.3508  128.4754  150.7389 H   0  0  0  0  0  0  0  0  0  0  0  0
  130.2397  131.8369  151.4313 H   0  0  0  0  0  0  0  0  0  0  0  0
  130.1809  132.8476  153.6721 H   0  0  0  0  0  0  0  0  0  0  0  0
  130.5507  129.9794  157.2930 H   0  0  0  0  0  0  0  0  0  0  0  0
  131.2485  135.2137  157.7559 H   0  0  0  0  0  0  0  0  0  0  0  0
  132.9388  135.2606  159.9248 H   0  0  0  0  0  0  0  0  0  0  0  0
  133.1766  135.1191  163.4259 H   0  0  0  0  0  0  0  0  0  0  0  0
  134.4999  138.6575  158.6286 H   0  0  0  0  0  0  0  0  0  0  0  0
  136.4554  140.1307  158.8020 H   0  0  0  0  0  0  0  0  0  0  0  0
  137.8156  140.1585  160.8509 H   0  0  0  0  0  0  0  0  0  0  0  0
  137.2334  138.7104  162.7487 H   0  0  0  0  0  0  0  0  0  0  0  0
  131.4710  134.9472  164.4244 H   0  0  0  0  0  0  0  0  0  0  0  0
  129.4163  134.1848  165.4887 H   0  0  0  0  0  0  0  0  0  0  0  0
  127.5378  133.3460  164.1444 H   0  0  0  0  0  0  0  0  0  0  0  0
  127.6855  133.2541  161.7143 H   0  0  0  0  0  0  0  0  0  0  0  0
  128.9881  133.6514  159.6456 H   0  0  0  0  0  0  0  0  0  0  0  0
  131.7205  129.2146  155.3438 H   0  0  0  0  0  0  0  0  0  0  0  0
  131.7670  128.2069  153.1014 H   0  0  0  0  0  0  0  0  0  0  0  0
  1  2  1  0
  1 37  1  0
  1 38  1  0
  2 36  2  0
  2  3  1  0
  3  4  2  0
  3 39  1  0
  4  5  1  0
  4 40  1  0
  5  6  1  0
  5 35  2  0
  6 33  1  0
  6  7  2  0
  7  8  1  0
  7 41  1  0
  8  9  1  0
  8 10  1  0
 10 11  1  0
 10 33  2  0
 11 12  1  0
 11 42  1  0
 12 32  1  0
 12 13  2  0
 13 14  1  0
 13 43  1  0
 14 15  1  0
 14 26  2  0
 15 16  1  0
 15 44  1  0
 16 24  1  0
 16 17  2  0
 17 18  1  0
 18 23  2  0
 18 19  1  0
 19 20  2  0
 19 45  1  0
 20 21  1  0
 20 46  1  0
 21 22  2  0
 21 47  1  0
 22 23  1  0
 22 48  1  0
 23 24  1  0
 24 25  1  0
 26 31  1  0
 26 27  1  0
 27 28  2  0
 27 49  1  0
 28 29  1  0
 28 50  1  0
 29 30  2  0
 29 51  1  0
 30 31  1  0
 30 52  1  0
 31 32  2  0
 32 53  1  0
 33 34  1  0
 35 36  1  0
 35 54  1  0
 36 55  1  0
M  CHG  1  33   1
M  END
>  <DOCK_score>  (1) 
-67.683792

>  <SMILES>  (1) 
Nc1ccc(-c2c[nH]c(Nc3cc(Nc4nc5ccccc5[nH]4)c4ccccc4c3)[nH+]2)cc1

$$$$
