O=C1CC[C@H]([NH+]=C(NC2CC=CC2)N[C@@H]2Cc3ccc(Br)cc3C2)CN1
     RDKit          3D

 52 55  0  0  1  0  0  0  0  0999 V2000
  123.6439  134.1226  161.1979 O   0  0  0  0  0  0  0  0  0  0  0  0
  124.8440  134.2675  161.0994 C   0  0  0  0  0  0  0  0  0  0  0  0
  125.6448  133.1606  160.4759 C   0  0  0  0  0  0  0  0  0  0  0  0
  127.1247  133.3248  160.8306 C   0  0  0  0  0  0  0  0  0  0  0  0
  127.5327  134.7758  160.5478 C   0  0  2  0  0  0  0  0  0  0  0  0
  127.2516  135.0455  159.5299 H   0  0  0  0  0  0  0  0  0  0  0  0
  128.9813  134.9198  160.7122 N   0  0  0  0  0  0  0  0  0  0  0  0
  129.3502  135.1566  161.5775 H   0  0  0  0  0  0  0  0  0  0  0  0
  129.7747  134.7296  159.6956 C   0  0  0  0  0  0  0  0  0  0  0  0
  129.4195  133.8483  158.7020 N   0  0  0  0  0  0  0  0  0  0  0  0
  130.4552  133.1304  157.9549 C   0  0  0  0  0  0  0  0  0  0  0  0
  129.8316  132.0563  157.0338 C   0  0  0  0  0  0  0  0  0  0  0  0
  130.7964  130.8948  157.0904 C   0  0  0  0  0  0  0  0  0  0  0  0
  131.6071  131.0063  158.1072 C   0  0  0  0  0  0  0  0  0  0  0  0
  131.3181  132.2607  158.8984 C   0  0  0  0  0  0  0  0  0  0  0  0
  130.9665  135.4101  159.6170 N   0  0  0  0  0  0  0  0  0  0  0  0
  131.3450  136.3493  160.6758 C   0  0  2  0  0  0  0  0  0  0  0  0
  130.9247  136.0411  161.6331 H   0  0  0  0  0  0  0  0  0  0  0  0
  130.9085  137.7856  160.3170 C   0  0  0  0  0  0  0  0  0  0  0  0
  131.9980  138.6801  160.8687 C   0  0  0  0  0  0  0  0  0  0  0  0
  131.9975  140.0415  161.1244 C   0  0  0  0  0  0  0  0  0  0  0  0
  133.1245  140.6529  161.6369 C   0  0  0  0  0  0  0  0  0  0  0  0
  134.2583  139.9040  161.8963 C   0  0  0  0  0  0  0  0  0  0  0  0
  135.8034  140.7379  162.5989 Br  0  0  0  0  0  0  0  0  0  0  0  0
  134.2604  138.5458  161.6418 C   0  0  0  0  0  0  0  0  0  0  0  0
  133.1307  137.9315  161.1277 C   0  0  0  0  0  0  0  0  0  0  0  0
  132.8799  136.4828  160.7679 C   0  0  0  0  0  0  0  0  0  0  0  0
  126.8106  135.6894  161.5389 C   0  0  0  0  0  0  0  0  0  0  0  0
  125.3819  135.4013  161.5506 N   0  0  0  0  0  0  0  0  0  0  0  0
  125.5262  133.1937  159.3928 H   0  0  0  0  0  0  0  0  0  0  0  0
  125.2870  132.2014  160.8501 H   0  0  0  0  0  0  0  0  0  0  0  0
  127.7252  132.6494  160.2213 H   0  0  0  0  0  0  0  0  0  0  0  0
  127.2761  133.1001  161.8864 H   0  0  0  0  0  0  0  0  0  0  0  0
  128.4832  133.7018  158.4956 H   0  0  0  0  0  0  0  0  0  0  0  0
  131.0748  133.8232  157.3853 H   0  0  0  0  0  0  0  0  0  0  0  0
  128.8533  131.7560  157.4090 H   0  0  0  0  0  0  0  0  0  0  0  0
  129.7491  132.4319  156.0140 H   0  0  0  0  0  0  0  0  0  0  0  0
  130.8132  130.0794  156.3822 H   0  0  0  0  0  0  0  0  0  0  0  0
  132.3828  130.2953  158.3510 H   0  0  0  0  0  0  0  0  0  0  0  0
  132.2464  132.7755  159.1462 H   0  0  0  0  0  0  0  0  0  0  0  0
  130.7634  132.0186  159.8049 H   0  0  0  0  0  0  0  0  0  0  0  0
  131.5569  135.2686  158.8605 H   0  0  0  0  0  0  0  0  0  0  0  0
  130.8368  137.9001  159.2353 H   0  0  0  0  0  0  0  0  0  0  0  0
  129.9532  138.0192  160.7870 H   0  0  0  0  0  0  0  0  0  0  0  0
  131.1127  140.6267  160.9216 H   0  0  0  0  0  0  0  0  0  0  0  0
  133.1208  141.7146  161.8348 H   0  0  0  0  0  0  0  0  0  0  0  0
  135.1457  137.9613  161.8448 H   0  0  0  0  0  0  0  0  0  0  0  0
  133.2707  135.8267  161.5458 H   0  0  0  0  0  0  0  0  0  0  0  0
  133.3383  136.2468  159.8075 H   0  0  0  0  0  0  0  0  0  0  0  0
  126.9661  136.7289  161.2497 H   0  0  0  0  0  0  0  0  0  0  0  0
  127.2189  135.5280  162.5365 H   0  0  0  0  0  0  0  0  0  0  0  0
  124.7853  136.0748  161.9129 H   0  0  0  0  0  0  0  0  0  0  0  0
  1  2  2  0
  2 29  1  0
  2  3  1  0
  3  4  1  0
  3 30  1  0
  3 31  1  0
  4  5  1  0
  4 32  1  0
  4 33  1  0
  5  6  1  6
  5  7  1  0
  5 28  1  0
  7  8  1  0
  9  7  2  0
  9 10  1  0
  9 16  1  0
 10 11  1  0
 10 34  1  0
 11 15  1  0
 11 12  1  0
 11 35  1  0
 12 13  1  0
 12 36  1  0
 12 37  1  0
 13 14  2  0
 13 38  1  0
 14 15  1  0
 14 39  1  0
 15 40  1  0
 15 41  1  0
 16 17  1  0
 16 42  1  0
 17 18  1  1
 17 27  1  0
 17 19  1  0
 19 20  1  0
 19 43  1  0
 19 44  1  0
 20 26  2  0
 20 21  1  0
 21 22  2  0
 21 45  1  0
 22 23  1  0
 22 46  1  0
 23 24  1  0
 23 25  2  0
 25 26  1  0
 25 47  1  0
 26 27  1  0
 27 48  1  0
 27 49  1  0
 28 29  1  0
 28 50  1  0
 28 51  1  0
 29 52  1  0
M  CHG  1   7   1
M  END
>  <DOCK_score>  (1) 
-48.576401

>  <SMILES>  (1) 
O=C1CC[C@H]([NH+]=C(NC2CC=CC2)N[C@@H]2Cc3ccc(Br)cc3C2)CN1

$$$$
