C=C(C)[C@](O)(c1ccccc1)C(Nc1[nH]cc(-c2ccc(N)cc2)[nH+]1)c1ccccc1
     RDKit          3D

 58 61  0  0  1  0  0  0  0  0999 V2000
  132.5207  134.2382  161.2133 C   0  0  0  0  0  0  0  0  0  0  0  0
  132.1321  135.4875  161.2768 C   0  0  0  0  0  0  0  0  0  0  0  0
  132.9934  136.5099  161.9725 C   0  0  0  0  0  0  0  0  0  0  0  0
  130.8241  135.9025  160.6541 C   0  0  2  0  0  0  0  0  0  0  0  0
  131.0665  136.8903  159.6503 O   0  0  0  0  0  0  0  0  0  0  0  0
  129.9220  136.4765  161.7161 C   0  0  0  0  0  0  0  0  0  0  0  0
  129.5462  135.7010  162.7968 C   0  0  0  0  0  0  0  0  0  0  0  0
  128.7225  136.2290  163.7733 C   0  0  0  0  0  0  0  0  0  0  0  0
  128.2662  137.5293  163.6638 C   0  0  0  0  0  0  0  0  0  0  0  0
  128.6379  138.3032  162.5804 C   0  0  0  0  0  0  0  0  0  0  0  0
  129.4656  137.7768  161.6064 C   0  0  0  0  0  0  0  0  0  0  0  0
  130.1523  134.6836  160.0185 C   0  0  2  0  0  0  0  0  0  0  0  0
  131.0294  134.1257  158.9862 N   0  0  0  0  0  0  0  0  0  0  0  0
  130.6316  133.0103  158.2689 C   0  0  0  0  0  0  0  0  0  0  0  0
  129.8244  132.0172  158.7310 N   0  0  0  0  0  0  0  0  0  0  0  0
  129.4274  131.9637  159.6145 H   0  0  0  0  0  0  0  0  0  0  0  0
  129.6725  131.1056  157.7132 C   0  0  0  0  0  0  0  0  0  0  0  0
  130.3983  131.5636  156.6635 C   0  0  0  0  0  0  0  0  0  0  0  0
  130.5366  130.9021  155.3428 C   0  0  0  0  0  0  0  0  0  0  0  0
  131.5691  129.9917  155.1228 C   0  0  0  0  0  0  0  0  0  0  0  0
  131.6925  129.3738  153.8963 C   0  0  0  0  0  0  0  0  0  0  0  0
  130.7949  129.6670  152.8759 C   0  0  0  0  0  0  0  0  0  0  0  0
  130.9250  129.0445  151.6321 N   0  0  0  0  0  0  0  0  0  0  0  0
  129.7682  130.5781  153.0915 C   0  0  0  0  0  0  0  0  0  0  0  0
  129.6378  131.1942  154.3182 C   0  0  0  0  0  0  0  0  0  0  0  0
  130.9754  132.7340  157.0345 N   0  0  0  0  0  0  0  0  0  0  0  0
  131.5508  133.2793  156.4755 H   0  0  0  0  0  0  0  0  0  0  0  0
  128.8443  135.0987  159.3959 C   0  0  0  0  0  0  0  0  0  0  0  0
  127.6802  135.0563  160.1402 C   0  0  0  0  0  0  0  0  0  0  0  0
  126.4792  135.4307  159.5670 C   0  0  0  0  0  0  0  0  0  0  0  0
  126.4426  135.8486  158.2498 C   0  0  0  0  0  0  0  0  0  0  0  0
  127.6068  135.8915  157.5057 C   0  0  0  0  0  0  0  0  0  0  0  0
  128.8075  135.5166  158.0787 C   0  0  0  0  0  0  0  0  0  0  0  0
  133.4582  133.9407  161.6595 H   0  0  0  0  0  0  0  0  0  0  0  0
  131.9034  133.5054  160.7147 H   0  0  0  0  0  0  0  0  0  0  0  0
  132.5101  137.4857  161.9238 H   0  0  0  0  0  0  0  0  0  0  0  0
  133.1278  136.2228  163.0154 H   0  0  0  0  0  0  0  0  0  0  0  0
  133.9653  136.5610  161.4815 H   0  0  0  0  0  0  0  0  0  0  0  0
  131.6411  136.5894  158.9330 H   0  0  0  0  0  0  0  0  0  0  0  0
  129.8991  134.6837  162.8801 H   0  0  0  0  0  0  0  0  0  0  0  0
  128.4319  135.6242  164.6197 H   0  0  0  0  0  0  0  0  0  0  0  0
  127.6192  137.9404  164.4245 H   0  0  0  0  0  0  0  0  0  0  0  0
  128.2810  139.3189  162.4946 H   0  0  0  0  0  0  0  0  0  0  0  0
  129.7556  138.3813  160.7598 H   0  0  0  0  0  0  0  0  0  0  0  0
  129.9674  133.9303  160.7841 H   0  0  0  0  0  0  0  0  0  0  0  0
  131.8886  134.5377  158.8052 H   0  0  0  0  0  0  0  0  0  0  0  0
  129.0899  130.1967  157.7450 H   0  0  0  0  0  0  0  0  0  0  0  0
  132.2696  129.7675  155.9139 H   0  0  0  0  0  0  0  0  0  0  0  0
  132.4894  128.6651  153.7270 H   0  0  0  0  0  0  0  0  0  0  0  0
  130.2999  129.2480  150.9200 H   0  0  0  0  0  0  0  0  0  0  0  0
  131.6423  128.4082  151.4813 H   0  0  0  0  0  0  0  0  0  0  0  0
  129.0721  130.8042  152.2974 H   0  0  0  0  0  0  0  0  0  0  0  0
  128.8396  131.9024  154.4850 H   0  0  0  0  0  0  0  0  0  0  0  0
  127.7088  134.7299  161.1693 H   0  0  0  0  0  0  0  0  0  0  0  0
  125.5698  135.3971  160.1485 H   0  0  0  0  0  0  0  0  0  0  0  0
  125.5044  136.1411  157.8020 H   0  0  0  0  0  0  0  0  0  0  0  0
  127.5780  136.2176  156.4766 H   0  0  0  0  0  0  0  0  0  0  0  0
  129.7171  135.5497  157.4972 H   0  0  0  0  0  0  0  0  0  0  0  0
  1  2  2  0
  1 34  1  0
  1 35  1  0
  2  3  1  0
  3 36  1  0
  3 37  1  0
  3 38  1  0
  4  2  1  0
  4  5  1  6
  4  6  1  0
  4 12  1  0
  5 39  1  0
  6 11  1  0
  6  7  2  0
  7  8  1  0
  7 40  1  0
  8  9  2  0
  8 41  1  0
  9 10  1  0
  9 42  1  0
 10 11  2  0
 10 43  1  0
 11 44  1  0
 12 13  1  0
 12 28  1  0
 12 45  1  1
 13 46  1  0
 14 13  1  0
 14 26  2  0
 14 15  1  0
 15 16  1  0
 15 17  1  0
 17 18  2  0
 17 47  1  0
 18 19  1  0
 18 26  1  0
 19 25  1  0
 19 20  2  0
 20 21  1  0
 20 48  1  0
 21 22  2  0
 21 49  1  0
 22 23  1  0
 22 24  1  0
 23 50  1  0
 23 51  1  0
 24 25  2  0
 24 52  1  0
 25 53  1  0
 26 27  1  0
 28 33  1  0
 28 29  2  0
 29 30  1  0
 29 54  1  0
 30 31  2  0
 30 55  1  0
 31 32  1  0
 31 56  1  0
 32 33  2  0
 32 57  1  0
 33 58  1  0
M  CHG  1  26   1
M  END
>  <DOCK_score>  (1) 
-66.112488

>  <SMILES>  (1) 
C=C(C)[C@](O)(c1ccccc1)C(Nc1[nH]cc(-c2ccc(N)cc2)[nH+]1)c1ccccc1

$$$$
