CCc1ccc(-c2c[nH]c(Nc3ccc(N)c(-c4ccccc4)c3)[nH+]2)cc1
     RDKit          3D

 50 53  0  0  1  0  0  0  0  0999 V2000
  130.2487  128.2375  151.6363 C   0  0  0  0  0  0  0  0  0  0  0  0
  131.2476  129.3898  151.7561 C   0  0  0  0  0  0  0  0  0  0  0  0
  130.9711  130.1655  153.0181 C   0  0  0  0  0  0  0  0  0  0  0  0
  131.5966  129.8067  154.1981 C   0  0  0  0  0  0  0  0  0  0  0  0
  131.3510  130.5163  155.3560 C   0  0  0  0  0  0  0  0  0  0  0  0
  130.4629  131.5903  155.3370 C   0  0  0  0  0  0  0  0  0  0  0  0
  130.1913  132.3538  156.5793 C   0  0  0  0  0  0  0  0  0  0  0  0
  129.6797  131.8501  157.7300 C   0  0  0  0  0  0  0  0  0  0  0  0
  129.5924  132.8939  158.6181 N   0  0  0  0  0  0  0  0  0  0  0  0
  129.2626  132.8472  159.5291 H   0  0  0  0  0  0  0  0  0  0  0  0
  130.0535  134.0066  157.9837 C   0  0  0  0  0  0  0  0  0  0  0  0
  130.1326  135.2749  158.5343 N   0  0  0  0  0  0  0  0  0  0  0  0
  129.2167  135.6697  159.5179 C   0  0  0  0  0  0  0  0  0  0  0  0
  127.8571  135.6932  159.2301 C   0  0  0  0  0  0  0  0  0  0  0  0
  126.9480  136.0759  160.1967 C   0  0  0  0  0  0  0  0  0  0  0  0
  127.3887  136.4502  161.4579 C   0  0  0  0  0  0  0  0  0  0  0  0
  126.4682  136.8423  162.4333 N   0  0  0  0  0  0  0  0  0  0  0  0
  128.7569  136.4339  161.7513 C   0  0  0  0  0  0  0  0  0  0  0  0
  129.2343  136.8333  163.0974 C   0  0  0  0  0  0  0  0  0  0  0  0
  129.5584  138.1636  163.3584 C   0  0  0  0  0  0  0  0  0  0  0  0
  129.9972  138.5304  164.6144 C   0  0  0  0  0  0  0  0  0  0  0  0
  130.1265  137.5787  165.6100 C   0  0  0  0  0  0  0  0  0  0  0  0
  129.8113  136.2562  165.3551 C   0  0  0  0  0  0  0  0  0  0  0  0
  129.3661  135.8789  164.1046 C   0  0  0  0  0  0  0  0  0  0  0  0
  129.6685  136.0415  160.7743 C   0  0  0  0  0  0  0  0  0  0  0  0
  130.4158  133.6781  156.7674 N   0  0  0  0  0  0  0  0  0  0  0  0
  130.7832  134.2858  156.1066 H   0  0  0  0  0  0  0  0  0  0  0  0
  129.8313  131.9443  154.1460 C   0  0  0  0  0  0  0  0  0  0  0  0
  130.0880  131.2306  152.9932 C   0  0  0  0  0  0  0  0  0  0  0  0
  129.2350  128.6367  151.6028 H   0  0  0  0  0  0  0  0  0  0  0  0
  130.4486  127.6766  150.7233 H   0  0  0  0  0  0  0  0  0  0  0  0
  130.3511  127.5776  152.4978 H   0  0  0  0  0  0  0  0  0  0  0  0
  132.2610  128.9911  151.7890 H   0  0  0  0  0  0  0  0  0  0  0  0
  131.1450  130.0502  150.8940 H   0  0  0  0  0  0  0  0  0  0  0  0
  132.2818  128.9720  154.2125 H   0  0  0  0  0  0  0  0  0  0  0  0
  131.8433  130.2375  156.2760 H   0  0  0  0  0  0  0  0  0  0  0  0
  129.3952  130.8243  157.9127 H   0  0  0  0  0  0  0  0  0  0  0  0
  130.8222  135.8897  158.2389 H   0  0  0  0  0  0  0  0  0  0  0  0
  127.5099  135.4072  158.2483 H   0  0  0  0  0  0  0  0  0  0  0  0
  125.8923  136.0885  159.9689 H   0  0  0  0  0  0  0  0  0  0  0  0
  126.7774  137.1034  163.3149 H   0  0  0  0  0  0  0  0  0  0  0  0
  125.5202  136.8532  162.2289 H   0  0  0  0  0  0  0  0  0  0  0  0
  129.4623  138.9065  162.5804 H   0  0  0  0  0  0  0  0  0  0  0  0
  130.2447  139.5615  164.8190 H   0  0  0  0  0  0  0  0  0  0  0  0
  130.4745  137.8696  166.5901 H   0  0  0  0  0  0  0  0  0  0  0  0
  129.9141  135.5174  166.1361 H   0  0  0  0  0  0  0  0  0  0  0  0
  129.1200  134.8460  163.9067 H   0  0  0  0  0  0  0  0  0  0  0  0
  130.7256  136.0274  160.9952 H   0  0  0  0  0  0  0  0  0  0  0  0
  129.1420  132.7755  154.1256 H   0  0  0  0  0  0  0  0  0  0  0  0
  129.5993  131.5041  152.0698 H   0  0  0  0  0  0  0  0  0  0  0  0
  1  2  1  0
  1 30  1  0
  1 31  1  0
  1 32  1  0
  2  3  1  0
  2 33  1  0
  2 34  1  0
  3 29  2  0
  3  4  1  0
  4  5  2  0
  4 35  1  0
  5  6  1  0
  5 36  1  0
  6  7  1  0
  6 28  2  0
  7 26  1  0
  7  8  2  0
  8  9  1  0
  8 37  1  0
  9 10  1  0
  9 11  1  0
 11 12  1  0
 11 26  2  0
 12 13  1  0
 12 38  1  0
 13 25  1  0
 13 14  2  0
 14 15  1  0
 14 39  1  0
 15 16  2  0
 15 40  1  0
 16 17  1  0
 16 18  1  0
 17 41  1  0
 17 42  1  0
 18 19  1  0
 18 25  2  0
 19 24  1  0
 19 20  2  0
 20 21  1  0
 20 43  1  0
 21 22  2  0
 21 44  1  0
 22 23  1  0
 22 45  1  0
 23 24  2  0
 23 46  1  0
 24 47  1  0
 25 48  1  0
 26 27  1  0
 28 29  1  0
 28 49  1  0
 29 50  1  0
M  CHG  1  26   1
M  END
>  <DOCK_score>  (1) 
-55.372925

>  <SMILES>  (1) 
CCc1ccc(-c2c[nH]c(Nc3ccc(N)c(-c4ccccc4)c3)[nH+]2)cc1

$$$$
