CSCc1ccc(-c2c[nH]c(N[C@H](c3ccccc3)c3ccc(Cl)cc3)[nH+]2)cc1
     RDKit          3D

 52 55  0  0  1  0  0  0  0  0999 V2000
  128.9264  129.2812  151.1566 C   0  0  0  0  0  0  0  0  0  0  0  0
  130.2704  128.3686  151.9637 S   0  0  0  0  0  0  0  0  0  0  0  0
  131.5218  129.6516  152.2457 C   0  0  0  0  0  0  0  0  0  0  0  0
  131.1560  130.4492  153.4708 C   0  0  0  0  0  0  0  0  0  0  0  0
  130.3673  131.5785  153.3473 C   0  0  0  0  0  0  0  0  0  0  0  0
  130.0244  132.3097  154.4664 C   0  0  0  0  0  0  0  0  0  0  0  0
  130.4839  131.9147  155.7215 C   0  0  0  0  0  0  0  0  0  0  0  0
  130.1233  132.6997  156.9274 C   0  0  0  0  0  0  0  0  0  0  0  0
  129.4445  132.2379  158.0068 C   0  0  0  0  0  0  0  0  0  0  0  0
  129.3288  133.2885  158.8842 N   0  0  0  0  0  0  0  0  0  0  0  0
  128.8913  133.2685  159.7497 H   0  0  0  0  0  0  0  0  0  0  0  0
  129.9407  134.3625  158.3149 C   0  0  0  0  0  0  0  0  0  0  0  0
  130.0456  135.6228  158.8778 N   0  0  0  0  0  0  0  0  0  0  0  0
  129.4681  135.8857  160.1983 C   0  0  2  0  0  0  0  0  0  0  0  0
  129.9314  135.2291  160.9346 H   0  0  0  0  0  0  0  0  0  0  0  0
  127.9839  135.6274  160.1579 C   0  0  0  0  0  0  0  0  0  0  0  0
  127.3267  135.1934  161.2941 C   0  0  0  0  0  0  0  0  0  0  0  0
  125.9646  134.9607  161.2582 C   0  0  0  0  0  0  0  0  0  0  0  0
  125.2612  135.1532  160.0838 C   0  0  0  0  0  0  0  0  0  0  0  0
  125.9193  135.5820  158.9464 C   0  0  0  0  0  0  0  0  0  0  0  0
  127.2807  135.8190  158.9833 C   0  0  0  0  0  0  0  0  0  0  0  0
  129.7176  137.3224  160.5787 C   0  0  0  0  0  0  0  0  0  0  0  0
  128.8181  137.9887  161.3898 C   0  0  0  0  0  0  0  0  0  0  0  0
  129.0493  139.3046  161.7435 C   0  0  0  0  0  0  0  0  0  0  0  0
  130.1754  139.9585  161.2766 C   0  0  0  0  0  0  0  0  0  0  0  0
  130.4622  141.6137  161.7148 Cl  0  0  0  0  0  0  0  0  0  0  0  0
  131.0725  139.2929  160.4604 C   0  0  0  0  0  0  0  0  0  0  0  0
  130.8432  137.9753  160.1118 C   0  0  0  0  0  0  0  0  0  0  0  0
  130.4193  134.0051  157.1482 N   0  0  0  0  0  0  0  0  0  0  0  0
  130.9053  134.5825  156.5389 H   0  0  0  0  0  0  0  0  0  0  0  0
  131.2830  130.7788  155.8396 C   0  0  0  0  0  0  0  0  0  0  0  0
  131.6150  130.0520  154.7144 C   0  0  0  0  0  0  0  0  0  0  0  0
  129.2920  129.7213  150.2288 H   0  0  0  0  0  0  0  0  0  0  0  0
  128.1053  128.5990  150.9363 H   0  0  0  0  0  0  0  0  0  0  0  0
  128.5743  130.0714  151.8197 H   0  0  0  0  0  0  0  0  0  0  0  0
  132.4950  129.1826  152.3949 H   0  0  0  0  0  0  0  0  0  0  0  0
  131.5659  130.3128  151.3813 H   0  0  0  0  0  0  0  0  0  0  0  0
  130.0159  131.8864  152.3737 H   0  0  0  0  0  0  0  0  0  0  0  0
  129.4046  133.1889  154.3693 H   0  0  0  0  0  0  0  0  0  0  0  0
  129.0670  131.2361  158.1491 H   0  0  0  0  0  0  0  0  0  0  0  0
  130.5017  136.3319  158.3980 H   0  0  0  0  0  0  0  0  0  0  0  0
  127.8768  135.0396  162.2106 H   0  0  0  0  0  0  0  0  0  0  0  0
  125.4504  134.6260  162.1469 H   0  0  0  0  0  0  0  0  0  0  0  0
  124.1975  134.9687  160.0552 H   0  0  0  0  0  0  0  0  0  0  0  0
  125.3698  135.7324  158.0289 H   0  0  0  0  0  0  0  0  0  0  0  0
  127.7948  136.1541  158.0947 H   0  0  0  0  0  0  0  0  0  0  0  0
  127.9367  137.4795  161.7507 H   0  0  0  0  0  0  0  0  0  0  0  0
  128.3487  139.8237  162.3808 H   0  0  0  0  0  0  0  0  0  0  0  0
  131.9518  139.8030  160.0952 H   0  0  0  0  0  0  0  0  0  0  0  0
  131.5435  137.4554  159.4748 H   0  0  0  0  0  0  0  0  0  0  0  0
  131.6420  130.4683  156.8097 H   0  0  0  0  0  0  0  0  0  0  0  0
  132.2338  129.1715  154.8047 H   0  0  0  0  0  0  0  0  0  0  0  0
  1  2  1  0
  1 33  1  0
  1 34  1  0
  1 35  1  0
  2  3  1  0
  3  4  1  0
  3 36  1  0
  3 37  1  0
  4 32  2  0
  4  5  1  0
  5  6  2  0
  5 38  1  0
  6  7  1  0
  6 39  1  0
  7  8  1  0
  7 31  2  0
  8 29  1  0
  8  9  2  0
  9 10  1  0
  9 40  1  0
 10 11  1  0
 10 12  1  0
 12 13  1  0
 12 29  2  0
 13 14  1  0
 13 41  1  0
 14 15  1  1
 14 16  1  0
 14 22  1  0
 16 21  1  0
 16 17  2  0
 17 18  1  0
 17 42  1  0
 18 19  2  0
 18 43  1  0
 19 20  1  0
 19 44  1  0
 20 21  2  0
 20 45  1  0
 21 46  1  0
 22 28  1  0
 22 23  2  0
 23 24  1  0
 23 47  1  0
 24 25  2  0
 24 48  1  0
 25 26  1  0
 25 27  1  0
 27 28  2  0
 27 49  1  0
 28 50  1  0
 29 30  1  0
 31 32  1  0
 31 51  1  0
 32 52  1  0
M  CHG  1  29   1
M  END
>  <DOCK_score>  (1) 
-65.079559

>  <SMILES>  (1) 
CSCc1ccc(-c2c[nH]c(N[C@H](c3ccccc3)c3ccc(Cl)cc3)[nH+]2)cc1

$$$$
