CC[C@@H](Nc1[nH]cc(-c2ccc(C3CC=CC3)cc2)[nH+]1)c1cccc(F)c1
     RDKit          3D

 52 55  0  0  1  0  0  0  0  0999 V2000
  129.3070  137.4476  162.3616 C   0  0  0  0  0  0  0  0  0  0  0  0
  129.7329  137.2183  160.9101 C   0  0  0  0  0  0  0  0  0  0  0  0
  130.2127  135.7753  160.7414 C   0  0  1  0  0  0  0  0  0  0  0  0
  129.4029  135.0912  160.9949 H   0  0  0  0  0  0  0  0  0  0  0  0
  130.6206  135.5556  159.3517 N   0  0  0  0  0  0  0  0  0  0  0  0
  130.4981  134.2987  158.7846 C   0  0  0  0  0  0  0  0  0  0  0  0
  130.0103  133.1918  159.4084 N   0  0  0  0  0  0  0  0  0  0  0  0
  129.6890  133.1420  160.3223 H   0  0  0  0  0  0  0  0  0  0  0  0
  130.0574  132.1579  158.5051 C   0  0  0  0  0  0  0  0  0  0  0  0
  130.5721  132.6622  157.3563 C   0  0  0  0  0  0  0  0  0  0  0  0
  130.8080  131.9086  156.1007 C   0  0  0  0  0  0  0  0  0  0  0  0
  130.7273  132.5575  154.8698 C   0  0  0  0  0  0  0  0  0  0  0  0
  130.9538  131.8526  153.7051 C   0  0  0  0  0  0  0  0  0  0  0  0
  131.2486  130.5020  153.7571 C   0  0  0  0  0  0  0  0  0  0  0  0
  131.4893  129.7365  152.4816 C   0  0  0  0  0  0  0  0  0  0  0  0
  130.5375  130.2134  151.3600 C   0  0  0  0  0  0  0  0  0  0  0  0
  130.1771  128.9559  150.6025 C   0  0  0  0  0  0  0  0  0  0  0  0
  130.4661  127.8893  151.2970 C   0  0  0  0  0  0  0  0  0  0  0  0
  131.0668  128.2568  152.6338 C   0  0  0  0  0  0  0  0  0  0  0  0
  131.3239  129.8516  154.9757 C   0  0  0  0  0  0  0  0  0  0  0  0
  131.1053  130.5477  156.1471 C   0  0  0  0  0  0  0  0  0  0  0  0
  130.8275  133.9796  157.5568 N   0  0  0  0  0  0  0  0  0  0  0  0
  131.1967  134.5876  156.8974 H   0  0  0  0  0  0  0  0  0  0  0  0
  131.3854  135.5257  161.6545 C   0  0  0  0  0  0  0  0  0  0  0  0
  132.6722  135.7616  161.2070 C   0  0  0  0  0  0  0  0  0  0  0  0
  133.7486  135.5337  162.0435 C   0  0  0  0  0  0  0  0  0  0  0  0
  133.5398  135.0694  163.3286 C   0  0  0  0  0  0  0  0  0  0  0  0
  132.2519  134.8324  163.7775 C   0  0  0  0  0  0  0  0  0  0  0  0
  132.0465  134.3781  165.0333 F   0  0  0  0  0  0  0  0  0  0  0  0
  131.1738  135.0664  162.9404 C   0  0  0  0  0  0  0  0  0  0  0  0
  128.9652  138.4756  162.4819 H   0  0  0  0  0  0  0  0  0  0  0  0
  130.1552  137.2672  163.0220 H   0  0  0  0  0  0  0  0  0  0  0  0
  128.4973  136.7634  162.6152 H   0  0  0  0  0  0  0  0  0  0  0  0
  128.8848  137.3986  160.2498 H   0  0  0  0  0  0  0  0  0  0  0  0
  130.5427  137.9023  160.6566 H   0  0  0  0  0  0  0  0  0  0  0  0
  130.9766  136.2910  158.8287 H   0  0  0  0  0  0  0  0  0  0  0  0
  129.7444  131.1386  158.6769 H   0  0  0  0  0  0  0  0  0  0  0  0
  130.4924  133.6107  154.8278 H   0  0  0  0  0  0  0  0  0  0  0  0
  130.8963  132.3553  152.7510 H   0  0  0  0  0  0  0  0  0  0  0  0
  132.5309  129.8160  152.1706 H   0  0  0  0  0  0  0  0  0  0  0  0
  129.6440  130.6679  151.7880 H   0  0  0  0  0  0  0  0  0  0  0  0
  131.0469  130.9196  150.7043 H   0  0  0  0  0  0  0  0  0  0  0  0
  129.7385  128.9420  149.6156 H   0  0  0  0  0  0  0  0  0  0  0  0
  130.2984  126.8770  150.9602 H   0  0  0  0  0  0  0  0  0  0  0  0
  131.9360  127.6335  152.8439 H   0  0  0  0  0  0  0  0  0  0  0  0
  130.3258  128.1533  153.4265 H   0  0  0  0  0  0  0  0  0  0  0  0
  131.5544  128.7969  155.0104 H   0  0  0  0  0  0  0  0  0  0  0  0
  131.1650  130.0389  157.0979 H   0  0  0  0  0  0  0  0  0  0  0  0
  132.8363  136.1248  160.2032 H   0  0  0  0  0  0  0  0  0  0  0  0
  134.7533  135.7187  161.6932 H   0  0  0  0  0  0  0  0  0  0  0  0
  134.3809  134.8921  163.9823 H   0  0  0  0  0  0  0  0  0  0  0  0
  130.1683  134.8868  163.2913 H   0  0  0  0  0  0  0  0  0  0  0  0
  1  2  1  0
  1 31  1  0
  1 32  1  0
  1 33  1  0
  2  3  1  0
  2 34  1  0
  2 35  1  0
  3  4  1  1
  3  5  1  0
  3 24  1  0
  5 36  1  0
  6  5  1  0
  6 22  2  0
  6  7  1  0
  7  8  1  0
  7  9  1  0
  9 10  2  0
  9 37  1  0
 10 11  1  0
 10 22  1  0
 11 21  1  0
 11 12  2  0
 12 13  1  0
 12 38  1  0
 13 14  2  0
 13 39  1  0
 14 15  1  0
 14 20  1  0
 15 19  1  0
 15 16  1  0
 15 40  1  0
 16 17  1  0
 16 41  1  0
 16 42  1  0
 17 18  2  0
 17 43  1  0
 18 19  1  0
 18 44  1  0
 19 45  1  0
 19 46  1  0
 20 21  2  0
 20 47  1  0
 21 48  1  0
 22 23  1  0
 24 30  1  0
 24 25  2  0
 25 26  1  0
 25 49  1  0
 26 27  2  0
 26 50  1  0
 27 28  1  0
 27 51  1  0
 28 29  1  0
 28 30  2  0
 30 52  1  0
M  CHG  1  22   1
M  END
>  <DOCK_score>  (1) 
-56.519524

>  <SMILES>  (1) 
CC[C@@H](Nc1[nH]cc(-c2ccc(C3CC=CC3)cc2)[nH+]1)c1cccc(F)c1

$$$$
