BrC[C@H](CCc1ccccc1)Nc1[nH]cc(-c2ccc(-c3ccccc3)cc2)[nH+]1
     RDKit          3D

 54 57  0  0  1  0  0  0  0  0999 V2000
  128.7689  135.0637  161.5716 Br  0  0  0  0  0  0  0  0  0  0  0  0
  130.1390  136.4734  161.5962 C   0  0  0  0  0  0  0  0  0  0  0  0
  131.5096  135.8576  161.3083 C   0  0  2  0  0  0  0  0  0  0  0  0
  131.5936  134.9008  161.8237 H   0  0  0  0  0  0  0  0  0  0  0  0
  132.6071  136.8018  161.8035 C   0  0  0  0  0  0  0  0  0  0  0  0
  132.4892  138.1448  161.0800 C   0  0  0  0  0  0  0  0  0  0  0  0
  133.5700  139.0748  161.5677 C   0  0  0  0  0  0  0  0  0  0  0  0
  133.3325  139.9043  162.6476 C   0  0  0  0  0  0  0  0  0  0  0  0
  134.3255  140.7539  163.0982 C   0  0  0  0  0  0  0  0  0  0  0  0
  135.5527  140.7815  162.4620 C   0  0  0  0  0  0  0  0  0  0  0  0
  135.7882  139.9556  161.3788 C   0  0  0  0  0  0  0  0  0  0  0  0
  134.7969  139.1024  160.9316 C   0  0  0  0  0  0  0  0  0  0  0  0
  131.6584  135.6499  159.8657 N   0  0  0  0  0  0  0  0  0  0  0  0
  131.2586  134.4544  159.2937 C   0  0  0  0  0  0  0  0  0  0  0  0
  130.7210  133.3971  159.9612 N   0  0  0  0  0  0  0  0  0  0  0  0
  130.5506  133.3461  160.9147 H   0  0  0  0  0  0  0  0  0  0  0  0
  130.4642  132.4154  159.0355 C   0  0  0  0  0  0  0  0  0  0  0  0
  130.8521  132.9007  157.8293 C   0  0  0  0  0  0  0  0  0  0  0  0
  130.7634  132.1879  156.5326 C   0  0  0  0  0  0  0  0  0  0  0  0
  130.0037  132.7236  155.4926 C   0  0  0  0  0  0  0  0  0  0  0  0
  129.9217  132.0614  154.2877 C   0  0  0  0  0  0  0  0  0  0  0  0
  130.5983  130.8553  154.1074 C   0  0  0  0  0  0  0  0  0  0  0  0
  130.5096  130.1422  152.8101 C   0  0  0  0  0  0  0  0  0  0  0  0
  130.6113  128.7527  152.7672 C   0  0  0  0  0  0  0  0  0  0  0  0
  130.5237  128.0940  151.5576 C   0  0  0  0  0  0  0  0  0  0  0  0
  130.3451  128.8111  150.3880 C   0  0  0  0  0  0  0  0  0  0  0  0
  130.2489  130.1904  150.4240 C   0  0  0  0  0  0  0  0  0  0  0  0
  130.3302  130.8592  151.6284 C   0  0  0  0  0  0  0  0  0  0  0  0
  131.3535  130.3169  155.1488 C   0  0  0  0  0  0  0  0  0  0  0  0
  131.4399  130.9815  156.3521 C   0  0  0  0  0  0  0  0  0  0  0  0
  131.3408  134.1520  158.0211 N   0  0  0  0  0  0  0  0  0  0  0  0
  131.6925  134.7310  157.3270 H   0  0  0  0  0  0  0  0  0  0  0  0
  130.1531  136.9492  162.5767 H   0  0  0  0  0  0  0  0  0  0  0  0
  129.9079  137.2180  160.8343 H   0  0  0  0  0  0  0  0  0  0  0  0
  132.4963  136.9564  162.8769 H   0  0  0  0  0  0  0  0  0  0  0  0
  133.5835  136.3631  161.5985 H   0  0  0  0  0  0  0  0  0  0  0  0
  132.6000  137.9901  160.0067 H   0  0  0  0  0  0  0  0  0  0  0  0
  131.5126  138.5834  161.2849 H   0  0  0  0  0  0  0  0  0  0  0  0
  132.3723  139.8859  163.1419 H   0  0  0  0  0  0  0  0  0  0  0  0
  134.1413  141.3993  163.9441 H   0  0  0  0  0  0  0  0  0  0  0  0
  136.3269  141.4485  162.8111 H   0  0  0  0  0  0  0  0  0  0  0  0
  136.7468  139.9775  160.8816 H   0  0  0  0  0  0  0  0  0  0  0  0
  134.9809  138.4573  160.0851 H   0  0  0  0  0  0  0  0  0  0  0  0
  132.0372  136.3500  159.3115 H   0  0  0  0  0  0  0  0  0  0  0  0
  130.0357  131.4435  159.2304 H   0  0  0  0  0  0  0  0  0  0  0  0
  129.4793  133.6576  155.6322 H   0  0  0  0  0  0  0  0  0  0  0  0
  129.3338  132.4764  153.4823 H   0  0  0  0  0  0  0  0  0  0  0  0
  130.7544  128.1922  153.6793 H   0  0  0  0  0  0  0  0  0  0  0  0
  130.5986  127.0171  151.5236 H   0  0  0  0  0  0  0  0  0  0  0  0
  130.2809  128.2920  149.4431 H   0  0  0  0  0  0  0  0  0  0  0  0
  130.1103  130.7450  149.5077 H   0  0  0  0  0  0  0  0  0  0  0  0
  130.2553  131.9363  151.6553 H   0  0  0  0  0  0  0  0  0  0  0  0
  131.8738  129.3806  155.0105 H   0  0  0  0  0  0  0  0  0  0  0  0
  132.0282  130.5665  157.1571 H   0  0  0  0  0  0  0  0  0  0  0  0
  1  2  1  0
  2  3  1  0
  2 33  1  0
  2 34  1  0
  3  4  1  1
  3  5  1  0
  3 13  1  0
  5  6  1  0
  5 35  1  0
  5 36  1  0
  6  7  1  0
  6 37  1  0
  6 38  1  0
  7 12  1  0
  7  8  2  0
  8  9  1  0
  8 39  1  0
  9 10  2  0
  9 40  1  0
 10 11  1  0
 10 41  1  0
 11 12  2  0
 11 42  1  0
 12 43  1  0
 13 44  1  0
 14 13  1  0
 14 31  2  0
 14 15  1  0
 15 16  1  0
 15 17  1  0
 17 18  2  0
 17 45  1  0
 18 19  1  0
 18 31  1  0
 19 30  1  0
 19 20  2  0
 20 21  1  0
 20 46  1  0
 21 22  2  0
 21 47  1  0
 22 23  1  0
 22 29  1  0
 23 28  1  0
 23 24  2  0
 24 25  1  0
 24 48  1  0
 25 26  2  0
 25 49  1  0
 26 27  1  0
 26 50  1  0
 27 28  2  0
 27 51  1  0
 28 52  1  0
 29 30  2  0
 29 53  1  0
 30 54  1  0
 31 32  1  0
M  CHG  1  31   1
M  END
>  <DOCK_score>  (1) 
-63.950821

>  <SMILES>  (1) 
BrC[C@H](CCc1ccccc1)Nc1[nH]cc(-c2ccc(-c3ccccc3)cc2)[nH+]1

$$$$
