O[C@@H]1[C@H](O)C=C[C@H]1[NH+]=C(N[C@H]1CCC1Br)N[C@H]1C[C@@H](O)C1
     RDKit          3D

 44 46  0  0  1  0  0  0  0  0999 V2000
  131.5827  132.6380  158.5147 O   0  0  0  0  0  0  0  0  0  0  0  0
  130.1758  132.8617  158.6271 C   0  0  2  0  0  0  0  0  0  0  0  0
  129.8089  132.5491  159.6047 H   0  0  0  0  0  0  0  0  0  0  0  0
  129.4076  132.1479  157.4905 C   0  0  2  0  0  0  0  0  0  0  0  0
  128.4271  131.8245  157.8399 H   0  0  0  0  0  0  0  0  0  0  0  0
  130.1569  131.0306  157.0086 O   0  0  0  0  0  0  0  0  0  0  0  0
  129.2652  133.1925  156.4081 C   0  0  0  0  0  0  0  0  0  0  0  0
  129.4939  134.3920  156.8768 C   0  0  0  0  0  0  0  0  0  0  0  0
  129.8254  134.3422  158.3500 C   0  0  1  0  0  0  0  0  0  0  0  0
  130.6803  134.9821  158.5688 H   0  0  0  0  0  0  0  0  0  0  0  0
  128.6664  134.7502  159.1479 N   0  0  0  0  0  0  0  0  0  0  0  0
  127.8175  134.2940  159.0386 H   0  0  0  0  0  0  0  0  0  0  0  0
  128.7762  135.7261  160.0049 C   0  0  0  0  0  0  0  0  0  0  0  0
  129.6716  136.7440  159.7766 N   0  0  0  0  0  0  0  0  0  0  0  0
  130.2901  137.4427  160.9059 C   0  0  1  0  0  0  0  0  0  0  0  0
  129.7148  138.3084  161.2345 H   0  0  0  0  0  0  0  0  0  0  0  0
  130.7077  136.5090  162.0542 C   0  0  0  0  0  0  0  0  0  0  0  0
  131.9784  137.3684  162.1838 C   0  0  0  0  0  0  0  0  0  0  0  0
  131.7857  137.7379  160.7036 C   0  0  2  0  0  0  0  0  0  0  0  0
  132.1694  139.6247  160.3063 Br  0  0  0  0  0  0  0  0  0  0  0  0
  127.9963  135.7376  161.1372 N   0  0  0  0  0  0  0  0  0  0  0  0
  127.0420  134.6530  161.3805 C   0  0  1  0  0  0  0  0  0  0  0  0
  127.5201  133.6759  161.4486 H   0  0  0  0  0  0  0  0  0  0  0  0
  126.0622  134.9409  162.5301 C   0  0  0  0  0  0  0  0  0  0  0  0
  124.9734  134.2906  161.6603 C   0  0  1  0  0  0  0  0  0  0  0  0
  124.8840  133.2141  161.8053 H   0  0  0  0  0  0  0  0  0  0  0  0
  123.7150  134.9650  161.7193 O   0  0  0  0  0  0  0  0  0  0  0  0
  125.8250  134.6812  160.4408 C   0  0  0  0  0  0  0  0  0  0  0  0
  131.9452  132.8439  157.6422 H   0  0  0  0  0  0  0  0  0  0  0  0
  131.0252  131.2635  156.6524 H   0  0  0  0  0  0  0  0  0  0  0  0
  129.0087  132.9771  155.3813 H   0  0  0  0  0  0  0  0  0  0  0  0
  129.4513  135.2980  156.2904 H   0  0  0  0  0  0  0  0  0  0  0  0
  129.8969  136.9970  158.8676 H   0  0  0  0  0  0  0  0  0  0  0  0
  130.0514  136.5643  162.9227 H   0  0  0  0  0  0  0  0  0  0  0  0
  130.9036  135.4852  161.7351 H   0  0  0  0  0  0  0  0  0  0  0  0
  132.8813  136.7886  162.3751 H   0  0  0  0  0  0  0  0  0  0  0  0
  131.8649  138.2133  162.8631 H   0  0  0  0  0  0  0  0  0  0  0  0
  132.2769  137.0508  160.0146 H   0  0  0  0  0  0  0  0  0  0  0  0
  128.0781  136.4638  161.7750 H   0  0  0  0  0  0  0  0  0  0  0  0
  126.2829  134.3852  163.4415 H   0  0  0  0  0  0  0  0  0  0  0  0
  125.9003  136.0038  162.7100 H   0  0  0  0  0  0  0  0  0  0  0  0
  123.7481  135.8860  161.4262 H   0  0  0  0  0  0  0  0  0  0  0  0
  125.5982  135.6729  160.0496 H   0  0  0  0  0  0  0  0  0  0  0  0
  125.8542  133.9157  159.6654 H   0  0  0  0  0  0  0  0  0  0  0  0
  1  2  1  0
  1 29  1  0
  2  3  1  1
  2  9  1  0
  2  4  1  0
  4  5  1  1
  4  6  1  0
  4  7  1  0
  6 30  1  0
  7  8  2  0
  7 31  1  0
  8  9  1  0
  8 32  1  0
  9 10  1  6
  9 11  1  0
 11 12  1  0
 13 11  2  0
 13 14  1  0
 13 21  1  0
 14 15  1  0
 14 33  1  0
 15 16  1  1
 15 19  1  0
 15 17  1  0
 17 18  1  0
 17 34  1  0
 17 35  1  0
 18 19  1  0
 18 36  1  0
 18 37  1  0
 19 20  1  0
 19 38  1  6
 21 22  1  0
 21 39  1  0
 22 23  1  1
 22 28  1  0
 22 24  1  0
 24 25  1  0
 24 40  1  0
 24 41  1  0
 25 26  1  1
 25 27  1  0
 25 28  1  0
 27 42  1  0
 28 43  1  0
 28 44  1  0
M  CHG  1  11   1
M  END
>  <DOCK_score>  (1) 
-43.712784

>  <SMILES>  (1) 
O[C@@H]1[C@H](O)C=C[C@H]1[NH+]=C(N[C@H]1CCC1Br)N[C@H]1C[C@@H](O)C1

$$$$
