CCc1ccc(-c2c[nH]c(N[C@H](C)Cc3ccc(-c4ccc(Nc5ccccc5)cc4)cc3)[nH+]2)cc1
     RDKit          3D

 69 73  0  0  1  0  0  0  0  0999 V2000
  129.9437  129.3147  151.4754 C   0  0  0  0  0  0  0  0  0  0  0  0
  131.3014  129.7143  152.0566 C   0  0  0  0  0  0  0  0  0  0  0  0
  131.0965  130.4189  153.3728 C   0  0  0  0  0  0  0  0  0  0  0  0
  131.0672  129.6893  154.5477 C   0  0  0  0  0  0  0  0  0  0  0  0
  130.8856  130.3300  155.7566 C   0  0  0  0  0  0  0  0  0  0  0  0
  130.7203  131.7135  155.7910 C   0  0  0  0  0  0  0  0  0  0  0  0
  130.5191  132.4071  157.0867 C   0  0  0  0  0  0  0  0  0  0  0  0
  129.9294  131.8827  158.1895 C   0  0  0  0  0  0  0  0  0  0  0  0
  129.9517  132.8589  159.1557 N   0  0  0  0  0  0  0  0  0  0  0  0
  129.6018  132.7830  160.0572 H   0  0  0  0  0  0  0  0  0  0  0  0
  130.5549  133.9522  158.6146 C   0  0  0  0  0  0  0  0  0  0  0  0
  130.7754  135.1553  159.2632 N   0  0  0  0  0  0  0  0  0  0  0  0
  130.3452  135.3278  160.6529 C   0  0  2  0  0  0  0  0  0  0  0  0
  130.5468  134.4140  161.2119 H   0  0  0  0  0  0  0  0  0  0  0  0
  128.8452  135.6272  160.6889 C   0  0  0  0  0  0  0  0  0  0  0  0
  131.1128  136.4913  161.2837 C   0  0  0  0  0  0  0  0  0  0  0  0
  131.0588  136.3734  162.7851 C   0  0  0  0  0  0  0  0  0  0  0  0
  132.0392  135.6649  163.4563 C   0  0  0  0  0  0  0  0  0  0  0  0
  131.9974  135.5576  164.8315 C   0  0  0  0  0  0  0  0  0  0  0  0
  130.9595  136.1563  165.5433 C   0  0  0  0  0  0  0  0  0  0  0  0
  130.9065  136.0405  167.0211 C   0  0  0  0  0  0  0  0  0  0  0  0
  129.6774  136.0533  167.6788 C   0  0  0  0  0  0  0  0  0  0  0  0
  129.6300  135.9408  169.0519 C   0  0  0  0  0  0  0  0  0  0  0  0
  130.8082  135.8244  169.7817 C   0  0  0  0  0  0  0  0  0  0  0  0
  130.7588  135.7157  171.1725 N   0  0  0  0  0  0  0  0  0  0  0  0
  129.7169  136.3183  171.8834 C   0  0  0  0  0  0  0  0  0  0  0  0
  128.8647  135.5433  172.6600 C   0  0  0  0  0  0  0  0  0  0  0  0
  127.8401  136.1424  173.3660 C   0  0  0  0  0  0  0  0  0  0  0  0
  127.6548  137.5107  173.2915 C   0  0  0  0  0  0  0  0  0  0  0  0
  128.4977  138.2846  172.5148 C   0  0  0  0  0  0  0  0  0  0  0  0
  129.5278  137.6928  171.8107 C   0  0  0  0  0  0  0  0  0  0  0  0
  132.0350  135.8170  169.1282 C   0  0  0  0  0  0  0  0  0  0  0  0
  132.0864  135.9245  167.7550 C   0  0  0  0  0  0  0  0  0  0  0  0
  129.9716  136.8644  164.8614 C   0  0  0  0  0  0  0  0  0  0  0  0
  130.0260  136.9692  163.4864 C   0  0  0  0  0  0  0  0  0  0  0  0
  130.8978  133.6764  157.3800 N   0  0  0  0  0  0  0  0  0  0  0  0
  131.3482  134.2837  156.7723 H   0  0  0  0  0  0  0  0  0  0  0  0
  130.7451  132.4429  154.6035 C   0  0  0  0  0  0  0  0  0  0  0  0
  130.9330  131.7922  153.4012 C   0  0  0  0  0  0  0  0  0  0  0  0
  130.0918  128.8050  150.5232 H   0  0  0  0  0  0  0  0  0  0  0  0
  129.4337  128.6467  152.1694 H   0  0  0  0  0  0  0  0  0  0  0  0
  129.3383  130.2076  151.3191 H   0  0  0  0  0  0  0  0  0  0  0  0
  131.9068  128.8214  152.2127 H   0  0  0  0  0  0  0  0  0  0  0  0
  131.8113  130.3822  151.3624 H   0  0  0  0  0  0  0  0  0  0  0  0
  131.1907  128.6167  154.5193 H   0  0  0  0  0  0  0  0  0  0  0  0
  130.8677  129.7599  156.6737 H   0  0  0  0  0  0  0  0  0  0  0  0
  129.5203  130.8882  158.2889 H   0  0  0  0  0  0  0  0  0  0  0  0
  131.2148  135.8839  158.7975 H   0  0  0  0  0  0  0  0  0  0  0  0
  128.6436  136.5410  160.1300 H   0  0  0  0  0  0  0  0  0  0  0  0
  128.2982  134.7984  160.2395 H   0  0  0  0  0  0  0  0  0  0  0  0
  128.5249  135.7557  161.7229 H   0  0  0  0  0  0  0  0  0  0  0  0
  132.1514  136.4628  160.9540 H   0  0  0  0  0  0  0  0  0  0  0  0
  130.6600  137.4342  160.9767 H   0  0  0  0  0  0  0  0  0  0  0  0
  132.8410  135.1982  162.9032 H   0  0  0  0  0  0  0  0  0  0  0  0
  132.7657  135.0079  165.3549 H   0  0  0  0  0  0  0  0  0  0  0  0
  128.7626  136.1476  167.1125 H   0  0  0  0  0  0  0  0  0  0  0  0
  128.6779  135.9469  169.5614 H   0  0  0  0  0  0  0  0  0  0  0  0
  131.4464  135.2229  171.6456 H   0  0  0  0  0  0  0  0  0  0  0  0
  129.0061  134.4739  172.7151 H   0  0  0  0  0  0  0  0  0  0  0  0
  127.1800  135.5410  173.9734 H   0  0  0  0  0  0  0  0  0  0  0  0
  126.8498  137.9761  173.8407 H   0  0  0  0  0  0  0  0  0  0  0  0
  128.3499  139.3530  172.4585 H   0  0  0  0  0  0  0  0  0  0  0  0
  130.1855  138.2977  171.2042 H   0  0  0  0  0  0  0  0  0  0  0  0
  132.9487  135.7272  169.6971 H   0  0  0  0  0  0  0  0  0  0  0  0
  133.0397  135.9192  167.2477 H   0  0  0  0  0  0  0  0  0  0  0  0
  129.1648  137.3299  165.4080 H   0  0  0  0  0  0  0  0  0  0  0  0
  129.2611  137.5177  162.9570 H   0  0  0  0  0  0  0  0  0  0  0  0
  130.6171  133.5151  154.6245 H   0  0  0  0  0  0  0  0  0  0  0  0
  130.9520  132.3564  152.4802 H   0  0  0  0  0  0  0  0  0  0  0  0
  1  2  1  0
  1 40  1  0
  1 41  1  0
  1 42  1  0
  2  3  1  0
  2 43  1  0
  2 44  1  0
  3 39  2  0
  3  4  1  0
  4  5  2  0
  4 45  1  0
  5  6  1  0
  5 46  1  0
  6  7  1  0
  6 38  2  0
  7 36  1  0
  7  8  2  0
  8  9  1  0
  8 47  1  0
  9 10  1  0
  9 11  1  0
 11 12  1  0
 11 36  2  0
 12 13  1  0
 12 48  1  0
 13 14  1  1
 13 15  1  0
 13 16  1  0
 15 49  1  0
 15 50  1  0
 15 51  1  0
 16 17  1  0
 16 52  1  0
 16 53  1  0
 17 35  1  0
 17 18  2  0
 18 19  1  0
 18 54  1  0
 19 20  2  0
 19 55  1  0
 20 21  1  0
 20 34  1  0
 21 33  1  0
 21 22  2  0
 22 23  1  0
 22 56  1  0
 23 24  2  0
 23 57  1  0
 24 25  1  0
 24 32  1  0
 25 26  1  0
 25 58  1  0
 26 31  1  0
 26 27  2  0
 27 28  1  0
 27 59  1  0
 28 29  2  0
 28 60  1  0
 29 30  1  0
 29 61  1  0
 30 31  2  0
 30 62  1  0
 31 63  1  0
 32 33  2  0
 32 64  1  0
 33 65  1  0
 34 35  2  0
 34 66  1  0
 35 67  1  0
 36 37  1  0
 38 39  1  0
 38 68  1  0
 39 69  1  0
M  CHG  1  36   1
M  END
>  <DOCK_score>  (1) 
-56.746246

>  <SMILES>  (1) 
CCc1ccc(-c2c[nH]c(N[C@H](C)Cc3ccc(-c4ccc(Nc5ccccc5)cc4)cc3)[nH+]2)cc1

$$$$
