O=C1CCC(NC(NC2CC=CC2)=[NH+][C@@H]2Cc3ccncc3C2)CN1
     RDKit          3D

 51 54  0  0  1  0  0  0  0  0999 V2000
  123.7727  133.6932  161.5459 O   0  0  0  0  0  0  0  0  0  0  0  0
  124.9475  133.9612  161.4081 C   0  0  0  0  0  0  0  0  0  0  0  0
  125.8539  132.9097  160.8353 C   0  0  0  0  0  0  0  0  0  0  0  0
  127.3129  133.2565  161.1419 C   0  0  0  0  0  0  0  0  0  0  0  0
  127.5536  134.7218  160.7585 C   0  0  2  0  0  0  0  0  0  0  0  0
  128.9803  135.0329  160.8771 N   0  0  0  0  0  0  0  0  0  0  0  0
  129.8145  134.8551  159.7990 C   0  0  0  0  0  0  0  0  0  0  0  0
  129.3100  134.3854  158.6094 N   0  0  0  0  0  0  0  0  0  0  0  0
  130.1582  133.5923  157.7161 C   0  0  0  0  0  0  0  0  0  0  0  0
  131.0733  132.6400  158.5204 C   0  0  0  0  0  0  0  0  0  0  0  0
  131.1358  131.3756  157.6954 C   0  0  0  0  0  0  0  0  0  0  0  0
  130.1773  131.3444  156.8099 C   0  0  0  0  0  0  0  0  0  0  0  0
  129.3158  132.5826  156.8966 C   0  0  0  0  0  0  0  0  0  0  0  0
  131.0838  135.1320  159.9044 N   0  0  0  0  0  0  0  0  0  0  0  0
  131.5812  135.4313  159.1273 H   0  0  0  0  0  0  0  0  0  0  0  0
  131.7594  134.9910  161.1966 C   0  0  2  0  0  0  0  0  0  0  0  0
  131.2943  134.2045  161.7913 H   0  0  0  0  0  0  0  0  0  0  0  0
  131.7606  136.3308  161.9642 C   0  0  0  0  0  0  0  0  0  0  0  0
  133.0841  136.3680  162.6914 C   0  0  0  0  0  0  0  0  0  0  0  0
  133.5268  137.1388  163.7552 C   0  0  0  0  0  0  0  0  0  0  0  0
  134.8136  136.9585  164.2262 C   0  0  0  0  0  0  0  0  0  0  0  0
  135.6131  136.0655  163.6763 N   0  0  0  0  0  0  0  0  0  0  0  0
  135.2247  135.3154  162.6642 C   0  0  0  0  0  0  0  0  0  0  0  0
  133.9512  135.4406  162.1388 C   0  0  0  0  0  0  0  0  0  0  0  0
  133.2664  134.7178  161.0010 C   0  0  0  0  0  0  0  0  0  0  0  0
  126.7532  135.6141  161.7079 C   0  0  0  0  0  0  0  0  0  0  0  0
  125.3653  135.1738  161.7735 N   0  0  0  0  0  0  0  0  0  0  0  0
  125.7129  132.8590  159.7557 H   0  0  0  0  0  0  0  0  0  0  0  0
  125.6108  131.9437  161.2780 H   0  0  0  0  0  0  0  0  0  0  0  0
  127.9731  132.6122  160.5614 H   0  0  0  0  0  0  0  0  0  0  0  0
  127.5078  133.1188  162.2054 H   0  0  0  0  0  0  0  0  0  0  0  0
  127.2268  134.8896  159.7323 H   0  0  0  0  0  0  0  0  0  0  0  0
  129.3362  135.3642  161.7163 H   0  0  0  0  0  0  0  0  0  0  0  0
  128.3923  134.5789  158.3617 H   0  0  0  0  0  0  0  0  0  0  0  0
  130.7438  134.2370  157.0608 H   0  0  0  0  0  0  0  0  0  0  0  0
  130.6402  132.4337  159.4991 H   0  0  0  0  0  0  0  0  0  0  0  0
  132.0682  133.0716  158.6295 H   0  0  0  0  0  0  0  0  0  0  0  0
  131.8764  130.5996  157.8215 H   0  0  0  0  0  0  0  0  0  0  0  0
  130.0207  130.5392  156.1072 H   0  0  0  0  0  0  0  0  0  0  0  0
  129.1155  132.9765  155.9003 H   0  0  0  0  0  0  0  0  0  0  0  0
  128.3810  132.3596  157.4110 H   0  0  0  0  0  0  0  0  0  0  0  0
  131.6881  137.1659  161.2674 H   0  0  0  0  0  0  0  0  0  0  0  0
  130.9364  136.3593  162.6770 H   0  0  0  0  0  0  0  0  0  0  0  0
  132.8754  137.8714  164.2087 H   0  0  0  0  0  0  0  0  0  0  0  0
  135.1677  137.5548  165.0541 H   0  0  0  0  0  0  0  0  0  0  0  0
  135.9084  134.5946  162.2406 H   0  0  0  0  0  0  0  0  0  0  0  0
  133.4671  133.6480  161.0571 H   0  0  0  0  0  0  0  0  0  0  0  0
  133.6017  135.1165  160.0435 H   0  0  0  0  0  0  0  0  0  0  0  0
  127.1936  135.5668  162.7039 H   0  0  0  0  0  0  0  0  0  0  0  0
  126.7882  136.6432  161.3503 H   0  0  0  0  0  0  0  0  0  0  0  0
  124.7042  135.8020  162.1037 H   0  0  0  0  0  0  0  0  0  0  0  0
  1  2  2  0
  2 27  1  0
  2  3  1  0
  3  4  1  0
  3 28  1  0
  3 29  1  0
  4  5  1  0
  4 30  1  0
  4 31  1  0
  5  6  1  0
  5 26  1  0
  5 32  1  6
  6 33  1  0
  7  6  1  0
  7  8  1  0
  7 14  2  0
  8  9  1  0
  8 34  1  0
  9 13  1  0
  9 10  1  0
  9 35  1  0
 10 11  1  0
 10 36  1  0
 10 37  1  0
 11 12  2  0
 11 38  1  0
 12 13  1  0
 12 39  1  0
 13 40  1  0
 13 41  1  0
 14 15  1  0
 14 16  1  0
 16 17  1  1
 16 25  1  0
 16 18  1  0
 18 19  1  0
 18 42  1  0
 18 43  1  0
 19 24  2  0
 19 20  1  0
 20 21  2  0
 20 44  1  0
 21 22  1  0
 21 45  1  0
 22 23  2  0
 23 24  1  0
 23 46  1  0
 24 25  1  0
 25 47  1  0
 25 48  1  0
 26 27  1  0
 26 49  1  0
 26 50  1  0
 27 51  1  0
M  CHG  1  14   1
M  END
>  <DOCK_score>  (1) 
-45.359234

>  <SMILES>  (1) 
O=C1CCC(NC(NC2CC=CC2)=[NH+][C@@H]2Cc3ccncc3C2)CN1

$$$$
