COc1cccc(C2=CC[N@H+](C(c3ccccc3)c3ccccc3)CC2)c1
     RDKit          3D

 53 56  0  0  1  0  0  0  0  0999 V2000
  135.8500  141.7221  163.2849 C   0  0  0  0  0  0  0  0  0  0  0  0
  134.8736  140.6849  163.1705 O   0  0  0  0  0  0  0  0  0  0  0  0
  134.8213  140.0145  161.9894 C   0  0  0  0  0  0  0  0  0  0  0  0
  135.6928  140.3499  160.9618 C   0  0  0  0  0  0  0  0  0  0  0  0
  135.6438  139.6717  159.7583 C   0  0  0  0  0  0  0  0  0  0  0  0
  134.7321  138.6520  159.5728 C   0  0  0  0  0  0  0  0  0  0  0  0
  133.8482  138.3122  160.5976 C   0  0  0  0  0  0  0  0  0  0  0  0
  132.8659  137.2256  160.3998 C   0  0  0  0  0  0  0  0  0  0  0  0
  131.5839  137.5038  160.4986 C   0  0  0  0  0  0  0  0  0  0  0  0
  130.5080  136.4717  160.3207 C   0  0  0  0  0  0  0  0  0  0  0  0
  131.0384  135.2944  159.6232 N   0  0  2  0  0  0  0  0  0  0  0  0
  131.2732  135.5404  158.6732 H   0  0  0  0  0  0  0  0  0  0  0  0
  130.0276  134.2284  159.6194 C   0  0  0  0  0  0  0  0  0  0  0  0
  130.5740  133.0206  158.9028 C   0  0  0  0  0  0  0  0  0  0  0  0
  130.3841  132.8806  157.5407 C   0  0  0  0  0  0  0  0  0  0  0  0
  130.8888  131.7745  156.8826 C   0  0  0  0  0  0  0  0  0  0  0  0
  131.5761  130.8046  157.5880 C   0  0  0  0  0  0  0  0  0  0  0  0
  131.7615  130.9421  158.9509 C   0  0  0  0  0  0  0  0  0  0  0  0
  131.2603  132.0500  159.6083 C   0  0  0  0  0  0  0  0  0  0  0  0
  128.7882  134.7139  158.9128 C   0  0  0  0  0  0  0  0  0  0  0  0
  127.5486  134.2198  159.2736 C   0  0  0  0  0  0  0  0  0  0  0  0
  126.4114  134.6679  158.6281 C   0  0  0  0  0  0  0  0  0  0  0  0
  126.5145  135.6042  157.6163 C   0  0  0  0  0  0  0  0  0  0  0  0
  127.7547  136.0943  157.2519 C   0  0  0  0  0  0  0  0  0  0  0  0
  128.8914  135.6490  157.9000 C   0  0  0  0  0  0  0  0  0  0  0  0
  132.2450  134.8264  160.3232 C   0  0  0  0  0  0  0  0  0  0  0  0
  133.3677  135.8414  160.0932 C   0  0  0  0  0  0  0  0  0  0  0  0
  133.8986  138.9977  161.8112 C   0  0  0  0  0  0  0  0  0  0  0  0
  135.7850  142.1748  164.2744 H   0  0  0  0  0  0  0  0  0  0  0  0
  136.8454  141.3013  163.1427 H   0  0  0  0  0  0  0  0  0  0  0  0
  135.6645  142.4813  162.5252 H   0  0  0  0  0  0  0  0  0  0  0  0
  136.4114  141.1437  161.1032 H   0  0  0  0  0  0  0  0  0  0  0  0
  136.3240  139.9370  158.9626 H   0  0  0  0  0  0  0  0  0  0  0  0
  134.6998  138.1206  158.6331 H   0  0  0  0  0  0  0  0  0  0  0  0
  131.2920  138.5204  160.7172 H   0  0  0  0  0  0  0  0  0  0  0  0
  129.6915  136.8983  159.7382 H   0  0  0  0  0  0  0  0  0  0  0  0
  130.1312  136.1719  161.2986 H   0  0  0  0  0  0  0  0  0  0  0  0
  129.7788  133.9599  160.6462 H   0  0  0  0  0  0  0  0  0  0  0  0
  129.8441  133.6367  156.9902 H   0  0  0  0  0  0  0  0  0  0  0  0
  130.7436  131.6669  155.8178 H   0  0  0  0  0  0  0  0  0  0  0  0
  131.9680  129.9392  157.0743 H   0  0  0  0  0  0  0  0  0  0  0  0
  132.2983  130.1841  159.5020 H   0  0  0  0  0  0  0  0  0  0  0  0
  131.4051  132.1574  160.6732 H   0  0  0  0  0  0  0  0  0  0  0  0
  127.4683  133.4859  160.0618 H   0  0  0  0  0  0  0  0  0  0  0  0
  125.4425  134.2847  158.9125 H   0  0  0  0  0  0  0  0  0  0  0  0
  125.6262  135.9523  157.1101 H   0  0  0  0  0  0  0  0  0  0  0  0
  127.8353  136.8255  156.4612 H   0  0  0  0  0  0  0  0  0  0  0  0
  129.8604  136.0320  157.6154 H   0  0  0  0  0  0  0  0  0  0  0  0
  132.0399  134.7433  161.3905 H   0  0  0  0  0  0  0  0  0  0  0  0
  132.5416  133.8536  159.9309 H   0  0  0  0  0  0  0  0  0  0  0  0
  134.2084  135.6071  160.7464 H   0  0  0  0  0  0  0  0  0  0  0  0
  133.6919  135.7949  159.0537 H   0  0  0  0  0  0  0  0  0  0  0  0
  133.2196  138.7364  162.6095 H   0  0  0  0  0  0  0  0  0  0  0  0
  1  2  1  0
  1 29  1  0
  1 30  1  0
  1 31  1  0
  2  3  1  0
  3 28  2  0
  3  4  1  0
  4  5  2  0
  4 32  1  0
  5  6  1  0
  5 33  1  0
  6  7  2  0
  6 34  1  0
  7  8  1  0
  7 28  1  0
  8 27  1  0
  8  9  2  0
  9 10  1  0
  9 35  1  0
 10 11  1  0
 10 36  1  0
 10 37  1  0
 11 12  1  6
 11 13  1  0
 11 26  1  0
 13 14  1  0
 13 20  1  0
 13 38  1  0
 14 19  1  0
 14 15  2  0
 15 16  1  0
 15 39  1  0
 16 17  2  0
 16 40  1  0
 17 18  1  0
 17 41  1  0
 18 19  2  0
 18 42  1  0
 19 43  1  0
 20 25  1  0
 20 21  2  0
 21 22  1  0
 21 44  1  0
 22 23  2  0
 22 45  1  0
 23 24  1  0
 23 46  1  0
 24 25  2  0
 24 47  1  0
 25 48  1  0
 26 27  1  0
 26 49  1  0
 26 50  1  0
 27 51  1  0
 27 52  1  0
 28 53  1  0
M  CHG  1  11   1
M  END
>  <DOCK_score>  (1) 
-56.52412

>  <SMILES>  (1) 
COc1cccc(C2=CC[N@H+](C(c3ccccc3)c3ccccc3)CC2)c1

$$$$
