Cc1cccc(COc2cccc(CC3CC([NH+]=C(NC4CC=CC4)NC4CC=CC4)C3)c2)c1Cl
     RDKit          3D

 72 76  0  0  1  0  0  0  0  0999 V2000
  136.9027  140.9767  168.1767 C   0  0  0  0  0  0  0  0  0  0  0  0
  135.6440  141.4722  167.5125 C   0  0  0  0  0  0  0  0  0  0  0  0
  134.9433  142.5299  168.0611 C   0  0  0  0  0  0  0  0  0  0  0  0
  133.7886  142.9845  167.4521 C   0  0  0  0  0  0  0  0  0  0  0  0
  133.3340  142.3817  166.2939 C   0  0  0  0  0  0  0  0  0  0  0  0
  134.0340  141.3245  165.7442 C   0  0  0  0  0  0  0  0  0  0  0  0
  133.5381  140.6675  164.4818 C   0  0  0  0  0  0  0  0  0  0  0  0
  132.3375  141.3110  164.0498 O   0  0  0  0  0  0  0  0  0  0  0  0
  131.7563  140.8360  162.9169 C   0  0  0  0  0  0  0  0  0  0  0  0
  130.5854  141.4104  162.4433 C   0  0  0  0  0  0  0  0  0  0  0  0
  129.9965  140.9257  161.2917 C   0  0  0  0  0  0  0  0  0  0  0  0
  130.5725  139.8685  160.6113 C   0  0  0  0  0  0  0  0  0  0  0  0
  131.7393  139.2947  161.0810 C   0  0  0  0  0  0  0  0  0  0  0  0
  132.3644  138.1429  160.3371 C   0  0  0  0  0  0  0  0  0  0  0  0
  131.7974  136.8248  160.8682 C   0  0  2  0  0  0  0  0  0  0  0  0
  132.5221  135.5804  160.3286 C   0  0  0  0  0  0  0  0  0  0  0  0
  131.1386  134.9180  160.2213 C   0  0  2  0  0  0  0  0  0  0  0  0
  130.9667  134.1109  159.0108 N   0  0  0  0  0  0  0  0  0  0  0  0
  131.6916  134.0364  158.3706 H   0  0  0  0  0  0  0  0  0  0  0  0
  129.8397  133.4930  158.7939 C   0  0  0  0  0  0  0  0  0  0  0  0
  128.8121  133.5988  159.7013 N   0  0  0  0  0  0  0  0  0  0  0  0
  127.5454  132.9043  159.4576 C   0  0  0  0  0  0  0  0  0  0  0  0
  127.7260  131.3714  159.5509 C   0  0  0  0  0  0  0  0  0  0  0  0
  126.4584  130.8746  160.2065 C   0  0  0  0  0  0  0  0  0  0  0  0
  125.8119  131.8524  160.7806 C   0  0  0  0  0  0  0  0  0  0  0  0
  126.5404  133.1643  160.6037 C   0  0  0  0  0  0  0  0  0  0  0  0
  129.6784  132.7356  157.6581 N   0  0  0  0  0  0  0  0  0  0  0  0
  130.8349  132.0749  157.0480 C   0  0  0  0  0  0  0  0  0  0  0  0
  130.3951  131.1253  155.9095 C   0  0  0  0  0  0  0  0  0  0  0  0
  131.3232  129.9381  156.0195 C   0  0  0  0  0  0  0  0  0  0  0  0
  131.9221  129.9155  157.1791 C   0  0  0  0  0  0  0  0  0  0  0  0
  131.4930  131.0839  158.0358 C   0  0  0  0  0  0  0  0  0  0  0  0
  130.5532  136.3352  160.1050 C   0  0  0  0  0  0  0  0  0  0  0  0
  132.3297  139.7728  162.2350 C   0  0  0  0  0  0  0  0  0  0  0  0
  135.1869  140.8656  166.3563 C   0  0  0  0  0  0  0  0  0  0  0  0
  136.0625  139.5325  165.6707 Cl  0  0  0  0  0  0  0  0  0  0  0  0
  136.6512  140.1987  168.8974 H   0  0  0  0  0  0  0  0  0  0  0  0
  137.5755  140.5690  167.4219 H   0  0  0  0  0  0  0  0  0  0  0  0
  137.3921  141.8038  168.6908 H   0  0  0  0  0  0  0  0  0  0  0  0
  135.2977  143.0010  168.9660 H   0  0  0  0  0  0  0  0  0  0  0  0
  133.2415  143.8107  167.8813 H   0  0  0  0  0  0  0  0  0  0  0  0
  132.4319  142.7373  165.8184 H   0  0  0  0  0  0  0  0  0  0  0  0
  133.3363  139.6141  164.6755 H   0  0  0  0  0  0  0  0  0  0  0  0
  134.2972  140.7550  163.7044 H   0  0  0  0  0  0  0  0  0  0  0  0
  130.1348  142.2356  162.9746 H   0  0  0  0  0  0  0  0  0  0  0  0
  129.0852  141.3724  160.9225 H   0  0  0  0  0  0  0  0  0  0  0  0
  130.1104  139.4906  159.7113 H   0  0  0  0  0  0  0  0  0  0  0  0
  133.4445  138.1591  160.4837 H   0  0  0  0  0  0  0  0  0  0  0  0
  132.1408  138.2325  159.2741 H   0  0  0  0  0  0  0  0  0  0  0  0
  131.6740  136.8230  161.9512 H   0  0  0  0  0  0  0  0  0  0  0  0
  133.1778  135.1063  161.0588 H   0  0  0  0  0  0  0  0  0  0  0  0
  133.0057  135.7404  159.3650 H   0  0  0  0  0  0  0  0  0  0  0  0
  130.8345  134.3929  161.1268 H   0  0  0  0  0  0  0  0  0  0  0  0
  128.9260  134.1331  160.5028 H   0  0  0  0  0  0  0  0  0  0  0  0
  127.1231  133.1907  158.4944 H   0  0  0  0  0  0  0  0  0  0  0  0
  128.5922  131.1278  160.1659 H   0  0  0  0  0  0  0  0  0  0  0  0
  127.8328  130.9403  158.5555 H   0  0  0  0  0  0  0  0  0  0  0  0
  126.1303  129.8457  160.2004 H   0  0  0  0  0  0  0  0  0  0  0  0
  124.8785  131.7387  161.3120 H   0  0  0  0  0  0  0  0  0  0  0  0
  125.8411  133.9523  160.3240 H   0  0  0  0  0  0  0  0  0  0  0  0
  127.0672  133.4326  161.5194 H   0  0  0  0  0  0  0  0  0  0  0  0
  128.7990  132.6386  157.2606 H   0  0  0  0  0  0  0  0  0  0  0  0
  131.5576  132.8080  156.6895 H   0  0  0  0  0  0  0  0  0  0  0  0
  129.3606  130.8132  156.0537 H   0  0  0  0  0  0  0  0  0  0  0  0
  130.5143  131.6121  154.9417 H   0  0  0  0  0  0  0  0  0  0  0  0
  131.4721  129.2046  155.2408 H   0  0  0  0  0  0  0  0  0  0  0  0
  132.6314  129.1610  157.4859 H   0  0  0  0  0  0  0  0  0  0  0  0
  132.3588  131.5425  158.5136 H   0  0  0  0  0  0  0  0  0  0  0  0
  130.7715  130.7600  158.7859 H   0  0  0  0  0  0  0  0  0  0  0  0
  130.4975  136.7018  159.0801 H   0  0  0  0  0  0  0  0  0  0  0  0
  129.6216  136.4694  160.6549 H   0  0  0  0  0  0  0  0  0  0  0  0
  133.2391  139.3217  162.6038 H   0  0  0  0  0  0  0  0  0  0  0  0
  1  2  1  0
  1 37  1  0
  1 38  1  0
  1 39  1  0
  2 35  2  0
  2  3  1  0
  3  4  2  0
  3 40  1  0
  4  5  1  0
  4 41  1  0
  5  6  2  0
  5 42  1  0
  6  7  1  0
  6 35  1  0
  7  8  1  0
  7 43  1  0
  7 44  1  0
  8  9  1  0
  9 34  1  0
  9 10  2  0
 10 11  1  0
 10 45  1  0
 11 12  2  0
 11 46  1  0
 12 13  1  0
 12 47  1  0
 13 14  1  0
 13 34  2  0
 14 15  1  0
 14 48  1  0
 14 49  1  0
 15 33  1  0
 15 16  1  0
 15 50  1  1
 16 17  1  0
 16 51  1  0
 16 52  1  0
 17 18  1  0
 17 33  1  0
 17 53  1  1
 18 19  1  0
 20 18  2  0
 20 21  1  1
 20 27  1  0
 21 22  1  0
 21 54  1  1
 22 26  1  0
 22 23  1  0
 22 55  1  0
 23 24  1  0
 23 56  1  0
 23 57  1  0
 24 25  2  0
 24 58  1  0
 25 26  1  0
 25 59  1  0
 26 60  1  0
 26 61  1  0
 27 28  1  0
 27 62  1  0
 28 32  1  0
 28 29  1  0
 28 63  1  0
 29 30  1  0
 29 64  1  0
 29 65  1  0
 30 31  2  0
 30 66  1  0
 31 32  1  0
 31 67  1  0
 32 68  1  0
 32 69  1  0
 33 70  1  0
 33 71  1  0
 34 72  1  0
 35 36  1  0
M  CHG  1  18   1
M  END
>  <DOCK_score>  (1) 
-59.490082

>  <SMILES>  (1) 
Cc1cccc(COc2cccc(CC3CC([NH+]=C(NC4CC=CC4)NC4CC=CC4)C3)c2)c1Cl

$$$$
