CCc1ccc(-c2c[nH]c(NC(c3ccnn3C)[C@@H](C)c3ccc(CC)cc3)[nH+]2)cc1
     RDKit          3D

 63 66  0  0  1  0  0  0  0  0999 V2000
  130.1361  128.4459  151.4218 C   0  0  0  0  0  0  0  0  0  0  0  0
  131.1574  129.5745  151.5746 C   0  0  0  0  0  0  0  0  0  0  0  0
  130.9564  130.2577  152.9028 C   0  0  0  0  0  0  0  0  0  0  0  0
  131.6345  129.8050  154.0198 C   0  0  0  0  0  0  0  0  0  0  0  0
  131.4586  130.4301  155.2376 C   0  0  0  0  0  0  0  0  0  0  0  0
  130.5870  131.5127  155.3428 C   0  0  0  0  0  0  0  0  0  0  0  0
  130.3896  132.1851  156.6501 C   0  0  0  0  0  0  0  0  0  0  0  0
  129.9180  131.6062  157.7821 C   0  0  0  0  0  0  0  0  0  0  0  0
  129.8983  132.5810  158.7498 N   0  0  0  0  0  0  0  0  0  0  0  0
  129.6115  132.4713  159.6700 H   0  0  0  0  0  0  0  0  0  0  0  0
  130.3507  133.7301  158.1781 C   0  0  0  0  0  0  0  0  0  0  0  0
  130.4811  134.9515  158.8167 N   0  0  0  0  0  0  0  0  0  0  0  0
  129.5817  135.3016  159.9189 C   0  0  2  0  0  0  0  0  0  0  0  0
  128.1578  135.2989  159.4252 C   0  0  0  0  0  0  0  0  0  0  0  0
  127.6546  136.0742  158.4369 C   0  0  0  0  0  0  0  0  0  0  0  0
  126.2991  135.7607  158.2919 C   0  0  0  0  0  0  0  0  0  0  0  0
  125.9993  134.8306  159.1619 N   0  0  0  0  0  0  0  0  0  0  0  0
  127.1575  134.5188  159.8857 N   0  0  0  0  0  0  0  0  0  0  0  0
  127.2634  133.5238  160.9557 C   0  0  0  0  0  0  0  0  0  0  0  0
  129.9367  136.6940  160.4443 C   0  0  1  0  0  0  0  0  0  0  0  0
  129.8290  137.4234  159.6416 H   0  0  0  0  0  0  0  0  0  0  0  0
  128.9972  137.0595  161.5952 C   0  0  0  0  0  0  0  0  0  0  0  0
  131.3605  136.6966  160.9380 C   0  0  0  0  0  0  0  0  0  0  0  0
  131.7390  135.8472  161.9606 C   0  0  0  0  0  0  0  0  0  0  0  0
  133.0460  135.8468  162.4108 C   0  0  0  0  0  0  0  0  0  0  0  0
  133.9724  136.7021  161.8440 C   0  0  0  0  0  0  0  0  0  0  0  0
  135.3962  136.7050  162.3380 C   0  0  0  0  0  0  0  0  0  0  0  0
  135.5387  137.7167  163.4770 C   0  0  0  0  0  0  0  0  0  0  0  0
  133.5928  137.5549  160.8246 C   0  0  0  0  0  0  0  0  0  0  0  0
  132.2866  137.5525  160.3718 C   0  0  0  0  0  0  0  0  0  0  0  0
  130.6434  133.4897  156.9234 N   0  0  0  0  0  0  0  0  0  0  0  0
  130.9862  134.1404  156.2910 H   0  0  0  0  0  0  0  0  0  0  0  0
  129.9020  131.9612  154.2149 C   0  0  0  0  0  0  0  0  0  0  0  0
  130.0899  131.3319  153.0011 C   0  0  0  0  0  0  0  0  0  0  0  0
  129.1284  128.8583  151.4695 H   0  0  0  0  0  0  0  0  0  0  0  0
  130.2815  127.9519  150.4611 H   0  0  0  0  0  0  0  0  0  0  0  0
  130.2712  127.7228  152.2262 H   0  0  0  0  0  0  0  0  0  0  0  0
  132.1650  129.1626  151.5266 H   0  0  0  0  0  0  0  0  0  0  0  0
  131.0221  130.2982  150.7699 H   0  0  0  0  0  0  0  0  0  0  0  0
  132.3062  128.9632  153.9380 H   0  0  0  0  0  0  0  0  0  0  0  0
  131.9919  130.0783  156.1084 H   0  0  0  0  0  0  0  0  0  0  0  0
  129.6178  130.5756  157.9008 H   0  0  0  0  0  0  0  0  0  0  0  0
  131.1681  135.5756  158.5345 H   0  0  0  0  0  0  0  0  0  0  0  0
  129.6893  134.5719  160.7214 H   0  0  0  0  0  0  0  0  0  0  0  0
  128.2027  136.8055  157.8616 H   0  0  0  0  0  0  0  0  0  0  0  0
  125.6178  136.2087  157.5838 H   0  0  0  0  0  0  0  0  0  0  0  0
  127.0476  133.9964  161.9140 H   0  0  0  0  0  0  0  0  0  0  0  0
  126.5481  132.7210  160.7773 H   0  0  0  0  0  0  0  0  0  0  0  0
  128.2733  133.1138  160.9721 H   0  0  0  0  0  0  0  0  0  0  0  0
  129.1048  136.3299  162.3978 H   0  0  0  0  0  0  0  0  0  0  0  0
  129.2500  138.0514  161.9695 H   0  0  0  0  0  0  0  0  0  0  0  0
  127.9673  137.0577  161.2381 H   0  0  0  0  0  0  0  0  0  0  0  0
  131.0143  135.1816  162.4060 H   0  0  0  0  0  0  0  0  0  0  0  0
  133.3426  135.1808  163.2076 H   0  0  0  0  0  0  0  0  0  0  0  0
  135.6570  135.7107  162.7004 H   0  0  0  0  0  0  0  0  0  0  0  0
  136.0634  136.9808  161.5215 H   0  0  0  0  0  0  0  0  0  0  0  0
  135.2779  138.7109  163.1145 H   0  0  0  0  0  0  0  0  0  0  0  0
  134.8715  137.4408  164.2936 H   0  0  0  0  0  0  0  0  0  0  0  0
  136.5685  137.7187  163.8342 H   0  0  0  0  0  0  0  0  0  0  0  0
  134.3165  138.2233  160.3819 H   0  0  0  0  0  0  0  0  0  0  0  0
  131.9900  138.2189  159.5754 H   0  0  0  0  0  0  0  0  0  0  0  0
  129.2252  132.7993  154.2908 H   0  0  0  0  0  0  0  0  0  0  0  0
  129.5600  131.6790  152.1264 H   0  0  0  0  0  0  0  0  0  0  0  0
  1  2  1  0
  1 35  1  0
  1 36  1  0
  1 37  1  0
  2  3  1  0
  2 38  1  0
  2 39  1  0
  3 34  2  0
  3  4  1  0
  4  5  2  0
  4 40  1  0
  5  6  1  0
  5 41  1  0
  6  7  1  0
  6 33  2  0
  7 31  1  0
  7  8  2  0
  8  9  1  0
  8 42  1  0
  9 10  1  0
  9 11  1  0
 11 12  1  0
 11 31  2  0
 12 13  1  0
 12 43  1  0
 13 14  1  0
 13 20  1  0
 13 44  1  1
 14 18  1  0
 14 15  2  0
 15 16  1  0
 15 45  1  0
 16 17  2  0
 16 46  1  0
 17 18  1  0
 18 19  1  0
 19 47  1  0
 19 48  1  0
 19 49  1  0
 20 21  1  6
 20 22  1  0
 20 23  1  0
 22 50  1  0
 22 51  1  0
 22 52  1  0
 23 30  1  0
 23 24  2  0
 24 25  1  0
 24 53  1  0
 25 26  2  0
 25 54  1  0
 26 27  1  0
 26 29  1  0
 27 28  1  0
 27 55  1  0
 27 56  1  0
 28 57  1  0
 28 58  1  0
 28 59  1  0
 29 30  2  0
 29 60  1  0
 30 61  1  0
 31 32  1  0
 33 34  1  0
 33 62  1  0
 34 63  1  0
M  CHG  1  31   1
M  END
>  <DOCK_score>  (1) 
-61.630074

>  <SMILES>  (1) 
CCc1ccc(-c2c[nH]c(NC(c3ccnn3C)[C@@H](C)c3ccc(CC)cc3)[nH+]2)cc1

$$$$
