Fc1ccc(-c2ccc(Nc3cccc(CN4CC[NH2+]CC4)c3)cc2)cc1
     RDKit          3D

 52 55  0  0  0  0  0  0  0  0999 V2000
  135.2745  139.1479  159.3373 F   0  0  0  0  0  0  0  0  0  0  0  0
  134.0506  138.6445  159.6092 C   0  0  0  0  0  0  0  0  0  0  0  0
  133.9301  137.5088  160.3938 C   0  0  0  0  0  0  0  0  0  0  0  0
  132.6821  136.9939  160.6785 C   0  0  0  0  0  0  0  0  0  0  0  0
  131.5423  137.6116  160.1667 C   0  0  0  0  0  0  0  0  0  0  0  0
  130.1988  137.0585  160.4653 C   0  0  0  0  0  0  0  0  0  0  0  0
  129.1592  137.2178  159.5502 C   0  0  0  0  0  0  0  0  0  0  0  0
  127.9127  136.6985  159.8274 C   0  0  0  0  0  0  0  0  0  0  0  0
  127.6888  136.0262  161.0235 C   0  0  0  0  0  0  0  0  0  0  0  0
  126.4240  135.5061  161.3049 N   0  0  0  0  0  0  0  0  0  0  0  0
  126.1027  134.2029  160.9177 C   0  0  0  0  0  0  0  0  0  0  0  0
  124.8424  133.6858  161.1918 C   0  0  0  0  0  0  0  0  0  0  0  0
  124.5279  132.3976  160.8073 C   0  0  0  0  0  0  0  0  0  0  0  0
  125.4655  131.6220  160.1495 C   0  0  0  0  0  0  0  0  0  0  0  0
  126.7205  132.1334  159.8752 C   0  0  0  0  0  0  0  0  0  0  0  0
  127.7388  131.2847  159.1584 C   0  0  0  0  0  0  0  0  0  0  0  0
  128.9812  132.0498  158.9881 N   0  0  0  0  0  0  0  0  0  0  0  0
  128.8484  133.0361  157.9066 C   0  0  0  0  0  0  0  0  0  0  0  0
  130.1396  133.8505  157.8015 C   0  0  0  0  0  0  0  0  0  0  0  0
  131.2666  132.9487  157.5293 N   0  0  0  0  0  0  0  0  0  0  0  0
  132.1160  133.4872  157.4476 H   0  0  0  0  0  0  0  0  0  0  0  0
  131.0992  132.4525  156.6668 H   0  0  0  0  0  0  0  0  0  0  0  0
  131.4019  131.9853  158.6297 C   0  0  0  0  0  0  0  0  0  0  0  0
  130.1211  131.1555  158.7417 C   0  0  0  0  0  0  0  0  0  0  0  0
  127.0402  133.4230  160.2527 C   0  0  0  0  0  0  0  0  0  0  0  0
  128.7229  135.8708  161.9399 C   0  0  0  0  0  0  0  0  0  0  0  0
  129.9724  136.3837  161.6640 C   0  0  0  0  0  0  0  0  0  0  0  0
  131.6688  138.7508  159.3739 C   0  0  0  0  0  0  0  0  0  0  0  0
  132.9205  139.2621  159.0990 C   0  0  0  0  0  0  0  0  0  0  0  0
  134.8140  137.0279  160.7860 H   0  0  0  0  0  0  0  0  0  0  0  0
  132.5887  136.1106  161.2931 H   0  0  0  0  0  0  0  0  0  0  0  0
  129.3314  137.7441  158.6230 H   0  0  0  0  0  0  0  0  0  0  0  0
  127.1081  136.8181  159.1169 H   0  0  0  0  0  0  0  0  0  0  0  0
  125.7684  136.0497  161.7691 H   0  0  0  0  0  0  0  0  0  0  0  0
  124.1096  134.2911  161.7046 H   0  0  0  0  0  0  0  0  0  0  0  0
  123.5485  131.9951  161.0200 H   0  0  0  0  0  0  0  0  0  0  0  0
  125.2167  130.6149  159.8492 H   0  0  0  0  0  0  0  0  0  0  0  0
  127.9418  130.3882  159.7441 H   0  0  0  0  0  0  0  0  0  0  0  0
  127.3507  130.9997  158.1804 H   0  0  0  0  0  0  0  0  0  0  0  0
  128.6661  132.5199  156.9641 H   0  0  0  0  0  0  0  0  0  0  0  0
  128.0142  133.7035  158.1234 H   0  0  0  0  0  0  0  0  0  0  0  0
  130.3144  134.3773  158.7396 H   0  0  0  0  0  0  0  0  0  0  0  0
  130.0485  134.5731  156.9905 H   0  0  0  0  0  0  0  0  0  0  0  0
  131.5701  132.5216  159.5635 H   0  0  0  0  0  0  0  0  0  0  0  0
  132.2465  131.3250  158.4327 H   0  0  0  0  0  0  0  0  0  0  0  0
  130.2155  130.4505  159.5677 H   0  0  0  0  0  0  0  0  0  0  0  0
  129.9600  130.6083  157.8129 H   0  0  0  0  0  0  0  0  0  0  0  0
  128.0193  133.8232  160.0342 H   0  0  0  0  0  0  0  0  0  0  0  0
  128.5470  135.3482  162.8685 H   0  0  0  0  0  0  0  0  0  0  0  0
  130.7754  136.2624  162.3760 H   0  0  0  0  0  0  0  0  0  0  0  0
  130.7883  139.2330  158.9756 H   0  0  0  0  0  0  0  0  0  0  0  0
  133.0195  140.1449  158.4848 H   0  0  0  0  0  0  0  0  0  0  0  0
  1  2  1  0
  2 29  2  0
  2  3  1  0
  3  4  2  0
  3 30  1  0
  4  5  1  0
  4 31  1  0
  5  6  1  0
  5 28  2  0
  6 27  1  0
  6  7  2  0
  7  8  1  0
  7 32  1  0
  8  9  2  0
  8 33  1  0
  9 10  1  0
  9 26  1  0
 10 11  1  0
 10 34  1  0
 11 25  1  0
 11 12  2  0
 12 13  1  0
 12 35  1  0
 13 14  2  0
 13 36  1  0
 14 15  1  0
 14 37  1  0
 15 16  1  0
 15 25  2  0
 16 17  1  0
 16 38  1  0
 16 39  1  0
 17 24  1  0
 17 18  1  0
 18 19  1  0
 18 40  1  0
 18 41  1  0
 19 20  1  0
 19 42  1  0
 19 43  1  0
 20 21  1  0
 20 22  1  0
 20 23  1  0
 23 24  1  0
 23 44  1  0
 23 45  1  0
 24 46  1  0
 24 47  1  0
 25 48  1  0
 26 27  2  0
 26 49  1  0
 27 50  1  0
 28 29  1  0
 28 51  1  0
 29 52  1  0
M  CHG  1  20   1
M  END
>  <DOCK_score>  (1) 
-41.041771

>  <SMILES>  (1) 
Fc1ccc(-c2ccc(Nc3cccc(CN4CC[NH2+]CC4)c3)cc2)cc1

$$$$
