CC1=CC[C@@H](Nc2cc(-c3ccccc3)ccc2C[NH+]2CCCC2Cc2ccc(F)cc2F)CC1
     RDKit          3D

 70 74  0  0  1  0  0  0  0  0999 V2000
  136.4196  141.1250  161.1754 C   0  0  0  0  0  0  0  0  0  0  0  0
  135.1513  140.3834  160.8406 C   0  0  0  0  0  0  0  0  0  0  0  0
  134.9294  140.0896  159.5996 C   0  0  0  0  0  0  0  0  0  0  0  0
  133.7188  139.3473  159.1146 C   0  0  0  0  0  0  0  0  0  0  0  0
  132.6235  139.3701  160.1829 C   0  0  1  0  0  0  0  0  0  0  0  0
  132.2152  140.3771  160.2677 H   0  0  0  0  0  0  0  0  0  0  0  0
  131.5570  138.4356  159.8148 N   0  0  0  0  0  0  0  0  0  0  0  0
  130.4433  138.2846  160.6445 C   0  0  0  0  0  0  0  0  0  0  0  0
  130.0040  139.3500  161.4169 C   0  0  0  0  0  0  0  0  0  0  0  0
  128.8935  139.1949  162.2417 C   0  0  0  0  0  0  0  0  0  0  0  0
  128.4184  140.3302  163.0710 C   0  0  0  0  0  0  0  0  0  0  0  0
  127.0659  140.4495  163.3839 C   0  0  0  0  0  0  0  0  0  0  0  0
  126.6303  141.5051  164.1592 C   0  0  0  0  0  0  0  0  0  0  0  0
  127.5320  142.4489  164.6169 C   0  0  0  0  0  0  0  0  0  0  0  0
  128.8751  142.3378  164.3051 C   0  0  0  0  0  0  0  0  0  0  0  0
  129.3224  141.2838  163.5347 C   0  0  0  0  0  0  0  0  0  0  0  0
  128.2292  137.9702  162.2873 C   0  0  0  0  0  0  0  0  0  0  0  0
  128.6726  136.9147  161.5158 C   0  0  0  0  0  0  0  0  0  0  0  0
  129.7750  137.0675  160.6963 C   0  0  0  0  0  0  0  0  0  0  0  0
  130.2534  135.9110  159.8569 C   0  0  0  0  0  0  0  0  0  0  0  0
  130.2701  134.6885  160.6714 N   0  0  2  0  0  0  0  0  0  0  0  0
  129.3432  134.4862  161.0150 H   0  0  0  0  0  0  0  0  0  0  0  0
  131.2109  134.8422  161.8022 C   0  0  0  0  0  0  0  0  0  0  0  0
  131.8665  133.4681  162.0342 C   0  0  0  0  0  0  0  0  0  0  0  0
  131.2637  132.5449  160.9504 C   0  0  0  0  0  0  0  0  0  0  0  0
  130.7819  133.5468  159.8710 C   0  0  1  0  0  0  0  0  0  0  0  0
  129.6623  132.9341  159.0271 C   0  0  0  0  0  0  0  0  0  0  0  0
  130.2625  132.0794  157.9407 C   0  0  0  0  0  0  0  0  0  0  0  0
  130.5736  132.6376  156.7150 C   0  0  0  0  0  0  0  0  0  0  0  0
  131.1247  131.8553  155.7181 C   0  0  0  0  0  0  0  0  0  0  0  0
  131.3656  130.5107  155.9460 C   0  0  0  0  0  0  0  0  0  0  0  0
  131.9041  129.7459  154.9711 F   0  0  0  0  0  0  0  0  0  0  0  0
  131.0542  129.9506  157.1726 C   0  0  0  0  0  0  0  0  0  0  0  0
  130.5073  130.7365  158.1726 C   0  0  0  0  0  0  0  0  0  0  0  0
  130.2079  130.1923  159.3723 F   0  0  0  0  0  0  0  0  0  0  0  0
  133.2420  138.9456  161.5211 C   0  0  0  0  0  0  0  0  0  0  0  0
  134.2235  140.0319  161.9665 C   0  0  0  0  0  0  0  0  0  0  0  0
  136.9854  141.3082  160.2619 H   0  0  0  0  0  0  0  0  0  0  0  0
  136.1710  142.0764  161.6459 H   0  0  0  0  0  0  0  0  0  0  0  0
  137.0200  140.5268  161.8609 H   0  0  0  0  0  0  0  0  0  0  0  0
  135.6615  140.3977  158.8678 H   0  0  0  0  0  0  0  0  0  0  0  0
  133.9910  138.3143  158.8983 H   0  0  0  0  0  0  0  0  0  0  0  0
  133.3463  139.8186  158.2052 H   0  0  0  0  0  0  0  0  0  0  0  0
  131.6242  137.9216  158.9950 H   0  0  0  0  0  0  0  0  0  0  0  0
  130.5191  140.2984  161.3749 H   0  0  0  0  0  0  0  0  0  0  0  0
  126.3604  139.7154  163.0238 H   0  0  0  0  0  0  0  0  0  0  0  0
  125.5827  141.5965  164.4056 H   0  0  0  0  0  0  0  0  0  0  0  0
  127.1862  143.2753  165.2200 H   0  0  0  0  0  0  0  0  0  0  0  0
  129.5748  143.0775  164.6651 H   0  0  0  0  0  0  0  0  0  0  0  0
  130.3712  141.1979  163.2917 H   0  0  0  0  0  0  0  0  0  0  0  0
  127.3677  137.8470  162.9267 H   0  0  0  0  0  0  0  0  0  0  0  0
  128.1560  135.9669  161.5524 H   0  0  0  0  0  0  0  0  0  0  0  0
  129.5810  135.7740  159.0100 H   0  0  0  0  0  0  0  0  0  0  0  0
  131.2594  136.1184  159.4922 H   0  0  0  0  0  0  0  0  0  0  0  0
  131.9735  135.5800  161.5533 H   0  0  0  0  0  0  0  0  0  0  0  0
  130.6694  135.1509  162.6964 H   0  0  0  0  0  0  0  0  0  0  0  0
  132.9472  133.5391  161.9123 H   0  0  0  0  0  0  0  0  0  0  0  0
  131.6222  133.0955  163.0291 H   0  0  0  0  0  0  0  0  0  0  0  0
  132.0246  131.8780  160.5452 H   0  0  0  0  0  0  0  0  0  0  0  0
  130.4264  131.9741  161.3519 H   0  0  0  0  0  0  0  0  0  0  0  0
  131.6128  133.8613  159.2396 H   0  0  0  0  0  0  0  0  0  0  0  0
  129.0236  132.3196  159.6616 H   0  0  0  0  0  0  0  0  0  0  0  0
  129.0693  133.7304  158.5771 H   0  0  0  0  0  0  0  0  0  0  0  0
  130.3860  133.6862  156.5365 H   0  0  0  0  0  0  0  0  0  0  0  0
  131.3681  132.2927  154.7611 H   0  0  0  0  0  0  0  0  0  0  0  0
  131.2417  128.9021  157.3512 H   0  0  0  0  0  0  0  0  0  0  0  0
  132.4565  138.8327  162.2683 H   0  0  0  0  0  0  0  0  0  0  0  0
  133.7719  138.0013  161.3964 H   0  0  0  0  0  0  0  0  0  0  0  0
  134.8050  139.6679  162.8136 H   0  0  0  0  0  0  0  0  0  0  0  0
  133.6659  140.9194  162.2659 H   0  0  0  0  0  0  0  0  0  0  0  0
  1  2  1  0
  1 38  1  0
  1 39  1  0
  1 40  1  0
  2 37  1  0
  2  3  2  0
  3  4  1  0
  3 41  1  0
  4  5  1  0
  4 42  1  0
  4 43  1  0
  5  6  1  1
  5  7  1  0
  5 36  1  0
  7  8  1  0
  7 44  1  0
  8 19  1  0
  8  9  2  0
  9 10  1  0
  9 45  1  0
 10 11  1  0
 10 17  2  0
 11 16  1  0
 11 12  2  0
 12 13  1  0
 12 46  1  0
 13 14  2  0
 13 47  1  0
 14 15  1  0
 14 48  1  0
 15 16  2  0
 15 49  1  0
 16 50  1  0
 17 18  1  0
 17 51  1  0
 18 19  2  0
 18 52  1  0
 19 20  1  0
 20 21  1  0
 20 53  1  0
 20 54  1  0
 21 22  1  1
 21 26  1  0
 21 23  1  0
 23 24  1  0
 23 55  1  0
 23 56  1  0
 24 25  1  0
 24 57  1  0
 24 58  1  0
 25 26  1  0
 25 59  1  0
 25 60  1  0
 26 27  1  0
 26 61  1  6
 27 28  1  0
 27 62  1  0
 27 63  1  0
 28 34  1  0
 28 29  2  0
 29 30  1  0
 29 64  1  0
 30 31  2  0
 30 65  1  0
 31 32  1  0
 31 33  1  0
 33 34  2  0
 33 66  1  0
 34 35  1  0
 36 37  1  0
 36 67  1  0
 36 68  1  0
 37 69  1  0
 37 70  1  0
M  CHG  1  21   1
M  END
>  <DOCK_score>  (1) 
-57.224392

>  <SMILES>  (1) 
CC1=CC[C@@H](Nc2cc(-c3ccccc3)ccc2C[NH+]2CCCC2Cc2ccc(F)cc2F)CC1

$$$$
