c1ccc([C@@H](Nc2[nH]cc(-c3cccnc3)[nH+]2)c2cccnc2)cc1
     RDKit          3D

 43 46  0  0  1  0  0  0  0  0999 V2000
  125.3442  135.7464  157.6171 C   0  0  0  0  0  0  0  0  0  0  0  0
  125.3175  135.5451  158.9845 C   0  0  0  0  0  0  0  0  0  0  0  0
  126.4981  135.5234  159.7032 C   0  0  0  0  0  0  0  0  0  0  0  0
  127.7056  135.7021  159.0544 C   0  0  0  0  0  0  0  0  0  0  0  0
  128.9927  135.6782  159.8378 C   0  0  1  0  0  0  0  0  0  0  0  0
  128.8812  135.0204  160.6998 H   0  0  0  0  0  0  0  0  0  0  0  0
  130.0754  135.1842  158.9834 N   0  0  0  0  0  0  0  0  0  0  0  0
  129.9974  133.9177  158.4298 C   0  0  0  0  0  0  0  0  0  0  0  0
  129.3635  132.8483  158.9836 N   0  0  0  0  0  0  0  0  0  0  0  0
  128.8892  132.8364  159.8297 H   0  0  0  0  0  0  0  0  0  0  0  0
  129.5174  131.7893  158.1221 C   0  0  0  0  0  0  0  0  0  0  0  0
  130.2468  132.2397  157.0714 C   0  0  0  0  0  0  0  0  0  0  0  0
  130.6646  131.4417  155.8928 C   0  0  0  0  0  0  0  0  0  0  0  0
  130.2590  131.8089  154.6063 C   0  0  0  0  0  0  0  0  0  0  0  0
  130.6794  131.0340  153.5394 C   0  0  0  0  0  0  0  0  0  0  0  0
  131.4712  129.9255  153.7787 C   0  0  0  0  0  0  0  0  0  0  0  0
  131.8341  129.6007  155.0045 N   0  0  0  0  0  0  0  0  0  0  0  0
  131.4628  130.3105  156.0505 C   0  0  0  0  0  0  0  0  0  0  0  0
  130.5265  133.5494  157.2887 N   0  0  0  0  0  0  0  0  0  0  0  0
  131.0363  134.1218  156.6942 H   0  0  0  0  0  0  0  0  0  0  0  0
  129.3203  137.0719  160.3084 C   0  0  0  0  0  0  0  0  0  0  0  0
  128.8567  137.5263  161.5339 C   0  0  0  0  0  0  0  0  0  0  0  0
  129.1827  138.8154  161.9257 C   0  0  0  0  0  0  0  0  0  0  0  0
  129.9533  139.5995  161.0880 C   0  0  0  0  0  0  0  0  0  0  0  0
  130.3768  139.1342  159.9291 N   0  0  0  0  0  0  0  0  0  0  0  0
  130.0909  137.9113  159.5267 C   0  0  0  0  0  0  0  0  0  0  0  0
  127.7321  135.9081  157.6877 C   0  0  0  0  0  0  0  0  0  0  0  0
  126.5516  135.9256  156.9684 C   0  0  0  0  0  0  0  0  0  0  0  0
  124.4217  135.7635  157.0557 H   0  0  0  0  0  0  0  0  0  0  0  0
  124.3741  135.4051  159.4913 H   0  0  0  0  0  0  0  0  0  0  0  0
  126.4772  135.3664  160.7715 H   0  0  0  0  0  0  0  0  0  0  0  0
  130.8470  135.7446  158.8056 H   0  0  0  0  0  0  0  0  0  0  0  0
  129.1341  130.7888  158.2575 H   0  0  0  0  0  0  0  0  0  0  0  0
  129.6368  132.6774  154.4487 H   0  0  0  0  0  0  0  0  0  0  0  0
  130.3885  131.2896  152.5311 H   0  0  0  0  0  0  0  0  0  0  0  0
  131.7979  129.3165  152.9488 H   0  0  0  0  0  0  0  0  0  0  0  0
  131.7803  130.0130  157.0389 H   0  0  0  0  0  0  0  0  0  0  0  0
  128.2565  136.8908  162.1680 H   0  0  0  0  0  0  0  0  0  0  0  0
  128.8393  139.2021  162.8739 H   0  0  0  0  0  0  0  0  0  0  0  0
  130.2120  140.6048  161.3860 H   0  0  0  0  0  0  0  0  0  0  0  0
  130.4596  137.5632  158.5732 H   0  0  0  0  0  0  0  0  0  0  0  0
  128.6751  136.0521  157.1814 H   0  0  0  0  0  0  0  0  0  0  0  0
  126.5726  136.0826  155.9001 H   0  0  0  0  0  0  0  0  0  0  0  0
  1 28  2  0
  1  2  1  0
  1 29  1  0
  2  3  2  0
  2 30  1  0
  3  4  1  0
  3 31  1  0
  4  5  1  0
  4 27  2  0
  5  6  1  1
  5  7  1  0
  5 21  1  0
  7 32  1  0
  8  7  1  0
  8 19  2  0
  8  9  1  0
  9 10  1  0
  9 11  1  0
 11 12  2  0
 11 33  1  0
 12 13  1  0
 12 19  1  0
 13 18  1  0
 13 14  2  0
 14 15  1  0
 14 34  1  0
 15 16  2  0
 15 35  1  0
 16 17  1  0
 16 36  1  0
 17 18  2  0
 18 37  1  0
 19 20  1  0
 21 26  1  0
 21 22  2  0
 22 23  1  0
 22 38  1  0
 23 24  2  0
 23 39  1  0
 24 25  1  0
 24 40  1  0
 25 26  2  0
 26 41  1  0
 27 28  1  0
 27 42  1  0
 28 43  1  0
M  CHG  1  19   1
M  END
>  <DOCK_score>  (1) 
-59.038376

>  <SMILES>  (1) 
c1ccc([C@@H](Nc2[nH]cc(-c3cccnc3)[nH+]2)c2cccnc2)cc1

$$$$
