Cn1c(NCC2=CCOCC2)c[nH+]c1CN[C@@H](Cc1ccccc1)c1ccccc1
     RDKit          3D

 61 64  0  0  1  0  0  0  0  0999 V2000
  131.6370  132.5410  161.2756 C   0  0  0  0  0  0  0  0  0  0  0  0
  131.3540  132.9266  159.8909 N   0  0  0  0  0  0  0  0  0  0  0  0
  130.4171  132.3645  159.0642 C   0  0  0  0  0  0  0  0  0  0  0  0
  129.5509  131.3161  159.3786 N   0  0  0  0  0  0  0  0  0  0  0  0
  128.3355  131.1080  158.5875 C   0  0  0  0  0  0  0  0  0  0  0  0
  127.2010  131.8930  159.1938 C   0  0  0  0  0  0  0  0  0  0  0  0
  126.1459  131.2528  159.6023 C   0  0  0  0  0  0  0  0  0  0  0  0
  124.9612  131.9422  160.2171 C   0  0  0  0  0  0  0  0  0  0  0  0
  125.3075  133.2764  160.5936 O   0  0  0  0  0  0  0  0  0  0  0  0
  125.9507  134.0065  159.5415 C   0  0  0  0  0  0  0  0  0  0  0  0
  127.3299  133.3877  159.2975 C   0  0  0  0  0  0  0  0  0  0  0  0
  130.4939  133.0227  157.8833 C   0  0  0  0  0  0  0  0  0  0  0  0
  131.4502  133.9588  157.9888 N   0  0  0  0  0  0  0  0  0  0  0  0
  131.7119  134.5744  157.2864 H   0  0  0  0  0  0  0  0  0  0  0  0
  131.9720  133.9121  159.1827 C   0  0  0  0  0  0  0  0  0  0  0  0
  133.0754  134.8019  159.6946 C   0  0  0  0  0  0  0  0  0  0  0  0
  132.4918  136.0027  160.3074 N   0  0  0  0  0  0  0  0  0  0  0  0
  133.5403  136.8955  160.8188 C   0  0  1  0  0  0  0  0  0  0  0  0
  134.3723  136.9192  160.1150 H   0  0  0  0  0  0  0  0  0  0  0  0
  132.9724  138.3064  160.9849 C   0  0  0  0  0  0  0  0  0  0  0  0
  134.1035  139.3015  161.0256 C   0  0  0  0  0  0  0  0  0  0  0  0
  134.6778  139.6460  162.2348 C   0  0  0  0  0  0  0  0  0  0  0  0
  135.7186  140.5551  162.2717 C   0  0  0  0  0  0  0  0  0  0  0  0
  136.1779  141.1276  161.1004 C   0  0  0  0  0  0  0  0  0  0  0  0
  135.6001  140.7871  159.8916 C   0  0  0  0  0  0  0  0  0  0  0  0
  134.5628  139.8741  159.8543 C   0  0  0  0  0  0  0  0  0  0  0  0
  134.0249  136.3887  162.1527 C   0  0  0  0  0  0  0  0  0  0  0  0
  135.3316  136.6129  162.5441 C   0  0  0  0  0  0  0  0  0  0  0  0
  135.7749  136.1517  163.7695 C   0  0  0  0  0  0  0  0  0  0  0  0
  134.9140  135.4586  164.5997 C   0  0  0  0  0  0  0  0  0  0  0  0
  133.6088  135.2298  164.2062 C   0  0  0  0  0  0  0  0  0  0  0  0
  133.1642  135.6947  162.9825 C   0  0  0  0  0  0  0  0  0  0  0  0
  131.0081  133.1217  161.9503 H   0  0  0  0  0  0  0  0  0  0  0  0
  131.4275  131.4794  161.4071 H   0  0  0  0  0  0  0  0  0  0  0  0
  132.6860  132.7347  161.4996 H   0  0  0  0  0  0  0  0  0  0  0  0
  129.7535  130.7255  160.1209 H   0  0  0  0  0  0  0  0  0  0  0  0
  128.5052  131.4455  157.5652 H   0  0  0  0  0  0  0  0  0  0  0  0
  128.0821  130.0480  158.5829 H   0  0  0  0  0  0  0  0  0  0  0  0
  126.1218  130.1781  159.4988 H   0  0  0  0  0  0  0  0  0  0  0  0
  124.6365  131.3904  161.0993 H   0  0  0  0  0  0  0  0  0  0  0  0
  124.1496  131.9710  159.4901 H   0  0  0  0  0  0  0  0  0  0  0  0
  126.0632  135.0503  159.8347 H   0  0  0  0  0  0  0  0  0  0  0  0
  125.3535  133.9425  158.6320 H   0  0  0  0  0  0  0  0  0  0  0  0
  127.9920  133.6383  160.1264 H   0  0  0  0  0  0  0  0  0  0  0  0
  127.7454  133.7814  158.3698 H   0  0  0  0  0  0  0  0  0  0  0  0
  129.8878  132.8311  157.0101 H   0  0  0  0  0  0  0  0  0  0  0  0
  133.6614  134.2625  160.4386 H   0  0  0  0  0  0  0  0  0  0  0  0
  133.7206  135.0940  158.8660 H   0  0  0  0  0  0  0  0  0  0  0  0
  131.8916  136.4858  159.6560 H   0  0  0  0  0  0  0  0  0  0  0  0
  132.3170  138.5356  160.1446 H   0  0  0  0  0  0  0  0  0  0  0  0
  132.4053  138.3627  161.9140 H   0  0  0  0  0  0  0  0  0  0  0  0
  134.3159  139.2020  163.1505 H   0  0  0  0  0  0  0  0  0  0  0  0
  136.1697  140.8214  163.2162 H   0  0  0  0  0  0  0  0  0  0  0  0
  136.9880  141.8413  161.1296 H   0  0  0  0  0  0  0  0  0  0  0  0
  135.9588  141.2346  158.9766 H   0  0  0  0  0  0  0  0  0  0  0  0
  134.1113  139.6082  158.9099 H   0  0  0  0  0  0  0  0  0  0  0  0
  136.0052  137.1512  161.8938 H   0  0  0  0  0  0  0  0  0  0  0  0
  136.7945  136.3307  164.0771 H   0  0  0  0  0  0  0  0  0  0  0  0
  135.2611  135.0959  165.5559 H   0  0  0  0  0  0  0  0  0  0  0  0
  132.9361  134.6882  164.8548 H   0  0  0  0  0  0  0  0  0  0  0  0
  132.1445  135.5160  162.6750 H   0  0  0  0  0  0  0  0  0  0  0  0
  1  2  1  0
  1 33  1  0
  1 34  1  0
  1 35  1  0
  2 15  1  0
  2  3  1  0
  3  4  1  0
  3 12  2  0
  4  5  1  0
  4 36  1  0
  5  6  1  0
  5 37  1  0
  5 38  1  0
  6 11  1  0
  6  7  2  0
  7  8  1  0
  7 39  1  0
  8  9  1  0
  8 40  1  0
  8 41  1  0
  9 10  1  0
 10 11  1  0
 10 42  1  0
 10 43  1  0
 11 44  1  0
 11 45  1  0
 12 13  1  0
 12 46  1  0
 13 14  1  0
 13 15  2  0
 15 16  1  0
 16 17  1  0
 16 47  1  0
 16 48  1  0
 17 18  1  0
 17 49  1  0
 18 19  1  6
 18 20  1  0
 18 27  1  0
 20 21  1  0
 20 50  1  0
 20 51  1  0
 21 26  1  0
 21 22  2  0
 22 23  1  0
 22 52  1  0
 23 24  2  0
 23 53  1  0
 24 25  1  0
 24 54  1  0
 25 26  2  0
 25 55  1  0
 26 56  1  0
 27 32  1  0
 27 28  2  0
 28 29  1  0
 28 57  1  0
 29 30  2  0
 29 58  1  0
 30 31  1  0
 30 59  1  0
 31 32  2  0
 31 60  1  0
 32 61  1  0
M  CHG  1  13   1
M  END
>  <DOCK_score>  (1) 
-58.841042

>  <SMILES>  (1) 
Cn1c(NCC2=CCOCC2)c[nH+]c1CN[C@@H](Cc1ccccc1)c1ccccc1

$$$$
