Cn1cc(COc2cc(NC[C@@H]3CC3(F)F)ccc2C[NH2+]Cc2ccccc2)cn1
     RDKit          3D

 57 60  0  0  1  0  0  0  0  0999 V2000
  125.8665  135.8232  163.8244 C   0  0  0  0  0  0  0  0  0  0  0  0
  126.7662  136.2521  162.7507 N   0  0  0  0  0  0  0  0  0  0  0  0
  127.9029  136.9633  162.9041 C   0  0  0  0  0  0  0  0  0  0  0  0
  128.4369  137.1569  161.6759 C   0  0  0  0  0  0  0  0  0  0  0  0
  129.7081  137.9064  161.3700 C   0  0  0  0  0  0  0  0  0  0  0  0
  130.4877  137.1598  160.4338 O   0  0  0  0  0  0  0  0  0  0  0  0
  131.7296  136.7772  160.8315 C   0  0  0  0  0  0  0  0  0  0  0  0
  132.6688  137.7325  161.1874 C   0  0  0  0  0  0  0  0  0  0  0  0
  133.9361  137.3382  161.5939 C   0  0  0  0  0  0  0  0  0  0  0  0
  134.8851  138.2979  161.9536 N   0  0  0  0  0  0  0  0  0  0  0  0
  134.5432  139.7213  161.9023 C   0  0  0  0  0  0  0  0  0  0  0  0
  135.7502  140.5520  162.3428 C   0  0  2  0  0  0  0  0  0  0  0  0
  136.1101  140.3591  163.3534 H   0  0  0  0  0  0  0  0  0  0  0  0
  135.8499  141.9861  161.8192 C   0  0  0  0  0  0  0  0  0  0  0  0
  136.7904  140.9064  161.2782 C   0  0  0  0  0  0  0  0  0  0  0  0
  138.1305  140.9584  161.6766 F   0  0  0  0  0  0  0  0  0  0  0  0
  136.5650  140.4460  159.9764 F   0  0  0  0  0  0  0  0  0  0  0  0
  134.2592  135.9875  161.6425 C   0  0  0  0  0  0  0  0  0  0  0  0
  133.3205  135.0389  161.2871 C   0  0  0  0  0  0  0  0  0  0  0  0
  132.0563  135.4296  160.8873 C   0  0  0  0  0  0  0  0  0  0  0  0
  131.0330  134.3909  160.5063 C   0  0  0  0  0  0  0  0  0  0  0  0
  131.1372  134.1050  159.0691 N   0  0  0  0  0  0  0  0  0  0  0  0
  130.9694  134.9507  158.5450 H   0  0  0  0  0  0  0  0  0  0  0  0
  132.0619  133.7584  158.8614 H   0  0  0  0  0  0  0  0  0  0  0  0
  130.1399  133.0924  158.6978 C   0  0  0  0  0  0  0  0  0  0  0  0
  130.2468  132.7991  157.2235 C   0  0  0  0  0  0  0  0  0  0  0  0
  129.4978  133.5268  156.3178 C   0  0  0  0  0  0  0  0  0  0  0  0
  129.5997  133.2610  154.9651 C   0  0  0  0  0  0  0  0  0  0  0  0
  130.4424  132.2603  154.5189 C   0  0  0  0  0  0  0  0  0  0  0  0
  131.1874  131.5289  155.4250 C   0  0  0  0  0  0  0  0  0  0  0  0
  131.0895  131.7983  156.7772 C   0  0  0  0  0  0  0  0  0  0  0  0
  127.6024  136.5361  160.7409 C   0  0  0  0  0  0  0  0  0  0  0  0
  126.5990  135.9959  161.3837 N   0  0  0  0  0  0  0  0  0  0  0  0
  125.1103  136.5900  163.9927 H   0  0  0  0  0  0  0  0  0  0  0  0
  125.3806  134.8899  163.5403 H   0  0  0  0  0  0  0  0  0  0  0  0
  126.4392  135.6708  164.7392 H   0  0  0  0  0  0  0  0  0  0  0  0
  128.3106  137.3183  163.8390 H   0  0  0  0  0  0  0  0  0  0  0  0
  129.4626  138.8794  160.9442 H   0  0  0  0  0  0  0  0  0  0  0  0
  130.2780  138.0452  162.2887 H   0  0  0  0  0  0  0  0  0  0  0  0
  132.4149  138.7816  161.1491 H   0  0  0  0  0  0  0  0  0  0  0  0
  135.7704  138.0215  162.2376 H   0  0  0  0  0  0  0  0  0  0  0  0
  134.2680  139.9924  160.8831 H   0  0  0  0  0  0  0  0  0  0  0  0
  133.7040  139.9178  162.5696 H   0  0  0  0  0  0  0  0  0  0  0  0
  135.0555  142.3379  161.1608 H   0  0  0  0  0  0  0  0  0  0  0  0
  136.2753  142.7368  162.4853 H   0  0  0  0  0  0  0  0  0  0  0  0
  135.2449  135.6795  161.9589 H   0  0  0  0  0  0  0  0  0  0  0  0
  133.5732  133.9896  161.3259 H   0  0  0  0  0  0  0  0  0  0  0  0
  131.2144  133.4775  161.0727 H   0  0  0  0  0  0  0  0  0  0  0  0
  130.0343  134.7654  160.7307 H   0  0  0  0  0  0  0  0  0  0  0  0
  130.3213  132.1789  159.2642 H   0  0  0  0  0  0  0  0  0  0  0  0
  129.1411  133.4668  158.9223 H   0  0  0  0  0  0  0  0  0  0  0  0
  128.8360  134.3057  156.6669 H   0  0  0  0  0  0  0  0  0  0  0  0
  129.0172  133.8322  154.2573 H   0  0  0  0  0  0  0  0  0  0  0  0
  130.5184  132.0496  153.4624 H   0  0  0  0  0  0  0  0  0  0  0  0
  131.8456  130.7469  155.0763 H   0  0  0  0  0  0  0  0  0  0  0  0
  131.6714  131.2267  157.4851 H   0  0  0  0  0  0  0  0  0  0  0  0
  127.7574  136.5103  159.6723 H   0  0  0  0  0  0  0  0  0  0  0  0
  1  2  1  0
  1 34  1  0
  1 35  1  0
  1 36  1  0
  2 33  1  0
  2  3  1  0
  3  4  2  0
  3 37  1  0
  4  5  1  0
  4 32  1  0
  5  6  1  0
  5 38  1  0
  5 39  1  0
  6  7  1  0
  7 20  1  0
  7  8  2  0
  8  9  1  0
  8 40  1  0
  9 10  1  0
  9 18  2  0
 10 11  1  0
 10 41  1  0
 11 12  1  0
 11 42  1  0
 11 43  1  0
 12 13  1  1
 12 15  1  0
 12 14  1  0
 14 15  1  0
 14 44  1  0
 14 45  1  0
 15 16  1  0
 15 17  1  0
 18 19  1  0
 18 46  1  0
 19 20  2  0
 19 47  1  0
 20 21  1  0
 21 22  1  0
 21 48  1  0
 21 49  1  0
 22 23  1  0
 22 24  1  0
 22 25  1  0
 25 26  1  0
 25 50  1  0
 25 51  1  0
 26 31  1  0
 26 27  2  0
 27 28  1  0
 27 52  1  0
 28 29  2  0
 28 53  1  0
 29 30  1  0
 29 54  1  0
 30 31  2  0
 30 55  1  0
 31 56  1  0
 32 33  2  0
 32 57  1  0
M  CHG  1  22   1
M  END
>  <DOCK_score>  (1) 
-42.155422

>  <SMILES>  (1) 
Cn1cc(COc2cc(NC[C@@H]3CC3(F)F)ccc2C[NH2+]Cc2ccccc2)cn1

$$$$
