CC(C)=C(Cc1cccc(NC2CC[N@@H+]3CCCCC23)c1)c1ccc(Br)cc1
     RDKit          3D

 60 63  0  0  1  0  0  0  0  0999 V2000
  133.3562  139.2350  164.8154 C   0  0  0  0  0  0  0  0  0  0  0  0
  134.3695  138.1206  164.7647 C   0  0  0  0  0  0  0  0  0  0  0  0
  134.0122  136.7530  165.2872 C   0  0  0  0  0  0  0  0  0  0  0  0
  135.5733  138.3419  164.2555 C   0  0  0  0  0  0  0  0  0  0  0  0
  135.9285  139.7079  163.7274 C   0  0  0  0  0  0  0  0  0  0  0  0
  135.5717  139.7898  162.2655 C   0  0  0  0  0  0  0  0  0  0  0  0
  136.3012  140.6070  161.4211 C   0  0  0  0  0  0  0  0  0  0  0  0
  135.9776  140.6847  160.0792 C   0  0  0  0  0  0  0  0  0  0  0  0
  134.9237  139.9462  159.5775 C   0  0  0  0  0  0  0  0  0  0  0  0
  134.1888  139.1248  160.4227 C   0  0  0  0  0  0  0  0  0  0  0  0
  133.1224  138.3766  159.9187 N   0  0  0  0  0  0  0  0  0  0  0  0
  131.9817  138.0547  160.7800 C   0  0  1  0  0  0  0  0  0  0  0  0
  130.6569  138.5206  160.1231 C   0  0  0  0  0  0  0  0  0  0  0  0
  129.8588  137.2147  159.8642 C   0  0  0  0  0  0  0  0  0  0  0  0
  130.9051  136.1824  159.7924 N   0  0  2  0  0  0  0  0  0  0  0  0
  131.3956  136.2523  158.9135 H   0  0  0  0  0  0  0  0  0  0  0  0
  130.4462  134.8159  160.0031 C   0  0  0  0  0  0  0  0  0  0  0  0
  131.6578  133.8843  159.8478 C   0  0  0  0  0  0  0  0  0  0  0  0
  132.7604  134.2592  160.8375 C   0  0  0  0  0  0  0  0  0  0  0  0
  133.1082  135.7518  160.7184 C   0  0  0  0  0  0  0  0  0  0  0  0
  131.8196  136.5373  160.9107 C   0  0  1  0  0  0  0  0  0  0  0  0
  134.5206  139.0445  161.7694 C   0  0  0  0  0  0  0  0  0  0  0  0
  136.5671  137.2489  164.2058 C   0  0  0  0  0  0  0  0  0  0  0  0
  137.4455  137.0519  165.2720 C   0  0  0  0  0  0  0  0  0  0  0  0
  138.3673  136.0268  165.2222 C   0  0  0  0  0  0  0  0  0  0  0  0
  138.4290  135.2010  164.1126 C   0  0  0  0  0  0  0  0  0  0  0  0
  139.7004  133.8027  164.0491 Br  0  0  0  0  0  0  0  0  0  0  0  0
  137.5640  135.3952  163.0494 C   0  0  0  0  0  0  0  0  0  0  0  0
  136.6344  136.4137  163.0900 C   0  0  0  0  0  0  0  0  0  0  0  0
  132.4316  138.8656  165.2591 H   0  0  0  0  0  0  0  0  0  0  0  0
  133.7470  140.0542  165.4191 H   0  0  0  0  0  0  0  0  0  0  0  0
  133.1573  139.5914  163.8048 H   0  0  0  0  0  0  0  0  0  0  0  0
  133.5855  136.1561  164.4811 H   0  0  0  0  0  0  0  0  0  0  0  0
  134.9090  136.2633  165.6666 H   0  0  0  0  0  0  0  0  0  0  0  0
  133.2834  136.8505  166.0919 H   0  0  0  0  0  0  0  0  0  0  0  0
  135.3740  140.4665  164.2798 H   0  0  0  0  0  0  0  0  0  0  0  0
  136.9981  139.8782  163.8504 H   0  0  0  0  0  0  0  0  0  0  0  0
  137.1258  141.1855  161.8109 H   0  0  0  0  0  0  0  0  0  0  0  0
  136.5492  141.3239  159.4226 H   0  0  0  0  0  0  0  0  0  0  0  0
  134.6711  140.0076  158.5292 H   0  0  0  0  0  0  0  0  0  0  0  0
  133.1371  138.0701  158.9985 H   0  0  0  0  0  0  0  0  0  0  0  0
  132.1036  138.5139  161.7609 H   0  0  0  0  0  0  0  0  0  0  0  0
  130.1067  139.1731  160.8010 H   0  0  0  0  0  0  0  0  0  0  0  0
  130.8598  139.0354  159.1839 H   0  0  0  0  0  0  0  0  0  0  0  0
  129.1757  137.0121  160.6891 H   0  0  0  0  0  0  0  0  0  0  0  0
  129.3158  137.2770  158.9212 H   0  0  0  0  0  0  0  0  0  0  0  0
  130.0303  134.7166  161.0058 H   0  0  0  0  0  0  0  0  0  0  0  0
  129.6884  134.5625  159.2616 H   0  0  0  0  0  0  0  0  0  0  0  0
  132.0447  133.9654  158.8321 H   0  0  0  0  0  0  0  0  0  0  0  0
  131.3451  132.8565  160.0316 H   0  0  0  0  0  0  0  0  0  0  0  0
  133.6496  133.6650  160.6270 H   0  0  0  0  0  0  0  0  0  0  0  0
  132.4195  134.0493  161.8512 H   0  0  0  0  0  0  0  0  0  0  0  0
  133.5237  135.9577  159.7319 H   0  0  0  0  0  0  0  0  0  0  0  0
  133.8282  136.0270  161.4890 H   0  0  0  0  0  0  0  0  0  0  0  0
  131.3549  136.2922  161.8659 H   0  0  0  0  0  0  0  0  0  0  0  0
  133.9541  138.4031  162.4284 H   0  0  0  0  0  0  0  0  0  0  0  0
  137.4012  137.6983  166.1361 H   0  0  0  0  0  0  0  0  0  0  0  0
  139.0451  135.8709  166.0484 H   0  0  0  0  0  0  0  0  0  0  0  0
  137.6173  134.7483  162.1863 H   0  0  0  0  0  0  0  0  0  0  0  0
  135.9603  136.5645  162.2598 H   0  0  0  0  0  0  0  0  0  0  0  0
  1  2  1  0
  1 30  1  0
  1 31  1  0
  1 32  1  0
  2  3  1  0
  2  4  2  0
  3 33  1  0
  3 34  1  0
  3 35  1  0
  4  5  1  0
  4 23  1  0
  5  6  1  0
  5 36  1  0
  5 37  1  0
  6 22  1  0
  6  7  2  0
  7  8  1  0
  7 38  1  0
  8  9  2  0
  8 39  1  0
  9 10  1  0
  9 40  1  0
 10 11  1  0
 10 22  2  0
 11 12  1  0
 11 41  1  0
 12 21  1  0
 12 13  1  0
 12 42  1  1
 13 14  1  0
 13 43  1  0
 13 44  1  0
 14 15  1  0
 14 45  1  0
 14 46  1  0
 15 16  1  6
 15 21  1  0
 15 17  1  0
 17 18  1  0
 17 47  1  0
 17 48  1  0
 18 19  1  0
 18 49  1  0
 18 50  1  0
 19 20  1  0
 19 51  1  0
 19 52  1  0
 20 21  1  0
 20 53  1  0
 20 54  1  0
 21 55  1  1
 22 56  1  0
 23 29  1  0
 23 24  2  0
 24 25  1  0
 24 57  1  0
 25 26  2  0
 25 58  1  0
 26 27  1  0
 26 28  1  0
 28 29  2  0
 28 59  1  0
 29 60  1  0
M  CHG  1  15   1
M  END
>  <DOCK_score>  (1) 
-56.6008

>  <SMILES>  (1) 
CC(C)=C(Cc1cccc(NC2CC[N@@H+]3CCCCC23)c1)c1ccc(Br)cc1

$$$$
