Nc1cc(F)cc(C[NH+]=C(NCc2cc(O)cc(F)c2)NC2CC=CC2)c1
     RDKit          3D

 50 52  0  0  1  0  0  0  0  0999 V2000
  136.8426  137.9522  162.7948 N   0  0  0  0  0  0  0  0  0  0  0  0
  135.7650  138.5021  162.0966 C   0  0  0  0  0  0  0  0  0  0  0  0
  135.6497  139.8802  161.9680 C   0  0  0  0  0  0  0  0  0  0  0  0
  134.5813  140.4210  161.2763 C   0  0  0  0  0  0  0  0  0  0  0  0
  134.4673  141.7613  161.1500 F   0  0  0  0  0  0  0  0  0  0  0  0
  133.6304  139.5888  160.7085 C   0  0  0  0  0  0  0  0  0  0  0  0
  133.7414  138.2172  160.8404 C   0  0  0  0  0  0  0  0  0  0  0  0
  132.7019  137.3157  160.2256 C   0  0  0  0  0  0  0  0  0  0  0  0
  131.6287  137.0764  161.1938 N   0  0  0  0  0  0  0  0  0  0  0  0
  131.6706  137.4816  162.0741 H   0  0  0  0  0  0  0  0  0  0  0  0
  130.6179  136.3190  160.8723 C   0  0  0  0  0  0  0  0  0  0  0  0
  129.6109  136.0944  161.7809 N   0  0  0  0  0  0  0  0  0  0  0  0
  129.6739  136.7062  163.1105 C   0  0  0  0  0  0  0  0  0  0  0  0
  128.4585  136.3053  163.9061 C   0  0  0  0  0  0  0  0  0  0  0  0
  127.2078  136.3391  163.3195 C   0  0  0  0  0  0  0  0  0  0  0  0
  126.0884  135.9701  164.0512 C   0  0  0  0  0  0  0  0  0  0  0  0
  124.8579  136.0034  163.4754 O   0  0  0  0  0  0  0  0  0  0  0  0
  126.2267  135.5675  165.3713 C   0  0  0  0  0  0  0  0  0  0  0  0
  127.4806  135.5349  165.9550 C   0  0  0  0  0  0  0  0  0  0  0  0
  127.6169  135.1434  167.2409 F   0  0  0  0  0  0  0  0  0  0  0  0
  128.5966  135.8986  165.2197 C   0  0  0  0  0  0  0  0  0  0  0  0
  130.5587  135.7448  159.6246 N   0  0  0  0  0  0  0  0  0  0  0  0
  129.4225  134.8935  159.2631 C   0  0  0  0  0  0  0  0  0  0  0  0
  129.4323  133.5793  160.0780 C   0  0  0  0  0  0  0  0  0  0  0  0
  128.9563  132.5226  159.1085 C   0  0  0  0  0  0  0  0  0  0  0  0
  129.0294  132.9479  157.8766 C   0  0  0  0  0  0  0  0  0  0  0  0
  129.5664  134.3591  157.8192 C   0  0  0  0  0  0  0  0  0  0  0  0
  134.8065  137.6716  161.5302 C   0  0  0  0  0  0  0  0  0  0  0  0
  136.9221  136.9897  162.8844 H   0  0  0  0  0  0  0  0  0  0  0  0
  137.5115  138.5331  163.1901 H   0  0  0  0  0  0  0  0  0  0  0  0
  136.3933  140.5284  162.4075 H   0  0  0  0  0  0  0  0  0  0  0  0
  132.7987  140.0125  160.1651 H   0  0  0  0  0  0  0  0  0  0  0  0
  133.1614  136.3663  159.9505 H   0  0  0  0  0  0  0  0  0  0  0  0
  132.2891  137.7912  159.3358 H   0  0  0  0  0  0  0  0  0  0  0  0
  128.8585  135.5306  161.5416 H   0  0  0  0  0  0  0  0  0  0  0  0
  129.7008  137.7912  163.0102 H   0  0  0  0  0  0  0  0  0  0  0  0
  130.5730  136.3665  163.6246 H   0  0  0  0  0  0  0  0  0  0  0  0
  127.1017  136.6532  162.2917 H   0  0  0  0  0  0  0  0  0  0  0  0
  124.8625  136.2970  162.5541 H   0  0  0  0  0  0  0  0  0  0  0  0
  125.3566  135.2802  165.9429 H   0  0  0  0  0  0  0  0  0  0  0  0
  129.5755  135.8687  165.6749 H   0  0  0  0  0  0  0  0  0  0  0  0
  131.2692  135.9033  158.9834 H   0  0  0  0  0  0  0  0  0  0  0  0
  128.4805  135.4268  159.3909 H   0  0  0  0  0  0  0  0  0  0  0  0
  130.4417  133.3527  160.4211 H   0  0  0  0  0  0  0  0  0  0  0  0
  128.7500  133.6525  160.9249 H   0  0  0  0  0  0  0  0  0  0  0  0
  128.6016  131.5441  159.3969 H   0  0  0  0  0  0  0  0  0  0  0  0
  128.7433  132.3675  157.0120 H   0  0  0  0  0  0  0  0  0  0  0  0
  128.9754  134.9626  157.1303 H   0  0  0  0  0  0  0  0  0  0  0  0
  130.6140  134.3567  157.5180 H   0  0  0  0  0  0  0  0  0  0  0  0
  134.8938  136.5997  161.6293 H   0  0  0  0  0  0  0  0  0  0  0  0
  1  2  1  0
  1 29  1  0
  1 30  1  0
  2 28  2  0
  2  3  1  0
  3  4  2  0
  3 31  1  0
  4  5  1  0
  4  6  1  0
  6  7  2  0
  6 32  1  0
  7  8  1  0
  7 28  1  0
  8  9  1  0
  8 33  1  0
  8 34  1  0
  9 10  1  0
 11  9  2  0
 11 12  1  0
 11 22  1  0
 12 13  1  0
 12 35  1  0
 13 14  1  0
 13 36  1  0
 13 37  1  0
 14 21  1  0
 14 15  2  0
 15 16  1  0
 15 38  1  0
 16 17  1  0
 16 18  2  0
 17 39  1  0
 18 19  1  0
 18 40  1  0
 19 20  1  0
 19 21  2  0
 21 41  1  0
 22 23  1  0
 22 42  1  0
 23 27  1  0
 23 24  1  0
 23 43  1  0
 24 25  1  0
 24 44  1  0
 24 45  1  0
 25 26  2  0
 25 46  1  0
 26 27  1  0
 26 47  1  0
 27 48  1  0
 27 49  1  0
 28 50  1  0
M  CHG  1   9   1
M  END
>  <DOCK_score>  (1) 
-41.512428

>  <SMILES>  (1) 
Nc1cc(F)cc(C[NH+]=C(NCc2cc(O)cc(F)c2)NC2CC=CC2)c1

$$$$
