Fc1cccc(Nc2ccccc2Nc2c(Cl)cccc2N[C@@H]2C=CCC2)c1NC1=[NH+]CCN1
     RDKit          3D

 61 65  0  0  1  0  0  0  0  0999 V2000
  127.4254  133.8651  159.4335 F   0  0  0  0  0  0  0  0  0  0  0  0
  127.8279  134.9310  160.1597 C   0  0  0  0  0  0  0  0  0  0  0  0
  127.0089  135.4423  161.1521 C   0  0  0  0  0  0  0  0  0  0  0  0
  127.4177  136.5327  161.8972 C   0  0  0  0  0  0  0  0  0  0  0  0
  128.6463  137.1186  161.6562 C   0  0  0  0  0  0  0  0  0  0  0  0
  129.4740  136.6133  160.6638 C   0  0  0  0  0  0  0  0  0  0  0  0
  130.7178  137.2052  160.4189 N   0  0  0  0  0  0  0  0  0  0  0  0
  131.8532  136.7569  161.1036 C   0  0  0  0  0  0  0  0  0  0  0  0
  131.7467  135.7297  162.0294 C   0  0  0  0  0  0  0  0  0  0  0  0
  132.8704  135.2851  162.7010 C   0  0  0  0  0  0  0  0  0  0  0  0
  134.1007  135.8688  162.4607 C   0  0  0  0  0  0  0  0  0  0  0  0
  134.2156  136.8968  161.5435 C   0  0  0  0  0  0  0  0  0  0  0  0
  133.0947  137.3458  160.8610 C   0  0  0  0  0  0  0  0  0  0  0  0
  133.2083  138.3866  159.9325 N   0  0  0  0  0  0  0  0  0  0  0  0
  134.1905  139.3710  160.1007 C   0  0  0  0  0  0  0  0  0  0  0  0
  135.1557  139.5658  159.1225 C   0  0  0  0  0  0  0  0  0  0  0  0
  135.1476  138.5883  157.6878 Cl  0  0  0  0  0  0  0  0  0  0  0  0
  136.1245  140.5387  159.2913 C   0  0  0  0  0  0  0  0  0  0  0  0
  136.1343  141.3193  160.4327 C   0  0  0  0  0  0  0  0  0  0  0  0
  135.1765  141.1318  161.4118 C   0  0  0  0  0  0  0  0  0  0  0  0
  134.1981  140.1623  161.2489 C   0  0  0  0  0  0  0  0  0  0  0  0
  133.2241  139.9751  162.2368 N   0  0  0  0  0  0  0  0  0  0  0  0
  133.5387  140.2599  163.6390 C   0  0  2  0  0  0  0  0  0  0  0  0
  133.8230  141.3054  163.7588 H   0  0  0  0  0  0  0  0  0  0  0  0
  134.6467  139.3543  164.1243 C   0  0  0  0  0  0  0  0  0  0  0  0
  134.3720  138.8659  165.3031 C   0  0  0  0  0  0  0  0  0  0  0  0
  133.0351  139.3642  165.8006 C   0  0  0  0  0  0  0  0  0  0  0  0
  132.3290  139.9237  164.5416 C   0  0  0  0  0  0  0  0  0  0  0  0
  129.0605  135.5174  159.9074 C   0  0  0  0  0  0  0  0  0  0  0  0
  129.8902  135.0052  158.8985 N   0  0  0  0  0  0  0  0  0  0  0  0
  130.3292  133.7102  158.9649 C   0  0  0  0  0  0  0  0  0  0  0  0
  131.1082  133.1710  158.0410 N   0  0  0  0  0  0  0  0  0  0  0  0
  131.4366  133.6245  157.2490 H   0  0  0  0  0  0  0  0  0  0  0  0
  131.4003  131.7762  158.4069 C   0  0  0  0  0  0  0  0  0  0  0  0
  130.6329  131.5841  159.7305 C   0  0  0  0  0  0  0  0  0  0  0  0
  130.0040  132.8950  159.9554 N   0  0  0  0  0  0  0  0  0  0  0  0
  126.0483  134.9878  161.3448 H   0  0  0  0  0  0  0  0  0  0  0  0
  126.7752  136.9279  162.6702 H   0  0  0  0  0  0  0  0  0  0  0  0
  128.9624  137.9699  162.2410 H   0  0  0  0  0  0  0  0  0  0  0  0
  130.7939  137.9238  159.7717 H   0  0  0  0  0  0  0  0  0  0  0  0
  130.7866  135.2743  162.2227 H   0  0  0  0  0  0  0  0  0  0  0  0
  132.7862  134.4824  163.4186 H   0  0  0  0  0  0  0  0  0  0  0  0
  134.9747  135.5202  162.9909 H   0  0  0  0  0  0  0  0  0  0  0  0
  135.1783  137.3500  161.3580 H   0  0  0  0  0  0  0  0  0  0  0  0
  132.6071  138.4263  159.1723 H   0  0  0  0  0  0  0  0  0  0  0  0
  136.8750  140.6893  158.5295 H   0  0  0  0  0  0  0  0  0  0  0  0
  136.8928  142.0776  160.5597 H   0  0  0  0  0  0  0  0  0  0  0  0
  135.1875  141.7434  162.3019 H   0  0  0  0  0  0  0  0  0  0  0  0
  132.3409  139.6568  161.9929 H   0  0  0  0  0  0  0  0  0  0  0  0
  135.5477  139.1397  163.5688 H   0  0  0  0  0  0  0  0  0  0  0  0
  135.0160  138.1940  165.8512 H   0  0  0  0  0  0  0  0  0  0  0  0
  132.4586  138.5434  166.2270 H   0  0  0  0  0  0  0  0  0  0  0  0
  133.1751  140.1532  166.5396 H   0  0  0  0  0  0  0  0  0  0  0  0
  131.7562  140.8205  164.7780 H   0  0  0  0  0  0  0  0  0  0  0  0
  131.6949  139.1667  164.0801 H   0  0  0  0  0  0  0  0  0  0  0  0
  130.1530  135.5687  158.1540 H   0  0  0  0  0  0  0  0  0  0  0  0
  132.4699  131.6319  158.5587 H   0  0  0  0  0  0  0  0  0  0  0  0
  131.0265  131.0936  157.6438 H   0  0  0  0  0  0  0  0  0  0  0  0
  131.3204  131.3438  160.5415 H   0  0  0  0  0  0  0  0  0  0  0  0
  129.8751  130.8073  159.6286 H   0  0  0  0  0  0  0  0  0  0  0  0
  129.4400  133.1254  160.7102 H   0  0  0  0  0  0  0  0  0  0  0  0
  1  2  1  0
  2 29  2  0
  2  3  1  0
  3  4  2  0
  3 37  1  0
  4  5  1  0
  4 38  1  0
  5  6  2  0
  5 39  1  0
  6  7  1  0
  6 29  1  0
  7  8  1  0
  7 40  1  0
  8 13  1  0
  8  9  2  0
  9 10  1  0
  9 41  1  0
 10 11  2  0
 10 42  1  0
 11 12  1  0
 11 43  1  0
 12 13  2  0
 12 44  1  0
 13 14  1  0
 14 15  1  0
 14 45  1  0
 15 21  1  0
 15 16  2  0
 16 17  1  0
 16 18  1  0
 18 19  2  0
 18 46  1  0
 19 20  1  0
 19 47  1  0
 20 21  2  0
 20 48  1  0
 21 22  1  0
 22 23  1  0
 22 49  1  0
 23 24  1  6
 23 28  1  0
 23 25  1  0
 25 26  2  0
 25 50  1  0
 26 27  1  0
 26 51  1  0
 27 28  1  0
 27 52  1  0
 27 53  1  0
 28 54  1  0
 28 55  1  0
 29 30  1  0
 30 31  1  0
 30 56  1  0
 31 36  2  0
 31 32  1  0
 32 33  1  0
 32 34  1  0
 34 35  1  0
 34 57  1  0
 34 58  1  0
 35 36  1  0
 35 59  1  0
 35 60  1  0
 36 61  1  0
M  CHG  1  36   1
M  END
>  <DOCK_score>  (1) 
-62.291828

>  <SMILES>  (1) 
Fc1cccc(Nc2ccccc2Nc2c(Cl)cccc2N[C@@H]2C=CCC2)c1NC1=[NH+]CCN1

$$$$
