C1=CCC(c2c[nH]c(C[NH2+]Cc3cc(-c4cnn5ccccc45)c[nH]3)c2)=CC1
     RDKit          3D

 52 56  0  0  0  0  0  0  0  0999 V2000
  136.3507  142.0119  163.3561 C   0  0  0  0  0  0  0  0  0  0  0  0
  136.5406  141.9713  162.0731 C   0  0  0  0  0  0  0  0  0  0  0  0
  136.0328  140.8586  161.2069 C   0  0  0  0  0  0  0  0  0  0  0  0
  134.9288  140.1040  161.8849 C   0  0  0  0  0  0  0  0  0  0  0  0
  134.0206  139.2807  161.0589 C   0  0  0  0  0  0  0  0  0  0  0  0
  134.3314  138.6588  159.8870 C   0  0  0  0  0  0  0  0  0  0  0  0
  133.2202  138.0070  159.4482 N   0  0  0  0  0  0  0  0  0  0  0  0
  133.1600  137.4811  158.6354 H   0  0  0  0  0  0  0  0  0  0  0  0
  132.2044  138.2117  160.3360 C   0  0  0  0  0  0  0  0  0  0  0  0
  130.8070  137.6603  160.2162 C   0  0  0  0  0  0  0  0  0  0  0  0
  130.8709  136.2435  159.8331 N   0  0  0  0  0  0  0  0  0  0  0  0
  131.3770  135.7273  160.5369 H   0  0  0  0  0  0  0  0  0  0  0  0
  131.3442  136.1559  158.9463 H   0  0  0  0  0  0  0  0  0  0  0  0
  129.5088  135.7060  159.7163 C   0  0  0  0  0  0  0  0  0  0  0  0
  129.5742  134.2526  159.3233 C   0  0  0  0  0  0  0  0  0  0  0  0
  130.3655  133.7316  158.3665 C   0  0  0  0  0  0  0  0  0  0  0  0
  130.1156  132.3365  158.3227 C   0  0  0  0  0  0  0  0  0  0  0  0
  130.7611  131.3531  157.4177 C   0  0  0  0  0  0  0  0  0  0  0  0
  131.5196  130.2461  157.8031 C   0  0  0  0  0  0  0  0  0  0  0  0
  131.9252  129.6126  156.7268 N   0  0  0  0  0  0  0  0  0  0  0  0
  131.4486  130.2792  155.5915 N   0  0  0  0  0  0  0  0  0  0  0  0
  131.5865  130.0323  154.2548 C   0  0  0  0  0  0  0  0  0  0  0  0
  131.0150  130.8461  153.3424 C   0  0  0  0  0  0  0  0  0  0  0  0
  130.2679  131.9619  153.7537 C   0  0  0  0  0  0  0  0  0  0  0  0
  130.1219  132.2201  155.0831 C   0  0  0  0  0  0  0  0  0  0  0  0
  130.7238  131.3629  156.0188 C   0  0  0  0  0  0  0  0  0  0  0  0
  129.1690  132.0700  159.2620 C   0  0  0  0  0  0  0  0  0  0  0  0
  128.8425  133.2440  159.8775 N   0  0  0  0  0  0  0  0  0  0  0  0
  128.1930  133.3449  160.5909 H   0  0  0  0  0  0  0  0  0  0  0  0
  132.6576  138.9932  161.3333 C   0  0  0  0  0  0  0  0  0  0  0  0
  134.7330  140.1496  163.1843 C   0  0  0  0  0  0  0  0  0  0  0  0
  135.6034  140.9506  164.1055 C   0  0  0  0  0  0  0  0  0  0  0  0
  136.7497  142.8492  163.9095 H   0  0  0  0  0  0  0  0  0  0  0  0
  137.0906  142.7762  161.6081 H   0  0  0  0  0  0  0  0  0  0  0  0
  136.8520  140.1736  160.9883 H   0  0  0  0  0  0  0  0  0  0  0  0
  135.6585  141.2760  160.2721 H   0  0  0  0  0  0  0  0  0  0  0  0
  135.2914  138.6799  159.3926 H   0  0  0  0  0  0  0  0  0  0  0  0
  130.2602  138.2179  159.4559 H   0  0  0  0  0  0  0  0  0  0  0  0
  130.2958  137.7549  161.1741 H   0  0  0  0  0  0  0  0  0  0  0  0
  128.9620  136.2637  158.9561 H   0  0  0  0  0  0  0  0  0  0  0  0
  128.9974  135.8006  160.6743 H   0  0  0  0  0  0  0  0  0  0  0  0
  131.0625  134.2760  157.7466 H   0  0  0  0  0  0  0  0  0  0  0  0
  131.7377  129.9582  158.8208 H   0  0  0  0  0  0  0  0  0  0  0  0
  132.1586  129.1777  153.9250 H   0  0  0  0  0  0  0  0  0  0  0  0
  131.1366  130.6404  152.2892 H   0  0  0  0  0  0  0  0  0  0  0  0
  129.8121  132.6111  153.0208 H   0  0  0  0  0  0  0  0  0  0  0  0
  129.5503  133.0747  155.4140 H   0  0  0  0  0  0  0  0  0  0  0  0
  128.7506  131.0993  159.4839 H   0  0  0  0  0  0  0  0  0  0  0  0
  132.0901  139.3363  162.1857 H   0  0  0  0  0  0  0  0  0  0  0  0
  133.9148  139.5842  163.6054 H   0  0  0  0  0  0  0  0  0  0  0  0
  136.3179  140.2881  164.5939 H   0  0  0  0  0  0  0  0  0  0  0  0
  134.9775  141.4219  164.8633 H   0  0  0  0  0  0  0  0  0  0  0  0
  1 32  1  0
  1  2  2  0
  1 33  1  0
  2  3  1  0
  2 34  1  0
  3  4  1  0
  3 35  1  0
  3 36  1  0
  4  5  1  0
  4 31  2  0
  5 30  1  0
  5  6  2  0
  6  7  1  0
  6 37  1  0
  7  8  1  0
  7  9  1  0
  9 10  1  0
  9 30  2  0
 10 11  1  0
 10 38  1  0
 10 39  1  0
 11 12  1  0
 11 13  1  0
 11 14  1  0
 14 15  1  0
 14 40  1  0
 14 41  1  0
 15 28  1  0
 15 16  2  0
 16 17  1  0
 16 42  1  0
 17 18  1  0
 17 27  2  0
 18 26  2  0
 18 19  1  0
 19 20  2  0
 19 43  1  0
 20 21  1  0
 21 26  1  0
 21 22  1  0
 22 23  2  0
 22 44  1  0
 23 24  1  0
 23 45  1  0
 24 25  2  0
 24 46  1  0
 25 26  1  0
 25 47  1  0
 27 28  1  0
 27 48  1  0
 28 29  1  0
 30 49  1  0
 31 32  1  0
 31 50  1  0
 32 51  1  0
 32 52  1  0
M  CHG  1  11   1
M  END
>  <DOCK_score>  (1) 
-58.232449

>  <SMILES>  (1) 
C1=CCC(c2c[nH]c(C[NH2+]Cc3cc(-c4cnn5ccccc45)c[nH]3)c2)=CC1

$$$$
