Nc1ccc(-c2c[nH]c(N[C@@H](CC3COc4ccccc4C3)c3ccccc3)[nH+]2)cc1
     RDKit          3D

 58 62  0  0  1  0  0  0  0  0999 V2000
  131.3244  129.2460  152.3604 N   0  0  0  0  0  0  0  0  0  0  0  0
  131.0125  129.9868  153.5029 C   0  0  0  0  0  0  0  0  0  0  0  0
  130.0159  130.9540  153.4520 C   0  0  0  0  0  0  0  0  0  0  0  0
  129.7064  131.6866  154.5784 C   0  0  0  0  0  0  0  0  0  0  0  0
  130.3938  131.4562  155.7690 C   0  0  0  0  0  0  0  0  0  0  0  0
  130.0625  132.2431  156.9824 C   0  0  0  0  0  0  0  0  0  0  0  0
  129.6175  131.7423  158.1611 C   0  0  0  0  0  0  0  0  0  0  0  0
  129.4382  132.8118  159.0064 N   0  0  0  0  0  0  0  0  0  0  0  0
  129.1265  132.7729  159.9241 H   0  0  0  0  0  0  0  0  0  0  0  0
  129.7793  133.9346  158.3177 C   0  0  0  0  0  0  0  0  0  0  0  0
  129.7395  135.2271  158.8122 N   0  0  0  0  0  0  0  0  0  0  0  0
  129.3012  135.4716  160.1884 C   0  0  1  0  0  0  0  0  0  0  0  0
  129.7060  134.6985  160.8416 H   0  0  0  0  0  0  0  0  0  0  0  0
  129.8035  136.8418  160.6480 C   0  0  0  0  0  0  0  0  0  0  0  0
  131.3320  136.8715  160.5867 C   0  0  2  0  0  0  0  0  0  0  0  0
  131.9127  136.1978  161.8368 C   0  0  0  0  0  0  0  0  0  0  0  0
  133.3338  136.1477  161.7026 O   0  0  0  0  0  0  0  0  0  0  0  0
  133.9790  137.2897  161.3489 C   0  0  0  0  0  0  0  0  0  0  0  0
  135.3520  137.3693  161.5602 C   0  0  0  0  0  0  0  0  0  0  0  0
  136.0433  138.5108  161.2098 C   0  0  0  0  0  0  0  0  0  0  0  0
  135.3711  139.5798  160.6463 C   0  0  0  0  0  0  0  0  0  0  0  0
  134.0081  139.5049  160.4368 C   0  0  0  0  0  0  0  0  0  0  0  0
  133.3083  138.3624  160.7883 C   0  0  0  0  0  0  0  0  0  0  0  0
  131.8199  138.3220  160.5522 C   0  0  0  0  0  0  0  0  0  0  0  0
  127.7957  135.4424  160.2488 C   0  0  0  0  0  0  0  0  0  0  0  0
  127.1581  135.0260  161.4026 C   0  0  0  0  0  0  0  0  0  0  0  0
  125.7772  135.0029  161.4593 C   0  0  0  0  0  0  0  0  0  0  0  0
  125.0337  135.3883  160.3595 C   0  0  0  0  0  0  0  0  0  0  0  0
  125.6712  135.7997  159.2039 C   0  0  0  0  0  0  0  0  0  0  0  0
  127.0522  135.8265  159.1486 C   0  0  0  0  0  0  0  0  0  0  0  0
  130.1463  133.5913  157.1070 N   0  0  0  0  0  0  0  0  0  0  0  0
  130.4342  134.2036  156.4118 H   0  0  0  0  0  0  0  0  0  0  0  0
  131.3969  130.4894  155.8165 C   0  0  0  0  0  0  0  0  0  0  0  0
  131.6990  129.7550  154.6893 C   0  0  0  0  0  0  0  0  0  0  0  0
  130.8457  129.4066  151.5324 H   0  0  0  0  0  0  0  0  0  0  0  0
  132.0199  128.5704  152.3954 H   0  0  0  0  0  0  0  0  0  0  0  0
  129.4838  131.1325  152.5292 H   0  0  0  0  0  0  0  0  0  0  0  0
  128.9317  132.4380  154.5384 H   0  0  0  0  0  0  0  0  0  0  0  0
  129.4380  130.7026  158.3918 H   0  0  0  0  0  0  0  0  0  0  0  0
  130.0019  135.9708  158.2474 H   0  0  0  0  0  0  0  0  0  0  0  0
  129.4773  137.0237  161.6719 H   0  0  0  0  0  0  0  0  0  0  0  0
  129.3987  137.6149  159.9949 H   0  0  0  0  0  0  0  0  0  0  0  0
  131.6742  136.3473  159.6944 H   0  0  0  0  0  0  0  0  0  0  0  0
  131.6477  136.7761  162.7220 H   0  0  0  0  0  0  0  0  0  0  0  0
  131.5166  135.1863  161.9262 H   0  0  0  0  0  0  0  0  0  0  0  0
  135.8782  136.5350  161.9999 H   0  0  0  0  0  0  0  0  0  0  0  0
  137.1089  138.5693  161.3757 H   0  0  0  0  0  0  0  0  0  0  0  0
  135.9116  140.4732  160.3706 H   0  0  0  0  0  0  0  0  0  0  0  0
  133.4853  140.3410  159.9962 H   0  0  0  0  0  0  0  0  0  0  0  0
  131.5951  138.7572  159.5784 H   0  0  0  0  0  0  0  0  0  0  0  0
  131.3134  138.8936  161.3299 H   0  0  0  0  0  0  0  0  0  0  0  0
  127.7391  134.7217  162.2606 H   0  0  0  0  0  0  0  0  0  0  0  0
  125.2791  134.6812  162.3619 H   0  0  0  0  0  0  0  0  0  0  0  0
  123.9548  135.3678  160.4028 H   0  0  0  0  0  0  0  0  0  0  0  0
  125.0904  136.1006  158.3446 H   0  0  0  0  0  0  0  0  0  0  0  0
  127.5503  136.1479  158.2457 H   0  0  0  0  0  0  0  0  0  0  0  0
  131.9339  130.3123  156.7366 H   0  0  0  0  0  0  0  0  0  0  0  0
  132.4730  129.0028  154.7265 H   0  0  0  0  0  0  0  0  0  0  0  0
  1  2  1  0
  1 35  1  0
  1 36  1  0
  2 34  2  0
  2  3  1  0
  3  4  2  0
  3 37  1  0
  4  5  1  0
  4 38  1  0
  5  6  1  0
  5 33  2  0
  6 31  1  0
  6  7  2  0
  7  8  1  0
  7 39  1  0
  8  9  1  0
  8 10  1  0
 10 11  1  0
 10 31  2  0
 11 12  1  0
 11 40  1  0
 12 13  1  1
 12 14  1  0
 12 25  1  0
 14 15  1  0
 14 41  1  0
 14 42  1  0
 15 24  1  0
 15 16  1  0
 15 43  1  6
 16 17  1  0
 16 44  1  0
 16 45  1  0
 17 18  1  0
 18 23  2  0
 18 19  1  0
 19 20  2  0
 19 46  1  0
 20 21  1  0
 20 47  1  0
 21 22  2  0
 21 48  1  0
 22 23  1  0
 22 49  1  0
 23 24  1  0
 24 50  1  0
 24 51  1  0
 25 30  1  0
 25 26  2  0
 26 27  1  0
 26 52  1  0
 27 28  2  0
 27 53  1  0
 28 29  1  0
 28 54  1  0
 29 30  2  0
 29 55  1  0
 30 56  1  0
 31 32  1  0
 33 34  1  0
 33 57  1  0
 34 58  1  0
M  CHG  1  31   1
M  END
>  <DOCK_score>  (1) 
-56.683105

>  <SMILES>  (1) 
Nc1ccc(-c2c[nH]c(N[C@@H](CC3COc4ccccc4C3)c3ccccc3)[nH+]2)cc1

$$$$
