CC=C[C@@H](Nc1[nH]cc(-c2ccc(CC)cc2)[nH+]1)c1cccc2ccccc12
     RDKit          3D

 54 57  0  0  1  0  0  0  0  0999 V2000
  125.3075  135.3662  158.7403 C   0  0  0  0  0  0  0  0  0  0  0  0
  126.6279  135.3196  159.4651 C   0  0  0  0  0  0  0  0  0  0  0  0
  127.6416  136.0233  159.0253 C   0  0  0  0  0  0  0  0  0  0  0  0
  128.9621  135.9766  159.7501 C   0  0  1  0  0  0  0  0  0  0  0  0
  128.8820  135.3096  160.6084 H   0  0  0  0  0  0  0  0  0  0  0  0
  130.0001  135.4819  158.8424 N   0  0  0  0  0  0  0  0  0  0  0  0
  129.8837  134.2231  158.2781 C   0  0  0  0  0  0  0  0  0  0  0  0
  129.2627  133.1539  158.8467 N   0  0  0  0  0  0  0  0  0  0  0  0
  128.8261  133.1366  159.7127 H   0  0  0  0  0  0  0  0  0  0  0  0
  129.3680  132.1035  157.9677 C   0  0  0  0  0  0  0  0  0  0  0  0
  130.0496  132.5607  156.8881 C   0  0  0  0  0  0  0  0  0  0  0  0
  130.4020  131.7740  155.6810 C   0  0  0  0  0  0  0  0  0  0  0  0
  129.9397  132.1714  154.4275 C   0  0  0  0  0  0  0  0  0  0  0  0
  130.2711  131.4358  153.3077 C   0  0  0  0  0  0  0  0  0  0  0  0
  131.0603  130.3058  153.4279 C   0  0  0  0  0  0  0  0  0  0  0  0
  131.4183  129.5066  152.2015 C   0  0  0  0  0  0  0  0  0  0  0  0
  130.3535  128.4343  151.9628 C   0  0  0  0  0  0  0  0  0  0  0  0
  131.5171  129.9039  154.6699 C   0  0  0  0  0  0  0  0  0  0  0  0
  131.1972  130.6351  155.7958 C   0  0  0  0  0  0  0  0  0  0  0  0
  130.3573  133.8633  157.1101 N   0  0  0  0  0  0  0  0  0  0  0  0
  130.8472  134.4373  156.5008 H   0  0  0  0  0  0  0  0  0  0  0  0
  129.3254  137.3609  160.2218 C   0  0  0  0  0  0  0  0  0  0  0  0
  130.0539  138.1871  159.4220 C   0  0  0  0  0  0  0  0  0  0  0  0
  130.3988  139.4705  159.8409 C   0  0  0  0  0  0  0  0  0  0  0  0
  130.0175  139.9354  161.0622 C   0  0  0  0  0  0  0  0  0  0  0  0
  129.2645  139.1115  161.9155 C   0  0  0  0  0  0  0  0  0  0  0  0
  128.8519  139.5565  163.1832 C   0  0  0  0  0  0  0  0  0  0  0  0
  128.1094  138.7365  163.9759 C   0  0  0  0  0  0  0  0  0  0  0  0
  127.7646  137.4526  163.5570 C   0  0  0  0  0  0  0  0  0  0  0  0
  128.1506  136.9857  162.3384 C   0  0  0  0  0  0  0  0  0  0  0  0
  128.9088  137.8078  161.4872 C   0  0  0  0  0  0  0  0  0  0  0  0
  124.5907  134.7217  159.2493 H   0  0  0  0  0  0  0  0  0  0  0  0
  124.9334  136.3901  158.7320 H   0  0  0  0  0  0  0  0  0  0  0  0
  125.4430  135.0207  157.7155 H   0  0  0  0  0  0  0  0  0  0  0  0
  126.7384  134.7061  160.3470 H   0  0  0  0  0  0  0  0  0  0  0  0
  127.5310  136.6368  158.1435 H   0  0  0  0  0  0  0  0  0  0  0  0
  130.7690  136.0363  158.6368 H   0  0  0  0  0  0  0  0  0  0  0  0
  128.9818  131.1049  158.1092 H   0  0  0  0  0  0  0  0  0  0  0  0
  129.3231  133.0529  154.3328 H   0  0  0  0  0  0  0  0  0  0  0  0
  129.9135  131.7428  152.3361 H   0  0  0  0  0  0  0  0  0  0  0  0
  132.3874  129.0302  152.3485 H   0  0  0  0  0  0  0  0  0  0  0  0
  131.4667  130.1693  151.3372 H   0  0  0  0  0  0  0  0  0  0  0  0
  130.3051  127.7718  152.8270 H   0  0  0  0  0  0  0  0  0  0  0  0
  129.3843  128.9108  151.8158 H   0  0  0  0  0  0  0  0  0  0  0  0
  130.6124  127.8561  151.0758 H   0  0  0  0  0  0  0  0  0  0  0  0
  132.1289  129.0182  154.7583 H   0  0  0  0  0  0  0  0  0  0  0  0
  131.5584  130.3229  156.7645 H   0  0  0  0  0  0  0  0  0  0  0  0
  130.3695  137.8426  158.4484 H   0  0  0  0  0  0  0  0  0  0  0  0
  130.9780  140.1057  159.1870 H   0  0  0  0  0  0  0  0  0  0  0  0
  130.2917  140.9325  161.3734 H   0  0  0  0  0  0  0  0  0  0  0  0
  129.1122  140.5485  163.5214 H   0  0  0  0  0  0  0  0  0  0  0  0
  127.7899  139.0826  164.9478 H   0  0  0  0  0  0  0  0  0  0  0  0
  127.1820  136.8188  164.2092 H   0  0  0  0  0  0  0  0  0  0  0  0
  127.8755  135.9889  162.0270 H   0  0  0  0  0  0  0  0  0  0  0  0
  1  2  1  0
  1 32  1  0
  1 33  1  0
  1 34  1  0
  2  3  2  0
  2 35  1  0
  3  4  1  0
  3 36  1  0
  4  5  1  1
  4  6  1  0
  4 22  1  0
  6 37  1  0
  7  6  1  0
  7 20  2  0
  7  8  1  0
  8  9  1  0
  8 10  1  0
 10 11  2  0
 10 38  1  0
 11 12  1  0
 11 20  1  0
 12 19  1  0
 12 13  2  0
 13 14  1  0
 13 39  1  0
 14 15  2  0
 14 40  1  0
 15 16  1  0
 15 18  1  0
 16 17  1  0
 16 41  1  0
 16 42  1  0
 17 43  1  0
 17 44  1  0
 17 45  1  0
 18 19  2  0
 18 46  1  0
 19 47  1  0
 20 21  1  0
 22 31  1  0
 22 23  2  0
 23 24  1  0
 23 48  1  0
 24 25  2  0
 24 49  1  0
 25 26  1  0
 25 50  1  0
 26 31  2  0
 26 27  1  0
 27 28  2  0
 27 51  1  0
 28 29  1  0
 28 52  1  0
 29 30  2  0
 29 53  1  0
 30 31  1  0
 30 54  1  0
M  CHG  1  20   1
M  END
>  <DOCK_score>  (1) 
-60.288155

>  <SMILES>  (1) 
CC=C[C@@H](Nc1[nH]cc(-c2ccc(CC)cc2)[nH+]1)c1cccc2ccccc12

$$$$
