CCc1ccc(CC[C@@H](CC2=CCCCC2)Nc2[nH]cc(-c3ccc(CC)cc3)[nH+]2)cc1
     RDKit          3D

 70 73  0  0  1  0  0  0  0  0999 V2000
  136.5918  140.8504  163.2135 C   0  0  0  0  0  0  0  0  0  0  0  0
  135.0963  141.1735  163.2149 C   0  0  0  0  0  0  0  0  0  0  0  0
  134.3307  140.0115  162.6364 C   0  0  0  0  0  0  0  0  0  0  0  0
  133.8775  139.0014  163.4643 C   0  0  0  0  0  0  0  0  0  0  0  0
  133.1749  137.9357  162.9337 C   0  0  0  0  0  0  0  0  0  0  0  0
  132.9258  137.8799  161.5752 C   0  0  0  0  0  0  0  0  0  0  0  0
  132.1602  136.7178  160.9967 C   0  0  0  0  0  0  0  0  0  0  0  0
  130.6653  137.0438  160.9918 C   0  0  0  0  0  0  0  0  0  0  0  0
  129.8880  135.8641  160.4045 C   0  0  1  0  0  0  0  0  0  0  0  0
  130.0641  134.9752  161.0103 H   0  0  0  0  0  0  0  0  0  0  0  0
  128.3931  136.1900  160.3997 C   0  0  0  0  0  0  0  0  0  0  0  0
  127.6006  134.9122  160.3000 C   0  0  0  0  0  0  0  0  0  0  0  0
  127.3017  134.4739  159.1193 C   0  0  0  0  0  0  0  0  0  0  0  0
  126.5115  133.2244  158.8614 C   0  0  0  0  0  0  0  0  0  0  0  0
  126.4861  132.3485  160.1160 C   0  0  0  0  0  0  0  0  0  0  0  0
  126.0833  133.2231  161.3100 C   0  0  0  0  0  0  0  0  0  0  0  0
  127.2122  134.2238  161.5757 C   0  0  0  0  0  0  0  0  0  0  0  0
  130.3385  135.6170  159.0326 N   0  0  0  0  0  0  0  0  0  0  0  0
  130.2970  134.3354  158.5105 C   0  0  0  0  0  0  0  0  0  0  0  0
  129.8662  133.2249  159.1689 N   0  0  0  0  0  0  0  0  0  0  0  0
  129.5355  133.1893  160.0802 H   0  0  0  0  0  0  0  0  0  0  0  0
  129.9854  132.1639  158.3045 C   0  0  0  0  0  0  0  0  0  0  0  0
  130.4852  132.6560  157.1440 C   0  0  0  0  0  0  0  0  0  0  0  0
  130.7824  131.8728  155.9199 C   0  0  0  0  0  0  0  0  0  0  0  0
  130.6867  132.4726  154.6654 C   0  0  0  0  0  0  0  0  0  0  0  0
  130.9648  131.7391  153.5298 C   0  0  0  0  0  0  0  0  0  0  0  0
  131.3378  130.4117  153.6348 C   0  0  0  0  0  0  0  0  0  0  0  0
  131.6402  129.6163  152.3910 C   0  0  0  0  0  0  0  0  0  0  0  0
  130.3569  128.9562  151.8832 C   0  0  0  0  0  0  0  0  0  0  0  0
  131.4294  129.8094  154.8772 C   0  0  0  0  0  0  0  0  0  0  0  0
  131.1590  130.5347  156.0199 C   0  0  0  0  0  0  0  0  0  0  0  0
  130.6707  133.9907  157.3026 N   0  0  0  0  0  0  0  0  0  0  0  0
  131.0222  134.5937  156.6289 H   0  0  0  0  0  0  0  0  0  0  0  0
  133.3838  138.8870  160.7465 C   0  0  0  0  0  0  0  0  0  0  0  0
  134.0821  139.9554  161.2778 C   0  0  0  0  0  0  0  0  0  0  0  0
  136.7717  139.9603  163.8165 H   0  0  0  0  0  0  0  0  0  0  0  0
  136.9234  140.6697  162.1909 H   0  0  0  0  0  0  0  0  0  0  0  0
  137.1455  141.6909  163.6318 H   0  0  0  0  0  0  0  0  0  0  0  0
  134.9163  142.0634  162.6119 H   0  0  0  0  0  0  0  0  0  0  0  0
  134.7646  141.3542  164.2374 H   0  0  0  0  0  0  0  0  0  0  0  0
  134.0722  139.0451  164.5258 H   0  0  0  0  0  0  0  0  0  0  0  0
  132.8209  137.1467  163.5806 H   0  0  0  0  0  0  0  0  0  0  0  0
  132.3363  135.8290  161.6026 H   0  0  0  0  0  0  0  0  0  0  0  0
  132.4953  136.5340  159.9759 H   0  0  0  0  0  0  0  0  0  0  0  0
  130.4893  137.9326  160.3860 H   0  0  0  0  0  0  0  0  0  0  0  0
  130.3302  137.2276  162.0126 H   0  0  0  0  0  0  0  0  0  0  0  0
  128.1316  136.7089  161.3217 H   0  0  0  0  0  0  0  0  0  0  0  0
  128.1632  136.8278  159.5460 H   0  0  0  0  0  0  0  0  0  0  0  0
  127.6425  135.0426  158.2668 H   0  0  0  0  0  0  0  0  0  0  0  0
  125.4912  133.4923  158.5871 H   0  0  0  0  0  0  0  0  0  0  0  0
  126.9698  132.6697  158.0426 H   0  0  0  0  0  0  0  0  0  0  0  0
  125.7595  131.5461  159.9878 H   0  0  0  0  0  0  0  0  0  0  0  0
  127.4752  131.9234  160.2861 H   0  0  0  0  0  0  0  0  0  0  0  0
  125.1620  133.7575  161.0786 H   0  0  0  0  0  0  0  0  0  0  0  0
  125.9323  132.5961  162.1888 H   0  0  0  0  0  0  0  0  0  0  0  0
  128.0773  133.6987  161.9807 H   0  0  0  0  0  0  0  0  0  0  0  0
  126.8720  134.9661  162.2977 H   0  0  0  0  0  0  0  0  0  0  0  0
  130.6658  136.3514  158.4898 H   0  0  0  0  0  0  0  0  0  0  0  0
  129.7298  131.1350  158.5099 H   0  0  0  0  0  0  0  0  0  0  0  0
  130.3949  133.5090  154.5820 H   0  0  0  0  0  0  0  0  0  0  0  0
  130.8905  132.2027  152.5571 H   0  0  0  0  0  0  0  0  0  0  0  0
  132.3775  128.8465  152.6226 H   0  0  0  0  0  0  0  0  0  0  0  0
  132.0370  130.2793  151.6230 H   0  0  0  0  0  0  0  0  0  0  0  0
  129.9607  128.2925  152.6518 H   0  0  0  0  0  0  0  0  0  0  0  0
  129.6202  129.7254  151.6520 H   0  0  0  0  0  0  0  0  0  0  0  0
  130.5758  128.3806  150.9838 H   0  0  0  0  0  0  0  0  0  0  0  0
  131.7166  128.7710  154.9532 H   0  0  0  0  0  0  0  0  0  0  0  0
  131.2353  130.0650  156.9894 H   0  0  0  0  0  0  0  0  0  0  0  0
  133.1930  138.8410  159.6844 H   0  0  0  0  0  0  0  0  0  0  0  0
  134.4363  140.7442  160.6309 H   0  0  0  0  0  0  0  0  0  0  0  0
  1  2  1  0
  1 36  1  0
  1 37  1  0
  1 38  1  0
  2  3  1  0
  2 39  1  0
  2 40  1  0
  3 35  2  0
  3  4  1  0
  4  5  2  0
  4 41  1  0
  5  6  1  0
  5 42  1  0
  6  7  1  0
  6 34  2  0
  7  8  1  0
  7 43  1  0
  7 44  1  0
  8  9  1  0
  8 45  1  0
  8 46  1  0
  9 10  1  1
  9 11  1  0
  9 18  1  0
 11 12  1  0
 11 47  1  0
 11 48  1  0
 12 17  1  0
 12 13  2  0
 13 14  1  0
 13 49  1  0
 14 15  1  0
 14 50  1  0
 14 51  1  0
 15 16  1  0
 15 52  1  0
 15 53  1  0
 16 17  1  0
 16 54  1  0
 16 55  1  0
 17 56  1  0
 17 57  1  0
 18 58  1  0
 19 18  1  0
 19 32  2  0
 19 20  1  0
 20 21  1  0
 20 22  1  0
 22 23  2  0
 22 59  1  0
 23 24  1  0
 23 32  1  0
 24 31  1  0
 24 25  2  0
 25 26  1  0
 25 60  1  0
 26 27  2  0
 26 61  1  0
 27 28  1  0
 27 30  1  0
 28 29  1  0
 28 62  1  0
 28 63  1  0
 29 64  1  0
 29 65  1  0
 29 66  1  0
 30 31  2  0
 30 67  1  0
 31 68  1  0
 32 33  1  0
 34 35  1  0
 34 69  1  0
 35 70  1  0
M  CHG  1  32   1
M  END
>  <DOCK_score>  (1) 
-58.583

>  <SMILES>  (1) 
CCc1ccc(CC[C@@H](CC2=CCCCC2)Nc2[nH]cc(-c3ccc(CC)cc3)[nH+]2)cc1

$$$$
