C[C@H](Nc1nc(-c2ccc(F)cc2)c[nH]1)C1(O)CC[NH+](C[C@@H](O)c2ccccc2)CC1
     RDKit          3D

 61 64  0  0  1  0  0  0  0  0999 V2000
  127.7771  133.6609  160.2071 C   0  0  0  0  0  0  0  0  0  0  0  0
  129.1579  133.8009  159.5631 C   0  0  2  0  0  0  0  0  0  0  0  0
  129.0444  133.9538  158.4899 H   0  0  0  0  0  0  0  0  0  0  0  0
  129.9346  132.5823  159.8034 N   0  0  0  0  0  0  0  0  0  0  0  0
  130.3941  131.8322  158.7344 C   0  0  0  0  0  0  0  0  0  0  0  0
  130.1990  132.1087  157.4680 N   0  0  0  0  0  0  0  0  0  0  0  0
  130.7934  131.1547  156.7082 C   0  0  0  0  0  0  0  0  0  0  0  0
  130.8046  131.1010  155.2258 C   0  0  0  0  0  0  0  0  0  0  0  0
  130.8668  129.8720  154.5713 C   0  0  0  0  0  0  0  0  0  0  0  0
  130.8721  129.8267  153.1922 C   0  0  0  0  0  0  0  0  0  0  0  0
  130.8261  131.0016  152.4582 C   0  0  0  0  0  0  0  0  0  0  0  0
  130.8378  130.9520  151.1083 F   0  0  0  0  0  0  0  0  0  0  0  0
  130.7699  132.2249  153.1046 C   0  0  0  0  0  0  0  0  0  0  0  0
  130.7588  132.2796  154.4832 C   0  0  0  0  0  0  0  0  0  0  0  0
  131.3752  130.2590  157.5436 C   0  0  0  0  0  0  0  0  0  0  0  0
  131.1232  130.6867  158.8249 N   0  0  0  0  0  0  0  0  0  0  0  0
  131.4117  130.2525  159.6429 H   0  0  0  0  0  0  0  0  0  0  0  0
  129.8866  134.9992  160.1748 C   0  0  2  0  0  0  0  0  0  0  0  0
  129.4530  135.1844  161.5237 O   0  0  0  0  0  0  0  0  0  0  0  0
  129.5777  136.2576  159.3585 C   0  0  0  0  0  0  0  0  0  0  0  0
  130.3717  137.4355  159.9274 C   0  0  0  0  0  0  0  0  0  0  0  0
  131.8082  137.1432  159.8538 N   0  0  1  0  0  0  0  0  0  0  0  0
  132.0606  136.9453  158.8971 H   0  0  0  0  0  0  0  0  0  0  0  0
  132.5684  138.3071  160.3285 C   0  0  0  0  0  0  0  0  0  0  0  0
  134.0046  138.2254  159.8073 C   0  0  1  0  0  0  0  0  0  0  0  0
  134.3517  137.1934  159.8595 H   0  0  0  0  0  0  0  0  0  0  0  0
  134.0455  138.6739  158.4513 O   0  0  0  0  0  0  0  0  0  0  0  0
  134.8959  139.0986  160.6523 C   0  0  0  0  0  0  0  0  0  0  0  0
  135.0967  140.4217  160.3059 C   0  0  0  0  0  0  0  0  0  0  0  0
  135.9112  141.2238  161.0831 C   0  0  0  0  0  0  0  0  0  0  0  0
  136.5315  140.7006  162.2022 C   0  0  0  0  0  0  0  0  0  0  0  0
  136.3351  139.3761  162.5457 C   0  0  0  0  0  0  0  0  0  0  0  0
  135.5174  138.5751  161.7707 C   0  0  0  0  0  0  0  0  0  0  0  0
  132.1234  135.9799  160.6919 C   0  0  0  0  0  0  0  0  0  0  0  0
  131.3968  134.7461  160.1525 C   0  0  0  0  0  0  0  0  0  0  0  0
  127.1991  134.5676  160.0284 H   0  0  0  0  0  0  0  0  0  0  0  0
  127.2579  132.8073  159.7713 H   0  0  0  0  0  0  0  0  0  0  0  0
  127.8905  133.5079  161.2803 H   0  0  0  0  0  0  0  0  0  0  0  0
  130.1272  132.3010  160.7116 H   0  0  0  0  0  0  0  0  0  0  0  0
  130.9064  128.9564  155.1427 H   0  0  0  0  0  0  0  0  0  0  0  0
  130.9167  128.8746  152.6843 H   0  0  0  0  0  0  0  0  0  0  0  0
  130.7348  133.1376  152.5285 H   0  0  0  0  0  0  0  0  0  0  0  0
  130.7144  133.2343  154.9863 H   0  0  0  0  0  0  0  0  0  0  0  0
  131.9304  129.3781  157.2567 H   0  0  0  0  0  0  0  0  0  0  0  0
  129.6209  134.4253  162.0987 H   0  0  0  0  0  0  0  0  0  0  0  0
  129.8616  136.0956  158.3187 H   0  0  0  0  0  0  0  0  0  0  0  0
  128.5114  136.4759  159.4157 H   0  0  0  0  0  0  0  0  0  0  0  0
  130.0871  137.5967  160.9671 H   0  0  0  0  0  0  0  0  0  0  0  0
  130.1541  138.3332  159.3486 H   0  0  0  0  0  0  0  0  0  0  0  0
  132.1002  139.2207  159.9619 H   0  0  0  0  0  0  0  0  0  0  0  0
  132.5772  138.3154  161.4184 H   0  0  0  0  0  0  0  0  0  0  0  0
  133.4937  138.1565  157.8490 H   0  0  0  0  0  0  0  0  0  0  0  0
  134.6147  140.8296  159.4296 H   0  0  0  0  0  0  0  0  0  0  0  0
  136.0650  142.2585  160.8146 H   0  0  0  0  0  0  0  0  0  0  0  0
  137.1701  141.3265  162.8079 H   0  0  0  0  0  0  0  0  0  0  0  0
  136.8200  138.9672  163.4198 H   0  0  0  0  0  0  0  0  0  0  0  0
  135.3638  137.5402  162.0390 H   0  0  0  0  0  0  0  0  0  0  0  0
  131.8013  136.1722  161.7154 H   0  0  0  0  0  0  0  0  0  0  0  0
  133.1987  135.8030  160.6776 H   0  0  0  0  0  0  0  0  0  0  0  0
  131.6306  133.8839  160.7771 H   0  0  0  0  0  0  0  0  0  0  0  0
  131.7184  134.5527  159.1291 H   0  0  0  0  0  0  0  0  0  0  0  0
  1  2  1  0
  1 36  1  0
  1 37  1  0
  1 38  1  0
  2  3  1  6
  2  4  1  0
  2 18  1  0
  4  5  1  0
  4 39  1  0
  5 16  1  0
  5  6  2  0
  6  7  1  0
  7  8  1  0
  7 15  2  0
  8 14  1  0
  8  9  2  0
  9 10  1  0
  9 40  1  0
 10 11  2  0
 10 41  1  0
 11 12  1  0
 11 13  1  0
 13 14  2  0
 13 42  1  0
 14 43  1  0
 15 16  1  0
 15 44  1  0
 16 17  1  0
 18 35  1  0
 18 19  1  1
 18 20  1  0
 19 45  1  0
 20 21  1  0
 20 46  1  0
 20 47  1  0
 21 22  1  0
 21 48  1  0
 21 49  1  0
 22 23  1  6
 22 24  1  0
 22 34  1  0
 24 25  1  0
 24 50  1  0
 24 51  1  0
 25 26  1  6
 25 27  1  0
 25 28  1  0
 27 52  1  0
 28 33  1  0
 28 29  2  0
 29 30  1  0
 29 53  1  0
 30 31  2  0
 30 54  1  0
 31 32  1  0
 31 55  1  0
 32 33  2  0
 32 56  1  0
 33 57  1  0
 34 35  1  0
 34 58  1  0
 34 59  1  0
 35 60  1  0
 35 61  1  0
M  CHG  1  22   1
M  END
>  <DOCK_score>  (1) 
-57.992535

>  <SMILES>  (1) 
C[C@H](Nc1nc(-c2ccc(F)cc2)c[nH]1)C1(O)CC[NH+](C[C@@H](O)c2ccccc2)CC1

$$$$
