Cc1nc(C[NH+]=C(NC2CCC(=O)NC2)N[C@@H]2C=CCC2)[nH]c1C
     RDKit          3D

 51 53  0  0  1  0  0  0  0  0999 V2000
  128.2565  131.0523  159.1266 C   0  0  0  0  0  0  0  0  0  0  0  0
  129.4244  131.9848  158.9326 C   0  0  0  0  0  0  0  0  0  0  0  0
  129.9238  132.8242  159.8518 N   0  0  0  0  0  0  0  0  0  0  0  0
  130.9311  133.4754  159.3377 C   0  0  0  0  0  0  0  0  0  0  0  0
  131.7619  134.5122  160.0491 C   0  0  0  0  0  0  0  0  0  0  0  0
  131.1702  135.8366  159.8446 N   0  0  0  0  0  0  0  0  0  0  0  0
  131.4399  136.3764  159.0853 H   0  0  0  0  0  0  0  0  0  0  0  0
  130.2810  136.2896  160.6831 C   0  0  0  0  0  0  0  0  0  0  0  0
  129.4537  135.4149  161.3472 N   0  0  0  0  0  0  0  0  0  0  0  0
  128.4544  135.9242  162.2896 C   0  0  2  0  0  0  0  0  0  0  0  0
  128.1964  134.8783  163.3809 C   0  0  0  0  0  0  0  0  0  0  0  0
  127.2897  135.5018  164.4444 C   0  0  0  0  0  0  0  0  0  0  0  0
  126.1132  136.1675  163.7900 C   0  0  0  0  0  0  0  0  0  0  0  0
  125.1460  136.4259  164.4747 O   0  0  0  0  0  0  0  0  0  0  0  0
  126.0754  136.4902  162.4967 N   0  0  0  0  0  0  0  0  0  0  0  0
  127.1443  136.1984  161.5499 C   0  0  0  0  0  0  0  0  0  0  0  0
  130.1702  137.6422  160.9037 N   0  0  0  0  0  0  0  0  0  0  0  0
  131.0517  138.5742  160.1961 C   0  0  2  0  0  0  0  0  0  0  0  0
  130.9148  138.4814  159.1187 H   0  0  0  0  0  0  0  0  0  0  0  0
  132.4946  138.3224  160.5670 C   0  0  0  0  0  0  0  0  0  0  0  0
  132.9221  139.2114  161.4217 C   0  0  0  0  0  0  0  0  0  0  0  0
  131.8357  140.2042  161.7634 C   0  0  0  0  0  0  0  0  0  0  0  0
  130.7765  140.0264  160.6508 C   0  0  0  0  0  0  0  0  0  0  0  0
  131.1021  133.0706  158.0608 N   0  0  0  0  0  0  0  0  0  0  0  0
  131.7755  133.3912  157.4406 H   0  0  0  0  0  0  0  0  0  0  0  0
  130.1497  132.1209  157.8062 C   0  0  0  0  0  0  0  0  0  0  0  0
  129.9476  131.3759  156.5120 C   0  0  0  0  0  0  0  0  0  0  0  0
  127.3341  131.5627  158.8495 H   0  0  0  0  0  0  0  0  0  0  0  0
  128.3870  130.1711  158.4985 H   0  0  0  0  0  0  0  0  0  0  0  0
  128.2038  130.7487  160.1721 H   0  0  0  0  0  0  0  0  0  0  0  0
  132.7761  134.5018  159.6498 H   0  0  0  0  0  0  0  0  0  0  0  0
  131.7890  134.2870  161.1153 H   0  0  0  0  0  0  0  0  0  0  0  0
  129.5318  134.4607  161.1916 H   0  0  0  0  0  0  0  0  0  0  0  0
  128.8172  136.8457  162.7448 H   0  0  0  0  0  0  0  0  0  0  0  0
  127.7040  134.0083  162.9463 H   0  0  0  0  0  0  0  0  0  0  0  0
  129.1420  134.5779  163.8323 H   0  0  0  0  0  0  0  0  0  0  0  0
  127.8557  136.2416  165.0104 H   0  0  0  0  0  0  0  0  0  0  0  0
  126.9355  134.7237  165.1205 H   0  0  0  0  0  0  0  0  0  0  0  0
  125.2870  136.9481  162.1653 H   0  0  0  0  0  0  0  0  0  0  0  0
  127.2784  137.0508  160.8838 H   0  0  0  0  0  0  0  0  0  0  0  0
  126.8739  135.3229  160.9596 H   0  0  0  0  0  0  0  0  0  0  0  0
  129.5086  137.9794  161.5278 H   0  0  0  0  0  0  0  0  0  0  0  0
  133.0935  137.5130  160.1763 H   0  0  0  0  0  0  0  0  0  0  0  0
  133.9212  139.2340  161.8313 H   0  0  0  0  0  0  0  0  0  0  0  0
  132.2318  141.2197  161.7518 H   0  0  0  0  0  0  0  0  0  0  0  0
  131.4047  139.9750  162.7379 H   0  0  0  0  0  0  0  0  0  0  0  0
  130.9438  140.7301  159.8354 H   0  0  0  0  0  0  0  0  0  0  0  0
  129.7675  140.1267  161.0507 H   0  0  0  0  0  0  0  0  0  0  0  0
  129.2584  131.9321  155.8765 H   0  0  0  0  0  0  0  0  0  0  0  0
  130.9047  131.2671  156.0020 H   0  0  0  0  0  0  0  0  0  0  0  0
  129.5333  130.3896  156.7214 H   0  0  0  0  0  0  0  0  0  0  0  0
  1  2  1  0
  1 28  1  0
  1 29  1  0
  1 30  1  0
  2 26  2  0
  2  3  1  0
  3  4  2  0
  4  5  1  0
  4 24  1  0
  5  6  1  0
  5 31  1  0
  5 32  1  0
  6  7  1  0
  8  6  2  0
  8  9  1  0
  8 17  1  0
  9 10  1  0
  9 33  1  0
 10 16  1  0
 10 11  1  0
 10 34  1  1
 11 12  1  0
 11 35  1  0
 11 36  1  0
 12 13  1  0
 12 37  1  0
 12 38  1  0
 13 14  2  0
 13 15  1  0
 15 16  1  0
 15 39  1  0
 16 40  1  0
 16 41  1  0
 17 18  1  0
 17 42  1  0
 18 19  1  6
 18 23  1  0
 18 20  1  0
 20 21  2  0
 20 43  1  0
 21 22  1  0
 21 44  1  0
 22 23  1  0
 22 45  1  0
 22 46  1  0
 23 47  1  0
 23 48  1  0
 24 25  1  0
 24 26  1  0
 26 27  1  0
 27 49  1  0
 27 50  1  0
 27 51  1  0
M  CHG  1   6   1
M  END
>  <DOCK_score>  (1) 
-42.666672

>  <SMILES>  (1) 
Cc1nc(C[NH+]=C(NC2CCC(=O)NC2)N[C@@H]2C=CCC2)[nH]c1C

$$$$
