CCc1ccc(-c2c[nH]c(N[C@H](CCc3ccccc3)Cc3ccccc3)[nH+]2)cc1
     RDKit          3D

 60 63  0  0  1  0  0  0  0  0999 V2000
  130.0378  128.7218  151.9451 C   0  0  0  0  0  0  0  0  0  0  0  0
  131.1463  129.7635  152.1086 C   0  0  0  0  0  0  0  0  0  0  0  0
  130.9673  130.4863  153.4189 C   0  0  0  0  0  0  0  0  0  0  0  0
  131.5738  129.9996  154.5623 C   0  0  0  0  0  0  0  0  0  0  0  0
  131.4181  130.6604  155.7639 C   0  0  0  0  0  0  0  0  0  0  0  0
  130.6384  131.8140  155.8258 C   0  0  0  0  0  0  0  0  0  0  0  0
  130.4627  132.5255  157.1155 C   0  0  0  0  0  0  0  0  0  0  0  0
  129.9240  132.0063  158.2465 C   0  0  0  0  0  0  0  0  0  0  0  0
  129.9533  132.9999  159.1945 N   0  0  0  0  0  0  0  0  0  0  0  0
  129.6362  132.9314  160.1087 H   0  0  0  0  0  0  0  0  0  0  0  0
  130.5097  134.0983  158.6147 C   0  0  0  0  0  0  0  0  0  0  0  0
  130.7205  135.3179  159.2347 N   0  0  0  0  0  0  0  0  0  0  0  0
  129.8244  135.7597  160.3061 C   0  0  2  0  0  0  0  0  0  0  0  0
  129.8537  135.0398  161.1241 H   0  0  0  0  0  0  0  0  0  0  0  0
  128.3961  135.8611  159.7671 C   0  0  0  0  0  0  0  0  0  0  0  0
  127.4069  135.8265  160.9338 C   0  0  0  0  0  0  0  0  0  0  0  0
  127.5676  134.5332  161.6905 C   0  0  0  0  0  0  0  0  0  0  0  0
  126.8204  133.4263  161.3336 C   0  0  0  0  0  0  0  0  0  0  0  0
  126.9713  132.2384  162.0246 C   0  0  0  0  0  0  0  0  0  0  0  0
  127.8616  132.1607  163.0792 C   0  0  0  0  0  0  0  0  0  0  0  0
  128.6049  133.2690  163.4394 C   0  0  0  0  0  0  0  0  0  0  0  0
  128.4579  134.4554  162.7451 C   0  0  0  0  0  0  0  0  0  0  0  0
  130.2755  137.1298  160.8160 C   0  0  0  0  0  0  0  0  0  0  0  0
  131.6824  137.0300  161.3469 C   0  0  0  0  0  0  0  0  0  0  0  0
  131.8988  136.7267  162.6781 C   0  0  0  0  0  0  0  0  0  0  0  0
  133.1893  136.6303  163.1641 C   0  0  0  0  0  0  0  0  0  0  0  0
  134.2632  136.8476  162.3212 C   0  0  0  0  0  0  0  0  0  0  0  0
  134.0467  137.1560  160.9912 C   0  0  0  0  0  0  0  0  0  0  0  0
  132.7563  137.2473  160.5041 C   0  0  0  0  0  0  0  0  0  0  0  0
  130.8181  133.8091  157.3740 N   0  0  0  0  0  0  0  0  0  0  0  0
  131.2321  134.4165  156.7411 H   0  0  0  0  0  0  0  0  0  0  0  0
  130.0248  132.2969  154.6714 C   0  0  0  0  0  0  0  0  0  0  0  0
  130.1921  131.6311  153.4740 C   0  0  0  0  0  0  0  0  0  0  0  0
  130.0893  128.0054  152.7650 H   0  0  0  0  0  0  0  0  0  0  0  0
  129.0675  129.2182  151.9567 H   0  0  0  0  0  0  0  0  0  0  0  0
  130.1672  128.1992  150.9974 H   0  0  0  0  0  0  0  0  0  0  0  0
  132.1162  129.2676  152.0965 H   0  0  0  0  0  0  0  0  0  0  0  0
  131.0945  130.4804  151.2883 H   0  0  0  0  0  0  0  0  0  0  0  0
  132.1738  129.1030  154.5141 H   0  0  0  0  0  0  0  0  0  0  0  0
  131.8960  130.2820  156.6554 H   0  0  0  0  0  0  0  0  0  0  0  0
  129.5442  131.0037  158.3768 H   0  0  0  0  0  0  0  0  0  0  0  0
  131.4618  135.8800  158.9598 H   0  0  0  0  0  0  0  0  0  0  0  0
  128.2799  136.7964  159.2198 H   0  0  0  0  0  0  0  0  0  0  0  0
  128.1994  135.0224  159.0991 H   0  0  0  0  0  0  0  0  0  0  0  0
  127.6035  136.6651  161.6018 H   0  0  0  0  0  0  0  0  0  0  0  0
  126.3894  135.8988  160.5498 H   0  0  0  0  0  0  0  0  0  0  0  0
  126.1216  133.4883  160.5125 H   0  0  0  0  0  0  0  0  0  0  0  0
  126.3904  131.3726  161.7434 H   0  0  0  0  0  0  0  0  0  0  0  0
  127.9762  131.2340  163.6219 H   0  0  0  0  0  0  0  0  0  0  0  0
  129.3002  133.2085  164.2636 H   0  0  0  0  0  0  0  0  0  0  0  0
  129.0383  135.3215  163.0268 H   0  0  0  0  0  0  0  0  0  0  0  0
  130.2460  137.8495  159.9979 H   0  0  0  0  0  0  0  0  0  0  0  0
  129.6087  137.4583  161.6131 H   0  0  0  0  0  0  0  0  0  0  0  0
  131.0596  136.5613  163.3376 H   0  0  0  0  0  0  0  0  0  0  0  0
  133.3585  136.3896  164.2032 H   0  0  0  0  0  0  0  0  0  0  0  0
  135.2714  136.7766  162.7018 H   0  0  0  0  0  0  0  0  0  0  0  0
  134.8857  137.3260  160.3328 H   0  0  0  0  0  0  0  0  0  0  0  0
  132.5870  137.4885  159.4651 H   0  0  0  0  0  0  0  0  0  0  0  0
  129.4193  133.1903  154.7136 H   0  0  0  0  0  0  0  0  0  0  0  0
  129.7168  132.0043  152.5789 H   0  0  0  0  0  0  0  0  0  0  0  0
  1  2  1  0
  1 34  1  0
  1 35  1  0
  1 36  1  0
  2  3  1  0
  2 37  1  0
  2 38  1  0
  3 33  2  0
  3  4  1  0
  4  5  2  0
  4 39  1  0
  5  6  1  0
  5 40  1  0
  6  7  1  0
  6 32  2  0
  7 30  1  0
  7  8  2  0
  8  9  1  0
  8 41  1  0
  9 10  1  0
  9 11  1  0
 11 12  1  0
 11 30  2  0
 12 13  1  0
 12 42  1  0
 13 14  1  1
 13 15  1  0
 13 23  1  0
 15 16  1  0
 15 43  1  0
 15 44  1  0
 16 17  1  0
 16 45  1  0
 16 46  1  0
 17 22  1  0
 17 18  2  0
 18 19  1  0
 18 47  1  0
 19 20  2  0
 19 48  1  0
 20 21  1  0
 20 49  1  0
 21 22  2  0
 21 50  1  0
 22 51  1  0
 23 24  1  0
 23 52  1  0
 23 53  1  0
 24 29  1  0
 24 25  2  0
 25 26  1  0
 25 54  1  0
 26 27  2  0
 26 55  1  0
 27 28  1  0
 27 56  1  0
 28 29  2  0
 28 57  1  0
 29 58  1  0
 30 31  1  0
 32 33  1  0
 32 59  1  0
 33 60  1  0
M  CHG  1  30   1
M  END
>  <DOCK_score>  (1) 
-57.905392

>  <SMILES>  (1) 
CCc1ccc(-c2c[nH]c(N[C@H](CCc3ccccc3)Cc3ccccc3)[nH+]2)cc1

$$$$
