Brc1ccc(-c2c[nH]c(N[C@@H](C3=CCOCC3)c3ccc(Br)nc3)[nH+]2)cc1
     RDKit          3D

 46 49  0  0  1  0  0  0  0  0999 V2000
  131.5543  129.3932  152.0381 Br  0  0  0  0  0  0  0  0  0  0  0  0
  131.0846  130.3891  153.5755 C   0  0  0  0  0  0  0  0  0  0  0  0
  130.2620  131.4959  153.4555 C   0  0  0  0  0  0  0  0  0  0  0  0
  129.9165  132.2262  154.5741 C   0  0  0  0  0  0  0  0  0  0  0  0
  130.3969  131.8474  155.8265 C   0  0  0  0  0  0  0  0  0  0  0  0
  130.0291  132.6291  157.0323 C   0  0  0  0  0  0  0  0  0  0  0  0
  129.3618  132.1592  158.1153 C   0  0  0  0  0  0  0  0  0  0  0  0
  129.2333  133.2098  158.9911 N   0  0  0  0  0  0  0  0  0  0  0  0
  128.8001  133.1848  159.8587 H   0  0  0  0  0  0  0  0  0  0  0  0
  129.8263  134.2919  158.4172 C   0  0  0  0  0  0  0  0  0  0  0  0
  129.9135  135.5551  158.9768 N   0  0  0  0  0  0  0  0  0  0  0  0
  129.3367  135.8120  160.2988 C   0  0  1  0  0  0  0  0  0  0  0  0
  128.2662  135.6083  160.2738 H   0  0  0  0  0  0  0  0  0  0  0  0
  129.9948  134.9167  161.3166 C   0  0  0  0  0  0  0  0  0  0  0  0
  129.3077  134.5373  162.3527 C   0  0  0  0  0  0  0  0  0  0  0  0
  129.8721  133.6489  163.4247 C   0  0  0  0  0  0  0  0  0  0  0  0
  131.0772  133.0306  162.9689 O   0  0  0  0  0  0  0  0  0  0  0  0
  132.0083  133.9642  162.4075 C   0  0  0  0  0  0  0  0  0  0  0  0
  131.4236  134.5012  161.0980 C   0  0  0  0  0  0  0  0  0  0  0  0
  129.5652  137.2533  160.6750 C   0  0  0  0  0  0  0  0  0  0  0  0
  130.6794  137.9332  160.2060 C   0  0  0  0  0  0  0  0  0  0  0  0
  130.8489  139.2576  160.5770 C   0  0  0  0  0  0  0  0  0  0  0  0
  129.9076  139.8535  161.3975 C   0  0  0  0  0  0  0  0  0  0  0  0
  130.1258  141.6597  161.9127 Br  0  0  0  0  0  0  0  0  0  0  0  0
  128.8622  139.1738  161.8287 N   0  0  0  0  0  0  0  0  0  0  0  0
  128.6671  137.9138  161.4911 C   0  0  0  0  0  0  0  0  0  0  0  0
  130.2964  133.9422  157.2446 N   0  0  0  0  0  0  0  0  0  0  0  0
  130.7625  134.5282  156.6281 H   0  0  0  0  0  0  0  0  0  0  0  0
  131.2287  130.7349  155.9412 C   0  0  0  0  0  0  0  0  0  0  0  0
  131.5639  130.0083  154.8170 C   0  0  0  0  0  0  0  0  0  0  0  0
  129.8903  131.7886  152.4847 H   0  0  0  0  0  0  0  0  0  0  0  0
  129.2747  133.0897  154.4795 H   0  0  0  0  0  0  0  0  0  0  0  0
  129.0010  131.1518  158.2615 H   0  0  0  0  0  0  0  0  0  0  0  0
  130.3565  136.2701  158.4937 H   0  0  0  0  0  0  0  0  0  0  0  0
  128.2852  134.8723  162.4451 H   0  0  0  0  0  0  0  0  0  0  0  0
  129.1445  132.8783  163.6791 H   0  0  0  0  0  0  0  0  0  0  0  0
  130.0862  134.2497  164.3086 H   0  0  0  0  0  0  0  0  0  0  0  0
  132.9556  133.4632  162.2083 H   0  0  0  0  0  0  0  0  0  0  0  0
  132.1674  134.7877  163.1036 H   0  0  0  0  0  0  0  0  0  0  0  0
  131.4627  133.7223  160.3368 H   0  0  0  0  0  0  0  0  0  0  0  0
  132.0052  135.3617  160.7672 H   0  0  0  0  0  0  0  0  0  0  0  0
  131.3978  137.4422  159.5663 H   0  0  0  0  0  0  0  0  0  0  0  0
  131.7047  139.8177  160.2300 H   0  0  0  0  0  0  0  0  0  0  0  0
  127.7970  137.3911  161.8600 H   0  0  0  0  0  0  0  0  0  0  0  0
  131.6068  130.4396  156.9087 H   0  0  0  0  0  0  0  0  0  0  0  0
  132.2053  129.1440  154.9051 H   0  0  0  0  0  0  0  0  0  0  0  0
  1  2  1  0
  2 30  2  0
  2  3  1  0
  3  4  2  0
  3 31  1  0
  4  5  1  0
  4 32  1  0
  5  6  1  0
  5 29  2  0
  6 27  1  0
  6  7  2  0
  7  8  1  0
  7 33  1  0
  8  9  1  0
  8 10  1  0
 10 11  1  0
 10 27  2  0
 11 12  1  0
 11 34  1  0
 12 13  1  6
 12 14  1  0
 12 20  1  0
 14 19  1  0
 14 15  2  0
 15 16  1  0
 15 35  1  0
 16 17  1  0
 16 36  1  0
 16 37  1  0
 17 18  1  0
 18 19  1  0
 18 38  1  0
 18 39  1  0
 19 40  1  0
 19 41  1  0
 20 26  1  0
 20 21  2  0
 21 22  1  0
 21 42  1  0
 22 23  2  0
 22 43  1  0
 23 24  1  0
 23 25  1  0
 25 26  2  0
 26 44  1  0
 27 28  1  0
 29 30  1  0
 29 45  1  0
 30 46  1  0
M  CHG  1  27   1
M  END
>  <DOCK_score>  (1) 
-56.384556

>  <SMILES>  (1) 
Brc1ccc(-c2c[nH]c(N[C@@H](C3=CCOCC3)c3ccc(Br)nc3)[nH+]2)cc1

$$$$
