CCc1ccc(-c2c[nH]c(Nc3ccccc3C3=CCN(c4cccc5cc[nH]c45)CC3)[nH+]2)cc1
     RDKit          3D

 65 70  0  0  1  0  0  0  0  0999 V2000
  129.8268  129.0229  151.0251 C   0  0  0  0  0  0  0  0  0  0  0  0
  131.1040  129.6921  151.5359 C   0  0  0  0  0  0  0  0  0  0  0  0
  130.8003  130.4576  152.7979 C   0  0  0  0  0  0  0  0  0  0  0  0
  130.9124  129.8322  154.0265 C   0  0  0  0  0  0  0  0  0  0  0  0
  130.6357  130.5281  155.1858 C   0  0  0  0  0  0  0  0  0  0  0  0
  130.2428  131.8635  155.1168 C   0  0  0  0  0  0  0  0  0  0  0  0
  129.9442  132.6168  156.3593 C   0  0  0  0  0  0  0  0  0  0  0  0
  129.4601  132.0933  157.5133 C   0  0  0  0  0  0  0  0  0  0  0  0
  129.3258  133.1349  158.3979 N   0  0  0  0  0  0  0  0  0  0  0  0
  128.9983  133.0762  159.3091 H   0  0  0  0  0  0  0  0  0  0  0  0
  129.7376  134.2649  157.7604 C   0  0  0  0  0  0  0  0  0  0  0  0
  129.7605  135.5374  158.3077 N   0  0  0  0  0  0  0  0  0  0  0  0
  128.8316  135.8928  159.2860 C   0  0  0  0  0  0  0  0  0  0  0  0
  127.5738  135.3071  159.2984 C   0  0  0  0  0  0  0  0  0  0  0  0
  126.6556  135.6599  160.2682 C   0  0  0  0  0  0  0  0  0  0  0  0
  126.9818  136.5984  161.2326 C   0  0  0  0  0  0  0  0  0  0  0  0
  128.2281  137.1897  161.2349 C   0  0  0  0  0  0  0  0  0  0  0  0
  129.1668  136.8388  160.2645 C   0  0  0  0  0  0  0  0  0  0  0  0
  130.5046  137.4648  160.2649 C   0  0  0  0  0  0  0  0  0  0  0  0
  131.4724  136.8852  160.9418 C   0  0  0  0  0  0  0  0  0  0  0  0
  132.8661  137.4395  161.0152 C   0  0  0  0  0  0  0  0  0  0  0  0
  133.0792  138.4224  159.9454 N   0  0  0  0  0  0  0  0  0  0  0  0
  134.3287  139.0374  160.0715 C   0  0  0  0  0  0  0  0  0  0  0  0
  135.2609  138.9341  159.0535 C   0  0  0  0  0  0  0  0  0  0  0  0
  136.5012  139.5455  159.1676 C   0  0  0  0  0  0  0  0  0  0  0  0
  136.8280  140.2507  160.2914 C   0  0  0  0  0  0  0  0  0  0  0  0
  135.9056  140.3645  161.3355 C   0  0  0  0  0  0  0  0  0  0  0  0
  135.9254  141.0250  162.6428 C   0  0  0  0  0  0  0  0  0  0  0  0
  134.7369  140.7885  163.2207 C   0  0  0  0  0  0  0  0  0  0  0  0
  133.9579  140.0307  162.3905 N   0  0  0  0  0  0  0  0  0  0  0  0
  133.0568  139.7324  162.5899 H   0  0  0  0  0  0  0  0  0  0  0  0
  134.6448  139.7542  161.2277 C   0  0  0  0  0  0  0  0  0  0  0  0
  131.9973  139.4207  159.9472 C   0  0  0  0  0  0  0  0  0  0  0  0
  130.7064  138.7351  159.4867 C   0  0  0  0  0  0  0  0  0  0  0  0
  130.1096  133.9502  156.5435 N   0  0  0  0  0  0  0  0  0  0  0  0
  130.4456  134.5724  155.8795 H   0  0  0  0  0  0  0  0  0  0  0  0
  130.1261  132.4870  153.8758 C   0  0  0  0  0  0  0  0  0  0  0  0
  130.4108  131.7829  152.7233 C   0  0  0  0  0  0  0  0  0  0  0  0
  130.0467  128.4695  150.1120 H   0  0  0  0  0  0  0  0  0  0  0  0
  129.4481  128.3373  151.7831 H   0  0  0  0  0  0  0  0  0  0  0  0
  129.0758  129.7847  150.8163 H   0  0  0  0  0  0  0  0  0  0  0  0
  131.4830  130.3782  150.7775 H   0  0  0  0  0  0  0  0  0  0  0  0
  131.8554  128.9309  151.7443 H   0  0  0  0  0  0  0  0  0  0  0  0
  131.2166  128.7973  154.0788 H   0  0  0  0  0  0  0  0  0  0  0  0
  130.7240  130.0389  156.1446 H   0  0  0  0  0  0  0  0  0  0  0  0
  129.2215  131.0566  157.6992 H   0  0  0  0  0  0  0  0  0  0  0  0
  130.4224  136.1812  158.0106 H   0  0  0  0  0  0  0  0  0  0  0  0
  127.3122  134.5749  158.5488 H   0  0  0  0  0  0  0  0  0  0  0  0
  125.6777  135.2016  160.2740 H   0  0  0  0  0  0  0  0  0  0  0  0
  126.2572  136.8682  161.9867 H   0  0  0  0  0  0  0  0  0  0  0  0
  128.4782  137.9210  161.9895 H   0  0  0  0  0  0  0  0  0  0  0  0
  131.2543  135.9684  161.4692 H   0  0  0  0  0  0  0  0  0  0  0  0
  133.0125  137.9210  161.9822 H   0  0  0  0  0  0  0  0  0  0  0  0
  133.5840  136.6270  160.9042 H   0  0  0  0  0  0  0  0  0  0  0  0
  135.0190  138.3766  158.1607 H   0  0  0  0  0  0  0  0  0  0  0  0
  137.2163  139.4592  158.3630 H   0  0  0  0  0  0  0  0  0  0  0  0
  137.7975  140.7196  160.3728 H   0  0  0  0  0  0  0  0  0  0  0  0
  136.7414  141.5947  163.0621 H   0  0  0  0  0  0  0  0  0  0  0  0
  134.4398  141.1441  164.1961 H   0  0  0  0  0  0  0  0  0  0  0  0
  131.8666  139.8173  160.9541 H   0  0  0  0  0  0  0  0  0  0  0  0
  132.2469  140.2322  159.2636 H   0  0  0  0  0  0  0  0  0  0  0  0
  130.7745  138.5025  158.4240 H   0  0  0  0  0  0  0  0  0  0  0  0
  129.8624  139.4033  159.6577 H   0  0  0  0  0  0  0  0  0  0  0  0
  129.8177  133.5202  153.8163 H   0  0  0  0  0  0  0  0  0  0  0  0
  130.3249  132.2663  151.7614 H   0  0  0  0  0  0  0  0  0  0  0  0
  1  2  1  0
  1 39  1  0
  1 40  1  0
  1 41  1  0
  2  3  1  0
  2 42  1  0
  2 43  1  0
  3 38  2  0
  3  4  1  0
  4  5  2  0
  4 44  1  0
  5  6  1  0
  5 45  1  0
  6  7  1  0
  6 37  2  0
  7 35  1  0
  7  8  2  0
  8  9  1  0
  8 46  1  0
  9 10  1  0
  9 11  1  0
 11 12  1  0
 11 35  2  0
 12 13  1  0
 12 47  1  0
 13 18  1  0
 13 14  2  0
 14 15  1  0
 14 48  1  0
 15 16  2  0
 15 49  1  0
 16 17  1  0
 16 50  1  0
 17 18  2  0
 17 51  1  0
 18 19  1  0
 19 34  1  0
 19 20  2  0
 20 21  1  0
 20 52  1  0
 21 22  1  0
 21 53  1  0
 21 54  1  0
 22 23  1  0
 22 33  1  0
 23 32  1  0
 23 24  2  0
 24 25  1  0
 24 55  1  0
 25 26  2  0
 25 56  1  0
 26 27  1  0
 26 57  1  0
 27 32  2  0
 27 28  1  0
 28 29  2  0
 28 58  1  0
 29 30  1  0
 29 59  1  0
 30 31  1  0
 30 32  1  0
 33 34  1  0
 33 60  1  0
 33 61  1  0
 34 62  1  0
 34 63  1  0
 35 36  1  0
 37 38  1  0
 37 64  1  0
 38 65  1  0
M  CHG  1  35   1
M  END
>  <DOCK_score>  (1) 
-70.601715

>  <SMILES>  (1) 
CCc1ccc(-c2c[nH]c(Nc3ccccc3C3=CCN(c4cccc5cc[nH]c45)CC3)[nH+]2)cc1

$$$$
