Cc1cccc(N2CC[NH+](C(c3ccccc3)c3ccccc3)CC2)c1NC/C=C\Br
     RDKit          3D

 62 65  0  0  1  0  0  0  0  0999 V2000
  135.8546  141.4630  162.3282 C   0  0  0  0  0  0  0  0  0  0  0  0
  135.2459  140.6542  161.2118 C   0  0  0  0  0  0  0  0  0  0  0  0
  135.6524  140.8619  159.9061 C   0  0  0  0  0  0  0  0  0  0  0  0
  135.0967  140.1224  158.8792 C   0  0  0  0  0  0  0  0  0  0  0  0
  134.1307  139.1706  159.1511 C   0  0  0  0  0  0  0  0  0  0  0  0
  133.7210  138.9525  160.4573 C   0  0  0  0  0  0  0  0  0  0  0  0
  132.7472  137.9855  160.7355 N   0  0  0  0  0  0  0  0  0  0  0  0
  133.2244  136.6409  160.3827 C   0  0  0  0  0  0  0  0  0  0  0  0
  132.1572  135.6099  160.7565 C   0  0  0  0  0  0  0  0  0  0  0  0
  130.9124  135.9108  160.0372 N   0  0  0  0  0  0  0  0  0  0  0  0
  131.0841  135.8862  159.0432 H   0  0  0  0  0  0  0  0  0  0  0  0
  129.8936  134.9102  160.3825 C   0  0  0  0  0  0  0  0  0  0  0  0
  128.6163  135.2188  159.6446 C   0  0  0  0  0  0  0  0  0  0  0  0
  127.3977  134.8732  160.1980 C   0  0  0  0  0  0  0  0  0  0  0  0
  126.2259  135.1606  159.5235 C   0  0  0  0  0  0  0  0  0  0  0  0
  126.2728  135.7840  158.2912 C   0  0  0  0  0  0  0  0  0  0  0  0
  127.4921  136.1249  157.7347 C   0  0  0  0  0  0  0  0  0  0  0  0
  128.6637  135.8422  158.4117 C   0  0  0  0  0  0  0  0  0  0  0  0
  130.3821  133.5398  159.9897 C   0  0  0  0  0  0  0  0  0  0  0  0
  129.9777  132.4298  160.7076 C   0  0  0  0  0  0  0  0  0  0  0  0
  130.4220  131.1722  160.3443 C   0  0  0  0  0  0  0  0  0  0  0  0
  131.2791  131.0256  159.2697 C   0  0  0  0  0  0  0  0  0  0  0  0
  131.6877  132.1362  158.5551 C   0  0  0  0  0  0  0  0  0  0  0  0
  131.2393  133.3933  158.9151 C   0  0  0  0  0  0  0  0  0  0  0  0
  130.4352  137.2466  160.4185 C   0  0  0  0  0  0  0  0  0  0  0  0
  131.4881  138.2912  160.0420 C   0  0  0  0  0  0  0  0  0  0  0  0
  134.2783  139.7024  161.4934 C   0  0  0  0  0  0  0  0  0  0  0  0
  133.8658  139.4901  162.8144 N   0  0  0  0  0  0  0  0  0  0  0  0
  132.7326  140.3593  163.1581 C   0  0  0  0  0  0  0  0  0  0  0  0
  132.3173  140.1031  164.5840 C   0  0  0  0  0  0  0  0  0  0  0  0
  131.3181  140.7726  165.1062 C   0  0  0  0  0  0  0  0  0  0  0  0
  130.4031  142.0651  164.0726 Br  0  0  0  0  0  0  0  0  0  0  0  0
  136.7784  140.9881  162.6589 H   0  0  0  0  0  0  0  0  0  0  0  0
  136.0713  142.4698  161.9712 H   0  0  0  0  0  0  0  0  0  0  0  0
  135.1547  141.5161  163.1620 H   0  0  0  0  0  0  0  0  0  0  0  0
  136.4063  141.6039  159.6885 H   0  0  0  0  0  0  0  0  0  0  0  0
  135.4175  140.2885  157.8614 H   0  0  0  0  0  0  0  0  0  0  0  0
  133.6985  138.5946  158.3463 H   0  0  0  0  0  0  0  0  0  0  0  0
  133.4170  136.5929  159.3109 H   0  0  0  0  0  0  0  0  0  0  0  0
  134.1438  136.4266  160.9277 H   0  0  0  0  0  0  0  0  0  0  0  0
  131.9748  135.6488  161.8304 H   0  0  0  0  0  0  0  0  0  0  0  0
  132.5033  134.6132  160.4826 H   0  0  0  0  0  0  0  0  0  0  0  0
  129.7083  134.9360  161.4563 H   0  0  0  0  0  0  0  0  0  0  0  0
  127.3609  134.3821  161.1592 H   0  0  0  0  0  0  0  0  0  0  0  0
  125.2735  134.8940  159.9575 H   0  0  0  0  0  0  0  0  0  0  0  0
  125.3578  136.0046  157.7614 H   0  0  0  0  0  0  0  0  0  0  0  0
  127.5291  136.6117  156.7714 H   0  0  0  0  0  0  0  0  0  0  0  0
  129.6161  136.1081  157.9773 H   0  0  0  0  0  0  0  0  0  0  0  0
  129.3116  132.5447  161.5499 H   0  0  0  0  0  0  0  0  0  0  0  0
  130.1031  130.3047  160.9028 H   0  0  0  0  0  0  0  0  0  0  0  0
  131.6298  130.0436  158.9887 H   0  0  0  0  0  0  0  0  0  0  0  0
  132.3576  132.0218  157.7157 H   0  0  0  0  0  0  0  0  0  0  0  0
  131.5588  134.2609  158.3570 H   0  0  0  0  0  0  0  0  0  0  0  0
  130.2616  137.2771  161.4942 H   0  0  0  0  0  0  0  0  0  0  0  0
  129.5046  137.4633  159.8940 H   0  0  0  0  0  0  0  0  0  0  0  0
  131.1407  139.2810  160.3383 H   0  0  0  0  0  0  0  0  0  0  0  0
  131.6520  138.2704  158.9645 H   0  0  0  0  0  0  0  0  0  0  0  0
  133.6375  138.5197  162.9705 H   0  0  0  0  0  0  0  0  0  0  0  0
  131.8961  140.1462  162.4922 H   0  0  0  0  0  0  0  0  0  0  0  0
  133.0281  141.4026  163.0477 H   0  0  0  0  0  0  0  0  0  0  0  0
  132.8399  139.3649  165.1743 H   0  0  0  0  0  0  0  0  0  0  0  0
  131.0176  140.5859  166.1266 H   0  0  0  0  0  0  0  0  0  0  0  0
  1  2  1  0
  1 33  1  0
  1 34  1  0
  1 35  1  0
  2 27  2  0
  2  3  1  0
  3  4  2  0
  3 36  1  0
  4  5  1  0
  4 37  1  0
  5  6  2  0
  5 38  1  0
  6  7  1  0
  6 27  1  0
  7 26  1  0
  7  8  1  0
  8  9  1  0
  8 39  1  0
  8 40  1  0
  9 10  1  0
  9 41  1  0
  9 42  1  0
 10 11  1  0
 10 12  1  0
 10 25  1  0
 12 13  1  0
 12 19  1  0
 12 43  1  0
 13 18  1  0
 13 14  2  0
 14 15  1  0
 14 44  1  0
 15 16  2  0
 15 45  1  0
 16 17  1  0
 16 46  1  0
 17 18  2  0
 17 47  1  0
 18 48  1  0
 19 24  1  0
 19 20  2  0
 20 21  1  0
 20 49  1  0
 21 22  2  0
 21 50  1  0
 22 23  1  0
 22 51  1  0
 23 24  2  0
 23 52  1  0
 24 53  1  0
 25 26  1  0
 25 54  1  0
 25 55  1  0
 26 56  1  0
 26 57  1  0
 27 28  1  0
 28 29  1  0
 28 58  1  0
 29 30  1  0
 29 59  1  0
 29 60  1  0
 30 31  2  0
 30 61  1  0
 31 32  1  0
 31 62  1  0
M  CHG  1  10   1
M  END
>  <DOCK_score>  (1) 
-57.260662

>  <SMILES>  (1) 
Cc1cccc(N2CC[NH+](C(c3ccccc3)c3ccccc3)CC2)c1NC/C=C\Br

$$$$
