c1ccc(C(CNc2cc(Nc3[nH]c4ccccc4[nH+]3)c3ccccc3c2)c2ccccc2)cc1
     RDKit          3D

 62 67  0  0  0  0  0  0  0  0999 V2000
  130.7325  130.8666  157.6780 C   0  0  0  0  0  0  0  0  0  0  0  0
  129.9144  131.9195  157.3133 C   0  0  0  0  0  0  0  0  0  0  0  0
  129.2640  132.6579  158.2842 C   0  0  0  0  0  0  0  0  0  0  0  0
  129.4315  132.3433  159.6198 C   0  0  0  0  0  0  0  0  0  0  0  0
  128.7227  133.1485  160.6783 C   0  0  0  0  0  0  0  0  0  0  0  0
  129.5633  133.1622  161.9567 C   0  0  0  0  0  0  0  0  0  0  0  0
  129.1525  134.2882  162.7991 N   0  0  0  0  0  0  0  0  0  0  0  0
  129.2521  135.5942  162.3160 C   0  0  0  0  0  0  0  0  0  0  0  0
  130.1046  135.8709  161.2428 C   0  0  0  0  0  0  0  0  0  0  0  0
  130.2215  137.1399  160.7504 C   0  0  0  0  0  0  0  0  0  0  0  0
  131.0764  137.3991  159.6790 N   0  0  0  0  0  0  0  0  0  0  0  0
  132.1168  138.2880  159.8282 C   0  0  0  0  0  0  0  0  0  0  0  0
  132.9927  138.6033  158.8765 N   0  0  0  0  0  0  0  0  0  0  0  0
  133.0020  138.2479  157.9740 H   0  0  0  0  0  0  0  0  0  0  0  0
  133.8770  139.5166  159.3867 C   0  0  0  0  0  0  0  0  0  0  0  0
  134.9782  140.1876  158.8626 C   0  0  0  0  0  0  0  0  0  0  0  0
  135.6868  141.0642  159.6551 C   0  0  0  0  0  0  0  0  0  0  0  0
  135.3103  141.2841  160.9720 C   0  0  0  0  0  0  0  0  0  0  0  0
  134.2224  140.6286  161.5065 C   0  0  0  0  0  0  0  0  0  0  0  0
  133.4956  139.7392  160.7200 C   0  0  0  0  0  0  0  0  0  0  0  0
  132.3970  138.9531  160.9468 N   0  0  0  0  0  0  0  0  0  0  0  0
  131.9066  138.8910  161.7815 H   0  0  0  0  0  0  0  0  0  0  0  0
  129.4738  138.1883  161.3301 C   0  0  0  0  0  0  0  0  0  0  0  0
  129.5721  139.5025  160.8477 C   0  0  0  0  0  0  0  0  0  0  0  0
  128.8380  140.4915  161.4289 C   0  0  0  0  0  0  0  0  0  0  0  0
  127.9873  140.2191  162.4982 C   0  0  0  0  0  0  0  0  0  0  0  0
  127.8668  138.9569  162.9928 C   0  0  0  0  0  0  0  0  0  0  0  0
  128.6094  137.9106  162.4177 C   0  0  0  0  0  0  0  0  0  0  0  0
  128.5093  136.5963  162.9030 C   0  0  0  0  0  0  0  0  0  0  0  0
  127.3801  132.5279  160.9665 C   0  0  0  0  0  0  0  0  0  0  0  0
  127.2018  131.1654  160.8162 C   0  0  0  0  0  0  0  0  0  0  0  0
  125.9714  130.5955  161.0852 C   0  0  0  0  0  0  0  0  0  0  0  0
  124.9165  131.3895  161.4945 C   0  0  0  0  0  0  0  0  0  0  0  0
  125.0934  132.7528  161.6398 C   0  0  0  0  0  0  0  0  0  0  0  0
  126.3252  133.3221  161.3758 C   0  0  0  0  0  0  0  0  0  0  0  0
  130.2536  131.2936  159.9848 C   0  0  0  0  0  0  0  0  0  0  0  0
  130.8999  130.5519  159.0137 C   0  0  0  0  0  0  0  0  0  0  0  0
  131.2410  130.2900  156.9195 H   0  0  0  0  0  0  0  0  0  0  0  0
  129.7840  132.1657  156.2699 H   0  0  0  0  0  0  0  0  0  0  0  0
  128.6252  133.4808  157.9993 H   0  0  0  0  0  0  0  0  0  0  0  0
  128.5826  134.1700  160.3247 H   0  0  0  0  0  0  0  0  0  0  0  0
  130.6168  133.2675  161.6978 H   0  0  0  0  0  0  0  0  0  0  0  0
  129.4141  132.2289  162.4996 H   0  0  0  0  0  0  0  0  0  0  0  0
  128.8113  134.1263  163.6926 H   0  0  0  0  0  0  0  0  0  0  0  0
  130.6811  135.0721  160.8001 H   0  0  0  0  0  0  0  0  0  0  0  0
  130.9377  136.9531  158.8289 H   0  0  0  0  0  0  0  0  0  0  0  0
  135.2763  140.0216  157.8379 H   0  0  0  0  0  0  0  0  0  0  0  0
  136.5415  141.5843  159.2479 H   0  0  0  0  0  0  0  0  0  0  0  0
  135.8736  141.9742  161.5826 H   0  0  0  0  0  0  0  0  0  0  0  0
  133.9345  140.8045  162.5323 H   0  0  0  0  0  0  0  0  0  0  0  0
  130.2273  139.7288  160.0195 H   0  0  0  0  0  0  0  0  0  0  0  0
  128.9161  141.5017  161.0551 H   0  0  0  0  0  0  0  0  0  0  0  0
  127.4156  141.0212  162.9413 H   0  0  0  0  0  0  0  0  0  0  0  0
  127.2036  138.7598  163.8220 H   0  0  0  0  0  0  0  0  0  0  0  0
  127.8542  136.3719  163.7317 H   0  0  0  0  0  0  0  0  0  0  0  0
  128.0247  130.5457  160.4921 H   0  0  0  0  0  0  0  0  0  0  0  0
  125.8331  129.5304  160.9713 H   0  0  0  0  0  0  0  0  0  0  0  0
  123.9540  130.9449  161.7005 H   0  0  0  0  0  0  0  0  0  0  0  0
  124.2692  133.3733  161.9593 H   0  0  0  0  0  0  0  0  0  0  0  0
  126.4633  134.3871  161.4891 H   0  0  0  0  0  0  0  0  0  0  0  0
  130.3880  131.0505  161.0284 H   0  0  0  0  0  0  0  0  0  0  0  0
  131.5392  129.7295  159.2986 H   0  0  0  0  0  0  0  0  0  0  0  0
  1 37  2  0
  1  2  1  0
  1 38  1  0
  2  3  2  0
  2 39  1  0
  3  4  1  0
  3 40  1  0
  4  5  1  0
  4 36  2  0
  5  6  1  0
  5 30  1  0
  5 41  1  0
  6  7  1  0
  6 42  1  0
  6 43  1  0
  7  8  1  0
  7 44  1  0
  8 29  1  0
  8  9  2  0
  9 10  1  0
  9 45  1  0
 10 11  1  0
 10 23  2  0
 11 12  1  0
 11 46  1  0
 12 21  1  0
 12 13  2  0
 13 14  1  0
 13 15  1  0
 15 20  2  0
 15 16  1  0
 16 17  2  0
 16 47  1  0
 17 18  1  0
 17 48  1  0
 18 19  2  0
 18 49  1  0
 19 20  1  0
 19 50  1  0
 20 21  1  0
 21 22  1  0
 23 28  1  0
 23 24  1  0
 24 25  2  0
 24 51  1  0
 25 26  1  0
 25 52  1  0
 26 27  2  0
 26 53  1  0
 27 28  1  0
 27 54  1  0
 28 29  2  0
 29 55  1  0
 30 35  1  0
 30 31  2  0
 31 32  1  0
 31 56  1  0
 32 33  2  0
 32 57  1  0
 33 34  1  0
 33 58  1  0
 34 35  2  0
 34 59  1  0
 35 60  1  0
 36 37  1  0
 36 61  1  0
 37 62  1  0
M  CHG  1  13   1
M  END
>  <DOCK_score>  (1) 
-57.237995

>  <SMILES>  (1) 
c1ccc(C(CNc2cc(Nc3[nH]c4ccccc4[nH+]3)c3ccccc3c2)c2ccccc2)cc1

$$$$
