Nc1cccc(Nc2ccccc2-c2ccccc2)c1Nc1[nH]c2ccccc2[nH+]1
     RDKit          3D

 52 56  0  0  0  0  0  0  0  0999 V2000
  125.7933  136.1932  159.4729 N   0  0  0  0  0  0  0  0  0  0  0  0
  126.4461  134.9729  159.2642 C   0  0  0  0  0  0  0  0  0  0  0  0
  125.7255  133.7862  159.2846 C   0  0  0  0  0  0  0  0  0  0  0  0
  126.3699  132.5798  159.0843 C   0  0  0  0  0  0  0  0  0  0  0  0
  127.7320  132.5482  158.8513 C   0  0  0  0  0  0  0  0  0  0  0  0
  128.4616  133.7292  158.8231 C   0  0  0  0  0  0  0  0  0  0  0  0
  129.8406  133.6959  158.5866 N   0  0  0  0  0  0  0  0  0  0  0  0
  130.4832  132.4756  158.3790 C   0  0  0  0  0  0  0  0  0  0  0  0
  130.1042  131.6591  157.3225 C   0  0  0  0  0  0  0  0  0  0  0  0
  130.7460  130.4536  157.1155 C   0  0  0  0  0  0  0  0  0  0  0  0
  131.7618  130.0479  157.9642 C   0  0  0  0  0  0  0  0  0  0  0  0
  132.1449  130.8461  159.0226 C   0  0  0  0  0  0  0  0  0  0  0  0
  131.5096  132.0666  159.2388 C   0  0  0  0  0  0  0  0  0  0  0  0
  131.9187  132.9287  160.3740 C   0  0  0  0  0  0  0  0  0  0  0  0
  133.2289  133.3962  160.4606 C   0  0  0  0  0  0  0  0  0  0  0  0
  133.6026  134.2022  161.5167 C   0  0  0  0  0  0  0  0  0  0  0  0
  132.6833  134.5372  162.4936 C   0  0  0  0  0  0  0  0  0  0  0  0
  131.3823  134.0720  162.4157 C   0  0  0  0  0  0  0  0  0  0  0  0
  130.9959  133.2697  161.3614 C   0  0  0  0  0  0  0  0  0  0  0  0
  127.8183  134.9471  159.0301 C   0  0  0  0  0  0  0  0  0  0  0  0
  128.5510  136.1444  159.0030 N   0  0  0  0  0  0  0  0  0  0  0  0
  128.5831  136.9563  160.1124 C   0  0  0  0  0  0  0  0  0  0  0  0
  129.2487  138.1064  160.1970 N   0  0  0  0  0  0  0  0  0  0  0  0
  129.7842  138.5049  159.4932 H   0  0  0  0  0  0  0  0  0  0  0  0
  129.0465  138.6333  161.4454 C   0  0  0  0  0  0  0  0  0  0  0  0
  129.4818  139.7912  162.0838 C   0  0  0  0  0  0  0  0  0  0  0  0
  129.0984  140.0420  163.3836 C   0  0  0  0  0  0  0  0  0  0  0  0
  128.2808  139.1490  164.0605 C   0  0  0  0  0  0  0  0  0  0  0  0
  127.8404  137.9983  163.4431 C   0  0  0  0  0  0  0  0  0  0  0  0
  128.2185  137.7294  162.1308 C   0  0  0  0  0  0  0  0  0  0  0  0
  127.9579  136.7038  161.2607 N   0  0  0  0  0  0  0  0  0  0  0  0
  127.4105  135.9254  161.4492 H   0  0  0  0  0  0  0  0  0  0  0  0
  126.2703  137.0273  159.3403 H   0  0  0  0  0  0  0  0  0  0  0  0
  124.8638  136.2048  159.7502 H   0  0  0  0  0  0  0  0  0  0  0  0
  124.6604  133.8055  159.4618 H   0  0  0  0  0  0  0  0  0  0  0  0
  125.8061  131.6589  159.1055 H   0  0  0  0  0  0  0  0  0  0  0  0
  128.2297  131.6033  158.6906 H   0  0  0  0  0  0  0  0  0  0  0  0
  130.3494  134.5215  158.5669 H   0  0  0  0  0  0  0  0  0  0  0  0
  129.3098  131.9683  156.6594 H   0  0  0  0  0  0  0  0  0  0  0  0
  130.4516  129.8231  156.2896 H   0  0  0  0  0  0  0  0  0  0  0  0
  132.2548  129.1014  157.7981 H   0  0  0  0  0  0  0  0  0  0  0  0
  132.9371  130.5247  159.6826 H   0  0  0  0  0  0  0  0  0  0  0  0
  133.9492  133.1315  159.7007 H   0  0  0  0  0  0  0  0  0  0  0  0
  134.6166  134.5682  161.5829 H   0  0  0  0  0  0  0  0  0  0  0  0
  132.9808  135.1644  163.3210 H   0  0  0  0  0  0  0  0  0  0  0  0
  130.6681  134.3370  163.1813 H   0  0  0  0  0  0  0  0  0  0  0  0
  129.9804  132.9072  161.3013 H   0  0  0  0  0  0  0  0  0  0  0  0
  129.0347  136.3989  158.2015 H   0  0  0  0  0  0  0  0  0  0  0  0
  130.1180  140.4907  161.5622 H   0  0  0  0  0  0  0  0  0  0  0  0
  129.4368  140.9402  163.8784 H   0  0  0  0  0  0  0  0  0  0  0  0
  127.9867  139.3573  165.0787 H   0  0  0  0  0  0  0  0  0  0  0  0
  127.2037  137.3075  163.9758 H   0  0  0  0  0  0  0  0  0  0  0  0
  1  2  1  0
  1 33  1  0
  1 34  1  0
  2 20  2  0
  2  3  1  0
  3  4  2  0
  3 35  1  0
  4  5  1  0
  4 36  1  0
  5  6  2  0
  5 37  1  0
  6  7  1  0
  6 20  1  0
  7  8  1  0
  7 38  1  0
  8 13  1  0
  8  9  2  0
  9 10  1  0
  9 39  1  0
 10 11  2  0
 10 40  1  0
 11 12  1  0
 11 41  1  0
 12 13  2  0
 12 42  1  0
 13 14  1  0
 14 19  1  0
 14 15  2  0
 15 16  1  0
 15 43  1  0
 16 17  2  0
 16 44  1  0
 17 18  1  0
 17 45  1  0
 18 19  2  0
 18 46  1  0
 19 47  1  0
 20 21  1  0
 21 22  1  0
 21 48  1  0
 22 31  1  0
 22 23  2  0
 23 24  1  0
 23 25  1  0
 25 30  2  0
 25 26  1  0
 26 27  2  0
 26 49  1  0
 27 28  1  0
 27 50  1  0
 28 29  2  0
 28 51  1  0
 29 30  1  0
 29 52  1  0
 30 31  1  0
 31 32  1  0
M  CHG  1  23   1
M  END
>  <DOCK_score>  (1) 
-44.069321

>  <SMILES>  (1) 
Nc1cccc(Nc2ccccc2-c2ccccc2)c1Nc1[nH]c2ccccc2[nH+]1

$$$$
