CCc1ccc(-c2c[nH]c(N[C@H](c3ccccc3)[C@@H]3COC[C@H]3Nc3ccc(O)cc3)[nH+]2)cc1
     RDKit          3D

 65 69  0  0  1  0  0  0  0  0999 V2000
  130.3274  128.3333  151.9562 C   0  0  0  0  0  0  0  0  0  0  0  0
  131.4147  129.3857  152.1805 C   0  0  0  0  0  0  0  0  0  0  0  0
  131.0666  130.2189  153.3871 C   0  0  0  0  0  0  0  0  0  0  0  0
  131.5055  129.8330  154.6405 C   0  0  0  0  0  0  0  0  0  0  0  0
  131.1945  130.5951  155.7482 C   0  0  0  0  0  0  0  0  0  0  0  0
  130.4269  131.7495  155.6035 C   0  0  0  0  0  0  0  0  0  0  0  0
  130.0847  132.5695  156.7912 C   0  0  0  0  0  0  0  0  0  0  0  0
  129.3902  132.1497  157.8777 C   0  0  0  0  0  0  0  0  0  0  0  0
  129.3009  133.2215  158.7323 N   0  0  0  0  0  0  0  0  0  0  0  0
  128.8604  133.2320  159.5965 H   0  0  0  0  0  0  0  0  0  0  0  0
  129.9440  134.2658  158.1426 C   0  0  0  0  0  0  0  0  0  0  0  0
  130.0821  135.5346  158.6791 N   0  0  0  0  0  0  0  0  0  0  0  0
  129.5083  135.8412  159.9918 C   0  0  2  0  0  0  0  0  0  0  0  0
  129.9510  135.1878  160.7434 H   0  0  0  0  0  0  0  0  0  0  0  0
  128.0176  135.6229  159.9517 C   0  0  0  0  0  0  0  0  0  0  0  0
  127.3455  135.2314  161.0945 C   0  0  0  0  0  0  0  0  0  0  0  0
  125.9777  135.0350  161.0587 C   0  0  0  0  0  0  0  0  0  0  0  0
  125.2832  135.2217  159.8781 C   0  0  0  0  0  0  0  0  0  0  0  0
  125.9561  135.6086  158.7342 C   0  0  0  0  0  0  0  0  0  0  0  0
  127.3233  135.8088  158.7709 C   0  0  0  0  0  0  0  0  0  0  0  0
  129.8007  137.3002  160.3480 C   0  0  2  0  0  0  0  0  0  0  0  0
  129.0998  137.9638  159.8416 H   0  0  0  0  0  0  0  0  0  0  0  0
  131.2554  137.6663  159.9792 C   0  0  0  0  0  0  0  0  0  0  0  0
  131.6934  138.5446  161.0419 O   0  0  0  0  0  0  0  0  0  0  0  0
  131.1576  137.9735  162.2555 C   0  0  0  0  0  0  0  0  0  0  0  0
  129.7341  137.5077  161.8775 C   0  0  1  0  0  0  0  0  0  0  0  0
  129.4930  136.5708  162.3800 H   0  0  0  0  0  0  0  0  0  0  0  0
  128.7478  138.5375  162.2135 N   0  0  0  0  0  0  0  0  0  0  0  0
  128.9230  139.3287  163.3544 C   0  0  0  0  0  0  0  0  0  0  0  0
  128.9878  138.7352  164.6080 C   0  0  0  0  0  0  0  0  0  0  0  0
  129.1662  139.5164  165.7330 C   0  0  0  0  0  0  0  0  0  0  0  0
  129.2701  140.8941  165.6118 C   0  0  0  0  0  0  0  0  0  0  0  0
  129.4404  141.6631  166.7205 O   0  0  0  0  0  0  0  0  0  0  0  0
  129.1998  141.4882  164.3604 C   0  0  0  0  0  0  0  0  0  0  0  0
  129.0268  140.7081  163.2339 C   0  0  0  0  0  0  0  0  0  0  0  0
  130.4161  133.8708  156.9854 N   0  0  0  0  0  0  0  0  0  0  0  0
  130.9197  134.4215  156.3658 H   0  0  0  0  0  0  0  0  0  0  0  0
  129.9826  132.1305  154.3387 C   0  0  0  0  0  0  0  0  0  0  0  0
  130.3045  131.3640  153.2372 C   0  0  0  0  0  0  0  0  0  0  0  0
  130.2581  127.6905  152.8336 H   0  0  0  0  0  0  0  0  0  0  0  0
  130.5792  127.7310  151.0833 H   0  0  0  0  0  0  0  0  0  0  0  0
  129.3703  128.8286  151.7921 H   0  0  0  0  0  0  0  0  0  0  0  0
  132.3717  128.8912  152.3441 H   0  0  0  0  0  0  0  0  0  0  0  0
  131.4839  130.0293  151.3026 H   0  0  0  0  0  0  0  0  0  0  0  0
  132.0962  128.9358  154.7520 H   0  0  0  0  0  0  0  0  0  0  0  0
  131.5419  130.2953  156.7259 H   0  0  0  0  0  0  0  0  0  0  0  0
  128.9847  131.1619  158.0398 H   0  0  0  0  0  0  0  0  0  0  0  0
  130.5589  136.2206  158.1860 H   0  0  0  0  0  0  0  0  0  0  0  0
  127.8887  135.0819  162.0159 H   0  0  0  0  0  0  0  0  0  0  0  0
  125.4521  134.7323  161.9523 H   0  0  0  0  0  0  0  0  0  0  0  0
  124.2151  135.0650  159.8494 H   0  0  0  0  0  0  0  0  0  0  0  0
  125.4135  135.7542  157.8118 H   0  0  0  0  0  0  0  0  0  0  0  0
  127.8491  136.1108  157.8771 H   0  0  0  0  0  0  0  0  0  0  0  0
  131.8759  136.7706  159.9480 H   0  0  0  0  0  0  0  0  0  0  0  0
  131.2851  138.1832  159.0200 H   0  0  0  0  0  0  0  0  0  0  0  0
  131.1142  138.7268  163.0421 H   0  0  0  0  0  0  0  0  0  0  0  0
  131.7619  137.1252  162.5767 H   0  0  0  0  0  0  0  0  0  0  0  0
  127.9732  138.6710  161.6450 H   0  0  0  0  0  0  0  0  0  0  0  0
  128.9027  137.6628  164.7030 H   0  0  0  0  0  0  0  0  0  0  0  0
  129.2208  139.0546  166.7077 H   0  0  0  0  0  0  0  0  0  0  0  0
  129.4771  141.1606  167.5459 H   0  0  0  0  0  0  0  0  0  0  0  0
  129.2808  142.5611  164.2668 H   0  0  0  0  0  0  0  0  0  0  0  0
  128.9717  141.1709  162.2596 H   0  0  0  0  0  0  0  0  0  0  0  0
  129.3878  133.0243  154.2208 H   0  0  0  0  0  0  0  0  0  0  0  0
  129.9608  131.6584  152.2566 H   0  0  0  0  0  0  0  0  0  0  0  0
  1  2  1  0
  1 40  1  0
  1 41  1  0
  1 42  1  0
  2  3  1  0
  2 43  1  0
  2 44  1  0
  3 39  2  0
  3  4  1  0
  4  5  2  0
  4 45  1  0
  5  6  1  0
  5 46  1  0
  6  7  1  0
  6 38  2  0
  7 36  1  0
  7  8  2  0
  8  9  1  0
  8 47  1  0
  9 10  1  0
  9 11  1  0
 11 12  1  0
 11 36  2  0
 12 13  1  0
 12 48  1  0
 13 14  1  1
 13 15  1  0
 13 21  1  0
 15 20  1  0
 15 16  2  0
 16 17  1  0
 16 49  1  0
 17 18  2  0
 17 50  1  0
 18 19  1  0
 18 51  1  0
 19 20  2  0
 19 52  1  0
 20 53  1  0
 21 22  1  6
 21 26  1  0
 21 23  1  0
 23 24  1  0
 23 54  1  0
 23 55  1  0
 24 25  1  0
 25 26  1  0
 25 56  1  0
 25 57  1  0
 26 27  1  1
 26 28  1  0
 28 29  1  0
 28 58  1  0
 29 35  1  0
 29 30  2  0
 30 31  1  0
 30 59  1  0
 31 32  2  0
 31 60  1  0
 32 33  1  0
 32 34  1  0
 33 61  1  0
 34 35  2  0
 34 62  1  0
 35 63  1  0
 36 37  1  0
 38 39  1  0
 38 64  1  0
 39 65  1  0
M  CHG  1  36   1
M  END
>  <DOCK_score>  (1) 
-60.776031

>  <SMILES>  (1) 
CCc1ccc(-c2c[nH]c(N[C@H](c3ccccc3)[C@@H]3COC[C@H]3Nc3ccc(O)cc3)[nH+]2)cc1

$$$$
