CCc1ccc(-c2c[nH]c(N[C@@H](C=CC(C)C)c3ccnn3C)[nH+]2)cc1
     RDKit          3D

 54 56  0  0  1  0  0  0  0  0999 V2000
  130.4502  128.3179  151.6404 C   0  0  0  0  0  0  0  0  0  0  0  0
  131.5271  129.3683  151.9187 C   0  0  0  0  0  0  0  0  0  0  0  0
  131.1781  130.1253  153.1741 C   0  0  0  0  0  0  0  0  0  0  0  0
  131.6303  129.6724  154.3999 C   0  0  0  0  0  0  0  0  0  0  0  0
  131.3177  130.3643  155.5524 C   0  0  0  0  0  0  0  0  0  0  0  0
  130.5358  131.5159  155.4804 C   0  0  0  0  0  0  0  0  0  0  0  0
  130.1924  132.2609  156.7161 C   0  0  0  0  0  0  0  0  0  0  0  0
  129.5105  131.7699  157.7805 C   0  0  0  0  0  0  0  0  0  0  0  0
  129.4154  132.7885  158.6974 N   0  0  0  0  0  0  0  0  0  0  0  0
  128.9811  132.7431  159.5636 H   0  0  0  0  0  0  0  0  0  0  0  0
  130.0426  133.8731  158.1660 C   0  0  0  0  0  0  0  0  0  0  0  0
  130.1699  135.1097  158.7751 N   0  0  0  0  0  0  0  0  0  0  0  0
  129.1409  135.5762  159.7076 C   0  0  1  0  0  0  0  0  0  0  0  0
  129.0629  134.8788  160.5416 H   0  0  0  0  0  0  0  0  0  0  0  0
  129.5151  136.9406  160.2272 C   0  0  0  0  0  0  0  0  0  0  0  0
  130.6363  137.1063  160.8843 C   0  0  0  0  0  0  0  0  0  0  0  0
  131.0106  138.4705  161.4038 C   0  0  0  0  0  0  0  0  0  0  0  0
  131.1546  138.4147  162.9260 C   0  0  0  0  0  0  0  0  0  0  0  0
  132.3386  138.9064  160.7815 C   0  0  0  0  0  0  0  0  0  0  0  0
  127.8157  135.6565  158.9943 C   0  0  0  0  0  0  0  0  0  0  0  0
  127.6321  135.9142  157.6787 C   0  0  0  0  0  0  0  0  0  0  0  0
  126.2568  135.8982  157.4248 C   0  0  0  0  0  0  0  0  0  0  0  0
  125.6370  135.6401  158.5476 N   0  0  0  0  0  0  0  0  0  0  0  0
  126.5998  135.4786  159.5521 N   0  0  0  0  0  0  0  0  0  0  0  0
  126.3338  135.1734  160.9601 C   0  0  0  0  0  0  0  0  0  0  0  0
  130.5099  133.5524  156.9841 N   0  0  0  0  0  0  0  0  0  0  0  0
  131.0026  134.1445  156.3945 H   0  0  0  0  0  0  0  0  0  0  0  0
  130.0785  131.9650  154.2429 C   0  0  0  0  0  0  0  0  0  0  0  0
  130.4016  131.2681  153.0964 C   0  0  0  0  0  0  0  0  0  0  0  0
  130.3946  127.6242  152.4793 H   0  0  0  0  0  0  0  0  0  0  0  0
  129.4866  128.8104  151.5116 H   0  0  0  0  0  0  0  0  0  0  0  0
  130.7029  127.7704  150.7323 H   0  0  0  0  0  0  0  0  0  0  0  0
  132.4908  128.8763  152.0472 H   0  0  0  0  0  0  0  0  0  0  0  0
  131.5827  130.0627  151.0794 H   0  0  0  0  0  0  0  0  0  0  0  0
  132.2324  128.7775  154.4550 H   0  0  0  0  0  0  0  0  0  0  0  0
  131.6753  130.0120  156.5088 H   0  0  0  0  0  0  0  0  0  0  0  0
  129.1171  130.7697  157.8869 H   0  0  0  0  0  0  0  0  0  0  0  0
  130.9404  135.6672  158.5845 H   0  0  0  0  0  0  0  0  0  0  0  0
  128.8591  137.7816  160.0579 H   0  0  0  0  0  0  0  0  0  0  0  0
  131.2923  136.2653  161.0536 H   0  0  0  0  0  0  0  0  0  0  0  0
  130.2326  139.1863  161.1384 H   0  0  0  0  0  0  0  0  0  0  0  0
  131.9325  137.6987  163.1912 H   0  0  0  0  0  0  0  0  0  0  0  0
  131.4253  139.4014  163.3017 H   0  0  0  0  0  0  0  0  0  0  0  0
  130.2084  138.1040  163.3692 H   0  0  0  0  0  0  0  0  0  0  0  0
  132.6093  139.8931  161.1572 H   0  0  0  0  0  0  0  0  0  0  0  0
  133.1165  138.1905  161.0468 H   0  0  0  0  0  0  0  0  0  0  0  0
  132.2359  138.9462  159.6971 H   0  0  0  0  0  0  0  0  0  0  0  0
  128.4102  136.0999  156.9530 H   0  0  0  0  0  0  0  0  0  0  0  0
  125.7876  136.0697  156.4673 H   0  0  0  0  0  0  0  0  0  0  0  0
  126.2162  136.1029  161.5172 H   0  0  0  0  0  0  0  0  0  0  0  0
  125.4197  134.5850  161.0378 H   0  0  0  0  0  0  0  0  0  0  0  0
  127.1677  134.6055  161.3726 H   0  0  0  0  0  0  0  0  0  0  0  0
  129.4720  132.8565  154.1812 H   0  0  0  0  0  0  0  0  0  0  0  0
  130.0474  131.6149  152.1369 H   0  0  0  0  0  0  0  0  0  0  0  0
  1  2  1  0
  1 30  1  0
  1 31  1  0
  1 32  1  0
  2  3  1  0
  2 33  1  0
  2 34  1  0
  3 29  2  0
  3  4  1  0
  4  5  2  0
  4 35  1  0
  5  6  1  0
  5 36  1  0
  6  7  1  0
  6 28  2  0
  7 26  1  0
  7  8  2  0
  8  9  1  0
  8 37  1  0
  9 10  1  0
  9 11  1  0
 11 12  1  0
 11 26  2  0
 12 13  1  0
 12 38  1  0
 13 14  1  1
 13 15  1  0
 13 20  1  0
 15 16  2  0
 15 39  1  0
 16 17  1  0
 16 40  1  0
 17 18  1  0
 17 19  1  0
 17 41  1  0
 18 42  1  0
 18 43  1  0
 18 44  1  0
 19 45  1  0
 19 46  1  0
 19 47  1  0
 20 24  1  0
 20 21  2  0
 21 22  1  0
 21 48  1  0
 22 23  2  0
 22 49  1  0
 23 24  1  0
 24 25  1  0
 25 50  1  0
 25 51  1  0
 25 52  1  0
 26 27  1  0
 28 29  1  0
 28 53  1  0
 29 54  1  0
M  CHG  1  26   1
M  END
>  <DOCK_score>  (1) 
-58.018375

>  <SMILES>  (1) 
CCc1ccc(-c2c[nH]c(N[C@@H](C=CC(C)C)c3ccnn3C)[nH+]2)cc1

$$$$
