Cc1cccc(N2CC[NH+](C(c3ccccc3)c3ccccc3)CC2)c1NC1C[C@@H](C)[C@H](C)C1
     RDKit          3D

 74 78  0  0  1  0  0  0  0  0999 V2000
  135.8755  141.1179  162.5591 C   0  0  0  0  0  0  0  0  0  0  0  0
  135.2547  140.3760  161.4036 C   0  0  0  0  0  0  0  0  0  0  0  0
  135.6662  140.6413  160.1101 C   0  0  0  0  0  0  0  0  0  0  0  0
  135.0995  139.9633  159.0475 C   0  0  0  0  0  0  0  0  0  0  0  0
  134.1176  139.0152  159.2713 C   0  0  0  0  0  0  0  0  0  0  0  0
  133.7032  138.7388  160.5650 C   0  0  0  0  0  0  0  0  0  0  0  0
  132.7135  137.7753  160.7944 N   0  0  0  0  0  0  0  0  0  0  0  0
  133.1687  136.4423  160.3750 C   0  0  0  0  0  0  0  0  0  0  0  0
  132.0844  135.4116  160.6966 C   0  0  0  0  0  0  0  0  0  0  0  0
  130.8454  135.7684  159.9930 N   0  0  0  0  0  0  0  0  0  0  0  0
  131.0176  135.7907  158.9991 H   0  0  0  0  0  0  0  0  0  0  0  0
  129.8102  134.7688  160.2881 C   0  0  0  0  0  0  0  0  0  0  0  0
  128.5387  135.1343  159.5665 C   0  0  0  0  0  0  0  0  0  0  0  0
  127.3141  134.7817  160.1023 C   0  0  0  0  0  0  0  0  0  0  0  0
  126.1476  135.1212  159.4429 C   0  0  0  0  0  0  0  0  0  0  0  0
  126.2056  135.8044  158.2431 C   0  0  0  0  0  0  0  0  0  0  0  0
  127.4306  136.1522  157.7041 C   0  0  0  0  0  0  0  0  0  0  0  0
  128.5970  135.8174  158.3661 C   0  0  0  0  0  0  0  0  0  0  0  0
  130.2767  133.4117  159.8277 C   0  0  0  0  0  0  0  0  0  0  0  0
  129.8535  132.2742  160.4894 C   0  0  0  0  0  0  0  0  0  0  0  0
  130.2776  131.0292  160.0642 C   0  0  0  0  0  0  0  0  0  0  0  0
  131.1331  130.9222  158.9836 C   0  0  0  0  0  0  0  0  0  0  0  0
  131.5604  132.0601  158.3250 C   0  0  0  0  0  0  0  0  0  0  0  0
  131.1322  133.3049  158.7471 C   0  0  0  0  0  0  0  0  0  0  0  0
  130.3899  137.0913  160.4404 C   0  0  0  0  0  0  0  0  0  0  0  0
  131.4602  138.1359  160.1168 C   0  0  0  0  0  0  0  0  0  0  0  0
  134.2713  139.4273  161.6372 C   0  0  0  0  0  0  0  0  0  0  0  0
  133.8533  139.1568  162.9459 N   0  0  0  0  0  0  0  0  0  0  0  0
  134.9732  138.6795  163.7681 C   0  0  0  0  0  0  0  0  0  0  0  0
  134.4743  138.2617  165.1736 C   0  0  0  0  0  0  0  0  0  0  0  0
  135.5658  137.2704  165.6478 C   0  0  1  0  0  0  0  0  0  0  0  0
  136.4299  137.8108  166.0344 H   0  0  0  0  0  0  0  0  0  0  0  0
  135.0045  136.3244  166.7113 C   0  0  0  0  0  0  0  0  0  0  0  0
  135.9462  136.4899  164.3703 C   0  0  2  0  0  0  0  0  0  0  0  0
  135.3888  135.5541  164.3274 H   0  0  0  0  0  0  0  0  0  0  0  0
  137.4493  136.2052  164.3552 C   0  0  0  0  0  0  0  0  0  0  0  0
  135.5671  137.3843  163.1769 C   0  0  0  0  0  0  0  0  0  0  0  0
  136.7936  140.6148  162.8626 H   0  0  0  0  0  0  0  0  0  0  0  0
  136.1045  142.1389  162.2543 H   0  0  0  0  0  0  0  0  0  0  0  0
  135.1776  141.1363  163.3962 H   0  0  0  0  0  0  0  0  0  0  0  0
  136.4325  141.3807  159.9300 H   0  0  0  0  0  0  0  0  0  0  0  0
  135.4239  140.1747  158.0393 H   0  0  0  0  0  0  0  0  0  0  0  0
  133.6769  138.4872  158.4387 H   0  0  0  0  0  0  0  0  0  0  0  0
  133.3615  136.4448  159.3021 H   0  0  0  0  0  0  0  0  0  0  0  0
  134.0840  136.1861  160.9086 H   0  0  0  0  0  0  0  0  0  0  0  0
  131.9016  135.3998  161.7711 H   0  0  0  0  0  0  0  0  0  0  0  0
  132.4143  134.4243  160.3732 H   0  0  0  0  0  0  0  0  0  0  0  0
  129.6244  134.7442  161.3618 H   0  0  0  0  0  0  0  0  0  0  0  0
  127.2687  134.2441  161.0379 H   0  0  0  0  0  0  0  0  0  0  0  0
  125.1908  134.8489  159.8632 H   0  0  0  0  0  0  0  0  0  0  0  0
  125.2947  136.0656  157.7250 H   0  0  0  0  0  0  0  0  0  0  0  0
  127.4762  136.6856  156.7661 H   0  0  0  0  0  0  0  0  0  0  0  0
  129.5539  136.0891  157.9454 H   0  0  0  0  0  0  0  0  0  0  0  0
  129.1887  132.3580  161.3364 H   0  0  0  0  0  0  0  0  0  0  0  0
  129.9441  130.1402  160.5789 H   0  0  0  0  0  0  0  0  0  0  0  0
  131.4678  129.9498  158.6541 H   0  0  0  0  0  0  0  0  0  0  0  0
  132.2290  131.9766  157.4811 H   0  0  0  0  0  0  0  0  0  0  0  0
  131.4663  134.1939  158.2328 H   0  0  0  0  0  0  0  0  0  0  0  0
  130.2157  137.0709  161.5163 H   0  0  0  0  0  0  0  0  0  0  0  0
  129.4635  137.3492  159.9274 H   0  0  0  0  0  0  0  0  0  0  0  0
  131.1287  139.1152  160.4620 H   0  0  0  0  0  0  0  0  0  0  0  0
  131.6248  138.1667  159.0397 H   0  0  0  0  0  0  0  0  0  0  0  0
  133.0918  138.4948  162.9527 H   0  0  0  0  0  0  0  0  0  0  0  0
  135.7409  139.4490  163.8489 H   0  0  0  0  0  0  0  0  0  0  0  0
  134.4216  139.1248  165.8372 H   0  0  0  0  0  0  0  0  0  0  0  0
  133.5052  137.7669  165.1082 H   0  0  0  0  0  0  0  0  0  0  0  0
  134.1552  135.7787  166.3004 H   0  0  0  0  0  0  0  0  0  0  0  0
  135.7779  135.6185  167.0142 H   0  0  0  0  0  0  0  0  0  0  0  0
  134.6807  136.9023  167.5771 H   0  0  0  0  0  0  0  0  0  0  0  0
  137.9978  137.1462  164.3972 H   0  0  0  0  0  0  0  0  0  0  0  0
  137.7117  135.5929  165.2180 H   0  0  0  0  0  0  0  0  0  0  0  0
  137.7093  135.6736  163.4399 H   0  0  0  0  0  0  0  0  0  0  0  0
  134.8251  136.8829  162.5555 H   0  0  0  0  0  0  0  0  0  0  0  0
  136.4537  137.6156  162.5864 H   0  0  0  0  0  0  0  0  0  0  0  0
  1  2  1  0
  1 38  1  0
  1 39  1  0
  1 40  1  0
  2 27  2  0
  2  3  1  0
  3  4  2  0
  3 41  1  0
  4  5  1  0
  4 42  1  0
  5  6  2  0
  5 43  1  0
  6  7  1  0
  6 27  1  0
  7 26  1  0
  7  8  1  0
  8  9  1  0
  8 44  1  0
  8 45  1  0
  9 10  1  0
  9 46  1  0
  9 47  1  0
 10 11  1  0
 10 12  1  0
 10 25  1  0
 12 13  1  0
 12 19  1  0
 12 48  1  0
 13 18  1  0
 13 14  2  0
 14 15  1  0
 14 49  1  0
 15 16  2  0
 15 50  1  0
 16 17  1  0
 16 51  1  0
 17 18  2  0
 17 52  1  0
 18 53  1  0
 19 24  1  0
 19 20  2  0
 20 21  1  0
 20 54  1  0
 21 22  2  0
 21 55  1  0
 22 23  1  0
 22 56  1  0
 23 24  2  0
 23 57  1  0
 24 58  1  0
 25 26  1  0
 25 59  1  0
 25 60  1  0
 26 61  1  0
 26 62  1  0
 27 28  1  0
 28 29  1  0
 28 63  1  0
 29 37  1  0
 29 30  1  0
 29 64  1  0
 30 31  1  0
 30 65  1  0
 30 66  1  0
 31 32  1  1
 31 33  1  0
 31 34  1  0
 33 67  1  0
 33 68  1  0
 33 69  1  0
 34 35  1  6
 34 36  1  0
 34 37  1  0
 36 70  1  0
 36 71  1  0
 36 72  1  0
 37 73  1  0
 37 74  1  0
M  CHG  1  10   1
M  END
>  <DOCK_score>  (1) 
-56.14323

>  <SMILES>  (1) 
Cc1cccc(N2CC[NH+](C(c3ccccc3)c3ccccc3)CC2)c1NC1C[C@@H](C)[C@H](C)C1

$$$$
