Nc1ccc(-c2c[nH]c(N[C@H](C=CCc3ccccc3)c3ccc(N)cc3)[nH+]2)cc1
     RDKit          3D

 56 59  0  0  1  0  0  0  0  0999 V2000
  131.2074  129.4318  152.0363 N   0  0  0  0  0  0  0  0  0  0  0  0
  130.9796  130.1337  153.2224 C   0  0  0  0  0  0  0  0  0  0  0  0
  130.1201  131.2258  153.2281 C   0  0  0  0  0  0  0  0  0  0  0  0
  129.8937  131.9202  154.3977 C   0  0  0  0  0  0  0  0  0  0  0  0
  130.5276  131.5260  155.5750 C   0  0  0  0  0  0  0  0  0  0  0  0
  130.2856  132.2714  156.8346 C   0  0  0  0  0  0  0  0  0  0  0  0
  129.7690  131.7585  157.9785 C   0  0  0  0  0  0  0  0  0  0  0  0
  129.7116  132.7888  158.8871 N   0  0  0  0  0  0  0  0  0  0  0  0
  129.3837  132.7337  159.7983 H   0  0  0  0  0  0  0  0  0  0  0  0
  130.1998  133.8999  158.2718 C   0  0  0  0  0  0  0  0  0  0  0  0
  130.3141  135.1547  158.8452 N   0  0  0  0  0  0  0  0  0  0  0  0
  129.8896  135.3682  160.2310 C   0  0  2  0  0  0  0  0  0  0  0  0
  130.1856  134.5123  160.8376 H   0  0  0  0  0  0  0  0  0  0  0  0
  128.3916  135.5243  160.2791 C   0  0  0  0  0  0  0  0  0  0  0  0
  127.6905  135.4582  159.1745 C   0  0  0  0  0  0  0  0  0  0  0  0
  126.1923  135.6142  159.2227 C   0  0  0  0  0  0  0  0  0  0  0  0
  125.6025  134.5348  160.0934 C   0  0  0  0  0  0  0  0  0  0  0  0
  125.2220  133.3282  159.5362 C   0  0  0  0  0  0  0  0  0  0  0  0
  124.6856  132.3363  160.3357 C   0  0  0  0  0  0  0  0  0  0  0  0
  124.5200  132.5547  161.6907 C   0  0  0  0  0  0  0  0  0  0  0  0
  124.8956  133.7632  162.2469 C   0  0  0  0  0  0  0  0  0  0  0  0
  125.4370  134.7531  161.4483 C   0  0  0  0  0  0  0  0  0  0  0  0
  130.5423  136.6153  160.7697 C   0  0  0  0  0  0  0  0  0  0  0  0
  130.3125  137.8336  160.1574 C   0  0  0  0  0  0  0  0  0  0  0  0
  130.9043  138.9792  160.6520 C   0  0  0  0  0  0  0  0  0  0  0  0
  131.7403  138.9050  161.7589 C   0  0  0  0  0  0  0  0  0  0  0  0
  132.3447  140.0607  162.2585 N   0  0  0  0  0  0  0  0  0  0  0  0
  131.9734  137.6784  162.3681 C   0  0  0  0  0  0  0  0  0  0  0  0
  131.3738  136.5376  161.8719 C   0  0  0  0  0  0  0  0  0  0  0  0
  130.5446  133.5860  157.0466 N   0  0  0  0  0  0  0  0  0  0  0  0
  130.9210  134.1973  156.3943 H   0  0  0  0  0  0  0  0  0  0  0  0
  131.3938  130.4339  155.5657 C   0  0  0  0  0  0  0  0  0  0  0  0
  131.6126  129.7386  154.3951 C   0  0  0  0  0  0  0  0  0  0  0  0
  130.7662  129.7066  151.2175 H   0  0  0  0  0  0  0  0  0  0  0  0
  131.8075  128.6694  152.0315 H   0  0  0  0  0  0  0  0  0  0  0  0
  129.6295  131.5310  152.3157 H   0  0  0  0  0  0  0  0  0  0  0  0
  129.2253  132.7686  154.4017 H   0  0  0  0  0  0  0  0  0  0  0  0
  129.4581  130.7373  158.1430 H   0  0  0  0  0  0  0  0  0  0  0  0
  130.6752  135.8926  158.3295 H   0  0  0  0  0  0  0  0  0  0  0  0
  127.8960  135.6904  161.2243 H   0  0  0  0  0  0  0  0  0  0  0  0
  128.1859  135.2920  158.2294 H   0  0  0  0  0  0  0  0  0  0  0  0
  125.9417  136.5914  159.6356 H   0  0  0  0  0  0  0  0  0  0  0  0
  125.7857  135.5305  158.2149 H   0  0  0  0  0  0  0  0  0  0  0  0
  125.3473  133.1593  158.4769 H   0  0  0  0  0  0  0  0  0  0  0  0
  124.3916  131.3923  159.9010 H   0  0  0  0  0  0  0  0  0  0  0  0
  124.0967  131.7813  162.3145 H   0  0  0  0  0  0  0  0  0  0  0  0
  124.7660  133.9338  163.3054 H   0  0  0  0  0  0  0  0  0  0  0  0
  125.7301  135.6973  161.8829 H   0  0  0  0  0  0  0  0  0  0  0  0
  129.6662  137.8901  159.2939 H   0  0  0  0  0  0  0  0  0  0  0  0
  130.7210  139.9312  160.1759 H   0  0  0  0  0  0  0  0  0  0  0  0
  132.9279  140.0077  163.0317 H   0  0  0  0  0  0  0  0  0  0  0  0
  132.1812  140.9167  161.8323 H   0  0  0  0  0  0  0  0  0  0  0  0
  132.6230  137.6171  163.2288 H   0  0  0  0  0  0  0  0  0  0  0  0
  131.5544  135.5839  162.3453 H   0  0  0  0  0  0  0  0  0  0  0  0
  131.8898  130.1295  156.4756 H   0  0  0  0  0  0  0  0  0  0  0  0
  132.2798  128.8894  154.3884 H   0  0  0  0  0  0  0  0  0  0  0  0
  1  2  1  0
  1 34  1  0
  1 35  1  0
  2 33  2  0
  2  3  1  0
  3  4  2  0
  3 36  1  0
  4  5  1  0
  4 37  1  0
  5  6  1  0
  5 32  2  0
  6 30  1  0
  6  7  2  0
  7  8  1  0
  7 38  1  0
  8  9  1  0
  8 10  1  0
 10 11  1  0
 10 30  2  0
 11 12  1  0
 11 39  1  0
 12 13  1  1
 12 14  1  0
 12 23  1  0
 14 15  2  0
 14 40  1  0
 15 16  1  0
 15 41  1  0
 16 17  1  0
 16 42  1  0
 16 43  1  0
 17 22  1  0
 17 18  2  0
 18 19  1  0
 18 44  1  0
 19 20  2  0
 19 45  1  0
 20 21  1  0
 20 46  1  0
 21 22  2  0
 21 47  1  0
 22 48  1  0
 23 29  1  0
 23 24  2  0
 24 25  1  0
 24 49  1  0
 25 26  2  0
 25 50  1  0
 26 27  1  0
 26 28  1  0
 27 51  1  0
 27 52  1  0
 28 29  2  0
 28 53  1  0
 29 54  1  0
 30 31  1  0
 32 33  1  0
 32 55  1  0
 33 56  1  0
M  CHG  1  30   1
M  END
>  <DOCK_score>  (1) 
-62.050072

>  <SMILES>  (1) 
Nc1ccc(-c2c[nH]c(N[C@H](C=CCc3ccccc3)c3ccc(N)cc3)[nH+]2)cc1

$$$$
