Nc1ccc(-c2c[nH]c(N[C@H](c3ccc(F)cc3)c3cccs3)[nH+]2)cc1
     RDKit          3D

 44 47  0  0  1  0  0  0  0  0999 V2000
  131.8090  129.5096  152.1539 N   0  0  0  0  0  0  0  0  0  0  0  0
  131.4298  130.1898  153.3136 C   0  0  0  0  0  0  0  0  0  0  0  0
  130.6505  131.3369  153.2216 C   0  0  0  0  0  0  0  0  0  0  0  0
  130.2749  132.0098  154.3651 C   0  0  0  0  0  0  0  0  0  0  0  0
  130.6775  131.5390  155.6139 C   0  0  0  0  0  0  0  0  0  0  0  0
  130.2746  132.2612  156.8454 C   0  0  0  0  0  0  0  0  0  0  0  0
  129.5433  131.7507  157.8667 C   0  0  0  0  0  0  0  0  0  0  0  0
  129.3984  132.7551  158.7943 N   0  0  0  0  0  0  0  0  0  0  0  0
  128.9200  132.6952  159.6360 H   0  0  0  0  0  0  0  0  0  0  0  0
  130.0502  133.8484  158.3136 C   0  0  0  0  0  0  0  0  0  0  0  0
  130.1442  135.0751  158.9483 N   0  0  0  0  0  0  0  0  0  0  0  0
  129.0679  135.5257  159.8342 C   0  0  2  0  0  0  0  0  0  0  0  0
  128.9483  134.8147  160.6517 H   0  0  0  0  0  0  0  0  0  0  0  0
  127.7811  135.6168  159.0553 C   0  0  0  0  0  0  0  0  0  0  0  0
  126.5725  135.3999  159.6903 C   0  0  0  0  0  0  0  0  0  0  0  0
  125.3914  135.4885  158.9781 C   0  0  0  0  0  0  0  0  0  0  0  0
  125.4197  135.7840  157.6256 C   0  0  0  0  0  0  0  0  0  0  0  0
  124.2660  135.8655  156.9273 F   0  0  0  0  0  0  0  0  0  0  0  0
  126.6312  135.9954  156.9894 C   0  0  0  0  0  0  0  0  0  0  0  0
  127.8105  135.9113  157.7049 C   0  0  0  0  0  0  0  0  0  0  0  0
  129.4131  136.8816  160.3944 C   0  0  0  0  0  0  0  0  0  0  0  0
  129.0257  137.3434  161.5842 C   0  0  0  0  0  0  0  0  0  0  0  0
  129.4678  138.6198  161.8868 C   0  0  0  0  0  0  0  0  0  0  0  0
  130.2067  139.1979  160.9388 C   0  0  0  0  0  0  0  0  0  0  0  0
  130.3819  138.1002  159.5758 S   0  0  0  0  0  0  0  0  0  0  0  0
  130.5751  133.5485  157.1503 N   0  0  0  0  0  0  0  0  0  0  0  0
  131.0922  134.1521  156.5944 H   0  0  0  0  0  0  0  0  0  0  0  0
  131.4640  130.3916  155.7033 C   0  0  0  0  0  0  0  0  0  0  0  0
  131.8322  129.7182  154.5576 C   0  0  0  0  0  0  0  0  0  0  0  0
  131.5288  129.8379  151.2853 H   0  0  0  0  0  0  0  0  0  0  0  0
  132.3533  128.7090  152.2172 H   0  0  0  0  0  0  0  0  0  0  0  0
  130.3391  131.7014  152.2540 H   0  0  0  0  0  0  0  0  0  0  0  0
  129.6689  132.9009  154.2932 H   0  0  0  0  0  0  0  0  0  0  0  0
  129.1469  130.7484  157.9361 H   0  0  0  0  0  0  0  0  0  0  0  0
  130.9225  135.6362  158.8067 H   0  0  0  0  0  0  0  0  0  0  0  0
  126.5509  135.1652  160.7441 H   0  0  0  0  0  0  0  0  0  0  0  0
  124.4470  135.3238  159.4753 H   0  0  0  0  0  0  0  0  0  0  0  0
  126.6545  136.2255  155.9345 H   0  0  0  0  0  0  0  0  0  0  0  0
  128.7557  136.0761  157.2088 H   0  0  0  0  0  0  0  0  0  0  0  0
  128.4155  136.7642  162.2616 H   0  0  0  0  0  0  0  0  0  0  0  0
  129.2293  139.1115  162.8182 H   0  0  0  0  0  0  0  0  0  0  0  0
  130.6322  140.1888  160.9987 H   0  0  0  0  0  0  0  0  0  0  0  0
  131.7810  130.0276  156.6694 H   0  0  0  0  0  0  0  0  0  0  0  0
  132.4374  128.8264  154.6267 H   0  0  0  0  0  0  0  0  0  0  0  0
  1  2  1  0
  1 30  1  0
  1 31  1  0
  2 29  2  0
  2  3  1  0
  3  4  2  0
  3 32  1  0
  4  5  1  0
  4 33  1  0
  5  6  1  0
  5 28  2  0
  6 26  1  0
  6  7  2  0
  7  8  1  0
  7 34  1  0
  8  9  1  0
  8 10  1  0
 10 11  1  0
 10 26  2  0
 11 12  1  0
 11 35  1  0
 12 13  1  1
 12 14  1  0
 12 21  1  0
 14 20  1  0
 14 15  2  0
 15 16  1  0
 15 36  1  0
 16 17  2  0
 16 37  1  0
 17 18  1  0
 17 19  1  0
 19 20  2  0
 19 38  1  0
 20 39  1  0
 21 25  1  0
 21 22  2  0
 22 23  1  0
 22 40  1  0
 23 24  2  0
 23 41  1  0
 24 25  1  0
 24 42  1  0
 26 27  1  0
 28 29  1  0
 28 43  1  0
 29 44  1  0
M  CHG  1  26   1
M  END
>  <DOCK_score>  (1) 
-61.81374

>  <SMILES>  (1) 
Nc1ccc(-c2c[nH]c(N[C@H](c3ccc(F)cc3)c3cccs3)[nH+]2)cc1

$$$$
