Nc1ccccc1NC[C@H](Nc1[nH]cc(C=Cc2ccccc2)[nH+]1)c1ccccc1
     RDKit          3D

 56 59  0  0  1  0  0  0  0  0999 V2000
  134.2034  137.5126  159.4732 N   0  0  0  0  0  0  0  0  0  0  0  0
  133.5244  138.5331  160.1500 C   0  0  0  0  0  0  0  0  0  0  0  0
  134.1601  139.7377  160.4100 C   0  0  0  0  0  0  0  0  0  0  0  0
  133.4876  140.7440  161.0784 C   0  0  0  0  0  0  0  0  0  0  0  0
  132.1813  140.5538  161.4889 C   0  0  0  0  0  0  0  0  0  0  0  0
  131.5397  139.3559  161.2337 C   0  0  0  0  0  0  0  0  0  0  0  0
  132.2085  138.3389  160.5695 C   0  0  0  0  0  0  0  0  0  0  0  0
  131.5629  137.1227  160.3156 N   0  0  0  0  0  0  0  0  0  0  0  0
  130.1806  136.9209  160.7573 C   0  0  0  0  0  0  0  0  0  0  0  0
  129.7172  135.5186  160.3579 C   0  0  2  0  0  0  0  0  0  0  0  0
  130.1018  134.7915  161.0732 H   0  0  0  0  0  0  0  0  0  0  0  0
  130.2207  135.2005  159.0195 N   0  0  0  0  0  0  0  0  0  0  0  0
  129.9278  133.9771  158.4427 C   0  0  0  0  0  0  0  0  0  0  0  0
  129.1901  132.9871  159.0170 N   0  0  0  0  0  0  0  0  0  0  0  0
  128.7798  133.0131  159.8956 H   0  0  0  0  0  0  0  0  0  0  0  0
  129.1318  131.9469  158.1243 C   0  0  0  0  0  0  0  0  0  0  0  0
  129.8443  132.3276  157.0285 C   0  0  0  0  0  0  0  0  0  0  0  0
  130.0616  131.5253  155.8127 C   0  0  0  0  0  0  0  0  0  0  0  0
  130.2230  132.1342  154.6261 C   0  0  0  0  0  0  0  0  0  0  0  0
  130.4403  131.3316  153.4096 C   0  0  0  0  0  0  0  0  0  0  0  0
  130.8913  130.0126  153.5100 C   0  0  0  0  0  0  0  0  0  0  0  0
  131.0880  129.2661  152.3671 C   0  0  0  0  0  0  0  0  0  0  0  0
  130.8501  129.8233  151.1230 C   0  0  0  0  0  0  0  0  0  0  0  0
  130.4085  131.1302  151.0155 C   0  0  0  0  0  0  0  0  0  0  0  0
  130.2022  131.8875  152.1497 C   0  0  0  0  0  0  0  0  0  0  0  0
  130.3196  133.5802  157.2573 N   0  0  0  0  0  0  0  0  0  0  0  0
  130.8623  134.0972  156.6416 H   0  0  0  0  0  0  0  0  0  0  0  0
  128.2110  135.4699  160.3529 C   0  0  0  0  0  0  0  0  0  0  0  0
  127.5272  135.1120  161.4996 C   0  0  0  0  0  0  0  0  0  0  0  0
  126.1453  135.0711  161.4960 C   0  0  0  0  0  0  0  0  0  0  0  0
  125.4478  135.3800  160.3433 C   0  0  0  0  0  0  0  0  0  0  0  0
  126.1318  135.7326  159.1950 C   0  0  0  0  0  0  0  0  0  0  0  0
  127.5133  135.7775  159.1996 C   0  0  0  0  0  0  0  0  0  0  0  0
  135.1199  137.6477  159.1855 H   0  0  0  0  0  0  0  0  0  0  0  0
  133.7574  136.6705  159.2920 H   0  0  0  0  0  0  0  0  0  0  0  0
  135.1806  139.8897  160.0907 H   0  0  0  0  0  0  0  0  0  0  0  0
  133.9842  141.6817  161.2801 H   0  0  0  0  0  0  0  0  0  0  0  0
  131.6602  141.3432  162.0100 H   0  0  0  0  0  0  0  0  0  0  0  0
  130.5191  139.2106  161.5559 H   0  0  0  0  0  0  0  0  0  0  0  0
  132.0308  136.4137  159.8475 H   0  0  0  0  0  0  0  0  0  0  0  0
  130.1262  137.0269  161.8407 H   0  0  0  0  0  0  0  0  0  0  0  0
  129.5368  137.6641  160.2867 H   0  0  0  0  0  0  0  0  0  0  0  0
  130.7593  135.8475  158.5375 H   0  0  0  0  0  0  0  0  0  0  0  0
  128.6220  131.0053  158.2654 H   0  0  0  0  0  0  0  0  0  0  0  0
  130.0912  130.4475  155.8752 H   0  0  0  0  0  0  0  0  0  0  0  0
  130.1933  133.2121  154.5637 H   0  0  0  0  0  0  0  0  0  0  0  0
  131.0817  129.5779  154.4801 H   0  0  0  0  0  0  0  0  0  0  0  0
  131.4324  128.2452  152.4433 H   0  0  0  0  0  0  0  0  0  0  0  0
  131.0101  129.2352  150.2314 H   0  0  0  0  0  0  0  0  0  0  0  0
  130.2253  131.5586  150.0412 H   0  0  0  0  0  0  0  0  0  0  0  0
  129.8580  132.9076  152.0643 H   0  0  0  0  0  0  0  0  0  0  0  0
  128.0723  134.8675  162.3993 H   0  0  0  0  0  0  0  0  0  0  0  0
  125.6109  134.7951  162.3931 H   0  0  0  0  0  0  0  0  0  0  0  0
  124.3683  135.3454  160.3398 H   0  0  0  0  0  0  0  0  0  0  0  0
  125.5868  135.9736  158.2943 H   0  0  0  0  0  0  0  0  0  0  0  0
  128.0478  136.0529  158.3025 H   0  0  0  0  0  0  0  0  0  0  0  0
  1  2  1  0
  1 34  1  0
  1 35  1  0
  2  7  2  0
  2  3  1  0
  3  4  2  0
  3 36  1  0
  4  5  1  0
  4 37  1  0
  5  6  2  0
  5 38  1  0
  6  7  1  0
  6 39  1  0
  7  8  1  0
  8  9  1  0
  8 40  1  0
  9 10  1  0
  9 41  1  0
  9 42  1  0
 10 11  1  1
 10 12  1  0
 10 28  1  0
 12 43  1  0
 13 12  1  0
 13 26  2  0
 13 14  1  0
 14 15  1  0
 14 16  1  0
 16 17  2  0
 16 44  1  0
 17 18  1  0
 17 26  1  0
 18 19  2  0
 18 45  1  0
 19 20  1  0
 19 46  1  0
 20 25  1  0
 20 21  2  0
 21 22  1  0
 21 47  1  0
 22 23  2  0
 22 48  1  0
 23 24  1  0
 23 49  1  0
 24 25  2  0
 24 50  1  0
 25 51  1  0
 26 27  1  0
 28 33  1  0
 28 29  2  0
 29 30  1  0
 29 52  1  0
 30 31  2  0
 30 53  1  0
 31 32  1  0
 31 54  1  0
 32 33  2  0
 32 55  1  0
 33 56  1  0
M  CHG  1  26   1
M  END
>  <DOCK_score>  (1) 
-68.073334

>  <SMILES>  (1) 
Nc1ccccc1NC[C@H](Nc1[nH]cc(C=Cc2ccccc2)[nH+]1)c1ccccc1

$$$$
