C[C@@H](CC1=CCCCC1)Nc1cccc(-c2cccc(Nc3[nH]cc(-c4cccc(O)c4)[nH+]3)c2)c1
     RDKit          3D

 68 72  0  0  1  0  0  0  0  0999 V2000
  127.5786  135.8942  169.8193 C   0  0  0  0  0  0  0  0  0  0  0  0
  128.7698  136.5508  169.1186 C   0  0  1  0  0  0  0  0  0  0  0  0
  128.4635  137.5115  168.7048 H   0  0  0  0  0  0  0  0  0  0  0  0
  129.8995  136.7668  170.1275 C   0  0  0  0  0  0  0  0  0  0  0  0
  131.0727  137.4135  169.4372 C   0  0  0  0  0  0  0  0  0  0  0  0
  132.2007  136.7785  169.4344 C   0  0  0  0  0  0  0  0  0  0  0  0
  133.4563  137.2980  168.7977 C   0  0  0  0  0  0  0  0  0  0  0  0
  133.1233  138.4270  167.8199 C   0  0  0  0  0  0  0  0  0  0  0  0
  132.2069  139.4305  168.5313 C   0  0  0  0  0  0  0  0  0  0  0  0
  130.8589  138.7507  168.7906 C   0  0  0  0  0  0  0  0  0  0  0  0
  129.2403  135.6813  168.0374 N   0  0  0  0  0  0  0  0  0  0  0  0
  129.2414  136.1439  166.7194 C   0  0  0  0  0  0  0  0  0  0  0  0
  128.2969  137.0778  166.3094 C   0  0  0  0  0  0  0  0  0  0  0  0
  128.2951  137.5375  165.0065 C   0  0  0  0  0  0  0  0  0  0  0  0
  129.2314  137.0721  164.1044 C   0  0  0  0  0  0  0  0  0  0  0  0
  130.1817  136.1355  164.5064 C   0  0  0  0  0  0  0  0  0  0  0  0
  131.1885  135.6344  163.5381 C   0  0  0  0  0  0  0  0  0  0  0  0
  132.4507  135.2435  163.9817 C   0  0  0  0  0  0  0  0  0  0  0  0
  133.3847  134.7731  163.0805 C   0  0  0  0  0  0  0  0  0  0  0  0
  133.0763  134.6977  161.7353 C   0  0  0  0  0  0  0  0  0  0  0  0
  131.8222  135.0901  161.2833 C   0  0  0  0  0  0  0  0  0  0  0  0
  131.5136  135.0121  159.9221 N   0  0  0  0  0  0  0  0  0  0  0  0
  130.2071  134.7868  159.5200 C   0  0  0  0  0  0  0  0  0  0  0  0
  129.6441  135.2365  158.3653 N   0  0  0  0  0  0  0  0  0  0  0  0
  130.0816  135.7676  157.6816 H   0  0  0  0  0  0  0  0  0  0  0  0
  128.3432  134.7972  158.3455 C   0  0  0  0  0  0  0  0  0  0  0  0
  128.1460  134.0989  159.4914 C   0  0  0  0  0  0  0  0  0  0  0  0
  126.8832  133.4402  159.9058 C   0  0  0  0  0  0  0  0  0  0  0  0
  126.6307  132.1191  159.5388 C   0  0  0  0  0  0  0  0  0  0  0  0
  125.4566  131.5071  159.9289 C   0  0  0  0  0  0  0  0  0  0  0  0
  124.5247  132.2037  160.6758 C   0  0  0  0  0  0  0  0  0  0  0  0
  124.7662  133.5206  161.0413 C   0  0  0  0  0  0  0  0  0  0  0  0
  123.8470  134.2016  161.7752 O   0  0  0  0  0  0  0  0  0  0  0  0
  125.9438  134.1414  160.6579 C   0  0  0  0  0  0  0  0  0  0  0  0
  129.3075  134.1100  160.1915 N   0  0  0  0  0  0  0  0  0  0  0  0
  129.4499  133.6850  161.0517 H   0  0  0  0  0  0  0  0  0  0  0  0
  130.8765  135.5590  162.1836 C   0  0  0  0  0  0  0  0  0  0  0  0
  130.1884  135.6760  165.8207 C   0  0  0  0  0  0  0  0  0  0  0  0
  126.7739  135.7403  169.1005 H   0  0  0  0  0  0  0  0  0  0  0  0
  127.2286  136.5413  170.6237 H   0  0  0  0  0  0  0  0  0  0  0  0
  127.8850  134.9334  170.2331 H   0  0  0  0  0  0  0  0  0  0  0  0
  129.5494  137.4139  170.9318 H   0  0  0  0  0  0  0  0  0  0  0  0
  130.2057  135.8061  170.5412 H   0  0  0  0  0  0  0  0  0  0  0  0
  132.2405  135.8148  169.9201 H   0  0  0  0  0  0  0  0  0  0  0  0
  134.1244  137.6759  169.5717 H   0  0  0  0  0  0  0  0  0  0  0  0
  133.9505  136.4886  168.2603 H   0  0  0  0  0  0  0  0  0  0  0  0
  134.0415  138.9256  167.5094 H   0  0  0  0  0  0  0  0  0  0  0  0
  132.6154  138.0175  166.9466 H   0  0  0  0  0  0  0  0  0  0  0  0
  132.6574  139.7315  169.4771 H   0  0  0  0  0  0  0  0  0  0  0  0
  132.0622  140.3066  167.8992 H   0  0  0  0  0  0  0  0  0  0  0  0
  130.3312  138.6153  167.8465 H   0  0  0  0  0  0  0  0  0  0  0  0
  130.2603  139.3792  169.4499 H   0  0  0  0  0  0  0  0  0  0  0  0
  129.5509  134.7843  168.2370 H   0  0  0  0  0  0  0  0  0  0  0  0
  127.5627  137.4451  167.0113 H   0  0  0  0  0  0  0  0  0  0  0  0
  127.5596  138.2633  164.6927 H   0  0  0  0  0  0  0  0  0  0  0  0
  129.2268  137.4337  163.0869 H   0  0  0  0  0  0  0  0  0  0  0  0
  132.6968  135.3047  165.0314 H   0  0  0  0  0  0  0  0  0  0  0  0
  134.3608  134.4671  163.4269 H   0  0  0  0  0  0  0  0  0  0  0  0
  133.8120  134.3331  161.0337 H   0  0  0  0  0  0  0  0  0  0  0  0
  132.2141  135.1158  159.2593 H   0  0  0  0  0  0  0  0  0  0  0  0
  127.6153  134.9767  157.5681 H   0  0  0  0  0  0  0  0  0  0  0  0
  127.3550  131.5736  158.9522 H   0  0  0  0  0  0  0  0  0  0  0  0
  125.2638  130.4827  159.6468 H   0  0  0  0  0  0  0  0  0  0  0  0
  123.6058  131.7215  160.9755 H   0  0  0  0  0  0  0  0  0  0  0  0
  124.1034  135.1111  161.9808 H   0  0  0  0  0  0  0  0  0  0  0  0
  126.1326  135.1664  160.9410 H   0  0  0  0  0  0  0  0  0  0  0  0
  129.9014  135.8650  161.8345 H   0  0  0  0  0  0  0  0  0  0  0  0
  130.9260  134.9538  166.1383 H   0  0  0  0  0  0  0  0  0  0  0  0
  1  2  1  0
  1 39  1  0
  1 40  1  0
  1 41  1  0
  2  3  1  6
  2  4  1  0
  2 11  1  0
  4  5  1  0
  4 42  1  0
  4 43  1  0
  5 10  1  0
  5  6  2  0
  6  7  1  0
  6 44  1  0
  7  8  1  0
  7 45  1  0
  7 46  1  0
  8  9  1  0
  8 47  1  0
  8 48  1  0
  9 10  1  0
  9 49  1  0
  9 50  1  0
 10 51  1  0
 10 52  1  0
 11 12  1  0
 11 53  1  0
 12 38  1  0
 12 13  2  0
 13 14  1  0
 13 54  1  0
 14 15  2  0
 14 55  1  0
 15 16  1  0
 15 56  1  0
 16 17  1  0
 16 38  2  0
 17 37  1  0
 17 18  2  0
 18 19  1  0
 18 57  1  0
 19 20  2  0
 19 58  1  0
 20 21  1  0
 20 59  1  0
 21 22  1  0
 21 37  2  0
 22 60  1  0
 23 22  1  0
 23 35  2  0
 23 24  1  0
 24 25  1  0
 24 26  1  0
 26 27  2  0
 26 61  1  0
 27 28  1  0
 27 35  1  0
 28 34  1  0
 28 29  2  0
 29 30  1  0
 29 62  1  0
 30 31  2  0
 30 63  1  0
 31 32  1  0
 31 64  1  0
 32 33  1  0
 32 34  2  0
 33 65  1  0
 34 66  1  0
 35 36  1  0
 37 67  1  0
 38 68  1  0
M  CHG  1  35   1
M  END
>  <DOCK_score>  (1) 
-46.097565

>  <SMILES>  (1) 
C[C@@H](CC1=CCCCC1)Nc1cccc(-c2cccc(Nc3[nH]cc(-c4cccc(O)c4)[nH+]3)c2)c1

$$$$
