Cc1ccc(-c2ccc(CCNc3[nH]cc(-c4ccc(N)cc4)[nH+]3)cc2)cc1
     RDKit          3D

 53 56  0  0  1  0  0  0  0  0999 V2000
  137.0681  141.7052  162.1165 C   0  0  0  0  0  0  0  0  0  0  0  0
  135.7843  140.9730  161.8220 C   0  0  0  0  0  0  0  0  0  0  0  0
  135.6684  140.2233  160.6655 C   0  0  0  0  0  0  0  0  0  0  0  0
  134.4969  139.5460  160.3937 C   0  0  0  0  0  0  0  0  0  0  0  0
  133.4279  139.6230  161.2842 C   0  0  0  0  0  0  0  0  0  0  0  0
  132.1660  138.8966  160.9975 C   0  0  0  0  0  0  0  0  0  0  0  0
  131.3740  138.4305  162.0449 C   0  0  0  0  0  0  0  0  0  0  0  0
  130.1992  137.7593  161.7724 C   0  0  0  0  0  0  0  0  0  0  0  0
  129.8127  137.5404  160.4624 C   0  0  0  0  0  0  0  0  0  0  0  0
  128.5319  136.8016  160.1711 C   0  0  0  0  0  0  0  0  0  0  0  0
  128.8200  135.3024  160.0689 C   0  0  0  0  0  0  0  0  0  0  0  0
  129.7791  135.0620  158.9879 N   0  0  0  0  0  0  0  0  0  0  0  0
  129.7466  133.8691  158.2861 C   0  0  0  0  0  0  0  0  0  0  0  0
  129.1744  132.7119  158.7164 N   0  0  0  0  0  0  0  0  0  0  0  0
  128.7201  132.5754  159.5624 H   0  0  0  0  0  0  0  0  0  0  0  0
  129.3563  131.7729  157.7288 C   0  0  0  0  0  0  0  0  0  0  0  0
  130.0416  132.3812  156.7293 C   0  0  0  0  0  0  0  0  0  0  0  0
  130.4693  131.7524  155.4556 C   0  0  0  0  0  0  0  0  0  0  0  0
  130.0149  132.2601  154.2394 C   0  0  0  0  0  0  0  0  0  0  0  0
  130.4183  131.6777  153.0564 C   0  0  0  0  0  0  0  0  0  0  0  0
  131.2677  130.5779  153.0763 C   0  0  0  0  0  0  0  0  0  0  0  0
  131.6701  129.9859  151.8766 N   0  0  0  0  0  0  0  0  0  0  0  0
  131.7178  130.0667  154.2879 C   0  0  0  0  0  0  0  0  0  0  0  0
  131.3215  130.6494  155.4731 C   0  0  0  0  0  0  0  0  0  0  0  0
  130.2666  133.6666  157.1000 N   0  0  0  0  0  0  0  0  0  0  0  0
  130.7375  134.3300  156.5718 H   0  0  0  0  0  0  0  0  0  0  0  0
  130.5975  137.9968  159.4188 C   0  0  0  0  0  0  0  0  0  0  0  0
  131.7719  138.6734  159.6798 C   0  0  0  0  0  0  0  0  0  0  0  0
  133.5484  140.3840  162.4451 C   0  0  0  0  0  0  0  0  0  0  0  0
  134.7244  141.0572  162.7070 C   0  0  0  0  0  0  0  0  0  0  0  0
  137.0217  142.7065  161.6884 H   0  0  0  0  0  0  0  0  0  0  0  0
  137.2062  141.7774  163.1953 H   0  0  0  0  0  0  0  0  0  0  0  0
  137.9052  141.1614  161.6787 H   0  0  0  0  0  0  0  0  0  0  0  0
  136.4976  140.1640  159.9761 H   0  0  0  0  0  0  0  0  0  0  0  0
  134.4090  138.9573  159.4925 H   0  0  0  0  0  0  0  0  0  0  0  0
  131.6772  138.5969  163.0680 H   0  0  0  0  0  0  0  0  0  0  0  0
  129.5827  137.4009  162.5834 H   0  0  0  0  0  0  0  0  0  0  0  0
  127.8183  136.9803  160.9755 H   0  0  0  0  0  0  0  0  0  0  0  0
  128.1139  137.1563  159.2290 H   0  0  0  0  0  0  0  0  0  0  0  0
  129.2379  134.9477  161.0110 H   0  0  0  0  0  0  0  0  0  0  0  0
  127.8935  134.7680  159.8581 H   0  0  0  0  0  0  0  0  0  0  0  0
  130.4369  135.7388  158.7637 H   0  0  0  0  0  0  0  0  0  0  0  0
  129.0212  130.7464  157.7472 H   0  0  0  0  0  0  0  0  0  0  0  0
  129.3507  133.1116  154.2235 H   0  0  0  0  0  0  0  0  0  0  0  0
  130.0700  132.0734  152.1138 H   0  0  0  0  0  0  0  0  0  0  0  0
  132.2632  129.2180  151.8900 H   0  0  0  0  0  0  0  0  0  0  0  0
  131.3564  130.3416  151.0309 H   0  0  0  0  0  0  0  0  0  0  0  0
  132.3781  129.2121  154.3010 H   0  0  0  0  0  0  0  0  0  0  0  0
  131.6716  130.2519  156.4144 H   0  0  0  0  0  0  0  0  0  0  0  0
  130.2909  137.8231  158.3979 H   0  0  0  0  0  0  0  0  0  0  0  0
  132.3842  139.0287  158.8643 H   0  0  0  0  0  0  0  0  0  0  0  0
  132.7228  140.4474  163.1387 H   0  0  0  0  0  0  0  0  0  0  0  0
  134.8190  141.6474  163.6065 H   0  0  0  0  0  0  0  0  0  0  0  0
  1  2  1  0
  1 31  1  0
  1 32  1  0
  1 33  1  0
  2 30  2  0
  2  3  1  0
  3  4  2  0
  3 34  1  0
  4  5  1  0
  4 35  1  0
  5  6  1  0
  5 29  2  0
  6 28  1  0
  6  7  2  0
  7  8  1  0
  7 36  1  0
  8  9  2  0
  8 37  1  0
  9 10  1  0
  9 27  1  0
 10 11  1  0
 10 38  1  0
 10 39  1  0
 11 12  1  0
 11 40  1  0
 11 41  1  0
 12 42  1  0
 13 12  1  0
 13 25  2  0
 13 14  1  0
 14 15  1  0
 14 16  1  0
 16 17  2  0
 16 43  1  0
 17 18  1  0
 17 25  1  0
 18 24  1  0
 18 19  2  0
 19 20  1  0
 19 44  1  0
 20 21  2  0
 20 45  1  0
 21 22  1  0
 21 23  1  0
 22 46  1  0
 22 47  1  0
 23 24  2  0
 23 48  1  0
 24 49  1  0
 25 26  1  0
 27 28  2  0
 27 50  1  0
 28 51  1  0
 29 30  1  0
 29 52  1  0
 30 53  1  0
M  CHG  1  25   1
M  END
>  <DOCK_score>  (1) 
-57.92075

>  <SMILES>  (1) 
Cc1ccc(-c2ccc(CCNc3[nH]cc(-c4ccc(N)cc4)[nH+]3)cc2)cc1

$$$$
