[NH3+]CCSc1ccc([C@@]2(O)C=CC(=O)C2)cc1Nc1[nH]cc(-c2ccccc2)[nH+]1
     RDKit          3D

 53 56  0  0  1  0  0  0  0  0999 V2000
  133.3912  138.5436  162.8673 N   0  0  0  0  0  0  0  0  0  0  0  0
  134.2424  139.0829  162.9209 H   0  0  0  0  0  0  0  0  0  0  0  0
  133.0661  138.3346  163.7992 H   0  0  0  0  0  0  0  0  0  0  0  0
  133.5694  137.6827  162.3721 H   0  0  0  0  0  0  0  0  0  0  0  0
  132.3663  139.3163  162.1529 C   0  0  0  0  0  0  0  0  0  0  0  0
  131.0757  138.4984  162.0713 C   0  0  0  0  0  0  0  0  0  0  0  0
  131.3960  136.9506  161.1811 S   0  0  0  0  0  0  0  0  0  0  0  0
  129.8229  136.1570  161.1874 C   0  0  0  0  0  0  0  0  0  0  0  0
  128.9370  136.3763  162.2324 C   0  0  0  0  0  0  0  0  0  0  0  0
  127.7011  135.7570  162.2321 C   0  0  0  0  0  0  0  0  0  0  0  0
  127.3478  134.9098  161.1978 C   0  0  0  0  0  0  0  0  0  0  0  0
  126.0008  134.2342  161.2071 C   0  0  1  0  0  0  0  0  0  0  0  0
  125.0327  135.0721  161.8418 O   0  0  0  0  0  0  0  0  0  0  0  0
  125.5688  133.9128  159.7983 C   0  0  0  0  0  0  0  0  0  0  0  0
  125.4100  132.6057  159.6479 C   0  0  0  0  0  0  0  0  0  0  0  0
  125.6899  131.8696  160.8758 C   0  0  0  0  0  0  0  0  0  0  0  0
  125.6194  130.6676  161.0233 O   0  0  0  0  0  0  0  0  0  0  0  0
  126.0881  132.8791  161.9313 C   0  0  0  0  0  0  0  0  0  0  0  0
  128.2241  134.6854  160.1522 C   0  0  0  0  0  0  0  0  0  0  0  0
  129.4640  135.3064  160.1412 C   0  0  0  0  0  0  0  0  0  0  0  0
  130.3534  135.0801  159.0833 N   0  0  0  0  0  0  0  0  0  0  0  0
  130.3372  133.8689  158.4119 C   0  0  0  0  0  0  0  0  0  0  0  0
  129.9963  132.6670  158.9528 N   0  0  0  0  0  0  0  0  0  0  0  0
  129.7232  132.5062  159.8695 H   0  0  0  0  0  0  0  0  0  0  0  0
  130.1078  131.7246  157.9601 C   0  0  0  0  0  0  0  0  0  0  0  0
  130.5210  132.3754  156.8441 C   0  0  0  0  0  0  0  0  0  0  0  0
  130.7824  131.7588  155.5205 C   0  0  0  0  0  0  0  0  0  0  0  0
  130.5854  132.4961  154.3542 C   0  0  0  0  0  0  0  0  0  0  0  0
  130.8358  131.9192  153.1257 C   0  0  0  0  0  0  0  0  0  0  0  0
  131.2706  130.6077  153.0503 C   0  0  0  0  0  0  0  0  0  0  0  0
  131.4619  129.8696  154.2041 C   0  0  0  0  0  0  0  0  0  0  0  0
  131.2203  130.4382  155.4382 C   0  0  0  0  0  0  0  0  0  0  0  0
  130.6531  133.6897  157.1523 N   0  0  0  0  0  0  0  0  0  0  0  0
  130.9359  134.3856  156.5388 H   0  0  0  0  0  0  0  0  0  0  0  0
  132.7176  139.5422  161.1461 H   0  0  0  0  0  0  0  0  0  0  0  0
  132.1738  140.2462  162.6877 H   0  0  0  0  0  0  0  0  0  0  0  0
  130.3152  139.0718  161.5413 H   0  0  0  0  0  0  0  0  0  0  0  0
  130.7245  138.2724  163.0781 H   0  0  0  0  0  0  0  0  0  0  0  0
  129.2111  137.0343  163.0437 H   0  0  0  0  0  0  0  0  0  0  0  0
  127.0110  135.9319  163.0443 H   0  0  0  0  0  0  0  0  0  0  0  0
  124.8984  135.9221  161.4006 H   0  0  0  0  0  0  0  0  0  0  0  0
  125.4108  134.6456  159.0207 H   0  0  0  0  0  0  0  0  0  0  0  0
  125.1038  132.1393  158.7232 H   0  0  0  0  0  0  0  0  0  0  0  0
  127.1057  132.6953  162.2758 H   0  0  0  0  0  0  0  0  0  0  0  0
  125.3912  132.8483  162.7688 H   0  0  0  0  0  0  0  0  0  0  0  0
  127.9429  134.0267  159.3439 H   0  0  0  0  0  0  0  0  0  0  0  0
  130.9809  135.7717  158.8208 H   0  0  0  0  0  0  0  0  0  0  0  0
  129.9083  130.6672  158.0514 H   0  0  0  0  0  0  0  0  0  0  0  0
  130.2420  133.5184  154.4119 H   0  0  0  0  0  0  0  0  0  0  0  0
  130.6876  132.4910  152.2216 H   0  0  0  0  0  0  0  0  0  0  0  0
  131.4612  130.1586  152.0868 H   0  0  0  0  0  0  0  0  0  0  0  0
  131.8012  128.8465  154.1392 H   0  0  0  0  0  0  0  0  0  0  0  0
  131.3706  129.8610  156.3385 H   0  0  0  0  0  0  0  0  0  0  0  0
  1  2  1  0
  1  3  1  0
  1  4  1  0
  1  5  1  0
  5  6  1  0
  5 35  1  0
  5 36  1  0
  6  7  1  0
  6 37  1  0
  6 38  1  0
  7  8  1  0
  8 20  2  0
  8  9  1  0
  9 10  2  0
  9 39  1  0
 10 11  1  0
 10 40  1  0
 11 12  1  0
 11 19  2  0
 12 18  1  0
 12 13  1  1
 12 14  1  0
 13 41  1  0
 14 15  2  0
 14 42  1  0
 15 16  1  0
 15 43  1  0
 16 17  2  0
 16 18  1  0
 18 44  1  0
 18 45  1  0
 19 20  1  0
 19 46  1  0
 20 21  1  0
 21 47  1  0
 22 21  1  0
 22 33  2  0
 22 23  1  0
 23 24  1  0
 23 25  1  0
 25 26  2  0
 25 48  1  0
 26 27  1  0
 26 33  1  0
 27 32  1  0
 27 28  2  0
 28 29  1  0
 28 49  1  0
 29 30  2  0
 29 50  1  0
 30 31  1  0
 30 51  1  0
 31 32  2  0
 31 52  1  0
 32 53  1  0
 33 34  1  0
M  CHG  2   1   1  33   1
M  END
>  <DOCK_score>  (1) 
-57.184055

>  <SMILES>  (1) 
[NH3+]CCSc1ccc([C@@]2(O)C=CC(=O)C2)cc1Nc1[nH]cc(-c2ccccc2)[nH+]1

$$$$
