C1=C([C@@H]2CC[C@H]2Nc2ccc(Nc3[nH]c4ccccc4[nH+]3)cc2)CCC1
     RDKit          3D

 51 55  0  0  1  0  0  0  0  0999 V2000
  127.6150  140.6621  163.0332 C   0  0  0  0  0  0  0  0  0  0  0  0
  127.9080  139.5019  163.5547 C   0  0  0  0  0  0  0  0  0  0  0  0
  126.8949  138.4378  163.8900 C   0  0  2  0  0  0  0  0  0  0  0  0
  125.8739  138.7351  163.6509 H   0  0  0  0  0  0  0  0  0  0  0  0
  127.0547  137.8596  165.3060 C   0  0  0  0  0  0  0  0  0  0  0  0
  126.7425  136.4817  164.6943 C   0  0  0  0  0  0  0  0  0  0  0  0
  127.2698  137.0427  163.3631 C   0  0  1  0  0  0  0  0  0  0  0  0
  128.3417  136.9019  163.2239 H   0  0  0  0  0  0  0  0  0  0  0  0
  126.4853  136.6249  162.1984 N   0  0  0  0  0  0  0  0  0  0  0  0
  127.1280  136.3331  160.9901 C   0  0  0  0  0  0  0  0  0  0  0  0
  128.3111  136.9805  160.6588 C   0  0  0  0  0  0  0  0  0  0  0  0
  128.9449  136.6928  159.4664 C   0  0  0  0  0  0  0  0  0  0  0  0
  128.3990  135.7567  158.5980 C   0  0  0  0  0  0  0  0  0  0  0  0
  129.0418  135.4656  157.3875 N   0  0  0  0  0  0  0  0  0  0  0  0
  129.4683  134.1839  157.1260 C   0  0  0  0  0  0  0  0  0  0  0  0
  130.0876  133.7985  156.0122 N   0  0  0  0  0  0  0  0  0  0  0  0
  130.3100  134.3697  155.2603 H   0  0  0  0  0  0  0  0  0  0  0  0
  130.3583  132.4591  156.1080 C   0  0  0  0  0  0  0  0  0  0  0  0
  130.9706  131.5376  155.2633 C   0  0  0  0  0  0  0  0  0  0  0  0
  131.0975  130.2239  155.6598 C   0  0  0  0  0  0  0  0  0  0  0  0
  130.6108  129.8107  156.8914 C   0  0  0  0  0  0  0  0  0  0  0  0
  129.9978  130.7090  157.7378 C   0  0  0  0  0  0  0  0  0  0  0  0
  129.8656  132.0407  157.3550 C   0  0  0  0  0  0  0  0  0  0  0  0
  129.3219  133.1483  157.9500 N   0  0  0  0  0  0  0  0  0  0  0  0
  128.9013  133.1739  158.8237 H   0  0  0  0  0  0  0  0  0  0  0  0
  127.2133  135.1133  158.9268 C   0  0  0  0  0  0  0  0  0  0  0  0
  126.5824  135.3965  160.1219 C   0  0  0  0  0  0  0  0  0  0  0  0
  129.3969  139.3636  163.7719 C   0  0  0  0  0  0  0  0  0  0  0  0
  129.9423  140.8081  163.6880 C   0  0  0  0  0  0  0  0  0  0  0  0
  128.8587  141.4945  162.8245 C   0  0  0  0  0  0  0  0  0  0  0  0
  126.6148  140.9855  162.7855 H   0  0  0  0  0  0  0  0  0  0  0  0
  128.0678  137.9417  165.6994 H   0  0  0  0  0  0  0  0  0  0  0  0
  126.2981  138.2095  166.0084 H   0  0  0  0  0  0  0  0  0  0  0  0
  125.6792  136.2427  164.6768 H   0  0  0  0  0  0  0  0  0  0  0  0
  127.3523  135.6746  165.1001 H   0  0  0  0  0  0  0  0  0  0  0  0
  125.5204  136.5505  162.2649 H   0  0  0  0  0  0  0  0  0  0  0  0
  128.7356  137.7085  161.3341 H   0  0  0  0  0  0  0  0  0  0  0  0
  129.8650  137.1963  159.2088 H   0  0  0  0  0  0  0  0  0  0  0  0
  129.1860  136.1676  156.7340 H   0  0  0  0  0  0  0  0  0  0  0  0
  131.3517  131.8527  154.3032 H   0  0  0  0  0  0  0  0  0  0  0  0
  131.5759  129.5102  155.0055 H   0  0  0  0  0  0  0  0  0  0  0  0
  130.7134  128.7776  157.1892 H   0  0  0  0  0  0  0  0  0  0  0  0
  129.6208  130.3806  158.6950 H   0  0  0  0  0  0  0  0  0  0  0  0
  126.7866  134.3882  158.2495 H   0  0  0  0  0  0  0  0  0  0  0  0
  125.6624  134.8928  160.3796 H   0  0  0  0  0  0  0  0  0  0  0  0
  129.5992  138.9378  164.7548 H   0  0  0  0  0  0  0  0  0  0  0  0
  129.8386  138.7449  162.9908 H   0  0  0  0  0  0  0  0  0  0  0  0
  130.0004  141.2625  164.6771 H   0  0  0  0  0  0  0  0  0  0  0  0
  130.9123  140.8318  163.1913 H   0  0  0  0  0  0  0  0  0  0  0  0
  128.6951  142.5176  163.1632 H   0  0  0  0  0  0  0  0  0  0  0  0
  129.1471  141.4831  161.7734 H   0  0  0  0  0  0  0  0  0  0  0  0
  1 30  1  0
  1  2  2  0
  1 31  1  0
  2  3  1  0
  2 28  1  0
  3  4  1  1
  3  7  1  0
  3  5  1  0
  5  6  1  0
  5 32  1  0
  5 33  1  0
  6  7  1  0
  6 34  1  0
  6 35  1  0
  7  8  1  6
  7  9  1  0
  9 10  1  0
  9 36  1  0
 10 27  1  0
 10 11  2  0
 11 12  1  0
 11 37  1  0
 12 13  2  0
 12 38  1  0
 13 14  1  0
 13 26  1  0
 14 15  1  0
 14 39  1  0
 15 24  1  0
 15 16  2  0
 16 17  1  0
 16 18  1  0
 18 23  2  0
 18 19  1  0
 19 20  2  0
 19 40  1  0
 20 21  1  0
 20 41  1  0
 21 22  2  0
 21 42  1  0
 22 23  1  0
 22 43  1  0
 23 24  1  0
 24 25  1  0
 26 27  2  0
 26 44  1  0
 27 45  1  0
 28 29  1  0
 28 46  1  0
 28 47  1  0
 29 30  1  0
 29 48  1  0
 29 49  1  0
 30 50  1  0
 30 51  1  0
M  CHG  1  16   1
M  END
>  <DOCK_score>  (1) 
-47.792252

>  <SMILES>  (1) 
C1=C([C@@H]2CC[C@H]2Nc2ccc(Nc3[nH]c4ccccc4[nH+]3)cc2)CCC1

$$$$
