O=C1CC[C@H](NC(NC2CC2)=[NH+][C@H]2COc3ncccc3C2)CN1
     RDKit          3D

 48 51  0  0  1  0  0  0  0  0999 V2000
  123.6862  133.9628  161.5523 O   0  0  0  0  0  0  0  0  0  0  0  0
  124.8533  134.1515  161.2819 C   0  0  0  0  0  0  0  0  0  0  0  0
  125.6545  132.9987  160.7485 C   0  0  0  0  0  0  0  0  0  0  0  0
  127.1498  133.2973  160.8829 C   0  0  0  0  0  0  0  0  0  0  0  0
  127.4165  134.6991  160.3216 C   0  0  2  0  0  0  0  0  0  0  0  0
  127.0013  134.7759  159.3167 H   0  0  0  0  0  0  0  0  0  0  0  0
  128.8602  134.9442  160.2769 N   0  0  0  0  0  0  0  0  0  0  0  0
  129.5798  134.6100  159.1541 C   0  0  0  0  0  0  0  0  0  0  0  0
  128.9444  134.0457  158.0733 N   0  0  0  0  0  0  0  0  0  0  0  0
  129.7111  133.6896  156.8767 C   0  0  0  0  0  0  0  0  0  0  0  0
  129.5492  132.2696  156.3306 C   0  0  0  0  0  0  0  0  0  0  0  0
  130.8434  132.6736  157.0396 C   0  0  0  0  0  0  0  0  0  0  0  0
  130.8642  134.8279  159.1143 N   0  0  0  0  0  0  0  0  0  0  0  0
  131.2980  135.0171  158.2677 H   0  0  0  0  0  0  0  0  0  0  0  0
  131.6527  134.7871  160.3483 C   0  0  1  0  0  0  0  0  0  0  0  0
  131.0016  134.5621  161.1931 H   0  0  0  0  0  0  0  0  0  0  0  0
  132.7397  133.7110  160.2322 C   0  0  0  0  0  0  0  0  0  0  0  0
  133.4246  133.6235  161.4822 O   0  0  0  0  0  0  0  0  0  0  0  0
  133.8677  134.7764  162.0448 C   0  0  0  0  0  0  0  0  0  0  0  0
  134.7913  134.6992  162.9961 N   0  0  0  0  0  0  0  0  0  0  0  0
  135.2652  135.7711  163.5974 C   0  0  0  0  0  0  0  0  0  0  0  0
  134.8146  137.0313  163.2567 C   0  0  0  0  0  0  0  0  0  0  0  0
  133.8515  137.1577  162.2667 C   0  0  0  0  0  0  0  0  0  0  0  0
  133.3752  136.0102  161.6523 C   0  0  0  0  0  0  0  0  0  0  0  0
  132.3374  136.1389  160.5683 C   0  0  0  0  0  0  0  0  0  0  0  0
  126.7491  135.7301  161.2326 C   0  0  0  0  0  0  0  0  0  0  0  0
  125.3564  135.3715  161.4736 N   0  0  0  0  0  0  0  0  0  0  0  0
  125.4095  132.8428  159.6978 H   0  0  0  0  0  0  0  0  0  0  0  0
  125.4129  132.0980  161.3127 H   0  0  0  0  0  0  0  0  0  0  0  0
  127.7231  132.5612  160.3194 H   0  0  0  0  0  0  0  0  0  0  0  0
  127.4380  133.2616  161.9335 H   0  0  0  0  0  0  0  0  0  0  0  0
  129.3084  135.3421  161.0396 H   0  0  0  0  0  0  0  0  0  0  0  0
  127.9886  133.8835  158.1029 H   0  0  0  0  0  0  0  0  0  0  0  0
  129.8561  134.4933  156.1548 H   0  0  0  0  0  0  0  0  0  0  0  0
  128.8722  131.6004  156.8616 H   0  0  0  0  0  0  0  0  0  0  0  0
  129.5876  132.1388  155.2492 H   0  0  0  0  0  0  0  0  0  0  0  0
  131.7330  132.8086  156.4247 H   0  0  0  0  0  0  0  0  0  0  0  0
  131.0179  132.2701  158.0371 H   0  0  0  0  0  0  0  0  0  0  0  0
  133.4441  133.9851  159.4469 H   0  0  0  0  0  0  0  0  0  0  0  0
  132.2839  132.7493  159.9961 H   0  0  0  0  0  0  0  0  0  0  0  0
  136.0159  135.6631  164.3664 H   0  0  0  0  0  0  0  0  0  0  0  0
  135.2066  137.9060  163.7542 H   0  0  0  0  0  0  0  0  0  0  0  0
  133.4805  138.1307  161.9799 H   0  0  0  0  0  0  0  0  0  0  0  0
  131.5932  136.8780  160.8645 H   0  0  0  0  0  0  0  0  0  0  0  0
  132.8168  136.4583  159.6430 H   0  0  0  0  0  0  0  0  0  0  0  0
  127.2793  135.7669  162.1843 H   0  0  0  0  0  0  0  0  0  0  0  0
  126.7948  136.7114  160.7603 H   0  0  0  0  0  0  0  0  0  0  0  0
  124.7577  136.0654  161.7913 H   0  0  0  0  0  0  0  0  0  0  0  0
  1  2  2  0
  2 27  1  0
  2  3  1  0
  3  4  1  0
  3 28  1  0
  3 29  1  0
  4  5  1  0
  4 30  1  0
  4 31  1  0
  5  6  1  6
  5  7  1  0
  5 26  1  0
  7 32  1  0
  8  7  1  0
  8  9  1  0
  8 13  2  0
  9 10  1  0
  9 33  1  0
 10 12  1  0
 10 11  1  0
 10 34  1  0
 11 12  1  0
 11 35  1  0
 11 36  1  0
 12 37  1  0
 12 38  1  0
 13 14  1  0
 13 15  1  0
 15 16  1  1
 15 25  1  0
 15 17  1  0
 17 18  1  0
 17 39  1  0
 17 40  1  0
 18 19  1  0
 19 24  2  0
 19 20  1  0
 20 21  2  0
 21 22  1  0
 21 41  1  0
 22 23  2  0
 22 42  1  0
 23 24  1  0
 23 43  1  0
 24 25  1  0
 25 44  1  0
 25 45  1  0
 26 27  1  0
 26 46  1  0
 26 47  1  0
 27 48  1  0
M  CHG  1  13   1
M  END
>  <DOCK_score>  (1) 
-46.095863

>  <SMILES>  (1) 
O=C1CC[C@H](NC(NC2CC2)=[NH+][C@H]2COc3ncccc3C2)CN1

$$$$
