O=C1C=C[C@@H](Nc2cc(Nc3[nH]cc(-c4ccc(C(F)(F)F)cc4)[nH+]3)ccc2O)C1
     RDKit          3D

 48 51  0  0  1  0  0  0  0  0999 V2000
  130.9034  140.6101  164.1764 O   0  0  0  0  0  0  0  0  0  0  0  0
  130.6767  139.4200  164.2416 C   0  0  0  0  0  0  0  0  0  0  0  0
  130.5934  138.6235  165.4608 C   0  0  0  0  0  0  0  0  0  0  0  0
  130.3319  137.3486  165.2112 C   0  0  0  0  0  0  0  0  0  0  0  0
  130.2009  137.1166  163.7267 C   0  0  1  0  0  0  0  0  0  0  0  0
  130.9564  136.4077  163.3878 H   0  0  0  0  0  0  0  0  0  0  0  0
  128.8599  136.6202  163.4079 N   0  0  0  0  0  0  0  0  0  0  0  0
  128.5160  136.3358  162.0813 C   0  0  0  0  0  0  0  0  0  0  0  0
  129.4894  135.9208  161.1853 C   0  0  0  0  0  0  0  0  0  0  0  0
  129.1442  135.6349  159.8715 C   0  0  0  0  0  0  0  0  0  0  0  0
  130.1245  135.2103  158.9669 N   0  0  0  0  0  0  0  0  0  0  0  0
  130.0101  133.9749  158.3512 C   0  0  0  0  0  0  0  0  0  0  0  0
  129.4114  132.8752  158.8851 N   0  0  0  0  0  0  0  0  0  0  0  0
  128.9913  132.8163  159.7574 H   0  0  0  0  0  0  0  0  0  0  0  0
  129.5092  131.8653  157.9596 C   0  0  0  0  0  0  0  0  0  0  0  0
  130.1714  132.3737  156.8906 C   0  0  0  0  0  0  0  0  0  0  0  0
  130.5126  131.6419  155.6464 C   0  0  0  0  0  0  0  0  0  0  0  0
  130.0236  132.0839  154.4183 C   0  0  0  0  0  0  0  0  0  0  0  0
  130.3490  131.4023  153.2633 C   0  0  0  0  0  0  0  0  0  0  0  0
  131.1495  130.2758  153.3240 C   0  0  0  0  0  0  0  0  0  0  0  0
  131.4965  129.5318  152.0602 C   0  0  0  0  0  0  0  0  0  0  0  0
  130.8983  130.1675  150.9662 F   0  0  0  0  0  0  0  0  0  0  0  0
  132.8853  129.5229  151.8910 F   0  0  0  0  0  0  0  0  0  0  0  0
  131.0286  128.2172  152.1488 F   0  0  0  0  0  0  0  0  0  0  0  0
  131.6328  129.8291  154.5407 C   0  0  0  0  0  0  0  0  0  0  0  0
  131.3186  130.5061  155.7016 C   0  0  0  0  0  0  0  0  0  0  0  0
  130.4656  133.6700  157.1604 N   0  0  0  0  0  0  0  0  0  0  0  0
  130.9374  134.2750  156.5668 H   0  0  0  0  0  0  0  0  0  0  0  0
  127.8273  135.7747  159.4532 C   0  0  0  0  0  0  0  0  0  0  0  0
  126.8575  136.1934  160.3447 C   0  0  0  0  0  0  0  0  0  0  0  0
  127.1961  136.4747  161.6577 C   0  0  0  0  0  0  0  0  0  0  0  0
  126.2398  136.8865  162.5341 O   0  0  0  0  0  0  0  0  0  0  0  0
  130.4290  138.4907  163.0726 C   0  0  0  0  0  0  0  0  0  0  0  0
  130.7293  139.0266  166.4535 H   0  0  0  0  0  0  0  0  0  0  0  0
  130.2278  136.5824  165.9653 H   0  0  0  0  0  0  0  0  0  0  0  0
  128.2104  136.4885  164.1162 H   0  0  0  0  0  0  0  0  0  0  0  0
  130.5142  135.8165  161.5101 H   0  0  0  0  0  0  0  0  0  0  0  0
  130.8839  135.7812  158.7712 H   0  0  0  0  0  0  0  0  0  0  0  0
  129.1342  130.8579  158.0644 H   0  0  0  0  0  0  0  0  0  0  0  0
  129.3947  132.9606  154.3704 H   0  0  0  0  0  0  0  0  0  0  0  0
  129.9741  131.7465  152.3107 H   0  0  0  0  0  0  0  0  0  0  0  0
  132.2571  128.9488  154.5823 H   0  0  0  0  0  0  0  0  0  0  0  0
  131.6969  130.1568  156.6510 H   0  0  0  0  0  0  0  0  0  0  0  0
  127.5605  135.5557  158.4299 H   0  0  0  0  0  0  0  0  0  0  0  0
  125.8340  136.3010  160.0169 H   0  0  0  0  0  0  0  0  0  0  0  0
  125.3554  136.9529  162.1488 H   0  0  0  0  0  0  0  0  0  0  0  0
  129.5431  138.8017  162.5189 H   0  0  0  0  0  0  0  0  0  0  0  0
  131.2993  138.4616  162.4170 H   0  0  0  0  0  0  0  0  0  0  0  0
  1  2  2  0
  2 33  1  0
  2  3  1  0
  3  4  2  0
  3 34  1  0
  4  5  1  0
  4 35  1  0
  5  6  1  6
  5  7  1  0
  5 33  1  0
  7  8  1  0
  7 36  1  0
  8 31  1  0
  8  9  2  0
  9 10  1  0
  9 37  1  0
 10 11  1  0
 10 29  2  0
 11 38  1  0
 12 11  1  0
 12 27  2  0
 12 13  1  0
 13 14  1  0
 13 15  1  0
 15 16  2  0
 15 39  1  0
 16 17  1  0
 16 27  1  0
 17 26  1  0
 17 18  2  0
 18 19  1  0
 18 40  1  0
 19 20  2  0
 19 41  1  0
 20 21  1  0
 20 25  1  0
 21 22  1  0
 21 23  1  0
 21 24  1  0
 25 26  2  0
 25 42  1  0
 26 43  1  0
 27 28  1  0
 29 30  1  0
 29 44  1  0
 30 31  2  0
 30 45  1  0
 31 32  1  0
 32 46  1  0
 33 47  1  0
 33 48  1  0
M  CHG  1  27   1
M  END
>  <DOCK_score>  (1) 
-51.882141

>  <SMILES>  (1) 
O=C1C=C[C@@H](Nc2cc(Nc3[nH]cc(-c4ccc(C(F)(F)F)cc4)[nH+]3)ccc2O)C1

$$$$
