Cn1nccc1[C@@H](Nc1[nH]cc(-c2cccnc2)[nH+]1)c1cnn(C2CC2)c1N
     RDKit          3D

 50 54  0  0  1  0  0  0  0  0999 V2000
  128.6030  136.1480  158.1658 C   0  0  0  0  0  0  0  0  0  0  0  0
  128.1462  135.7062  159.4858 N   0  0  0  0  0  0  0  0  0  0  0  0
  126.8141  135.5204  159.8773 N   0  0  0  0  0  0  0  0  0  0  0  0
  126.8058  135.1275  161.1253 C   0  0  0  0  0  0  0  0  0  0  0  0
  128.1307  135.0456  161.5662 C   0  0  0  0  0  0  0  0  0  0  0  0
  128.9346  135.4035  160.5384 C   0  0  0  0  0  0  0  0  0  0  0  0
  130.4403  135.4604  160.5661 C   0  0  1  0  0  0  0  0  0  0  0  0
  130.8193  134.7135  161.2637 H   0  0  0  0  0  0  0  0  0  0  0  0
  130.9640  135.1866  159.2255 N   0  0  0  0  0  0  0  0  0  0  0  0
  130.6862  133.9796  158.6070 C   0  0  0  0  0  0  0  0  0  0  0  0
  129.9472  132.9680  159.1387 N   0  0  0  0  0  0  0  0  0  0  0  0
  129.5239  132.9631  160.0114 H   0  0  0  0  0  0  0  0  0  0  0  0
  129.9092  131.9564  158.2101 C   0  0  0  0  0  0  0  0  0  0  0  0
  130.6320  132.3752  157.1420 C   0  0  0  0  0  0  0  0  0  0  0  0
  130.8723  131.6078  155.8955 C   0  0  0  0  0  0  0  0  0  0  0  0
  131.0495  132.2697  154.6769 C   0  0  0  0  0  0  0  0  0  0  0  0
  131.2755  131.5083  153.5433 C   0  0  0  0  0  0  0  0  0  0  0  0
  131.3081  130.1296  153.6496 C   0  0  0  0  0  0  0  0  0  0  0  0
  131.1326  129.5328  154.8127 N   0  0  0  0  0  0  0  0  0  0  0  0
  130.9195  130.2155  155.9191 C   0  0  0  0  0  0  0  0  0  0  0  0
  131.0962  133.6204  157.4150 N   0  0  0  0  0  0  0  0  0  0  0  0
  131.6442  134.1588  156.8228 H   0  0  0  0  0  0  0  0  0  0  0  0
  130.8832  136.8313  161.0081 C   0  0  0  0  0  0  0  0  0  0  0  0
  130.0458  137.8985  161.3448 C   0  0  0  0  0  0  0  0  0  0  0  0
  130.7936  138.9195  161.6763 N   0  0  0  0  0  0  0  0  0  0  0  0
  132.1368  138.5389  161.5625 N   0  0  0  0  0  0  0  0  0  0  0  0
  133.2992  139.3859  161.8407 C   0  0  0  0  0  0  0  0  0  0  0  0
  133.0936  140.9016  161.8052 C   0  0  0  0  0  0  0  0  0  0  0  0
  133.8681  140.2088  160.6821 C   0  0  0  0  0  0  0  0  0  0  0  0
  132.1708  137.2530  161.1447 C   0  0  0  0  0  0  0  0  0  0  0  0
  133.3141  136.4970  160.9020 N   0  0  0  0  0  0  0  0  0  0  0  0
  128.7583  135.2796  157.5257 H   0  0  0  0  0  0  0  0  0  0  0  0
  127.8504  136.7981  157.7198 H   0  0  0  0  0  0  0  0  0  0  0  0
  129.5400  136.6951  158.2698 H   0  0  0  0  0  0  0  0  0  0  0  0
  125.9278  134.9051  161.7134 H   0  0  0  0  0  0  0  0  0  0  0  0
  128.4548  134.7488  162.5528 H   0  0  0  0  0  0  0  0  0  0  0  0
  131.5055  135.8510  158.7713 H   0  0  0  0  0  0  0  0  0  0  0  0
  129.4037  131.0075  158.3128 H   0  0  0  0  0  0  0  0  0  0  0  0
  131.0149  133.3477  154.6219 H   0  0  0  0  0  0  0  0  0  0  0  0
  131.4202  131.9854  152.5854 H   0  0  0  0  0  0  0  0  0  0  0  0
  131.4804  129.5323  152.7665 H   0  0  0  0  0  0  0  0  0  0  0  0
  130.7806  129.6910  156.8530 H   0  0  0  0  0  0  0  0  0  0  0  0
  128.9659  137.8828  161.3333 H   0  0  0  0  0  0  0  0  0  0  0  0
  134.0047  138.9908  162.5717 H   0  0  0  0  0  0  0  0  0  0  0  0
  132.0934  141.2686  161.5748 H   0  0  0  0  0  0  0  0  0  0  0  0
  133.6639  141.5036  162.5127 H   0  0  0  0  0  0  0  0  0  0  0  0
  133.3774  140.1200  159.7129 H   0  0  0  0  0  0  0  0  0  0  0  0
  134.9478  140.3548  160.6511 H   0  0  0  0  0  0  0  0  0  0  0  0
  134.1918  136.8894  161.0318 H   0  0  0  0  0  0  0  0  0  0  0  0
  133.2334  135.5777  160.6030 H   0  0  0  0  0  0  0  0  0  0  0  0
  1  2  1  0
  1 32  1  0
  1 33  1  0
  1 34  1  0
  2  6  1  0
  2  3  1  0
  3  4  2  0
  4  5  1  0
  4 35  1  0
  5  6  2  0
  5 36  1  0
  6  7  1  0
  7  8  1  1
  7  9  1  0
  7 23  1  0
  9 37  1  0
 10  9  1  0
 10 21  2  0
 10 11  1  0
 11 12  1  0
 11 13  1  0
 13 14  2  0
 13 38  1  0
 14 15  1  0
 14 21  1  0
 15 20  1  0
 15 16  2  0
 16 17  1  0
 16 39  1  0
 17 18  2  0
 17 40  1  0
 18 19  1  0
 18 41  1  0
 19 20  2  0
 20 42  1  0
 21 22  1  0
 23 30  2  0
 23 24  1  0
 24 25  2  0
 24 43  1  0
 25 26  1  0
 26 27  1  0
 26 30  1  0
 27 29  1  0
 27 28  1  0
 27 44  1  0
 28 29  1  0
 28 45  1  0
 28 46  1  0
 29 47  1  0
 29 48  1  0
 30 31  1  0
 31 49  1  0
 31 50  1  0
M  CHG  1  21   1
M  END
>  <DOCK_score>  (1) 
-57.556969

>  <SMILES>  (1) 
Cn1nccc1[C@@H](Nc1[nH]cc(-c2cccnc2)[nH+]1)c1cnn(C2CC2)c1N

$$$$
