Cc1c(N)cccc1N1CC[NH+](C(c2ccccc2)c2ccccc2)CC1
     RDKit          3D

 55 58  0  0  0  0  0  0  0  0999 V2000
  133.2645  138.6003  163.5210 C   0  0  0  0  0  0  0  0  0  0  0  0
  133.8761  139.1209  162.2459 C   0  0  0  0  0  0  0  0  0  0  0  0
  134.8032  140.1529  162.2899 C   0  0  0  0  0  0  0  0  0  0  0  0
  135.1708  140.7106  163.5165 N   0  0  0  0  0  0  0  0  0  0  0  0
  135.3617  140.6337  161.1119 C   0  0  0  0  0  0  0  0  0  0  0  0
  134.9983  140.0827  159.8980 C   0  0  0  0  0  0  0  0  0  0  0  0
  134.0799  139.0520  159.8511 C   0  0  0  0  0  0  0  0  0  0  0  0
  133.5180  138.5658  161.0258 C   0  0  0  0  0  0  0  0  0  0  0  0
  132.5898  137.5233  160.9774 N   0  0  0  0  0  0  0  0  0  0  0  0
  131.3791  137.9293  160.2496 C   0  0  0  0  0  0  0  0  0  0  0  0
  130.3662  136.7825  160.2707 C   0  0  0  0  0  0  0  0  0  0  0  0
  130.9592  135.5936  159.6445 N   0  0  0  0  0  0  0  0  0  0  0  0
  131.2185  135.8086  158.6934 H   0  0  0  0  0  0  0  0  0  0  0  0
  129.9801  134.4984  159.6488 C   0  0  0  0  0  0  0  0  0  0  0  0
  128.7559  134.9159  158.8754 C   0  0  0  0  0  0  0  0  0  0  0  0
  127.5177  134.4006  159.2102 C   0  0  0  0  0  0  0  0  0  0  0  0
  126.3942  134.7874  158.5039 C   0  0  0  0  0  0  0  0  0  0  0  0
  126.5103  135.6816  157.4561 C   0  0  0  0  0  0  0  0  0  0  0  0
  127.7493  136.1930  157.1181 C   0  0  0  0  0  0  0  0  0  0  0  0
  128.8721  135.8101  157.8277 C   0  0  0  0  0  0  0  0  0  0  0  0
  130.5883  133.2784  159.0063 C   0  0  0  0  0  0  0  0  0  0  0  0
  130.4556  133.0752  157.6454 C   0  0  0  0  0  0  0  0  0  0  0  0
  131.0176  131.9584  157.0554 C   0  0  0  0  0  0  0  0  0  0  0  0
  131.7032  131.0397  157.8279 C   0  0  0  0  0  0  0  0  0  0  0  0
  131.8313  131.2402  159.1895 C   0  0  0  0  0  0  0  0  0  0  0  0
  131.2739  132.3596  159.7788 C   0  0  0  0  0  0  0  0  0  0  0  0
  132.1529  135.1856  160.3968 C   0  0  0  0  0  0  0  0  0  0  0  0
  133.1808  136.3191  160.3767 C   0  0  0  0  0  0  0  0  0  0  0  0
  133.9285  137.8597  163.9666 H   0  0  0  0  0  0  0  0  0  0  0  0
  133.1206  139.4257  164.2183 H   0  0  0  0  0  0  0  0  0  0  0  0
  132.3018  138.1392  163.3003 H   0  0  0  0  0  0  0  0  0  0  0  0
  135.8162  141.4341  163.5463 H   0  0  0  0  0  0  0  0  0  0  0  0
  134.7806  140.3746  164.3385 H   0  0  0  0  0  0  0  0  0  0  0  0
  136.0804  141.4392  161.1452 H   0  0  0  0  0  0  0  0  0  0  0  0
  135.4335  140.4584  158.9839 H   0  0  0  0  0  0  0  0  0  0  0  0
  133.7981  138.6234  158.9007 H   0  0  0  0  0  0  0  0  0  0  0  0
  131.6378  138.1671  159.2178 H   0  0  0  0  0  0  0  0  0  0  0  0
  130.9447  138.8072  160.7276 H   0  0  0  0  0  0  0  0  0  0  0  0
  129.4731  137.0764  159.7192 H   0  0  0  0  0  0  0  0  0  0  0  0
  130.0975  136.5541  161.3022 H   0  0  0  0  0  0  0  0  0  0  0  0
  129.6993  134.2662  160.6761 H   0  0  0  0  0  0  0  0  0  0  0  0
  127.4276  133.6986  160.0259 H   0  0  0  0  0  0  0  0  0  0  0  0
  125.4263  134.3875  158.7678 H   0  0  0  0  0  0  0  0  0  0  0  0
  125.6332  135.9803  156.9015 H   0  0  0  0  0  0  0  0  0  0  0  0
  127.8402  136.8914  156.2992 H   0  0  0  0  0  0  0  0  0  0  0  0
  129.8401  136.2095  157.5633 H   0  0  0  0  0  0  0  0  0  0  0  0
  129.9162  133.7907  157.0426 H   0  0  0  0  0  0  0  0  0  0  0  0
  130.9172  131.8016  155.9915 H   0  0  0  0  0  0  0  0  0  0  0  0
  132.1385  130.1650  157.3675 H   0  0  0  0  0  0  0  0  0  0  0  0
  132.3667  130.5223  159.7931 H   0  0  0  0  0  0  0  0  0  0  0  0
  131.3737  132.5161  160.8428 H   0  0  0  0  0  0  0  0  0  0  0  0
  131.8751  134.9654  161.4276 H   0  0  0  0  0  0  0  0  0  0  0  0
  132.5845  134.2957  159.9388 H   0  0  0  0  0  0  0  0  0  0  0  0
  134.0607  136.0224  160.9476 H   0  0  0  0  0  0  0  0  0  0  0  0
  133.4691  136.5304  159.3470 H   0  0  0  0  0  0  0  0  0  0  0  0
  1  2  1  0
  1 29  1  0
  1 30  1  0
  1 31  1  0
  2  8  2  0
  2  3  1  0
  3  4  1  0
  3  5  2  0
  4 32  1  0
  4 33  1  0
  5  6  1  0
  5 34  1  0
  6  7  2  0
  6 35  1  0
  7  8  1  0
  7 36  1  0
  8  9  1  0
  9 28  1  0
  9 10  1  0
 10 11  1  0
 10 37  1  0
 10 38  1  0
 11 12  1  0
 11 39  1  0
 11 40  1  0
 12 13  1  0
 12 14  1  0
 12 27  1  0
 14 15  1  0
 14 21  1  0
 14 41  1  0
 15 20  1  0
 15 16  2  0
 16 17  1  0
 16 42  1  0
 17 18  2  0
 17 43  1  0
 18 19  1  0
 18 44  1  0
 19 20  2  0
 19 45  1  0
 20 46  1  0
 21 26  1  0
 21 22  2  0
 22 23  1  0
 22 47  1  0
 23 24  2  0
 23 48  1  0
 24 25  1  0
 24 49  1  0
 25 26  2  0
 25 50  1  0
 26 51  1  0
 27 28  1  0
 27 52  1  0
 27 53  1  0
 28 54  1  0
 28 55  1  0
M  CHG  1  12   1
M  END
>  <DOCK_score>  (1) 
-56.669743

>  <SMILES>  (1) 
Cc1c(N)cccc1N1CC[NH+](C(c2ccccc2)c2ccccc2)CC1

$$$$
