Cc1ccc(CC[C@@H](C)Nc2[nH]cc(-c3ccc(N)cc3)[nH+]2)cc1
     RDKit          3D

 49 51  0  0  1  0  0  0  0  0999 V2000
  130.5566  142.3942  163.0324 C   0  0  0  0  0  0  0  0  0  0  0  0
  130.1002  141.0681  162.4806 C   0  0  0  0  0  0  0  0  0  0  0  0
  129.6297  140.0887  163.3361 C   0  0  0  0  0  0  0  0  0  0  0  0
  129.2112  138.8723  162.8300 C   0  0  0  0  0  0  0  0  0  0  0  0
  129.2623  138.6354  161.4692 C   0  0  0  0  0  0  0  0  0  0  0  0
  128.8061  137.3093  160.9174 C   0  0  0  0  0  0  0  0  0  0  0  0
  129.5975  136.9851  159.6489 C   0  0  0  0  0  0  0  0  0  0  0  0
  129.1342  135.6388  159.0887 C   0  0  1  0  0  0  0  0  0  0  0  0
  128.9648  134.9426  159.9101 H   0  0  0  0  0  0  0  0  0  0  0  0
  127.8331  135.8320  158.3073 C   0  0  0  0  0  0  0  0  0  0  0  0
  130.1642  135.1004  158.1968 N   0  0  0  0  0  0  0  0  0  0  0  0
  129.9678  133.8828  157.5679 C   0  0  0  0  0  0  0  0  0  0  0  0
  129.2297  132.8489  158.0556 N   0  0  0  0  0  0  0  0  0  0  0  0
  128.7509  132.8322  158.8991 H   0  0  0  0  0  0  0  0  0  0  0  0
  129.2884  131.8320  157.1322 C   0  0  0  0  0  0  0  0  0  0  0  0
  130.0599  132.2745  156.1087 C   0  0  0  0  0  0  0  0  0  0  0  0
  130.4039  131.5135  154.8825 C   0  0  0  0  0  0  0  0  0  0  0  0
  130.0345  132.0028  153.6306 C   0  0  0  0  0  0  0  0  0  0  0  0
  130.3600  131.2964  152.4920 C   0  0  0  0  0  0  0  0  0  0  0  0
  131.0456  130.0922  152.5923 C   0  0  0  0  0  0  0  0  0  0  0  0
  131.3691  129.3755  151.4376 N   0  0  0  0  0  0  0  0  0  0  0  0
  131.4105  129.5995  153.8400 C   0  0  0  0  0  0  0  0  0  0  0  0
  131.0922  130.3053  154.9811 C   0  0  0  0  0  0  0  0  0  0  0  0
  130.4575  133.5379  156.4020 N   0  0  0  0  0  0  0  0  0  0  0  0
  131.0169  134.0962  155.8397 H   0  0  0  0  0  0  0  0  0  0  0  0
  129.7376  139.6127  160.6148 C   0  0  0  0  0  0  0  0  0  0  0  0
  130.1521  140.8307  161.1205 C   0  0  0  0  0  0  0  0  0  0  0  0
  131.6201  142.3435  163.2672 H   0  0  0  0  0  0  0  0  0  0  0  0
  130.3845  143.1744  162.2919 H   0  0  0  0  0  0  0  0  0  0  0  0
  129.9958  142.6229  163.9391 H   0  0  0  0  0  0  0  0  0  0  0  0
  129.5892  140.2739  164.3994 H   0  0  0  0  0  0  0  0  0  0  0  0
  128.8437  138.1073  163.4979 H   0  0  0  0  0  0  0  0  0  0  0  0
  127.7437  137.3610  160.6796 H   0  0  0  0  0  0  0  0  0  0  0  0
  128.9745  136.5295  161.6601 H   0  0  0  0  0  0  0  0  0  0  0  0
  130.6599  136.9334  159.8868 H   0  0  0  0  0  0  0  0  0  0  0  0
  129.4290  137.7651  158.9062 H   0  0  0  0  0  0  0  0  0  0  0  0
  127.5030  134.8729  157.9083 H   0  0  0  0  0  0  0  0  0  0  0  0
  128.0027  136.5284  157.4859 H   0  0  0  0  0  0  0  0  0  0  0  0
  127.0667  136.2327  158.9709 H   0  0  0  0  0  0  0  0  0  0  0  0
  130.9838  135.5971  158.0470 H   0  0  0  0  0  0  0  0  0  0  0  0
  128.8114  130.8660  157.2075 H   0  0  0  0  0  0  0  0  0  0  0  0
  129.4973  132.9365  153.5523 H   0  0  0  0  0  0  0  0  0  0  0  0
  130.0778  131.6774  151.5215 H   0  0  0  0  0  0  0  0  0  0  0  0
  131.8483  128.5343  151.5073 H   0  0  0  0  0  0  0  0  0  0  0  0
  131.1152  129.7179  150.5670 H   0  0  0  0  0  0  0  0  0  0  0  0
  131.9434  128.6631  153.9158 H   0  0  0  0  0  0  0  0  0  0  0  0
  131.3761  129.9225  155.9501 H   0  0  0  0  0  0  0  0  0  0  0  0
  129.7818  139.4260  159.5520 H   0  0  0  0  0  0  0  0  0  0  0  0
  130.5195  141.5958  160.4526 H   0  0  0  0  0  0  0  0  0  0  0  0
  1  2  1  0
  1 28  1  0
  1 29  1  0
  1 30  1  0
  2 27  2  0
  2  3  1  0
  3  4  2  0
  3 31  1  0
  4  5  1  0
  4 32  1  0
  5  6  1  0
  5 26  2  0
  6  7  1  0
  6 33  1  0
  6 34  1  0
  7  8  1  0
  7 35  1  0
  7 36  1  0
  8  9  1  1
  8 10  1  0
  8 11  1  0
 10 37  1  0
 10 38  1  0
 10 39  1  0
 11 40  1  0
 12 11  1  0
 12 24  2  0
 12 13  1  0
 13 14  1  0
 13 15  1  0
 15 16  2  0
 15 41  1  0
 16 17  1  0
 16 24  1  0
 17 23  1  0
 17 18  2  0
 18 19  1  0
 18 42  1  0
 19 20  2  0
 19 43  1  0
 20 21  1  0
 20 22  1  0
 21 44  1  0
 21 45  1  0
 22 23  2  0
 22 46  1  0
 23 47  1  0
 24 25  1  0
 26 27  1  0
 26 48  1  0
 27 49  1  0
M  CHG  1  24   1
M  END
>  <DOCK_score>  (1) 
-56.672897

>  <SMILES>  (1) 
Cc1ccc(CC[C@@H](C)Nc2[nH]cc(-c3ccc(N)cc3)[nH+]2)cc1

$$$$
