[NH3+][C@@H](C(=O)N(Cc1ccccn1)Cc1ccccn1)c1ccc(C(=O)C2=CCCCC2)cc1
     RDKit          3D

 62 65  0  0  1  0  0  0  0  0999 V2000
  133.3311  135.9092  159.4446 N   0  0  0  0  0  0  0  0  0  0  0  0
  132.8449  136.4490  158.7445 H   0  0  0  0  0  0  0  0  0  0  0  0
  134.3155  136.1288  159.4150 H   0  0  0  0  0  0  0  0  0  0  0  0
  133.2004  134.9255  159.2620 H   0  0  0  0  0  0  0  0  0  0  0  0
  132.7963  136.2357  160.7734 C   0  0  1  0  0  0  0  0  0  0  0  0
  133.3217  135.6526  161.5298 H   0  0  0  0  0  0  0  0  0  0  0  0
  132.9917  137.7049  161.0463 C   0  0  0  0  0  0  0  0  0  0  0  0
  132.9944  138.4972  160.1281 O   0  0  0  0  0  0  0  0  0  0  0  0
  133.1634  138.1384  162.3108 N   0  0  0  0  0  0  0  0  0  0  0  0
  133.3532  139.5667  162.5760 C   0  0  0  0  0  0  0  0  0  0  0  0
  132.0133  140.2181  162.8023 C   0  0  0  0  0  0  0  0  0  0  0  0
  131.8513  141.1000  163.8542 C   0  0  0  0  0  0  0  0  0  0  0  0
  130.6147  141.6942  164.0533 C   0  0  0  0  0  0  0  0  0  0  0  0
  129.5826  141.3777  163.1830 C   0  0  0  0  0  0  0  0  0  0  0  0
  129.8178  140.4829  162.1566 C   0  0  0  0  0  0  0  0  0  0  0  0
  131.0090  139.9406  161.9942 N   0  0  0  0  0  0  0  0  0  0  0  0
  133.1600  137.1816  163.4201 C   0  0  0  0  0  0  0  0  0  0  0  0
  134.5639  136.6917  163.6653 C   0  0  0  0  0  0  0  0  0  0  0  0
  135.3804  137.3726  164.5486 C   0  0  0  0  0  0  0  0  0  0  0  0
  136.6684  136.9103  164.7712 C   0  0  0  0  0  0  0  0  0  0  0  0
  137.0925  135.7821  164.0856 C   0  0  0  0  0  0  0  0  0  0  0  0
  136.2216  135.1571  163.2136 C   0  0  0  0  0  0  0  0  0  0  0  0
  135.0009  135.6218  163.0305 N   0  0  0  0  0  0  0  0  0  0  0  0
  131.3261  135.9077  160.8175 C   0  0  0  0  0  0  0  0  0  0  0  0
  130.4547  136.5312  159.9418 C   0  0  0  0  0  0  0  0  0  0  0  0
  129.1086  136.2321  159.9736 C   0  0  0  0  0  0  0  0  0  0  0  0
  128.6243  135.3053  160.8992 C   0  0  0  0  0  0  0  0  0  0  0  0
  127.1821  134.9832  160.9422 C   0  0  0  0  0  0  0  0  0  0  0  0
  126.3698  135.8597  161.1684 O   0  0  0  0  0  0  0  0  0  0  0  0
  126.7299  133.6039  160.7116 C   0  0  0  0  0  0  0  0  0  0  0  0
  127.4553  132.8359  159.9242 C   0  0  0  0  0  0  0  0  0  0  0  0
  127.1076  131.4133  159.5955 C   0  0  0  0  0  0  0  0  0  0  0  0
  126.0874  130.8748  160.6007 C   0  0  0  0  0  0  0  0  0  0  0  0
  124.9374  131.8828  160.7150 C   0  0  0  0  0  0  0  0  0  0  0  0
  125.4714  133.1492  161.3916 C   0  0  0  0  0  0  0  0  0  0  0  0
  129.5085  134.6837  161.7834 C   0  0  0  0  0  0  0  0  0  0  0  0
  130.8529  134.9886  161.7375 C   0  0  0  0  0  0  0  0  0  0  0  0
  133.8443  140.0327  161.7217 H   0  0  0  0  0  0  0  0  0  0  0  0
  133.9727  139.6921  163.4640 H   0  0  0  0  0  0  0  0  0  0  0  0
  132.6776  141.3231  164.5130 H   0  0  0  0  0  0  0  0  0  0  0  0
  130.4591  142.3873  164.8667 H   0  0  0  0  0  0  0  0  0  0  0  0
  128.6061  141.8215  163.3083 H   0  0  0  0  0  0  0  0  0  0  0  0
  129.0182  140.2281  161.4769 H   0  0  0  0  0  0  0  0  0  0  0  0
  132.7830  137.6689  164.3191 H   0  0  0  0  0  0  0  0  0  0  0  0
  132.5190  136.3364  163.1690 H   0  0  0  0  0  0  0  0  0  0  0  0
  135.0182  138.2508  165.0621 H   0  0  0  0  0  0  0  0  0  0  0  0
  137.3272  137.4193  165.4592 H   0  0  0  0  0  0  0  0  0  0  0  0
  138.0909  135.3969  164.2309 H   0  0  0  0  0  0  0  0  0  0  0  0
  136.5443  134.2781  162.6756 H   0  0  0  0  0  0  0  0  0  0  0  0
  130.8300  137.2509  159.2294 H   0  0  0  0  0  0  0  0  0  0  0  0
  128.4302  136.7165  159.2869 H   0  0  0  0  0  0  0  0  0  0  0  0
  128.3518  133.2540  159.4906 H   0  0  0  0  0  0  0  0  0  0  0  0
  126.6848  131.3672  158.5918 H   0  0  0  0  0  0  0  0  0  0  0  0
  128.0097  130.8027  159.6338 H   0  0  0  0  0  0  0  0  0  0  0  0
  125.7014  129.9166  160.2529 H   0  0  0  0  0  0  0  0  0  0  0  0
  126.5629  130.7499  161.5736 H   0  0  0  0  0  0  0  0  0  0  0  0
  124.5622  132.1245  159.7205 H   0  0  0  0  0  0  0  0  0  0  0  0
  124.1357  131.4570  161.3184 H   0  0  0  0  0  0  0  0  0  0  0  0
  125.6823  132.9412  162.4406 H   0  0  0  0  0  0  0  0  0  0  0  0
  124.7202  133.9362  161.3253 H   0  0  0  0  0  0  0  0  0  0  0  0
  129.1405  133.9662  162.5019 H   0  0  0  0  0  0  0  0  0  0  0  0
  131.5379  134.5087  162.4209 H   0  0  0  0  0  0  0  0  0  0  0  0
  1  2  1  0
  1  3  1  0
  1  4  1  0
  1  5  1  0
  5  6  1  1
  5  7  1  0
  5 24  1  0
  7  8  2  0
  7  9  1  0
  9 10  1  0
  9 17  1  0
 10 11  1  0
 10 38  1  0
 10 39  1  0
 11 16  1  0
 11 12  2  0
 12 13  1  0
 12 40  1  0
 13 14  2  0
 13 41  1  0
 14 15  1  0
 14 42  1  0
 15 16  2  0
 15 43  1  0
 17 18  1  0
 17 44  1  0
 17 45  1  0
 18 23  1  0
 18 19  2  0
 19 20  1  0
 19 46  1  0
 20 21  2  0
 20 47  1  0
 21 22  1  0
 21 48  1  0
 22 23  2  0
 22 49  1  0
 24 37  1  0
 24 25  2  0
 25 26  1  0
 25 50  1  0
 26 27  2  0
 26 51  1  0
 27 28  1  0
 27 36  1  0
 28 29  2  0
 28 30  1  0
 30 35  1  0
 30 31  2  0
 31 32  1  0
 31 52  1  0
 32 33  1  0
 32 53  1  0
 32 54  1  0
 33 34  1  0
 33 55  1  0
 33 56  1  0
 34 35  1  0
 34 57  1  0
 34 58  1  0
 35 59  1  0
 35 60  1  0
 36 37  2  0
 36 61  1  0
 37 62  1  0
M  CHG  1   1   1
M  END
>  <DOCK_score>  (1) 
-41.999123

>  <SMILES>  (1) 
[NH3+][C@@H](C(=O)N(Cc1ccccn1)Cc1ccccn1)c1ccc(C(=O)C2=CCCCC2)cc1

$$$$
