CC([C@@H](C)[NH+]=C(NCC1CC(O)C1(C)C)NC1CCCCC1)n1cccn1
     RDKit          3D

 65 67  0  0  1  0  0  0  0  0999 V2000
  133.9314  138.3465  159.2741 C   0  0  0  0  0  0  0  0  0  0  0  0
  132.5236  138.2370  159.8631 C   0  0  1  0  0  0  0  0  0  0  0  0
  132.4352  136.9895  160.7446 C   0  0  1  0  0  0  0  0  0  0  0  0
  132.6478  136.1048  160.1443 H   0  0  0  0  0  0  0  0  0  0  0  0
  133.4561  137.0934  161.8794 C   0  0  0  0  0  0  0  0  0  0  0  0
  131.0871  136.8848  161.3085 N   0  0  0  0  0  0  0  0  0  0  0  0
  130.8837  137.3026  162.1599 H   0  0  0  0  0  0  0  0  0  0  0  0
  130.1610  136.2302  160.6659 C   0  0  0  0  0  0  0  0  0  0  0  0
  128.8958  136.1319  161.1952 N   0  0  0  0  0  0  0  0  0  0  0  0
  128.5887  136.7628  162.4812 C   0  0  0  0  0  0  0  0  0  0  0  0
  127.1237  136.5046  162.8389 C   0  0  2  0  0  0  0  0  0  0  0  0
  126.7130  137.0784  164.2053 C   0  0  0  0  0  0  0  0  0  0  0  0
  125.8979  135.7888  164.4117 C   0  0  1  0  0  0  0  0  0  0  0  0
  124.5593  135.8747  163.9190 O   0  0  0  0  0  0  0  0  0  0  0  0
  126.8716  135.1094  163.4345 C   0  0  0  0  0  0  0  0  0  0  0  0
  126.1907  134.1425  162.4636 C   0  0  0  0  0  0  0  0  0  0  0  0
  128.1000  134.5027  164.1156 C   0  0  0  0  0  0  0  0  0  0  0  0
  130.4492  135.6382  159.4592 N   0  0  0  0  0  0  0  0  0  0  0  0
  129.7357  134.4262  159.0489 C   0  0  0  0  0  0  0  0  0  0  0  0
  129.9834  133.3170  160.0732 C   0  0  0  0  0  0  0  0  0  0  0  0
  129.2383  132.0513  159.6447 C   0  0  0  0  0  0  0  0  0  0  0  0
  129.7448  131.6011  158.2730 C   0  0  0  0  0  0  0  0  0  0  0  0
  129.4969  132.7102  157.2486 C   0  0  0  0  0  0  0  0  0  0  0  0
  130.2421  133.9759  157.6771 C   0  0  0  0  0  0  0  0  0  0  0  0
  132.2379  139.4262  160.6696 N   0  0  0  0  0  0  0  0  0  0  0  0
  131.0223  139.9774  160.8684 C   0  0  0  0  0  0  0  0  0  0  0  0
  131.1842  141.0545  161.6712 C   0  0  0  0  0  0  0  0  0  0  0  0
  132.5465  141.1711  161.9656 C   0  0  0  0  0  0  0  0  0  0  0  0
  133.1792  140.1956  161.3657 N   0  0  0  0  0  0  0  0  0  0  0  0
  134.1441  137.4618  158.6740 H   0  0  0  0  0  0  0  0  0  0  0  0
  133.9945  139.2352  158.6461 H   0  0  0  0  0  0  0  0  0  0  0  0
  134.6588  138.4205  160.0826 H   0  0  0  0  0  0  0  0  0  0  0  0
  131.7964  138.1629  159.0546 H   0  0  0  0  0  0  0  0  0  0  0  0
  133.2102  137.9459  162.5124 H   0  0  0  0  0  0  0  0  0  0  0  0
  133.4322  136.1803  162.4742 H   0  0  0  0  0  0  0  0  0  0  0  0
  134.4532  137.2278  161.4599 H   0  0  0  0  0  0  0  0  0  0  0  0
  128.2067  135.6447  160.7170 H   0  0  0  0  0  0  0  0  0  0  0  0
  129.2312  136.3422  163.2549 H   0  0  0  0  0  0  0  0  0  0  0  0
  128.7615  137.8366  162.4095 H   0  0  0  0  0  0  0  0  0  0  0  0
  126.4387  136.7654  162.0321 H   0  0  0  0  0  0  0  0  0  0  0  0
  127.5446  137.1855  164.9017 H   0  0  0  0  0  0  0  0  0  0  0  0
  126.1001  137.9770  164.1351 H   0  0  0  0  0  0  0  0  0  0  0  0
  125.9510  135.3938  165.4262 H   0  0  0  0  0  0  0  0  0  0  0  0
  124.4743  136.3762  163.0966 H   0  0  0  0  0  0  0  0  0  0  0  0
  126.8178  134.0115  161.5818 H   0  0  0  0  0  0  0  0  0  0  0  0
  126.0451  133.1793  162.9525 H   0  0  0  0  0  0  0  0  0  0  0  0
  125.2240  134.5483  162.1650 H   0  0  0  0  0  0  0  0  0  0  0  0
  128.3927  135.1270  164.9599 H   0  0  0  0  0  0  0  0  0  0  0  0
  127.8605  133.5005  164.4707 H   0  0  0  0  0  0  0  0  0  0  0  0
  128.9218  134.4486  163.4016 H   0  0  0  0  0  0  0  0  0  0  0  0
  131.1251  136.0228  158.8793 H   0  0  0  0  0  0  0  0  0  0  0  0
  128.6675  134.6354  158.9910 H   0  0  0  0  0  0  0  0  0  0  0  0
  131.0516  133.1078  160.1310 H   0  0  0  0  0  0  0  0  0  0  0  0
  129.6227  133.6379  161.0505 H   0  0  0  0  0  0  0  0  0  0  0  0
  128.1701  132.2606  159.5870 H   0  0  0  0  0  0  0  0  0  0  0  0
  129.4147  131.2612  160.3745 H   0  0  0  0  0  0  0  0  0  0  0  0
  129.2138  130.6994  157.9677 H   0  0  0  0  0  0  0  0  0  0  0  0
  130.8128  131.3918  158.3308 H   0  0  0  0  0  0  0  0  0  0  0  0
  128.4288  132.9194  157.1909 H   0  0  0  0  0  0  0  0  0  0  0  0
  129.8577  132.3894  156.2714 H   0  0  0  0  0  0  0  0  0  0  0  0
  130.0657  134.7661  156.9473 H   0  0  0  0  0  0  0  0  0  0  0  0
  131.3103  133.7667  157.7349 H   0  0  0  0  0  0  0  0  0  0  0  0
  130.0875  139.6209  160.4617 H   0  0  0  0  0  0  0  0  0  0  0  0
  130.4004  141.7110  162.0194 H   0  0  0  0  0  0  0  0  0  0  0  0
  132.9982  141.9344  162.5819 H   0  0  0  0  0  0  0  0  0  0  0  0
  1  2  1  0
  1 30  1  0
  1 31  1  0
  1 32  1  0
  2  3  1  0
  2 25  1  0
  2 33  1  6
  3  4  1  6
  3  5  1  0
  3  6  1  0
  5 34  1  0
  5 35  1  0
  5 36  1  0
  6  7  1  0
  8  6  2  0
  8  9  1  0
  8 18  1  0
  9 10  1  0
  9 37  1  0
 10 11  1  0
 10 38  1  0
 10 39  1  0
 11 15  1  0
 11 12  1  0
 11 40  1  6
 12 13  1  0
 12 41  1  0
 12 42  1  0
 13 14  1  0
 13 15  1  0
 13 43  1  1
 14 44  1  0
 15 16  1  0
 15 17  1  0
 16 45  1  0
 16 46  1  0
 16 47  1  0
 17 48  1  0
 17 49  1  0
 17 50  1  0
 18 19  1  0
 18 51  1  0
 19 24  1  0
 19 20  1  0
 19 52  1  0
 20 21  1  0
 20 53  1  0
 20 54  1  0
 21 22  1  0
 21 55  1  0
 21 56  1  0
 22 23  1  0
 22 57  1  0
 22 58  1  0
 23 24  1  0
 23 59  1  0
 23 60  1  0
 24 61  1  0
 24 62  1  0
 25 29  1  0
 25 26  1  0
 26 27  2  0
 26 63  1  0
 27 28  1  0
 27 64  1  0
 28 29  2  0
 28 65  1  0
M  CHG  1   6   1
M  END
>  <DOCK_score>  (1) 
-45.746101

>  <SMILES>  (1) 
CC([C@@H](C)[NH+]=C(NCC1CC(O)C1(C)C)NC1CCCCC1)n1cccn1

$$$$
