Cc1ccc(CSc2ccc(C3(O)C=CC(=O)C=C3)cc2Nc2[nH]cc(-c3ccccc3)[nH+]2)nc1
     RDKit          3D

 60 64  0  0  1  0  0  0  0  0999 V2000
  138.0322  137.4942  163.6219 C   0  0  0  0  0  0  0  0  0  0  0  0
  136.5817  137.1038  163.5011 C   0  0  0  0  0  0  0  0  0  0  0  0
  135.5971  137.8610  164.1175 C   0  0  0  0  0  0  0  0  0  0  0  0
  134.2757  137.4670  163.9749 C   0  0  0  0  0  0  0  0  0  0  0  0
  133.9863  136.3345  163.2371 C   0  0  0  0  0  0  0  0  0  0  0  0
  132.5538  135.8937  163.0798 C   0  0  0  0  0  0  0  0  0  0  0  0
  131.8401  136.6723  161.6049 S   0  0  0  0  0  0  0  0  0  0  0  0
  130.1920  136.0493  161.5862 C   0  0  0  0  0  0  0  0  0  0  0  0
  129.3423  136.2969  162.6546 C   0  0  0  0  0  0  0  0  0  0  0  0
  128.0480  135.8119  162.6350 C   0  0  0  0  0  0  0  0  0  0  0  0
  127.5993  135.0704  161.5574 C   0  0  0  0  0  0  0  0  0  0  0  0
  126.1889  134.5398  161.5459 C   0  0  0  0  0  0  0  0  0  0  0  0
  125.3639  135.4119  162.3212 O   0  0  0  0  0  0  0  0  0  0  0  0
  125.6889  134.5312  160.1358 C   0  0  0  0  0  0  0  0  0  0  0  0
  125.5892  133.4278  159.4094 C   0  0  0  0  0  0  0  0  0  0  0  0
  125.9669  132.1328  160.0055 C   0  0  0  0  0  0  0  0  0  0  0  0
  126.1745  131.1565  159.3093 O   0  0  0  0  0  0  0  0  0  0  0  0
  126.0840  132.0608  161.4740 C   0  0  0  0  0  0  0  0  0  0  0  0
  126.1799  133.1825  162.1755 C   0  0  0  0  0  0  0  0  0  0  0  0
  128.4388  134.8192  160.4880 C   0  0  0  0  0  0  0  0  0  0  0  0
  129.7372  135.3060  160.4964 C   0  0  0  0  0  0  0  0  0  0  0  0
  130.5897  135.0519  159.4146 N   0  0  0  0  0  0  0  0  0  0  0  0
  130.4403  133.8920  158.6729 C   0  0  0  0  0  0  0  0  0  0  0  0
  129.9785  132.7020  159.1461 N   0  0  0  0  0  0  0  0  0  0  0  0
  129.6967  132.5157  160.0554 H   0  0  0  0  0  0  0  0  0  0  0  0
  129.9821  131.8150  158.0976 C   0  0  0  0  0  0  0  0  0  0  0  0
  130.4532  132.4851  157.0166 C   0  0  0  0  0  0  0  0  0  0  0  0
  130.6371  131.9259  155.6551 C   0  0  0  0  0  0  0  0  0  0  0  0
  130.5103  132.7493  154.5376 C   0  0  0  0  0  0  0  0  0  0  0  0
  130.6875  132.2247  153.2736 C   0  0  0  0  0  0  0  0  0  0  0  0
  130.9795  130.8816  153.1139 C   0  0  0  0  0  0  0  0  0  0  0  0
  131.1011  130.0590  154.2190 C   0  0  0  0  0  0  0  0  0  0  0  0
  130.9315  130.5739  155.4881 C   0  0  0  0  0  0  0  0  0  0  0  0
  130.7258  133.7571  157.4006 N   0  0  0  0  0  0  0  0  0  0  0  0
  131.0761  134.4554  156.8255 H   0  0  0  0  0  0  0  0  0  0  0  0
  134.9488  135.6384  162.6646 N   0  0  0  0  0  0  0  0  0  0  0  0
  136.2162  135.9865  162.7748 C   0  0  0  0  0  0  0  0  0  0  0  0
  138.2970  138.1658  162.8053 H   0  0  0  0  0  0  0  0  0  0  0  0
  138.1945  137.9987  164.5744 H   0  0  0  0  0  0  0  0  0  0  0  0
  138.6543  136.6005  163.5735 H   0  0  0  0  0  0  0  0  0  0  0  0
  135.8532  138.7395  164.6912 H   0  0  0  0  0  0  0  0  0  0  0  0
  133.4825  138.0357  164.4375 H   0  0  0  0  0  0  0  0  0  0  0  0
  131.9834  136.1913  163.9597 H   0  0  0  0  0  0  0  0  0  0  0  0
  132.5169  134.8098  162.9724 H   0  0  0  0  0  0  0  0  0  0  0  0
  129.6907  136.8721  163.4997 H   0  0  0  0  0  0  0  0  0  0  0  0
  127.3866  136.0088  163.4656 H   0  0  0  0  0  0  0  0  0  0  0  0
  125.3363  136.3215  161.9936 H   0  0  0  0  0  0  0  0  0  0  0  0
  125.3966  135.4691  159.6872 H   0  0  0  0  0  0  0  0  0  0  0  0
  125.2330  133.4756  158.3909 H   0  0  0  0  0  0  0  0  0  0  0  0
  126.0913  131.1035  161.9737 H   0  0  0  0  0  0  0  0  0  0  0  0
  126.2546  133.1129  163.2506 H   0  0  0  0  0  0  0  0  0  0  0  0
  128.0835  134.2435  159.6460 H   0  0  0  0  0  0  0  0  0  0  0  0
  131.2847  135.6884  159.1847 H   0  0  0  0  0  0  0  0  0  0  0  0
  129.6728  130.7807  158.1290 H   0  0  0  0  0  0  0  0  0  0  0  0
  130.2781  133.7969  154.6612 H   0  0  0  0  0  0  0  0  0  0  0  0
  130.5939  132.8628  152.4073 H   0  0  0  0  0  0  0  0  0  0  0  0
  131.1131  130.4742  152.1227 H   0  0  0  0  0  0  0  0  0  0  0  0
  131.3296  129.0117  154.0882 H   0  0  0  0  0  0  0  0  0  0  0  0
  131.0272  129.9304  156.3501 H   0  0  0  0  0  0  0  0  0  0  0  0
  136.9770  135.3913  162.2917 H   0  0  0  0  0  0  0  0  0  0  0  0
  1  2  1  0
  1 38  1  0
  1 39  1  0
  1 40  1  0
  2 37  2  0
  2  3  1  0
  3  4  2  0
  3 41  1  0
  4  5  1  0
  4 42  1  0
  5  6  1  0
  5 36  2  0
  6  7  1  0
  6 43  1  0
  6 44  1  0
  7  8  1  0
  8 21  1  0
  8  9  2  0
  9 10  1  0
  9 45  1  0
 10 11  2  0
 10 46  1  0
 11 12  1  0
 11 20  1  0
 12 19  1  0
 12 13  1  0
 12 14  1  0
 13 47  1  0
 14 15  2  0
 14 48  1  0
 15 16  1  0
 15 49  1  0
 16 17  2  0
 16 18  1  0
 18 19  2  0
 18 50  1  0
 19 51  1  0
 20 21  2  0
 20 52  1  0
 21 22  1  0
 22 53  1  0
 23 22  1  0
 23 34  2  0
 23 24  1  0
 24 25  1  0
 24 26  1  0
 26 27  2  0
 26 54  1  0
 27 28  1  0
 27 34  1  0
 28 33  1  0
 28 29  2  0
 29 30  1  0
 29 55  1  0
 30 31  2  0
 30 56  1  0
 31 32  1  0
 31 57  1  0
 32 33  2  0
 32 58  1  0
 33 59  1  0
 34 35  1  0
 36 37  1  0
 37 60  1  0
M  CHG  1  34   1
M  END
>  <DOCK_score>  (1) 
-58.11412

>  <SMILES>  (1) 
Cc1ccc(CSc2ccc(C3(O)C=CC(=O)C=C3)cc2Nc2[nH]cc(-c3ccccc3)[nH+]2)nc1

$$$$
