CC(Nc1ccc(C(=O)N[C@H]2CC[NH2+]C3(CCC3)C2)cc1)c1ccc(Cl)cc1
     RDKit          3D

 57 60  0  0  1  0  0  0  0  0999 V2000
  127.6250  139.0414  167.1951 C   0  0  0  0  0  0  0  0  0  0  0  0
  127.5858  140.3615  166.4227 C   0  0  1  0  0  0  0  0  0  0  0  0
  126.6705  140.2352  165.2858 N   0  0  0  0  0  0  0  0  0  0  0  0
  126.9091  139.2791  164.3049 C   0  0  0  0  0  0  0  0  0  0  0  0
  128.0923  139.3137  163.5732 C   0  0  0  0  0  0  0  0  0  0  0  0
  128.3330  138.3653  162.6057 C   0  0  0  0  0  0  0  0  0  0  0  0
  127.3820  137.3730  162.3497 C   0  0  0  0  0  0  0  0  0  0  0  0
  127.6340  136.3587  161.3085 C   0  0  0  0  0  0  0  0  0  0  0  0
  126.7004  135.8275  160.7387 O   0  0  0  0  0  0  0  0  0  0  0  0
  128.8990  136.0209  160.9890 N   0  0  0  0  0  0  0  0  0  0  0  0
  129.1493  135.0138  159.9550 C   0  0  1  0  0  0  0  0  0  0  0  0
  128.3269  134.2986  159.9359 H   0  0  0  0  0  0  0  0  0  0  0  0
  129.2645  135.6984  158.5902 C   0  0  0  0  0  0  0  0  0  0  0  0
  129.5641  134.6501  157.5173 C   0  0  0  0  0  0  0  0  0  0  0  0
  130.8483  133.9987  157.8082 N   0  0  0  0  0  0  0  0  0  0  0  0
  131.0504  133.3192  157.0902 H   0  0  0  0  0  0  0  0  0  0  0  0
  131.5801  134.6931  157.8288 H   0  0  0  0  0  0  0  0  0  0  0  0
  130.7771  133.3276  159.1085 C   0  0  0  0  0  0  0  0  0  0  0  0
  131.9715  132.4065  159.3899 C   0  0  0  0  0  0  0  0  0  0  0  0
  130.9624  131.4191  160.0011 C   0  0  0  0  0  0  0  0  0  0  0  0
  129.8979  132.0698  159.1010 C   0  0  0  0  0  0  0  0  0  0  0  0
  130.4600  134.2803  160.2601 C   0  0  0  0  0  0  0  0  0  0  0  0
  126.1916  137.3443  163.0821 C   0  0  0  0  0  0  0  0  0  0  0  0
  125.9593  138.2921  164.0523 C   0  0  0  0  0  0  0  0  0  0  0  0
  127.1067  141.4625  167.3333 C   0  0  0  0  0  0  0  0  0  0  0  0
  126.4150  142.5394  166.8107 C   0  0  0  0  0  0  0  0  0  0  0  0
  125.9803  143.5522  167.6447 C   0  0  0  0  0  0  0  0  0  0  0  0
  126.2375  143.4883  169.0026 C   0  0  0  0  0  0  0  0  0  0  0  0
  125.6913  144.7599  170.0506 Cl  0  0  0  0  0  0  0  0  0  0  0  0
  126.9296  142.4103  169.5249 C   0  0  0  0  0  0  0  0  0  0  0  0
  127.3639  141.3980  168.6901 C   0  0  0  0  0  0  0  0  0  0  0  0
  126.6253  138.8033  167.5583 H   0  0  0  0  0  0  0  0  0  0  0  0
  127.9716  138.2451  166.5364 H   0  0  0  0  0  0  0  0  0  0  0  0
  128.3061  139.1356  168.0409 H   0  0  0  0  0  0  0  0  0  0  0  0
  128.5856  140.5998  166.0593 H   0  0  0  0  0  0  0  0  0  0  0  0
  125.8985  140.8186  165.2175 H   0  0  0  0  0  0  0  0  0  0  0  0
  128.8245  140.0833  163.7683 H   0  0  0  0  0  0  0  0  0  0  0  0
  129.2534  138.3904  162.0413 H   0  0  0  0  0  0  0  0  0  0  0  0
  129.6437  136.4447  161.4436 H   0  0  0  0  0  0  0  0  0  0  0  0
  128.3259  136.2006  158.3553 H   0  0  0  0  0  0  0  0  0  0  0  0
  130.0712  136.4308  158.6180 H   0  0  0  0  0  0  0  0  0  0  0  0
  128.7715  133.9021  157.5094 H   0  0  0  0  0  0  0  0  0  0  0  0
  129.6161  135.1339  156.5419 H   0  0  0  0  0  0  0  0  0  0  0  0
  132.4572  132.0330  158.4885 H   0  0  0  0  0  0  0  0  0  0  0  0
  132.6768  132.8146  160.1140 H   0  0  0  0  0  0  0  0  0  0  0  0
  130.7887  131.5755  161.0656 H   0  0  0  0  0  0  0  0  0  0  0  0
  131.1651  130.3770  159.7540 H   0  0  0  0  0  0  0  0  0  0  0  0
  128.9348  132.2071  159.5926 H   0  0  0  0  0  0  0  0  0  0  0  0
  129.8098  131.6041  158.1194 H   0  0  0  0  0  0  0  0  0  0  0  0
  131.2674  135.0048  160.3654 H   0  0  0  0  0  0  0  0  0  0  0  0
  130.3538  133.7136  161.1853 H   0  0  0  0  0  0  0  0  0  0  0  0
  125.4549  136.5792  162.8864 H   0  0  0  0  0  0  0  0  0  0  0  0
  125.0396  138.2705  164.6181 H   0  0  0  0  0  0  0  0  0  0  0  0
  126.2143  142.5892  165.7507 H   0  0  0  0  0  0  0  0  0  0  0  0
  125.4398  144.3934  167.2364 H   0  0  0  0  0  0  0  0  0  0  0  0
  127.1311  142.3600  170.5848 H   0  0  0  0  0  0  0  0  0  0  0  0
  127.9040  140.5563  169.0977 H   0  0  0  0  0  0  0  0  0  0  0  0
  1  2  1  0
  1 32  1  0
  1 33  1  0
  1 34  1  0
  2  3  1  0
  2 25  1  0
  2 35  1  6
  3  4  1  0
  3 36  1  0
  4 24  1  0
  4  5  2  0
  5  6  1  0
  5 37  1  0
  6  7  2  0
  6 38  1  0
  7  8  1  0
  7 23  1  0
  8  9  2  0
  8 10  1  0
 10 11  1  0
 10 39  1  0
 11 12  1  6
 11 22  1  0
 11 13  1  0
 13 14  1  0
 13 40  1  0
 13 41  1  0
 14 15  1  0
 14 42  1  0
 14 43  1  0
 15 16  1  0
 15 17  1  0
 15 18  1  0
 18 21  1  0
 18 19  1  0
 18 22  1  0
 19 20  1  0
 19 44  1  0
 19 45  1  0
 20 21  1  0
 20 46  1  0
 20 47  1  0
 21 48  1  0
 21 49  1  0
 22 50  1  0
 22 51  1  0
 23 24  2  0
 23 52  1  0
 24 53  1  0
 25 31  1  0
 25 26  2  0
 26 27  1  0
 26 54  1  0
 27 28  2  0
 27 55  1  0
 28 29  1  0
 28 30  1  0
 30 31  2  0
 30 56  1  0
 31 57  1  0
M  CHG  1  15   1
M  END
>  <DOCK_score>  (1) 
-41.229195

>  <SMILES>  (1) 
CC(Nc1ccc(C(=O)N[C@H]2CC[NH2+]C3(CCC3)C2)cc1)c1ccc(Cl)cc1

$$$$
