Nc1ccc(-c2c[nH]c(Nc3ccc(O)c(-c4ccc(N)cc4)c3)[nH+]2)cc1
     RDKit          3D

 47 50  0  0  1  0  0  0  0  0999 V2000
  131.3292  129.7031  151.8570 N   0  0  0  0  0  0  0  0  0  0  0  0
  131.0388  130.3640  153.0531 C   0  0  0  0  0  0  0  0  0  0  0  0
  130.2395  131.5005  153.0414 C   0  0  0  0  0  0  0  0  0  0  0  0
  129.9515  132.1545  154.2208 C   0  0  0  0  0  0  0  0  0  0  0  0
  130.4632  131.6748  155.4254 C   0  0  0  0  0  0  0  0  0  0  0  0
  130.1548  132.3766  156.6956 C   0  0  0  0  0  0  0  0  0  0  0  0
  129.5105  131.8458  157.7644 C   0  0  0  0  0  0  0  0  0  0  0  0
  129.4376  132.8338  158.7170 N   0  0  0  0  0  0  0  0  0  0  0  0
  129.0320  132.7570  159.5947 H   0  0  0  0  0  0  0  0  0  0  0  0
  130.0401  133.9398  158.2011 C   0  0  0  0  0  0  0  0  0  0  0  0
  130.1792  135.1578  158.8461 N   0  0  0  0  0  0  0  0  0  0  0  0
  129.2223  135.5672  159.7825 C   0  0  0  0  0  0  0  0  0  0  0  0
  127.8965  135.7250  159.3965 C   0  0  0  0  0  0  0  0  0  0  0  0
  126.9478  136.1292  160.3159 C   0  0  0  0  0  0  0  0  0  0  0  0
  127.3144  136.3850  161.6272 C   0  0  0  0  0  0  0  0  0  0  0  0
  126.3801  136.7880  162.5287 O   0  0  0  0  0  0  0  0  0  0  0  0
  128.6451  136.2227  162.0232 C   0  0  0  0  0  0  0  0  0  0  0  0
  129.0413  136.4898  163.4273 C   0  0  0  0  0  0  0  0  0  0  0  0
  129.4576  137.7656  163.8047 C   0  0  0  0  0  0  0  0  0  0  0  0
  129.8195  138.0130  165.1117 C   0  0  0  0  0  0  0  0  0  0  0  0
  129.7814  136.9885  166.0504 C   0  0  0  0  0  0  0  0  0  0  0  0
  130.1543  137.2398  167.3722 N   0  0  0  0  0  0  0  0  0  0  0  0
  129.3721  135.7141  165.6750 C   0  0  0  0  0  0  0  0  0  0  0  0
  129.0034  135.4638  164.3705 C   0  0  0  0  0  0  0  0  0  0  0  0
  129.5987  135.8151  161.0936 C   0  0  0  0  0  0  0  0  0  0  0  0
  130.4623  133.6640  156.9910 N   0  0  0  0  0  0  0  0  0  0  0  0
  130.9232  134.2815  156.4018 H   0  0  0  0  0  0  0  0  0  0  0  0
  131.2697  130.5378  155.4342 C   0  0  0  0  0  0  0  0  0  0  0  0
  131.5500  129.8833  154.2532 C   0  0  0  0  0  0  0  0  0  0  0  0
  130.9732  130.0373  151.0194 H   0  0  0  0  0  0  0  0  0  0  0  0
  131.8875  128.9095  151.8648 H   0  0  0  0  0  0  0  0  0  0  0  0
  129.8436  131.8720  152.1077 H   0  0  0  0  0  0  0  0  0  0  0  0
  129.3299  133.0376  154.2112 H   0  0  0  0  0  0  0  0  0  0  0  0
  129.1284  130.8393  157.8507 H   0  0  0  0  0  0  0  0  0  0  0  0
  130.9394  135.7269  158.6490 H   0  0  0  0  0  0  0  0  0  0  0  0
  127.6070  135.5312  158.3743 H   0  0  0  0  0  0  0  0  0  0  0  0
  125.9189  136.2501  160.0106 H   0  0  0  0  0  0  0  0  0  0  0  0
  125.4888  136.8676  162.1626 H   0  0  0  0  0  0  0  0  0  0  0  0
  129.4920  138.5608  163.0746 H   0  0  0  0  0  0  0  0  0  0  0  0
  130.1379  139.0025  165.4055 H   0  0  0  0  0  0  0  0  0  0  0  0
  130.1278  136.5255  168.0277 H   0  0  0  0  0  0  0  0  0  0  0  0
  130.4401  138.1287  167.6347 H   0  0  0  0  0  0  0  0  0  0  0  0
  129.3432  134.9196  166.4059 H   0  0  0  0  0  0  0  0  0  0  0  0
  128.6850  134.4736  164.0795 H   0  0  0  0  0  0  0  0  0  0  0  0
  130.6290  135.6929  161.3932 H   0  0  0  0  0  0  0  0  0  0  0  0
  131.6711  130.1671  156.3658 H   0  0  0  0  0  0  0  0  0  0  0  0
  132.1708  128.9998  154.2602 H   0  0  0  0  0  0  0  0  0  0  0  0
  1  2  1  0
  1 30  1  0
  1 31  1  0
  2 29  2  0
  2  3  1  0
  3  4  2  0
  3 32  1  0
  4  5  1  0
  4 33  1  0
  5  6  1  0
  5 28  2  0
  6 26  1  0
  6  7  2  0
  7  8  1  0
  7 34  1  0
  8  9  1  0
  8 10  1  0
 10 11  1  0
 10 26  2  0
 11 12  1  0
 11 35  1  0
 12 25  1  0
 12 13  2  0
 13 14  1  0
 13 36  1  0
 14 15  2  0
 14 37  1  0
 15 16  1  0
 15 17  1  0
 16 38  1  0
 17 18  1  0
 17 25  2  0
 18 24  1  0
 18 19  2  0
 19 20  1  0
 19 39  1  0
 20 21  2  0
 20 40  1  0
 21 22  1  0
 21 23  1  0
 22 41  1  0
 22 42  1  0
 23 24  2  0
 23 43  1  0
 24 44  1  0
 25 45  1  0
 26 27  1  0
 28 29  1  0
 28 46  1  0
 29 47  1  0
M  CHG  1  26   1
M  END
>  <DOCK_score>  (1) 
-53.974976

>  <SMILES>  (1) 
Nc1ccc(-c2c[nH]c(Nc3ccc(O)c(-c4ccc(N)cc4)c3)[nH+]2)cc1

$$$$
