Brc1ccccc1Nc1cccc(C2=CC[N@H+](CC3=Cc4ccccc4OC3)CC2)c1
     RDKit          3D

 57 61  0  0  1  0  0  0  0  0999 V2000
  138.3412  137.1143  164.0005 Br  0  0  0  0  0  0  0  0  0  0  0  0
  136.7955  137.7315  164.8981 C   0  0  0  0  0  0  0  0  0  0  0  0
  136.3673  137.1019  166.0512 C   0  0  0  0  0  0  0  0  0  0  0  0
  135.2367  137.5526  166.7076 C   0  0  0  0  0  0  0  0  0  0  0  0
  134.5306  138.6339  166.2127 C   0  0  0  0  0  0  0  0  0  0  0  0
  134.9564  139.2719  165.0643 C   0  0  0  0  0  0  0  0  0  0  0  0
  136.0883  138.8187  164.3987 C   0  0  0  0  0  0  0  0  0  0  0  0
  136.5181  139.4582  163.2327 N   0  0  0  0  0  0  0  0  0  0  0  0
  135.6782  139.5164  162.1175 C   0  0  0  0  0  0  0  0  0  0  0  0
  135.7668  140.5877  161.2356 C   0  0  0  0  0  0  0  0  0  0  0  0
  134.9389  140.6493  160.1309 C   0  0  0  0  0  0  0  0  0  0  0  0
  134.0182  139.6478  159.8960 C   0  0  0  0  0  0  0  0  0  0  0  0
  133.9212  138.5685  160.7754 C   0  0  0  0  0  0  0  0  0  0  0  0
  132.9360  137.4951  160.5259 C   0  0  0  0  0  0  0  0  0  0  0  0
  131.6589  137.8059  160.4738 C   0  0  0  0  0  0  0  0  0  0  0  0
  130.5801  136.7899  160.2319 C   0  0  0  0  0  0  0  0  0  0  0  0
  131.1490  135.5679  159.6516 N   0  0  2  0  0  0  0  0  0  0  0  0
  131.4895  135.7623  158.7220 H   0  0  0  0  0  0  0  0  0  0  0  0
  130.1151  134.5261  159.5887 C   0  0  0  0  0  0  0  0  0  0  0  0
  130.5184  133.4785  158.5833 C   0  0  0  0  0  0  0  0  0  0  0  0
  130.1535  133.6061  157.3111 C   0  0  0  0  0  0  0  0  0  0  0  0
  130.5364  132.5398  156.3618 C   0  0  0  0  0  0  0  0  0  0  0  0
  130.4465  132.7267  154.9865 C   0  0  0  0  0  0  0  0  0  0  0  0
  130.8274  131.7084  154.1343 C   0  0  0  0  0  0  0  0  0  0  0  0
  131.2978  130.5103  154.6437 C   0  0  0  0  0  0  0  0  0  0  0  0
  131.3854  130.3140  156.0102 C   0  0  0  0  0  0  0  0  0  0  0  0
  131.0003  131.3215  156.8754 C   0  0  0  0  0  0  0  0  0  0  0  0
  131.0385  131.1478  158.2215 O   0  0  0  0  0  0  0  0  0  0  0  0
  131.3384  132.2941  159.0219 C   0  0  0  0  0  0  0  0  0  0  0  0
  132.2620  135.1091  160.4978 C   0  0  0  0  0  0  0  0  0  0  0  0
  133.4302  136.0875  160.3348 C   0  0  0  0  0  0  0  0  0  0  0  0
  134.7602  138.5033  161.8871 C   0  0  0  0  0  0  0  0  0  0  0  0
  136.9158  136.2567  166.4401 H   0  0  0  0  0  0  0  0  0  0  0  0
  134.9041  137.0587  167.6087 H   0  0  0  0  0  0  0  0  0  0  0  0
  133.6481  138.9831  166.7281 H   0  0  0  0  0  0  0  0  0  0  0  0
  134.4070  140.1193  164.6814 H   0  0  0  0  0  0  0  0  0  0  0  0
  137.3997  139.8615  163.1974 H   0  0  0  0  0  0  0  0  0  0  0  0
  136.4853  141.3741  161.4143 H   0  0  0  0  0  0  0  0  0  0  0  0
  135.0122  141.4837  159.4492 H   0  0  0  0  0  0  0  0  0  0  0  0
  133.3727  139.6997  159.0316 H   0  0  0  0  0  0  0  0  0  0  0  0
  131.3734  138.8383  160.6115 H   0  0  0  0  0  0  0  0  0  0  0  0
  130.0943  136.5478  161.1772 H   0  0  0  0  0  0  0  0  0  0  0  0
  129.8432  137.2034  159.5434 H   0  0  0  0  0  0  0  0  0  0  0  0
  130.0043  134.0645  160.5698 H   0  0  0  0  0  0  0  0  0  0  0  0
  129.1673  134.9725  159.2880 H   0  0  0  0  0  0  0  0  0  0  0  0
  129.5915  134.4668  156.9799 H   0  0  0  0  0  0  0  0  0  0  0  0
  130.0809  133.6613  154.5876 H   0  0  0  0  0  0  0  0  0  0  0  0
  130.7578  131.8476  153.0656 H   0  0  0  0  0  0  0  0  0  0  0  0
  131.5983  129.7224  153.9689 H   0  0  0  0  0  0  0  0  0  0  0  0
  131.7532  129.3764  156.4001 H   0  0  0  0  0  0  0  0  0  0  0  0
  132.3970  132.5358  158.9262 H   0  0  0  0  0  0  0  0  0  0  0  0
  131.1153  132.0703  160.0651 H   0  0  0  0  0  0  0  0  0  0  0  0
  131.9433  135.0842  161.5398 H   0  0  0  0  0  0  0  0  0  0  0  0
  132.5718  134.1117  160.1858 H   0  0  0  0  0  0  0  0  0  0  0  0
  133.8576  135.9850  159.3373 H   0  0  0  0  0  0  0  0  0  0  0  0
  134.1934  135.8661  161.0810 H   0  0  0  0  0  0  0  0  0  0  0  0
  134.6925  137.6682  162.5687 H   0  0  0  0  0  0  0  0  0  0  0  0
  1  2  1  0
  2  7  2  0
  2  3  1  0
  3  4  2  0
  3 33  1  0
  4  5  1  0
  4 34  1  0
  5  6  2  0
  5 35  1  0
  6  7  1  0
  6 36  1  0
  7  8  1  0
  8  9  1  0
  8 37  1  0
  9 32  1  0
  9 10  2  0
 10 11  1  0
 10 38  1  0
 11 12  2  0
 11 39  1  0
 12 13  1  0
 12 40  1  0
 13 14  1  0
 13 32  2  0
 14 31  1  0
 14 15  2  0
 15 16  1  0
 15 41  1  0
 16 17  1  0
 16 42  1  0
 16 43  1  0
 17 18  1  6
 17 19  1  0
 17 30  1  0
 19 20  1  0
 19 44  1  0
 19 45  1  0
 20 29  1  0
 20 21  2  0
 21 22  1  0
 21 46  1  0
 22 27  2  0
 22 23  1  0
 23 24  2  0
 23 47  1  0
 24 25  1  0
 24 48  1  0
 25 26  2  0
 25 49  1  0
 26 27  1  0
 26 50  1  0
 27 28  1  0
 28 29  1  0
 29 51  1  0
 29 52  1  0
 30 31  1  0
 30 53  1  0
 30 54  1  0
 31 55  1  0
 31 56  1  0
 32 57  1  0
M  CHG  1  17   1
M  END
>  <DOCK_score>  (1) 
-56.792377

>  <SMILES>  (1) 
Brc1ccccc1Nc1cccc(C2=CC[N@H+](CC3=Cc4ccccc4OC3)CC2)c1

$$$$
