Oc1ccc(-c2ccc(Nc3[nH]cc(-c4cccc(O)c4)[nH+]3)cc2)cc1
     RDKit          3D

 44 47  0  0  1  0  0  0  0  0999 V2000
  133.9314  136.6920  169.2827 O   0  0  0  0  0  0  0  0  0  0  0  0
  133.5999  136.4671  167.9843 C   0  0  0  0  0  0  0  0  0  0  0  0
  134.2101  135.4368  167.2819 C   0  0  0  0  0  0  0  0  0  0  0  0
  133.8762  135.2065  165.9638 C   0  0  0  0  0  0  0  0  0  0  0  0
  132.9245  136.0092  165.3369 C   0  0  0  0  0  0  0  0  0  0  0  0
  132.5630  135.7641  163.9193 C   0  0  0  0  0  0  0  0  0  0  0  0
  131.2786  136.0604  163.4652 C   0  0  0  0  0  0  0  0  0  0  0  0
  130.9463  135.8363  162.1462 C   0  0  0  0  0  0  0  0  0  0  0  0
  131.8875  135.3056  161.2716 C   0  0  0  0  0  0  0  0  0  0  0  0
  131.5471  135.0749  159.9365 N   0  0  0  0  0  0  0  0  0  0  0  0
  130.2399  134.7653  159.5985 C   0  0  0  0  0  0  0  0  0  0  0  0
  129.6352  135.0619  158.4155 N   0  0  0  0  0  0  0  0  0  0  0  0
  130.0385  135.5240  157.6641 H   0  0  0  0  0  0  0  0  0  0  0  0
  128.3489  134.5860  158.4824 C   0  0  0  0  0  0  0  0  0  0  0  0
  128.2040  134.0127  159.7030 C   0  0  0  0  0  0  0  0  0  0  0  0
  126.9756  133.3633  160.2222 C   0  0  0  0  0  0  0  0  0  0  0  0
  126.7609  132.0022  160.0093 C   0  0  0  0  0  0  0  0  0  0  0  0
  125.6190  131.3995  160.4967 C   0  0  0  0  0  0  0  0  0  0  0  0
  124.6813  132.1437  161.1884 C   0  0  0  0  0  0  0  0  0  0  0  0
  124.8850  133.5003  161.4005 C   0  0  0  0  0  0  0  0  0  0  0  0
  123.9604  134.2280  162.0805 O   0  0  0  0  0  0  0  0  0  0  0  0
  126.0304  134.1126  160.9186 C   0  0  0  0  0  0  0  0  0  0  0  0
  129.3829  134.1333  160.3628 N   0  0  0  0  0  0  0  0  0  0  0  0
  129.5623  133.8061  161.2582 H   0  0  0  0  0  0  0  0  0  0  0  0
  133.1673  135.0047  161.7236 C   0  0  0  0  0  0  0  0  0  0  0  0
  133.5055  135.2319  163.0405 C   0  0  0  0  0  0  0  0  0  0  0  0
  132.3174  137.0463  166.0431 C   0  0  0  0  0  0  0  0  0  0  0  0
  132.6520  137.2686  167.3625 C   0  0  0  0  0  0  0  0  0  0  0  0
  133.4555  137.4297  169.6882 H   0  0  0  0  0  0  0  0  0  0  0  0
  134.9474  134.8153  167.7681 H   0  0  0  0  0  0  0  0  0  0  0  0
  134.3519  134.4052  165.4177 H   0  0  0  0  0  0  0  0  0  0  0  0
  130.5457  136.4685  164.1453 H   0  0  0  0  0  0  0  0  0  0  0  0
  129.9527  136.0694  161.7930 H   0  0  0  0  0  0  0  0  0  0  0  0
  132.2262  135.1316  159.2461 H   0  0  0  0  0  0  0  0  0  0  0  0
  127.5966  134.6548  157.7105 H   0  0  0  0  0  0  0  0  0  0  0  0
  127.4895  131.4190  159.4658 H   0  0  0  0  0  0  0  0  0  0  0  0
  125.4555  130.3445  160.3338 H   0  0  0  0  0  0  0  0  0  0  0  0
  123.7875  131.6683  161.5646 H   0  0  0  0  0  0  0  0  0  0  0  0
  124.1894  135.1626  162.1780 H   0  0  0  0  0  0  0  0  0  0  0  0
  126.1898  135.1681  161.0822 H   0  0  0  0  0  0  0  0  0  0  0  0
  133.8969  134.5921  161.0426 H   0  0  0  0  0  0  0  0  0  0  0  0
  134.4999  134.9983  163.3911 H   0  0  0  0  0  0  0  0  0  0  0  0
  131.5832  137.6730  165.5588 H   0  0  0  0  0  0  0  0  0  0  0  0
  132.1792  138.0696  167.9114 H   0  0  0  0  0  0  0  0  0  0  0  0
  1  2  1  0
  1 29  1  0
  2 28  2  0
  2  3  1  0
  3  4  2  0
  3 30  1  0
  4  5  1  0
  4 31  1  0
  5  6  1  0
  5 27  2  0
  6 26  1  0
  6  7  2  0
  7  8  1  0
  7 32  1  0
  8  9  2  0
  8 33  1  0
  9 10  1  0
  9 25  1  0
 10 34  1  0
 11 10  1  0
 11 23  2  0
 11 12  1  0
 12 13  1  0
 12 14  1  0
 14 15  2  0
 14 35  1  0
 15 16  1  0
 15 23  1  0
 16 22  1  0
 16 17  2  0
 17 18  1  0
 17 36  1  0
 18 19  2  0
 18 37  1  0
 19 20  1  0
 19 38  1  0
 20 21  1  0
 20 22  2  0
 21 39  1  0
 22 40  1  0
 23 24  1  0
 25 26  2  0
 25 41  1  0
 26 42  1  0
 27 28  1  0
 27 43  1  0
 28 44  1  0
M  CHG  1  23   1
M  END
>  <DOCK_score>  (1) 
-43.371307

>  <SMILES>  (1) 
Oc1ccc(-c2ccc(Nc3[nH]cc(-c4cccc(O)c4)[nH+]3)cc2)cc1

$$$$
