
     RDKit          2D

 31 34  0  0  0  0  0  0  0  0999 V2000
    2.3638   -6.3821    0.0000 C   0  0  0  0  0  0  0  0  0  0  0  0
    1.7537   -5.0118    0.0000 C   0  0  0  0  0  0  0  0  0  0  0  0
    2.5037   -3.7128    0.0000 C   0  0  0  0  0  0  0  0  0  0  0  0
    1.5000   -2.5981    0.0000 C   0  0  0  0  0  0  0  0  0  0  0  0
    2.7135   -1.7164    0.0000 O   0  0  0  0  0  0  0  0  0  0  0  0
    0.7500   -1.2990    0.0000 C   0  0  0  0  0  0  0  0  0  0  0  0
    1.5000    0.0000    0.0000 C   0  0  0  0  0  0  0  0  0  0  0  0
    0.7500    1.2990    0.0000 C   0  0  0  0  0  0  0  0  0  0  0  0
   -0.7500    1.2990    0.0000 C   0  0  0  0  0  0  0  0  0  0  0  0
   -1.5000    2.5981    0.0000 C   0  0  0  0  0  0  0  0  0  0  0  0
   -0.7500    3.8971    0.0000 C   0  0  0  0  0  0  0  0  0  0  0  0
   -1.5000    5.1962    0.0000 C   0  0  0  0  0  0  0  0  0  0  0  0
   -2.9918    5.3529    0.0000 C   0  0  0  0  0  0  0  0  0  0  0  0
   -3.3037    6.8202    0.0000 C   0  0  0  0  0  0  0  0  0  0  0  0
   -2.0046    7.5702    0.0000 C   0  0  0  0  0  0  0  0  0  0  0  0
   -1.8478    9.0619    0.0000 O   0  0  0  0  0  0  0  0  0  0  0  0
   -0.8899    6.5665    0.0000 C   0  0  0  0  0  0  0  0  0  0  0  0
   -3.0000    2.5981    0.0000 N   0  0  0  0  0  0  0  0  0  0  0  0
   -3.7500    3.8971    0.0000 C   0  0  0  0  0  0  0  0  0  0  0  0
   -5.2500    3.8971    0.0000 C   0  0  0  0  0  0  0  0  0  0  0  0
   -6.0000    5.1962    0.0000 C   0  0  0  0  0  0  0  0  0  0  0  0
   -7.5000    5.1962    0.0000 C   0  0  0  0  0  0  0  0  0  0  0  0
   -8.2500    3.8971    0.0000 C   0  0  0  0  0  0  0  0  0  0  0  0
   -9.7500    3.8971    0.0000 Br  0  0  0  0  0  0  0  0  0  0  0  0
   -7.5000    2.5981    0.0000 C   0  0  0  0  0  0  0  0  0  0  0  0
   -6.0000    2.5981    0.0000 C   0  0  0  0  0  0  0  0  0  0  0  0
   -1.5000    0.0000    0.0000 C   0  0  0  0  0  0  0  0  0  0  0  0
   -0.7500   -1.2990    0.0000 C   0  0  0  0  0  0  0  0  0  0  0  0
    0.1297   -3.2082    0.0000 C   0  0  0  0  0  0  0  0  0  0  0  0
    0.2865   -4.7000    0.0000 C   0  0  0  0  0  0  0  0  0  0  0  0
   -0.8282   -5.7037    0.0000 C   0  0  0  0  0  0  0  0  0  0  0  0
  2  1  1  1
  2  3  1  0
  3  4  1  0
  4  5  1  0
  4  6  1  0
  6  7  2  0
  7  8  1  0
  8  9  2  0
  9 10  1  0
 10 11  1  0
 11 12  2  3
 12 13  1  0
 13 14  2  0
 14 15  1  0
 15 16  1  0
 15 17  1  0
 10 18  1  0
 18 19  1  0
 19 20  1  0
 20 21  2  0
 21 22  1  0
 22 23  2  0
 23 24  1  0
 23 25  1  0
 25 26  2  0
  9 27  1  0
 27 28  2  0
  4 29  1  0
 29 30  1  0
 30 31  1  6
 30  2  1  0
 28  6  1  0
 17 12  1  0
 26 20  1  0
M  END
$$$$
