CCc1ccc(-c2c[nH]c(N[C@H](/C=C\Br)c3ccc(CC(C)C)cc3)[nH+]2)cc1
     RDKit          3D

 57 59  0  0  1  0  0  0  0  0999 V2000
  129.9752  128.5394  151.1912 C   0  0  0  0  0  0  0  0  0  0  0  0
  131.1626  129.4405  151.5358 C   0  0  0  0  0  0  0  0  0  0  0  0
  130.8593  130.2121  152.7942 C   0  0  0  0  0  0  0  0  0  0  0  0
  131.2001  129.6830  154.0257 C   0  0  0  0  0  0  0  0  0  0  0  0
  130.9291  130.3873  155.1812 C   0  0  0  0  0  0  0  0  0  0  0  0
  130.3012  131.6294  155.1061 C   0  0  0  0  0  0  0  0  0  0  0  0
  130.0027  132.3887  156.3448 C   0  0  0  0  0  0  0  0  0  0  0  0
  129.2213  131.9679  157.3701 C   0  0  0  0  0  0  0  0  0  0  0  0
  129.2166  132.9731  158.3063 N   0  0  0  0  0  0  0  0  0  0  0  0
  128.7444  132.9667  159.1537 H   0  0  0  0  0  0  0  0  0  0  0  0
  129.9959  133.9798  157.8254 C   0  0  0  0  0  0  0  0  0  0  0  0
  130.2516  135.1790  158.4680 N   0  0  0  0  0  0  0  0  0  0  0  0
  129.6609  135.4465  159.7817 C   0  0  2  0  0  0  0  0  0  0  0  0
  129.6910  134.5394  160.3853 H   0  0  0  0  0  0  0  0  0  0  0  0
  128.2302  135.8874  159.6088 C   0  0  0  0  0  0  0  0  0  0  0  0
  127.2601  135.1942  160.1544 C   0  0  0  0  0  0  0  0  0  0  0  0
  127.6623  133.7359  161.2891 Br  0  0  0  0  0  0  0  0  0  0  0  0
  130.4422  136.5350  160.4715 C   0  0  0  0  0  0  0  0  0  0  0  0
  130.5459  137.7853  159.8910 C   0  0  0  0  0  0  0  0  0  0  0  0
  131.2589  138.7850  160.5258 C   0  0  0  0  0  0  0  0  0  0  0  0
  131.8761  138.5317  161.7366 C   0  0  0  0  0  0  0  0  0  0  0  0
  132.6574  139.6203  162.4263 C   0  0  0  0  0  0  0  0  0  0  0  0
  134.1153  139.5725  161.9647 C   0  0  0  0  0  0  0  0  0  0  0  0
  134.9084  140.6776  162.6651 C   0  0  0  0  0  0  0  0  0  0  0  0
  134.7175  138.2109  162.3171 C   0  0  0  0  0  0  0  0  0  0  0  0
  131.7763  137.2800  162.3147 C   0  0  0  0  0  0  0  0  0  0  0  0
  131.0597  136.2816  161.6819 C   0  0  0  0  0  0  0  0  0  0  0  0
  130.4680  133.6248  156.6553 N   0  0  0  0  0  0  0  0  0  0  0  0
  131.0549  134.1609  156.0994 H   0  0  0  0  0  0  0  0  0  0  0  0
  129.9553  132.1554  153.8626 C   0  0  0  0  0  0  0  0  0  0  0  0
  130.2359  131.4447  152.7134 C   0  0  0  0  0  0  0  0  0  0  0  0
  129.0869  129.1518  151.0368 H   0  0  0  0  0  0  0  0  0  0  0  0
  130.1946  127.9813  150.2811 H   0  0  0  0  0  0  0  0  0  0  0  0
  129.7982  127.8428  152.0108 H   0  0  0  0  0  0  0  0  0  0  0  0
  132.0509  128.8284  151.6900 H   0  0  0  0  0  0  0  0  0  0  0  0
  131.3395  130.1374  150.7160 H   0  0  0  0  0  0  0  0  0  0  0  0
  131.6826  128.7185  154.0829 H   0  0  0  0  0  0  0  0  0  0  0  0
  131.1997  129.9750  156.1420 H   0  0  0  0  0  0  0  0  0  0  0  0
  128.7019  131.0234  157.4375 H   0  0  0  0  0  0  0  0  0  0  0  0
  130.8218  135.8421  158.0485 H   0  0  0  0  0  0  0  0  0  0  0  0
  128.0040  136.7744  159.0356 H   0  0  0  0  0  0  0  0  0  0  0  0
  126.2314  135.4562  159.9557 H   0  0  0  0  0  0  0  0  0  0  0  0
  130.0671  137.9821  158.9431 H   0  0  0  0  0  0  0  0  0  0  0  0
  131.3367  139.7630  160.0744 H   0  0  0  0  0  0  0  0  0  0  0  0
  132.2283  140.5902  162.1753 H   0  0  0  0  0  0  0  0  0  0  0  0
  132.6128  139.4715  163.5052 H   0  0  0  0  0  0  0  0  0  0  0  0
  134.1599  139.7211  160.8858 H   0  0  0  0  0  0  0  0  0  0  0  0
  134.8639  140.5288  163.7439 H   0  0  0  0  0  0  0  0  0  0  0  0
  135.9471  140.6436  162.3363 H   0  0  0  0  0  0  0  0  0  0  0  0
  134.4795  141.6476  162.4141 H   0  0  0  0  0  0  0  0  0  0  0  0
  135.7562  138.1768  161.9883 H   0  0  0  0  0  0  0  0  0  0  0  0
  134.6730  138.0620  163.3960 H   0  0  0  0  0  0  0  0  0  0  0  0
  134.1525  137.4235  161.8182 H   0  0  0  0  0  0  0  0  0  0  0  0
  132.2586  137.0821  163.2606 H   0  0  0  0  0  0  0  0  0  0  0  0
  130.9820  135.3035  162.1335 H   0  0  0  0  0  0  0  0  0  0  0  0
  129.4682  133.1172  153.7986 H   0  0  0  0  0  0  0  0  0  0  0  0
  129.9680  131.8512  151.7494 H   0  0  0  0  0  0  0  0  0  0  0  0
  1  2  1  0
  1 32  1  0
  1 33  1  0
  1 34  1  0
  2  3  1  0
  2 35  1  0
  2 36  1  0
  3 31  2  0
  3  4  1  0
  4  5  2  0
  4 37  1  0
  5  6  1  0
  5 38  1  0
  6  7  1  0
  6 30  2  0
  7 28  1  0
  7  8  2  0
  8  9  1  0
  8 39  1  0
  9 10  1  0
  9 11  1  0
 11 12  1  0
 11 28  2  0
 12 13  1  0
 12 40  1  0
 13 14  1  1
 13 15  1  0
 13 18  1  0
 15 16  2  0
 15 41  1  0
 16 17  1  0
 16 42  1  0
 18 27  1  0
 18 19  2  0
 19 20  1  0
 19 43  1  0
 20 21  2  0
 20 44  1  0
 21 22  1  0
 21 26  1  0
 22 23  1  0
 22 45  1  0
 22 46  1  0
 23 24  1  0
 23 25  1  0
 23 47  1  0
 24 48  1  0
 24 49  1  0
 24 50  1  0
 25 51  1  0
 25 52  1  0
 25 53  1  0
 26 27  2  0
 26 54  1  0
 27 55  1  0
 28 29  1  0
 30 31  1  0
 30 56  1  0
 31 57  1  0
M  CHG  1  28   1
M  END
>  <DOCK_score>  (1) 
-58.361488

>  <SMILES>  (1) 
CCc1ccc(-c2c[nH]c(N[C@H](/C=C\Br)c3ccc(CC(C)C)cc3)[nH+]2)cc1

$$$$
