Cc1cc(Sc2ccc3c(c2C)CCC3)c(O)cc1Nc1[nH]cc(-c2ccncc2)[nH+]1
     RDKit          3D

 56 60  0  0  1  0  0  0  0  0999 V2000
  132.4777  136.3324  161.6254 C   0  0  0  0  0  0  0  0  0  0  0  0
  131.0717  136.8388  161.8207 C   0  0  0  0  0  0  0  0  0  0  0  0
  130.7214  137.4645  163.0019 C   0  0  0  0  0  0  0  0  0  0  0  0
  129.4276  137.9309  163.1837 C   0  0  0  0  0  0  0  0  0  0  0  0
  128.9798  138.7222  164.6930 S   0  0  0  0  0  0  0  0  0  0  0  0
  128.4249  137.3823  165.6936 C   0  0  0  0  0  0  0  0  0  0  0  0
  128.4313  136.0866  165.1903 C   0  0  0  0  0  0  0  0  0  0  0  0
  127.9957  135.0417  165.9785 C   0  0  0  0  0  0  0  0  0  0  0  0
  127.5514  135.2774  167.2700 C   0  0  0  0  0  0  0  0  0  0  0  0
  127.5436  136.5654  167.7740 C   0  0  0  0  0  0  0  0  0  0  0  0
  127.9849  137.6161  166.9896 C   0  0  0  0  0  0  0  0  0  0  0  0
  127.9820  139.0187  167.5411 C   0  0  0  0  0  0  0  0  0  0  0  0
  127.0179  136.5560  169.1935 C   0  0  0  0  0  0  0  0  0  0  0  0
  126.2991  135.1992  169.3492 C   0  0  0  0  0  0  0  0  0  0  0  0
  127.0315  134.3156  168.3173 C   0  0  0  0  0  0  0  0  0  0  0  0
  128.4806  137.7680  162.1740 C   0  0  0  0  0  0  0  0  0  0  0  0
  127.2117  138.2241  162.3506 O   0  0  0  0  0  0  0  0  0  0  0  0
  128.8333  137.1409  160.9916 C   0  0  0  0  0  0  0  0  0  0  0  0
  130.1299  136.6754  160.8135 C   0  0  0  0  0  0  0  0  0  0  0  0
  130.4873  136.0405  159.6177 N   0  0  0  0  0  0  0  0  0  0  0  0
  129.8325  134.8854  159.2244 C   0  0  0  0  0  0  0  0  0  0  0  0
  130.0899  134.1742  158.0921 N   0  0  0  0  0  0  0  0  0  0  0  0
  130.7588  134.3842  157.4216 H   0  0  0  0  0  0  0  0  0  0  0  0
  129.2287  133.1067  158.0737 C   0  0  0  0  0  0  0  0  0  0  0  0
  128.4685  133.1941  159.1946 C   0  0  0  0  0  0  0  0  0  0  0  0
  127.3977  132.2522  159.5981 C   0  0  0  0  0  0  0  0  0  0  0  0
  126.3056  132.6877  160.3556 C   0  0  0  0  0  0  0  0  0  0  0  0
  125.3285  131.7791  160.7043 C   0  0  0  0  0  0  0  0  0  0  0  0
  125.4204  130.5133  160.3428 N   0  0  0  0  0  0  0  0  0  0  0  0
  126.4368  130.0603  159.6331 C   0  0  0  0  0  0  0  0  0  0  0  0
  127.4545  130.9023  159.2367 C   0  0  0  0  0  0  0  0  0  0  0  0
  128.8667  134.2933  159.8833 N   0  0  0  0  0  0  0  0  0  0  0  0
  128.4947  134.5938  160.7273 H   0  0  0  0  0  0  0  0  0  0  0  0
  132.5457  135.3036  161.9785 H   0  0  0  0  0  0  0  0  0  0  0  0
  132.7339  136.3710  160.5667 H   0  0  0  0  0  0  0  0  0  0  0  0
  133.1703  136.9568  162.1899 H   0  0  0  0  0  0  0  0  0  0  0  0
  131.4554  137.5910  163.7839 H   0  0  0  0  0  0  0  0  0  0  0  0
  128.7764  135.8985  164.1843 H   0  0  0  0  0  0  0  0  0  0  0  0
  128.0005  134.0352  165.5871 H   0  0  0  0  0  0  0  0  0  0  0  0
  127.0245  139.4923  167.3247 H   0  0  0  0  0  0  0  0  0  0  0  0
  128.1353  138.9853  168.6197 H   0  0  0  0  0  0  0  0  0  0  0  0
  128.7843  139.5929  167.0776 H   0  0  0  0  0  0  0  0  0  0  0  0
  126.3150  137.3757  169.3421 H   0  0  0  0  0  0  0  0  0  0  0  0
  127.8414  136.6314  169.9038 H   0  0  0  0  0  0  0  0  0  0  0  0
  125.2418  135.2902  169.1003 H   0  0  0  0  0  0  0  0  0  0  0  0
  126.4254  134.8037  170.3571 H   0  0  0  0  0  0  0  0  0  0  0  0
  126.3379  133.6053  167.8676 H   0  0  0  0  0  0  0  0  0  0  0  0
  127.8598  133.7885  168.7910 H   0  0  0  0  0  0  0  0  0  0  0  0
  127.0612  138.6466  163.2072 H   0  0  0  0  0  0  0  0  0  0  0  0
  128.1012  137.0139  160.2079 H   0  0  0  0  0  0  0  0  0  0  0  0
  131.1936  136.4098  159.0648 H   0  0  0  0  0  0  0  0  0  0  0  0
  129.1671  132.3430  157.3127 H   0  0  0  0  0  0  0  0  0  0  0  0
  126.2263  133.7212  160.6589 H   0  0  0  0  0  0  0  0  0  0  0  0
  124.4790  132.1070  161.2851 H   0  0  0  0  0  0  0  0  0  0  0  0
  126.4718  129.0163  159.3590 H   0  0  0  0  0  0  0  0  0  0  0  0
  128.2829  130.5248  158.6556 H   0  0  0  0  0  0  0  0  0  0  0  0
  1  2  1  0
  1 34  1  0
  1 35  1  0
  1 36  1  0
  2 19  2  0
  2  3  1  0
  3  4  2  0
  3 37  1  0
  4  5  1  0
  4 16  1  0
  5  6  1  0
  6 11  1  0
  6  7  2  0
  7  8  1  0
  7 38  1  0
  8  9  2  0
  8 39  1  0
  9 15  1  0
  9 10  1  0
 10 11  2  0
 10 13  1  0
 11 12  1  0
 12 40  1  0
 12 41  1  0
 12 42  1  0
 13 14  1  0
 13 43  1  0
 13 44  1  0
 14 15  1  0
 14 45  1  0
 14 46  1  0
 15 47  1  0
 15 48  1  0
 16 17  1  0
 16 18  2  0
 17 49  1  0
 18 19  1  0
 18 50  1  0
 19 20  1  0
 20 51  1  0
 21 20  1  0
 21 32  2  0
 21 22  1  0
 22 23  1  0
 22 24  1  0
 24 25  2  0
 24 52  1  0
 25 26  1  0
 25 32  1  0
 26 31  1  0
 26 27  2  0
 27 28  1  0
 27 53  1  0
 28 29  2  0
 28 54  1  0
 29 30  1  0
 30 31  2  0
 30 55  1  0
 31 56  1  0
 32 33  1  0
M  CHG  1  32   1
M  END
>  <DOCK_score>  (1) 
-42.848785

>  <SMILES>  (1) 
Cc1cc(Sc2ccc3c(c2C)CCC3)c(O)cc1Nc1[nH]cc(-c2ccncc2)[nH+]1

$$$$
