Cc1ccc([C@@H](CSC=CBr)Nc2[nH]cc(-c3cc(F)c(F)c(F)c3)[nH+]2)[nH]1
     RDKit          3D

 44 46  0  0  1  0  0  0  0  0999 V2000
  134.5308  137.1667  161.4203 C   0  0  0  0  0  0  0  0  0  0  0  0
  133.5158  136.0622  161.2756 C   0  0  0  0  0  0  0  0  0  0  0  0
  133.4930  134.9123  161.9798 C   0  0  0  0  0  0  0  0  0  0  0  0
  132.3845  134.1662  161.5332 C   0  0  0  0  0  0  0  0  0  0  0  0
  131.7721  134.8885  160.5731 C   0  0  0  0  0  0  0  0  0  0  0  0
  130.5381  134.4790  159.8112 C   0  0  1  0  0  0  0  0  0  0  0  0
  130.2077  133.4987  160.1548 H   0  0  0  0  0  0  0  0  0  0  0  0
  129.4276  135.5040  160.0501 C   0  0  0  0  0  0  0  0  0  0  0  0
  127.9422  135.0111  159.1331 S   0  0  0  0  0  0  0  0  0  0  0  0
  127.5626  133.4307  159.8132 C   0  0  0  0  0  0  0  0  0  0  0  0
  126.9645  132.5172  159.0688 C   0  0  0  0  0  0  0  0  0  0  0  0
  126.5572  130.8210  159.7988 Br  0  0  0  0  0  0  0  0  0  0  0  0
  130.8457  134.4168  158.3803 N   0  0  0  0  0  0  0  0  0  0  0  0
  130.6946  133.2258  157.6909 C   0  0  0  0  0  0  0  0  0  0  0  0
  130.2757  132.0472  158.2271 N   0  0  0  0  0  0  0  0  0  0  0  0
  130.0313  131.8918  159.1528 H   0  0  0  0  0  0  0  0  0  0  0  0
  130.2605  131.1186  157.2142 C   0  0  0  0  0  0  0  0  0  0  0  0
  130.6777  131.7542  156.0915 C   0  0  0  0  0  0  0  0  0  0  0  0
  130.8250  131.1449  154.7470 C   0  0  0  0  0  0  0  0  0  0  0  0
  130.0879  131.6381  153.6721 C   0  0  0  0  0  0  0  0  0  0  0  0
  130.2328  131.0722  152.4194 C   0  0  0  0  0  0  0  0  0  0  0  0
  129.5234  131.5539  151.3754 F   0  0  0  0  0  0  0  0  0  0  0  0
  131.1007  130.0062  152.2344 C   0  0  0  0  0  0  0  0  0  0  0  0
  131.2353  129.4514  151.0099 F   0  0  0  0  0  0  0  0  0  0  0  0
  131.8311  129.5090  153.3029 C   0  0  0  0  0  0  0  0  0  0  0  0
  132.6757  128.4709  153.1178 F   0  0  0  0  0  0  0  0  0  0  0  0
  131.6964  130.0741  154.5570 C   0  0  0  0  0  0  0  0  0  0  0  0
  130.9367  133.0459  156.4154 N   0  0  0  0  0  0  0  0  0  0  0  0
  131.2505  133.7276  155.8009 H   0  0  0  0  0  0  0  0  0  0  0  0
  132.4621  136.0533  160.4107 N   0  0  0  0  0  0  0  0  0  0  0  0
  132.2395  136.7592  159.7838 H   0  0  0  0  0  0  0  0  0  0  0  0
  135.3646  136.9850  160.7421 H   0  0  0  0  0  0  0  0  0  0  0  0
  134.0657  138.1219  161.1765 H   0  0  0  0  0  0  0  0  0  0  0  0
  134.8965  137.1921  162.4469 H   0  0  0  0  0  0  0  0  0  0  0  0
  134.1977  134.6158  162.7426 H   0  0  0  0  0  0  0  0  0  0  0  0
  132.0812  133.1941  161.8932 H   0  0  0  0  0  0  0  0  0  0  0  0
  129.1987  135.5503  161.1148 H   0  0  0  0  0  0  0  0  0  0  0  0
  129.7580  136.4844  159.7066 H   0  0  0  0  0  0  0  0  0  0  0  0
  127.8187  133.2085  160.8387 H   0  0  0  0  0  0  0  0  0  0  0  0
  126.7084  132.7395  158.0434 H   0  0  0  0  0  0  0  0  0  0  0  0
  131.1554  135.2100  157.9159 H   0  0  0  0  0  0  0  0  0  0  0  0
  129.9752  130.0803  157.2976 H   0  0  0  0  0  0  0  0  0  0  0  0
  129.4083  132.4649  153.8166 H   0  0  0  0  0  0  0  0  0  0  0  0
  132.2663  129.6867  155.3886 H   0  0  0  0  0  0  0  0  0  0  0  0
  1  2  1  0
  1 32  1  0
  1 33  1  0
  1 34  1  0
  2 30  1  0
  2  3  2  0
  3  4  1  0
  3 35  1  0
  4  5  2  0
  4 36  1  0
  5  6  1  0
  5 30  1  0
  6  7  1  1
  6  8  1  0
  6 13  1  0
  8  9  1  0
  8 37  1  0
  8 38  1  0
  9 10  1  0
 10 11  2  0
 10 39  1  0
 11 12  1  0
 11 40  1  0
 13 41  1  0
 14 13  1  0
 14 28  2  0
 14 15  1  0
 15 16  1  0
 15 17  1  0
 17 18  2  0
 17 42  1  0
 18 19  1  0
 18 28  1  0
 19 27  1  0
 19 20  2  0
 20 21  1  0
 20 43  1  0
 21 22  1  0
 21 23  2  0
 23 24  1  0
 23 25  1  0
 25 26  1  0
 25 27  2  0
 27 44  1  0
 28 29  1  0
 30 31  1  0
M  CHG  1  28   1
M  END
>  <DOCK_score>  (1) 
-57.908409

>  <SMILES>  (1) 
Cc1ccc([C@@H](CSC=CBr)Nc2[nH]cc(-c3cc(F)c(F)c(F)c3)[nH+]2)[nH]1

$$$$
