O=C1CC[C@H]([NH+]=C(NCC2=CCOCC2)NC2CC=CC2)CN1
     RDKit          3D

 50 52  0  0  1  0  0  0  0  0999 V2000
  123.4717  133.6563  161.2430 O   0  0  0  0  0  0  0  0  0  0  0  0
  124.6566  133.8687  161.0953 C   0  0  0  0  0  0  0  0  0  0  0  0
  125.5122  132.7673  160.5386 C   0  0  0  0  0  0  0  0  0  0  0  0
  126.9868  133.0539  160.8325 C   0  0  0  0  0  0  0  0  0  0  0  0
  127.2909  134.4995  160.4209 C   0  0  2  0  0  0  0  0  0  0  0  0
  126.9668  134.6630  159.3931 H   0  0  0  0  0  0  0  0  0  0  0  0
  128.7306  134.7485  160.5278 N   0  0  0  0  0  0  0  0  0  0  0  0
  129.1052  135.0791  161.3592 H   0  0  0  0  0  0  0  0  0  0  0  0
  129.5082  134.5259  159.5057 C   0  0  0  0  0  0  0  0  0  0  0  0
  130.6502  135.2723  159.3352 N   0  0  0  0  0  0  0  0  0  0  0  0
  130.9930  136.3179  160.3024 C   0  0  0  0  0  0  0  0  0  0  0  0
  131.8437  135.7291  161.3982 C   0  0  0  0  0  0  0  0  0  0  0  0
  131.4110  135.7830  162.6228 C   0  0  0  0  0  0  0  0  0  0  0  0
  132.1862  135.2333  163.7863 C   0  0  0  0  0  0  0  0  0  0  0  0
  133.2213  134.3645  163.3213 O   0  0  0  0  0  0  0  0  0  0  0  0
  134.0236  134.9512  162.2891 C   0  0  0  0  0  0  0  0  0  0  0  0
  133.1579  135.0962  161.0324 C   0  0  0  0  0  0  0  0  0  0  0  0
  129.1866  133.5447  158.5981 N   0  0  0  0  0  0  0  0  0  0  0  0
  130.2477  132.8349  157.8795 C   0  0  0  0  0  0  0  0  0  0  0  0
  129.6725  131.6513  157.0675 C   0  0  0  0  0  0  0  0  0  0  0  0
  130.7131  130.5615  157.1885 C   0  0  0  0  0  0  0  0  0  0  0  0
  131.5408  130.8082  158.1671 C   0  0  0  0  0  0  0  0  0  0  0  0
  131.1904  132.1029  158.8628 C   0  0  0  0  0  0  0  0  0  0  0  0
  126.5357  135.4471  161.3538 C   0  0  0  0  0  0  0  0  0  0  0  0
  125.1302  135.0678  161.4364 N   0  0  0  0  0  0  0  0  0  0  0  0
  125.3638  132.7031  159.4606 H   0  0  0  0  0  0  0  0  0  0  0  0
  125.2288  131.8207  160.9988 H   0  0  0  0  0  0  0  0  0  0  0  0
  127.6146  132.3700  160.2614 H   0  0  0  0  0  0  0  0  0  0  0  0
  127.1801  132.9274  161.8977 H   0  0  0  0  0  0  0  0  0  0  0  0
  131.2310  135.1039  158.5769 H   0  0  0  0  0  0  0  0  0  0  0  0
  131.5462  137.1108  159.7993 H   0  0  0  0  0  0  0  0  0  0  0  0
  130.0795  136.7284  160.7325 H   0  0  0  0  0  0  0  0  0  0  0  0
  130.4525  136.2431  162.8120 H   0  0  0  0  0  0  0  0  0  0  0  0
  132.6299  136.0567  164.3461 H   0  0  0  0  0  0  0  0  0  0  0  0
  131.5135  134.6748  164.4372 H   0  0  0  0  0  0  0  0  0  0  0  0
  134.3771  135.9307  162.6108 H   0  0  0  0  0  0  0  0  0  0  0  0
  134.8755  134.3057  162.0748 H   0  0  0  0  0  0  0  0  0  0  0  0
  132.9787  134.1137  160.5959 H   0  0  0  0  0  0  0  0  0  0  0  0
  133.6749  135.7259  160.3083 H   0  0  0  0  0  0  0  0  0  0  0  0
  128.2567  133.3223  158.4334 H   0  0  0  0  0  0  0  0  0  0  0  0
  130.8052  133.5160  157.2368 H   0  0  0  0  0  0  0  0  0  0  0  0
  128.7259  131.3215  157.4957 H   0  0  0  0  0  0  0  0  0  0  0  0
  129.5395  131.9360  156.0237 H   0  0  0  0  0  0  0  0  0  0  0  0
  130.7649  129.6929  156.5488 H   0  0  0  0  0  0  0  0  0  0  0  0
  132.3675  130.1704  158.4435 H   0  0  0  0  0  0  0  0  0  0  0  0
  132.0887  132.6945  159.0391 H   0  0  0  0  0  0  0  0  0  0  0  0
  130.6772  131.9036  159.8036 H   0  0  0  0  0  0  0  0  0  0  0  0
  126.9780  135.4012  162.3490 H   0  0  0  0  0  0  0  0  0  0  0  0
  126.6152  136.4657  160.9742 H   0  0  0  0  0  0  0  0  0  0  0  0
  124.4994  135.7310  161.7576 H   0  0  0  0  0  0  0  0  0  0  0  0
  1  2  2  0
  2 25  1  0
  2  3  1  0
  3  4  1  0
  3 26  1  0
  3 27  1  0
  4  5  1  0
  4 28  1  0
  4 29  1  0
  5  6  1  6
  5  7  1  0
  5 24  1  0
  7  8  1  0
  9  7  2  0
  9 10  1  0
  9 18  1  0
 10 11  1  0
 10 30  1  0
 11 12  1  0
 11 31  1  0
 11 32  1  0
 12 17  1  0
 12 13  2  0
 13 14  1  0
 13 33  1  0
 14 15  1  0
 14 34  1  0
 14 35  1  0
 15 16  1  0
 16 17  1  0
 16 36  1  0
 16 37  1  0
 17 38  1  0
 17 39  1  0
 18 19  1  0
 18 40  1  0
 19 23  1  0
 19 20  1  0
 19 41  1  0
 20 21  1  0
 20 42  1  0
 20 43  1  0
 21 22  2  0
 21 44  1  0
 22 23  1  0
 22 45  1  0
 23 46  1  0
 23 47  1  0
 24 25  1  0
 24 48  1  0
 24 49  1  0
 25 50  1  0
M  CHG  1   7   1
M  END
>  <DOCK_score>  (1) 
-44.2635

>  <SMILES>  (1) 
O=C1CC[C@H]([NH+]=C(NCC2=CCOCC2)NC2CC=CC2)CN1

$$$$
