Cc1ccc(C[NH+]=C(NC[C@@H]2CC(O)C2(C)C)NC2CCCCC2)c(Br)c1
     RDKit          3D

 62 64  0  0  1  0  0  0  0  0999 V2000
  136.2525  137.6791  164.3780 C   0  0  0  0  0  0  0  0  0  0  0  0
  135.2535  137.4110  163.2819 C   0  0  0  0  0  0  0  0  0  0  0  0
  134.2744  136.4508  163.4585 C   0  0  0  0  0  0  0  0  0  0  0  0
  133.3549  136.2082  162.4554 C   0  0  0  0  0  0  0  0  0  0  0  0
  133.4208  136.9176  161.2708 C   0  0  0  0  0  0  0  0  0  0  0  0
  132.4221  136.6487  160.1747 C   0  0  0  0  0  0  0  0  0  0  0  0
  131.0775  136.5618  160.7498 N   0  0  0  0  0  0  0  0  0  0  0  0
  130.8572  137.0686  161.5470 H   0  0  0  0  0  0  0  0  0  0  0  0
  130.1772  135.8032  160.1905 C   0  0  0  0  0  0  0  0  0  0  0  0
  128.9153  135.7216  160.7303 N   0  0  0  0  0  0  0  0  0  0  0  0
  128.5828  136.4872  161.9342 C   0  0  0  0  0  0  0  0  0  0  0  0
  127.1274  136.2197  162.3228 C   0  0  2  0  0  0  0  0  0  0  0  0
  126.4217  136.5042  161.5425 H   0  0  0  0  0  0  0  0  0  0  0  0
  126.7537  136.7534  163.7158 C   0  0  0  0  0  0  0  0  0  0  0  0
  125.9423  135.4612  163.9070 C   0  0  1  0  0  0  0  0  0  0  0  0
  124.5914  135.5608  163.4518 O   0  0  0  0  0  0  0  0  0  0  0  0
  126.8891  134.8078  162.8838 C   0  0  0  0  0  0  0  0  0  0  0  0
  126.1813  133.8702  161.9034 C   0  0  0  0  0  0  0  0  0  0  0  0
  128.1342  134.1806  163.5142 C   0  0  0  0  0  0  0  0  0  0  0  0
  130.4894  135.0846  159.0607 N   0  0  0  0  0  0  0  0  0  0  0  0
  129.8213  133.8078  158.7968 C   0  0  0  0  0  0  0  0  0  0  0  0
  130.3467  133.2187  157.4862 C   0  0  0  0  0  0  0  0  0  0  0  0
  129.6491  131.8852  157.2106 C   0  0  0  0  0  0  0  0  0  0  0  0
  129.9347  130.9135  158.3573 C   0  0  0  0  0  0  0  0  0  0  0  0
  129.4093  131.5026  159.6679 C   0  0  0  0  0  0  0  0  0  0  0  0
  130.1070  132.8362  159.9436 C   0  0  0  0  0  0  0  0  0  0  0  0
  134.3999  137.8783  161.0939 C   0  0  0  0  0  0  0  0  0  0  0  0
  134.4862  138.8541  159.4763 Br  0  0  0  0  0  0  0  0  0  0  0  0
  135.3165  138.1248  162.1004 C   0  0  0  0  0  0  0  0  0  0  0  0
  135.8665  138.4555  165.0392 H   0  0  0  0  0  0  0  0  0  0  0  0
  136.4185  136.7657  164.9494 H   0  0  0  0  0  0  0  0  0  0  0  0
  137.1933  138.0099  163.9395 H   0  0  0  0  0  0  0  0  0  0  0  0
  134.2250  135.8935  164.3823 H   0  0  0  0  0  0  0  0  0  0  0  0
  132.5874  135.4615  162.5954 H   0  0  0  0  0  0  0  0  0  0  0  0
  132.6680  135.7083  159.6818 H   0  0  0  0  0  0  0  0  0  0  0  0
  132.4541  137.4596  159.4470 H   0  0  0  0  0  0  0  0  0  0  0  0
  128.2453  135.1570  160.3139 H   0  0  0  0  0  0  0  0  0  0  0  0
  129.2384  136.1839  162.7503 H   0  0  0  0  0  0  0  0  0  0  0  0
  128.7164  137.5508  161.7367 H   0  0  0  0  0  0  0  0  0  0  0  0
  127.6036  136.8396  164.3928 H   0  0  0  0  0  0  0  0  0  0  0  0
  126.1402  137.6540  163.6880 H   0  0  0  0  0  0  0  0  0  0  0  0
  126.0224  135.0394  164.9089 H   0  0  0  0  0  0  0  0  0  0  0  0
  124.4908  136.0462  162.6214 H   0  0  0  0  0  0  0  0  0  0  0  0
  126.7848  133.7645  161.0019 H   0  0  0  0  0  0  0  0  0  0  0  0
  126.0474  132.8931  162.3677 H   0  0  0  0  0  0  0  0  0  0  0  0
  125.2078  134.2850  161.6425 H   0  0  0  0  0  0  0  0  0  0  0  0
  128.5472  134.8619  164.2580 H   0  0  0  0  0  0  0  0  0  0  0  0
  127.8640  133.2398  163.9938 H   0  0  0  0  0  0  0  0  0  0  0  0
  128.8783  133.9933  162.7401 H   0  0  0  0  0  0  0  0  0  0  0  0
  131.1519  135.4231  158.4383 H   0  0  0  0  0  0  0  0  0  0  0  0
  128.7463  133.9699  158.7171 H   0  0  0  0  0  0  0  0  0  0  0  0
  130.1432  133.9109  156.6692 H   0  0  0  0  0  0  0  0  0  0  0  0
  131.4217  133.0566  157.5659 H   0  0  0  0  0  0  0  0  0  0  0  0
  128.5741  132.0472  157.1309 H   0  0  0  0  0  0  0  0  0  0  0  0
  130.0234  131.4654  156.2769 H   0  0  0  0  0  0  0  0  0  0  0  0
  131.0097  130.7515  158.4370 H   0  0  0  0  0  0  0  0  0  0  0  0
  129.4377  129.9635  158.1609 H   0  0  0  0  0  0  0  0  0  0  0  0
  129.6128  130.8104  160.4850 H   0  0  0  0  0  0  0  0  0  0  0  0
  128.3343  131.6647  159.5882 H   0  0  0  0  0  0  0  0  0  0  0  0
  131.1819  132.6741  160.0232 H   0  0  0  0  0  0  0  0  0  0  0  0
  129.7326  133.2559  160.8773 H   0  0  0  0  0  0  0  0  0  0  0  0
  136.0814  138.8746  161.9625 H   0  0  0  0  0  0  0  0  0  0  0  0
  1  2  1  0
  1 30  1  0
  1 31  1  0
  1 32  1  0
  2 29  2  0
  2  3  1  0
  3  4  2  0
  3 33  1  0
  4  5  1  0
  4 34  1  0
  5  6  1  0
  5 27  2  0
  6  7  1  0
  6 35  1  0
  6 36  1  0
  7  8  1  0
  9  7  2  0
  9 10  1  0
  9 20  1  0
 10 11  1  0
 10 37  1  0
 11 12  1  0
 11 38  1  0
 11 39  1  0
 12 13  1  6
 12 17  1  0
 12 14  1  0
 14 15  1  0
 14 40  1  0
 14 41  1  0
 15 16  1  0
 15 17  1  0
 15 42  1  1
 16 43  1  0
 17 18  1  0
 17 19  1  0
 18 44  1  0
 18 45  1  0
 18 46  1  0
 19 47  1  0
 19 48  1  0
 19 49  1  0
 20 21  1  0
 20 50  1  0
 21 26  1  0
 21 22  1  0
 21 51  1  0
 22 23  1  0
 22 52  1  0
 22 53  1  0
 23 24  1  0
 23 54  1  0
 23 55  1  0
 24 25  1  0
 24 56  1  0
 24 57  1  0
 25 26  1  0
 25 58  1  0
 25 59  1  0
 26 60  1  0
 26 61  1  0
 27 28  1  0
 27 29  1  0
 29 62  1  0
M  CHG  1   7   1
M  END
>  <DOCK_score>  (1) 
-48.090805

>  <SMILES>  (1) 
Cc1ccc(C[NH+]=C(NC[C@@H]2CC(O)C2(C)C)NC2CCCCC2)c(Br)c1

$$$$
