CC1=CCCN(c2ccc(Cl)c(C[NH2+][C@H](C)Cc3cccc(-c4ccccc4)c3)c2)C1
     RDKit          3D

 63 66  0  0  1  0  0  0  0  0999 V2000
  130.4578  132.4774  153.8332 C   0  0  0  0  0  0  0  0  0  0  0  0
  130.5480  131.9221  155.2312 C   0  0  0  0  0  0  0  0  0  0  0  0
  130.9672  130.7031  155.3846 C   0  0  0  0  0  0  0  0  0  0  0  0
  131.0893  130.0451  156.7305 C   0  0  0  0  0  0  0  0  0  0  0  0
  131.0562  131.1092  157.8306 C   0  0  0  0  0  0  0  0  0  0  0  0
  129.9116  132.0014  157.5822 N   0  0  0  0  0  0  0  0  0  0  0  0
  129.6637  132.8179  158.6889 C   0  0  0  0  0  0  0  0  0  0  0  0
  128.4353  132.7598  159.3353 C   0  0  0  0  0  0  0  0  0  0  0  0
  128.1911  133.5720  160.4250 C   0  0  0  0  0  0  0  0  0  0  0  0
  129.1703  134.4395  160.8766 C   0  0  0  0  0  0  0  0  0  0  0  0
  128.8600  135.4586  162.2473 Cl  0  0  0  0  0  0  0  0  0  0  0  0
  130.3965  134.4956  160.2381 C   0  0  0  0  0  0  0  0  0  0  0  0
  131.4604  135.4414  160.7328 C   0  0  0  0  0  0  0  0  0  0  0  0
  131.3216  136.7347  160.0501 N   0  0  0  0  0  0  0  0  0  0  0  0
  131.4252  136.6028  159.0551 H   0  0  0  0  0  0  0  0  0  0  0  0
  130.4103  137.1217  160.2449 H   0  0  0  0  0  0  0  0  0  0  0  0
  132.3586  137.6567  160.5323 C   0  0  2  0  0  0  0  0  0  0  0  0
  132.4835  137.5323  161.6080 H   0  0  0  0  0  0  0  0  0  0  0  0
  131.9407  139.0972  160.2306 C   0  0  0  0  0  0  0  0  0  0  0  0
  133.6812  137.3508  159.8266 C   0  0  0  0  0  0  0  0  0  0  0  0
  134.8225  137.9194  160.6300 C   0  0  0  0  0  0  0  0  0  0  0  0
  135.2596  139.2101  160.3909 C   0  0  0  0  0  0  0  0  0  0  0  0
  136.3061  139.7382  161.1247 C   0  0  0  0  0  0  0  0  0  0  0  0
  136.9204  138.9792  162.1005 C   0  0  0  0  0  0  0  0  0  0  0  0
  136.4843  137.6789  162.3455 C   0  0  0  0  0  0  0  0  0  0  0  0
  137.1408  136.8584  163.3931 C   0  0  0  0  0  0  0  0  0  0  0  0
  137.1907  135.4716  163.2660 C   0  0  0  0  0  0  0  0  0  0  0  0
  137.8078  134.7137  164.2405 C   0  0  0  0  0  0  0  0  0  0  0  0
  138.3652  135.3272  165.3478 C   0  0  0  0  0  0  0  0  0  0  0  0
  138.3138  136.7030  165.4817 C   0  0  0  0  0  0  0  0  0  0  0  0
  137.7044  137.4711  164.5104 C   0  0  0  0  0  0  0  0  0  0  0  0
  135.4259  137.1537  161.6066 C   0  0  0  0  0  0  0  0  0  0  0  0
  130.6465  133.6850  159.1477 C   0  0  0  0  0  0  0  0  0  0  0  0
  130.1480  132.8062  156.3770 C   0  0  0  0  0  0  0  0  0  0  0  0
  131.4024  132.9533  153.5697 H   0  0  0  0  0  0  0  0  0  0  0  0
  130.2511  131.6678  153.1333 H   0  0  0  0  0  0  0  0  0  0  0  0
  129.6547  133.2129  153.7855 H   0  0  0  0  0  0  0  0  0  0  0  0
  131.2406  130.1367  154.5065 H   0  0  0  0  0  0  0  0  0  0  0  0
  130.2601  129.3519  156.8719 H   0  0  0  0  0  0  0  0  0  0  0  0
  132.0314  129.4992  156.7832 H   0  0  0  0  0  0  0  0  0  0  0  0
  131.9811  131.6857  157.8107 H   0  0  0  0  0  0  0  0  0  0  0  0
  130.9418  130.6283  158.8020 H   0  0  0  0  0  0  0  0  0  0  0  0
  127.6710  132.0829  158.9835 H   0  0  0  0  0  0  0  0  0  0  0  0
  127.2347  133.5305  160.9252 H   0  0  0  0  0  0  0  0  0  0  0  0
  131.3484  135.5840  161.8075 H   0  0  0  0  0  0  0  0  0  0  0  0
  132.4446  135.0232  160.5222 H   0  0  0  0  0  0  0  0  0  0  0  0
  132.7101  139.7813  160.5884 H   0  0  0  0  0  0  0  0  0  0  0  0
  131.8158  139.2216  159.1549 H   0  0  0  0  0  0  0  0  0  0  0  0
  130.9985  139.3151  160.7333 H   0  0  0  0  0  0  0  0  0  0  0  0
  133.8034  136.2714  159.7356 H   0  0  0  0  0  0  0  0  0  0  0  0
  133.6759  137.8009  158.8339 H   0  0  0  0  0  0  0  0  0  0  0  0
  134.7816  139.8074  159.6287 H   0  0  0  0  0  0  0  0  0  0  0  0
  136.6431  140.7465  160.9343 H   0  0  0  0  0  0  0  0  0  0  0  0
  137.7373  139.3929  162.6733 H   0  0  0  0  0  0  0  0  0  0  0  0
  136.7512  134.9912  162.4043 H   0  0  0  0  0  0  0  0  0  0  0  0
  137.8510  133.6391  164.1408 H   0  0  0  0  0  0  0  0  0  0  0  0
  138.8427  134.7299  166.1104 H   0  0  0  0  0  0  0  0  0  0  0  0
  138.7510  137.1769  166.3481 H   0  0  0  0  0  0  0  0  0  0  0  0
  137.6649  138.5453  164.6160 H   0  0  0  0  0  0  0  0  0  0  0  0
  135.0809  136.1478  161.7955 H   0  0  0  0  0  0  0  0  0  0  0  0
  131.6039  133.7291  158.6498 H   0  0  0  0  0  0  0  0  0  0  0  0
  129.2359  133.3433  156.1169 H   0  0  0  0  0  0  0  0  0  0  0  0
  130.9457  133.5229  156.5722 H   0  0  0  0  0  0  0  0  0  0  0  0
  1  2  1  0
  1 35  1  0
  1 36  1  0
  1 37  1  0
  2 34  1  0
  2  3  2  0
  3  4  1  0
  3 38  1  0
  4  5  1  0
  4 39  1  0
  4 40  1  0
  5  6  1  0
  5 41  1  0
  5 42  1  0
  6  7  1  0
  6 34  1  0
  7 33  1  0
  7  8  2  0
  8  9  1  0
  8 43  1  0
  9 10  2  0
  9 44  1  0
 10 11  1  0
 10 12  1  0
 12 13  1  0
 12 33  2  0
 13 14  1  0
 13 45  1  0
 13 46  1  0
 14 15  1  0
 14 16  1  0
 14 17  1  0
 17 18  1  1
 17 19  1  0
 17 20  1  0
 19 47  1  0
 19 48  1  0
 19 49  1  0
 20 21  1  0
 20 50  1  0
 20 51  1  0
 21 32  1  0
 21 22  2  0
 22 23  1  0
 22 52  1  0
 23 24  2  0
 23 53  1  0
 24 25  1  0
 24 54  1  0
 25 26  1  0
 25 32  2  0
 26 31  1  0
 26 27  2  0
 27 28  1  0
 27 55  1  0
 28 29  2  0
 28 56  1  0
 29 30  1  0
 29 57  1  0
 30 31  2  0
 30 58  1  0
 31 59  1  0
 32 60  1  0
 33 61  1  0
 34 62  1  0
 34 63  1  0
M  CHG  1  14   1
M  END
>  <DOCK_score>  (1) 
-56.787758

>  <SMILES>  (1) 
CC1=CCCN(c2ccc(Cl)c(C[NH2+][C@H](C)Cc3cccc(-c4ccccc4)c3)c2)C1

$$$$
