Cc1ccc(Sc2ccccc2)c(Nc2[nH]cc(-c3ccccc3)[nH+]2)c1
     RDKit          3D

 46 49  0  0  1  0  0  0  0  0999 V2000
  130.9131  133.3424  163.5907 C   0  0  0  0  0  0  0  0  0  0  0  0
  130.6796  134.5804  162.7636 C   0  0  0  0  0  0  0  0  0  0  0  0
  130.3881  135.7805  163.3862 C   0  0  0  0  0  0  0  0  0  0  0  0
  130.1720  136.9196  162.6338 C   0  0  0  0  0  0  0  0  0  0  0  0
  130.2533  136.8625  161.2499 C   0  0  0  0  0  0  0  0  0  0  0  0
  129.9859  138.3148  160.2885 S   0  0  0  0  0  0  0  0  0  0  0  0
  131.6015  139.0053  160.1557 C   0  0  0  0  0  0  0  0  0  0  0  0
  132.2990  139.3711  161.3008 C   0  0  0  0  0  0  0  0  0  0  0  0
  133.5667  139.9074  161.1931 C   0  0  0  0  0  0  0  0  0  0  0  0
  134.1384  140.0906  159.9471 C   0  0  0  0  0  0  0  0  0  0  0  0
  133.4453  139.7325  158.8051 C   0  0  0  0  0  0  0  0  0  0  0  0
  132.1792  139.1906  158.9052 C   0  0  0  0  0  0  0  0  0  0  0  0
  130.5422  135.6506  160.6217 C   0  0  0  0  0  0  0  0  0  0  0  0
  130.6205  135.5846  159.2252 N   0  0  0  0  0  0  0  0  0  0  0  0
  130.2883  134.4119  158.5678 C   0  0  0  0  0  0  0  0  0  0  0  0
  129.3784  133.4938  158.9946 N   0  0  0  0  0  0  0  0  0  0  0  0
  128.8503  133.5429  159.8068 H   0  0  0  0  0  0  0  0  0  0  0  0
  129.3458  132.4854  158.0629 C   0  0  0  0  0  0  0  0  0  0  0  0
  130.2318  132.8182  157.0914 C   0  0  0  0  0  0  0  0  0  0  0  0
  130.5305  132.0256  155.8738 C   0  0  0  0  0  0  0  0  0  0  0  0
  130.3103  132.5732  154.6111 C   0  0  0  0  0  0  0  0  0  0  0  0
  130.5954  131.8332  153.4815 C   0  0  0  0  0  0  0  0  0  0  0  0
  131.0881  130.5461  153.6010 C   0  0  0  0  0  0  0  0  0  0  0  0
  131.3031  129.9953  154.8516 C   0  0  0  0  0  0  0  0  0  0  0  0
  131.0271  130.7282  155.9879 C   0  0  0  0  0  0  0  0  0  0  0  0
  130.7983  134.0027  157.4317 N   0  0  0  0  0  0  0  0  0  0  0  0
  131.4705  134.4737  156.9147 H   0  0  0  0  0  0  0  0  0  0  0  0
  130.7570  134.5128  161.3849 C   0  0  0  0  0  0  0  0  0  0  0  0
  131.9722  133.2634  163.8355 H   0  0  0  0  0  0  0  0  0  0  0  0
  130.3311  133.4046  164.5102 H   0  0  0  0  0  0  0  0  0  0  0  0
  130.6047  132.4636  163.0243 H   0  0  0  0  0  0  0  0  0  0  0  0
  130.3289  135.8274  164.4635 H   0  0  0  0  0  0  0  0  0  0  0  0
  129.9442  137.8549  163.1235 H   0  0  0  0  0  0  0  0  0  0  0  0
  131.8514  139.2325  162.2738 H   0  0  0  0  0  0  0  0  0  0  0  0
  134.1111  140.1878  162.0828 H   0  0  0  0  0  0  0  0  0  0  0  0
  135.1284  140.5145  159.8658 H   0  0  0  0  0  0  0  0  0  0  0  0
  133.8950  139.8765  157.8338 H   0  0  0  0  0  0  0  0  0  0  0  0
  131.6383  138.9117  158.0131 H   0  0  0  0  0  0  0  0  0  0  0  0
  130.9074  136.3603  158.7185 H   0  0  0  0  0  0  0  0  0  0  0  0
  128.7294  131.5992  158.0953 H   0  0  0  0  0  0  0  0  0  0  0  0
  129.9212  133.5762  154.5169 H   0  0  0  0  0  0  0  0  0  0  0  0
  130.4296  132.2582  152.5027 H   0  0  0  0  0  0  0  0  0  0  0  0
  131.3059  129.9689  152.7145 H   0  0  0  0  0  0  0  0  0  0  0  0
  131.6883  128.9902  154.9388 H   0  0  0  0  0  0  0  0  0  0  0  0
  131.1957  130.2974  156.9638 H   0  0  0  0  0  0  0  0  0  0  0  0
  130.9845  133.5738  160.9023 H   0  0  0  0  0  0  0  0  0  0  0  0
  1  2  1  0
  1 29  1  0
  1 30  1  0
  1 31  1  0
  2 28  2  0
  2  3  1  0
  3  4  2  0
  3 32  1  0
  4  5  1  0
  4 33  1  0
  5  6  1  0
  5 13  2  0
  6  7  1  0
  7 12  1  0
  7  8  2  0
  8  9  1  0
  8 34  1  0
  9 10  2  0
  9 35  1  0
 10 11  1  0
 10 36  1  0
 11 12  2  0
 11 37  1  0
 12 38  1  0
 13 14  1  0
 13 28  1  0
 14 39  1  0
 15 14  1  0
 15 26  2  0
 15 16  1  0
 16 17  1  0
 16 18  1  0
 18 19  2  0
 18 40  1  0
 19 20  1  0
 19 26  1  0
 20 25  1  0
 20 21  2  0
 21 22  1  0
 21 41  1  0
 22 23  2  0
 22 42  1  0
 23 24  1  0
 23 43  1  0
 24 25  2  0
 24 44  1  0
 25 45  1  0
 26 27  1  0
 28 46  1  0
M  CHG  1  26   1
M  END
>  <DOCK_score>  (1) 
-56.166096

>  <SMILES>  (1) 
Cc1ccc(Sc2ccccc2)c(Nc2[nH]cc(-c3ccccc3)[nH+]2)c1

$$$$
