Cc1cccc(N2CC[NH+](C(c3ccccc3)c3ccccc3)CC2)c1CBr
     RDKit          3D

 56 59  0  0  0  0  0  0  0  0999 V2000
  135.8119  141.1285  162.8732 C   0  0  0  0  0  0  0  0  0  0  0  0
  135.2268  140.4987  161.6353 C   0  0  0  0  0  0  0  0  0  0  0  0
  135.5871  140.9682  160.3852 C   0  0  0  0  0  0  0  0  0  0  0  0
  135.0532  140.3931  159.2470 C   0  0  0  0  0  0  0  0  0  0  0  0
  134.1571  139.3475  159.3549 C   0  0  0  0  0  0  0  0  0  0  0  0
  133.7964  138.8707  160.6085 C   0  0  0  0  0  0  0  0  0  0  0  0
  132.8943  137.8102  160.7213 N   0  0  0  0  0  0  0  0  0  0  0  0
  133.4439  136.5855  160.1230 C   0  0  0  0  0  0  0  0  0  0  0  0
  132.4528  135.4362  160.3196 C   0  0  0  0  0  0  0  0  0  0  0  0
  131.1728  135.7795  159.6861 N   0  0  0  0  0  0  0  0  0  0  0  0
  131.3189  135.9457  158.7017 H   0  0  0  0  0  0  0  0  0  0  0  0
  130.2275  134.6685  159.8595 C   0  0  0  0  0  0  0  0  0  0  0  0
  128.9141  135.0204  159.2097 C   0  0  0  0  0  0  0  0  0  0  0  0
  127.7346  134.5013  159.7099 C   0  0  0  0  0  0  0  0  0  0  0  0
  126.5293  134.8280  159.1167 C   0  0  0  0  0  0  0  0  0  0  0  0
  126.5042  135.6652  158.0179 C   0  0  0  0  0  0  0  0  0  0  0  0
  127.6846  136.1799  157.5135 C   0  0  0  0  0  0  0  0  0  0  0  0
  128.8894  135.8575  158.1099 C   0  0  0  0  0  0  0  0  0  0  0  0
  130.7888  133.4263  159.2172 C   0  0  0  0  0  0  0  0  0  0  0  0
  130.5088  133.1460  157.8929 C   0  0  0  0  0  0  0  0  0  0  0  0
  131.0277  132.0091  157.3022 C   0  0  0  0  0  0  0  0  0  0  0  0
  131.8181  131.1468  158.0389 C   0  0  0  0  0  0  0  0  0  0  0  0
  132.0939  131.4244  159.3647 C   0  0  0  0  0  0  0  0  0  0  0  0
  131.5793  132.5640  159.9538 C   0  0  0  0  0  0  0  0  0  0  0  0
  130.6246  136.9906  160.3107 C   0  0  0  0  0  0  0  0  0  0  0  0
  131.6004  138.1527  160.1140 C   0  0  0  0  0  0  0  0  0  0  0  0
  134.3313  139.4540  161.7505 C   0  0  0  0  0  0  0  0  0  0  0  0
  133.9392  138.9433  163.1129 C   0  0  0  0  0  0  0  0  0  0  0  0
  132.3645  139.9303  163.7546 Br  0  0  0  0  0  0  0  0  0  0  0  0
  136.7314  140.6100  163.1447 H   0  0  0  0  0  0  0  0  0  0  0  0
  136.0307  142.1783  162.6780 H   0  0  0  0  0  0  0  0  0  0  0  0
  135.0966  141.0526  163.6921 H   0  0  0  0  0  0  0  0  0  0  0  0
  136.2875  141.7857  160.2980 H   0  0  0  0  0  0  0  0  0  0  0  0
  135.3366  140.7620  158.2723 H   0  0  0  0  0  0  0  0  0  0  0  0
  133.7403  138.8986  158.4654 H   0  0  0  0  0  0  0  0  0  0  0  0
  133.6101  136.7440  159.0575 H   0  0  0  0  0  0  0  0  0  0  0  0
  134.3890  136.3372  160.6058 H   0  0  0  0  0  0  0  0  0  0  0  0
  132.2972  135.2689  161.3855 H   0  0  0  0  0  0  0  0  0  0  0  0
  132.8522  134.5301  159.8642 H   0  0  0  0  0  0  0  0  0  0  0  0
  130.0698  134.4882  160.9229 H   0  0  0  0  0  0  0  0  0  0  0  0
  127.7542  133.8438  160.5664 H   0  0  0  0  0  0  0  0  0  0  0  0
  125.6075  134.4255  159.5098 H   0  0  0  0  0  0  0  0  0  0  0  0
  125.5635  135.9167  157.5509 H   0  0  0  0  0  0  0  0  0  0  0  0
  127.6654  136.8336  156.6541 H   0  0  0  0  0  0  0  0  0  0  0  0
  129.8113  136.2594  157.7163 H   0  0  0  0  0  0  0  0  0  0  0  0
  129.8876  133.8173  157.3185 H   0  0  0  0  0  0  0  0  0  0  0  0
  130.8119  131.7920  156.2664 H   0  0  0  0  0  0  0  0  0  0  0  0
  132.2199  130.2563  157.5787 H   0  0  0  0  0  0  0  0  0  0  0  0
  132.7112  130.7505  159.9404 H   0  0  0  0  0  0  0  0  0  0  0  0
  131.7944  132.7807  160.9898 H   0  0  0  0  0  0  0  0  0  0  0  0
  130.4784  136.8153  161.3766 H   0  0  0  0  0  0  0  0  0  0  0  0
  129.6686  137.2368  159.8486 H   0  0  0  0  0  0  0  0  0  0  0  0
  131.2007  139.0479  160.5903 H   0  0  0  0  0  0  0  0  0  0  0  0
  131.7363  138.3372  159.0483 H   0  0  0  0  0  0  0  0  0  0  0  0
  133.7008  137.8816  163.0483 H   0  0  0  0  0  0  0  0  0  0  0  0
  134.7667  139.0883  163.8074 H   0  0  0  0  0  0  0  0  0  0  0  0
  1  2  1  0
  1 30  1  0
  1 31  1  0
  1 32  1  0
  2 27  2  0
  2  3  1  0
  3  4  2  0
  3 33  1  0
  4  5  1  0
  4 34  1  0
  5  6  2  0
  5 35  1  0
  6  7  1  0
  6 27  1  0
  7 26  1  0
  7  8  1  0
  8  9  1  0
  8 36  1  0
  8 37  1  0
  9 10  1  0
  9 38  1  0
  9 39  1  0
 10 11  1  0
 10 12  1  0
 10 25  1  0
 12 13  1  0
 12 19  1  0
 12 40  1  0
 13 18  1  0
 13 14  2  0
 14 15  1  0
 14 41  1  0
 15 16  2  0
 15 42  1  0
 16 17  1  0
 16 43  1  0
 17 18  2  0
 17 44  1  0
 18 45  1  0
 19 24  1  0
 19 20  2  0
 20 21  1  0
 20 46  1  0
 21 22  2  0
 21 47  1  0
 22 23  1  0
 22 48  1  0
 23 24  2  0
 23 49  1  0
 24 50  1  0
 25 26  1  0
 25 51  1  0
 25 52  1  0
 26 53  1  0
 26 54  1  0
 27 28  1  0
 28 29  1  0
 28 55  1  0
 28 56  1  0
M  CHG  1  10   1
M  END
>  <DOCK_score>  (1) 
-56.302341

>  <SMILES>  (1) 
Cc1cccc(N2CC[NH+](C(c3ccccc3)c3ccccc3)CC2)c1CBr

$$$$
