CCc1ccc(-c2c[nH]c(Nc3ccccc3Nc3ccccc3F)[nH+]2)cc1
     RDKit          3D

 50 53  0  0  1  0  0  0  0  0999 V2000
  129.9210  128.9050  151.1992 C   0  0  0  0  0  0  0  0  0  0  0  0
  131.0985  129.8105  151.5652 C   0  0  0  0  0  0  0  0  0  0  0  0
  130.8184  130.4911  152.8802 C   0  0  0  0  0  0  0  0  0  0  0  0
  131.2108  129.8926  154.0633 C   0  0  0  0  0  0  0  0  0  0  0  0
  130.9623  130.5142  155.2702 C   0  0  0  0  0  0  0  0  0  0  0  0
  130.3049  131.7430  155.2957 C   0  0  0  0  0  0  0  0  0  0  0  0
  130.0301  132.4134  156.5900 C   0  0  0  0  0  0  0  0  0  0  0  0
  129.2914  131.9085  157.6093 C   0  0  0  0  0  0  0  0  0  0  0  0
  129.2938  132.8509  158.6083 N   0  0  0  0  0  0  0  0  0  0  0  0
  128.8494  132.7785  159.4675 H   0  0  0  0  0  0  0  0  0  0  0  0
  130.0347  133.9055  158.1700 C   0  0  0  0  0  0  0  0  0  0  0  0
  130.2847  135.0670  158.8816 N   0  0  0  0  0  0  0  0  0  0  0  0
  129.3454  135.5364  159.8080 C   0  0  0  0  0  0  0  0  0  0  0  0
  127.9952  135.2811  159.6197 C   0  0  0  0  0  0  0  0  0  0  0  0
  127.0697  135.7451  160.5358 C   0  0  0  0  0  0  0  0  0  0  0  0
  127.4855  136.4648  161.6411 C   0  0  0  0  0  0  0  0  0  0  0  0
  128.8291  136.7240  161.8369 C   0  0  0  0  0  0  0  0  0  0  0  0
  129.7654  136.2574  160.9260 C   0  0  0  0  0  0  0  0  0  0  0  0
  131.1267  136.5137  161.1252 N   0  0  0  0  0  0  0  0  0  0  0  0
  131.5874  137.8322  161.1929 C   0  0  0  0  0  0  0  0  0  0  0  0
  130.9294  138.8361  160.4948 C   0  0  0  0  0  0  0  0  0  0  0  0
  131.3867  140.1378  160.5640 C   0  0  0  0  0  0  0  0  0  0  0  0
  132.4985  140.4429  161.3273 C   0  0  0  0  0  0  0  0  0  0  0  0
  133.1577  139.4467  162.0242 C   0  0  0  0  0  0  0  0  0  0  0  0
  132.7026  138.1424  161.9644 C   0  0  0  0  0  0  0  0  0  0  0  0
  133.3428  137.1701  162.6498 F   0  0  0  0  0  0  0  0  0  0  0  0
  130.4777  133.6374  156.9657 N   0  0  0  0  0  0  0  0  0  0  0  0
  131.0343  134.2222  156.4279 H   0  0  0  0  0  0  0  0  0  0  0  0
  129.9072  132.3395  154.1005 C   0  0  0  0  0  0  0  0  0  0  0  0
  130.1659  131.7114  152.8993 C   0  0  0  0  0  0  0  0  0  0  0  0
  129.0146  129.5044  151.1124 H   0  0  0  0  0  0  0  0  0  0  0  0
  130.1232  128.4126  150.2480 H   0  0  0  0  0  0  0  0  0  0  0  0
  129.7860  128.1528  151.9764 H   0  0  0  0  0  0  0  0  0  0  0  0
  132.0046  129.2117  151.6517 H   0  0  0  0  0  0  0  0  0  0  0  0
  131.2332  130.5632  150.7876 H   0  0  0  0  0  0  0  0  0  0  0  0
  131.7162  128.9384  154.0425 H   0  0  0  0  0  0  0  0  0  0  0  0
  131.2728  130.0474  156.1933 H   0  0  0  0  0  0  0  0  0  0  0  0
  128.7961  130.9491  157.6311 H   0  0  0  0  0  0  0  0  0  0  0  0
  131.1105  135.5552  158.7383 H   0  0  0  0  0  0  0  0  0  0  0  0
  127.6669  134.7200  158.7574 H   0  0  0  0  0  0  0  0  0  0  0  0
  126.0188  135.5454  160.3876 H   0  0  0  0  0  0  0  0  0  0  0  0
  126.7581  136.8255  162.3532 H   0  0  0  0  0  0  0  0  0  0  0  0
  129.1501  137.2861  162.7015 H   0  0  0  0  0  0  0  0  0  0  0  0
  131.7507  135.7766  161.2164 H   0  0  0  0  0  0  0  0  0  0  0  0
  130.0607  138.5996  159.8983 H   0  0  0  0  0  0  0  0  0  0  0  0
  130.8752  140.9185  160.0207 H   0  0  0  0  0  0  0  0  0  0  0  0
  132.8534  141.4617  161.3792 H   0  0  0  0  0  0  0  0  0  0  0  0
  134.0260  139.6884  162.6192 H   0  0  0  0  0  0  0  0  0  0  0  0
  129.3972  133.2915  154.1145 H   0  0  0  0  0  0  0  0  0  0  0  0
  129.8579  132.1726  151.9725 H   0  0  0  0  0  0  0  0  0  0  0  0
  1  2  1  0
  1 31  1  0
  1 32  1  0
  1 33  1  0
  2  3  1  0
  2 34  1  0
  2 35  1  0
  3 30  2  0
  3  4  1  0
  4  5  2  0
  4 36  1  0
  5  6  1  0
  5 37  1  0
  6  7  1  0
  6 29  2  0
  7 27  1  0
  7  8  2  0
  8  9  1  0
  8 38  1  0
  9 10  1  0
  9 11  1  0
 11 12  1  0
 11 27  2  0
 12 13  1  0
 12 39  1  0
 13 18  1  0
 13 14  2  0
 14 15  1  0
 14 40  1  0
 15 16  2  0
 15 41  1  0
 16 17  1  0
 16 42  1  0
 17 18  2  0
 17 43  1  0
 18 19  1  0
 19 20  1  0
 19 44  1  0
 20 25  1  0
 20 21  2  0
 21 22  1  0
 21 45  1  0
 22 23  2  0
 22 46  1  0
 23 24  1  0
 23 47  1  0
 24 25  2  0
 24 48  1  0
 25 26  1  0
 27 28  1  0
 29 30  1  0
 29 49  1  0
 30 50  1  0
M  CHG  1  27   1
M  END
>  <DOCK_score>  (1) 
-56.487438

>  <SMILES>  (1) 
CCc1ccc(-c2c[nH]c(Nc3ccccc3Nc3ccccc3F)[nH+]2)cc1

$$$$
