C[C@H](C[NH2+]Cc1c[nH]nc1-c1ccc(Nc2c[nH]c3ccccc23)o1)Cc1cnn(C)c1
     RDKit          3D

 60 64  0  0  1  0  0  0  0  0999 V2000
  130.0313  139.2937  159.4817 C   0  0  0  0  0  0  0  0  0  0  0  0
  131.4410  139.0934  160.0418 C   0  0  2  0  0  0  0  0  0  0  0  0
  132.1613  139.1002  159.2237 H   0  0  0  0  0  0  0  0  0  0  0  0
  131.5130  137.7516  160.7735 C   0  0  0  0  0  0  0  0  0  0  0  0
  131.1996  136.6651  159.8361 N   0  0  0  0  0  0  0  0  0  0  0  0
  131.8664  136.6714  159.0788 H   0  0  0  0  0  0  0  0  0  0  0  0
  130.2699  136.7972  159.4666 H   0  0  0  0  0  0  0  0  0  0  0  0
  131.2688  135.3768  160.5386 C   0  0  0  0  0  0  0  0  0  0  0  0
  130.9473  134.2621  159.5768 C   0  0  0  0  0  0  0  0  0  0  0  0
  131.8354  133.5870  158.8163 C   0  0  0  0  0  0  0  0  0  0  0  0
  131.1555  132.6726  158.0911 N   0  0  0  0  0  0  0  0  0  0  0  0
  131.5414  132.0488  157.4565 H   0  0  0  0  0  0  0  0  0  0  0  0
  129.7976  132.7768  158.4185 N   0  0  0  0  0  0  0  0  0  0  0  0
  129.6652  133.7346  159.3150 C   0  0  0  0  0  0  0  0  0  0  0  0
  128.3992  134.1769  159.9350 C   0  0  0  0  0  0  0  0  0  0  0  0
  127.1668  133.6613  159.6836 C   0  0  0  0  0  0  0  0  0  0  0  0
  126.2546  134.3738  160.4862 C   0  0  0  0  0  0  0  0  0  0  0  0
  126.9732  135.2874  161.1867 C   0  0  0  0  0  0  0  0  0  0  0  0
  126.4575  136.1983  162.0998 N   0  0  0  0  0  0  0  0  0  0  0  0
  127.2443  136.6314  163.1816 C   0  0  0  0  0  0  0  0  0  0  0  0
  128.5043  136.2467  163.4609 C   0  0  0  0  0  0  0  0  0  0  0  0
  128.9444  136.8861  164.5962 N   0  0  0  0  0  0  0  0  0  0  0  0
  129.8214  136.7732  164.9949 H   0  0  0  0  0  0  0  0  0  0  0  0
  127.9525  137.7056  165.0857 C   0  0  0  0  0  0  0  0  0  0  0  0
  127.8697  138.5540  166.1859 C   0  0  0  0  0  0  0  0  0  0  0  0
  126.7111  139.2615  166.4186 C   0  0  0  0  0  0  0  0  0  0  0  0
  125.6225  139.1374  165.5659 C   0  0  0  0  0  0  0  0  0  0  0  0
  125.6822  138.3103  164.4801 C   0  0  0  0  0  0  0  0  0  0  0  0
  126.8466  137.5839  164.2251 C   0  0  0  0  0  0  0  0  0  0  0  0
  128.2687  135.1582  160.8525 O   0  0  0  0  0  0  0  0  0  0  0  0
  131.7675  140.2250  161.0182 C   0  0  0  0  0  0  0  0  0  0  0  0
  133.1560  140.0277  161.5699 C   0  0  0  0  0  0  0  0  0  0  0  0
  134.2241  139.4119  160.9093 C   0  0  0  0  0  0  0  0  0  0  0  0
  135.2629  139.4324  161.7046 N   0  0  0  0  0  0  0  0  0  0  0  0
  134.8853  140.0537  162.9018 N   0  0  0  0  0  0  0  0  0  0  0  0
  135.7464  140.2773  164.0659 C   0  0  0  0  0  0  0  0  0  0  0  0
  133.5881  140.4098  162.7940 C   0  0  0  0  0  0  0  0  0  0  0  0
  129.9800  140.2497  158.9605 H   0  0  0  0  0  0  0  0  0  0  0  0
  129.7988  138.4875  158.7861 H   0  0  0  0  0  0  0  0  0  0  0  0
  129.3111  139.2870  160.2999 H   0  0  0  0  0  0  0  0  0  0  0  0
  130.7927  137.7449  161.5916 H   0  0  0  0  0  0  0  0  0  0  0  0
  132.5174  137.6089  161.1725 H   0  0  0  0  0  0  0  0  0  0  0  0
  130.5484  135.3699  161.3566 H   0  0  0  0  0  0  0  0  0  0  0  0
  132.2731  135.2341  160.9377 H   0  0  0  0  0  0  0  0  0  0  0  0
  132.9026  133.7508  158.7909 H   0  0  0  0  0  0  0  0  0  0  0  0
  126.9319  132.8595  158.9993 H   0  0  0  0  0  0  0  0  0  0  0  0
  125.1866  134.2216  160.5352 H   0  0  0  0  0  0  0  0  0  0  0  0
  125.5546  136.5358  161.9911 H   0  0  0  0  0  0  0  0  0  0  0  0
  129.0829  135.5437  162.8799 H   0  0  0  0  0  0  0  0  0  0  0  0
  128.7111  138.6569  166.8552 H   0  0  0  0  0  0  0  0  0  0  0  0
  126.6490  139.9195  167.2728 H   0  0  0  0  0  0  0  0  0  0  0  0
  124.7215  139.6995  165.7623 H   0  0  0  0  0  0  0  0  0  0  0  0
  124.8312  138.2186  163.8214 H   0  0  0  0  0  0  0  0  0  0  0  0
  131.7162  141.1809  160.4970 H   0  0  0  0  0  0  0  0  0  0  0  0
  131.0472  140.2182  161.8363 H   0  0  0  0  0  0  0  0  0  0  0  0
  134.1970  138.9945  159.9136 H   0  0  0  0  0  0  0  0  0  0  0  0
  135.6781  139.4217  164.7379 H   0  0  0  0  0  0  0  0  0  0  0  0
  136.7783  140.3990  163.7365 H   0  0  0  0  0  0  0  0  0  0  0  0
  135.4235  141.1771  164.5892 H   0  0  0  0  0  0  0  0  0  0  0  0
  133.0002  140.9102  163.5492 H   0  0  0  0  0  0  0  0  0  0  0  0
  1  2  1  0
  1 38  1  0
  1 39  1  0
  1 40  1  0
  2  3  1  6
  2  4  1  0
  2 31  1  0
  4  5  1  0
  4 41  1  0
  4 42  1  0
  5  6  1  0
  5  7  1  0
  5  8  1  0
  8  9  1  0
  8 43  1  0
  8 44  1  0
  9 14  1  0
  9 10  2  0
 10 11  1  0
 10 45  1  0
 11 12  1  0
 11 13  1  0
 13 14  2  0
 14 15  1  0
 15 30  1  0
 15 16  2  0
 16 17  1  0
 16 46  1  0
 17 18  2  0
 17 47  1  0
 18 19  1  0
 18 30  1  0
 19 20  1  0
 19 48  1  0
 20 29  1  0
 20 21  2  0
 21 22  1  0
 21 49  1  0
 22 23  1  0
 22 24  1  0
 24 29  2  0
 24 25  1  0
 25 26  2  0
 25 50  1  0
 26 27  1  0
 26 51  1  0
 27 28  2  0
 27 52  1  0
 28 29  1  0
 28 53  1  0
 31 32  1  0
 31 54  1  0
 31 55  1  0
 32 37  2  0
 32 33  1  0
 33 34  2  0
 33 56  1  0
 34 35  1  0
 35 36  1  0
 35 37  1  0
 36 57  1  0
 36 58  1  0
 36 59  1  0
 37 60  1  0
M  CHG  1   5   1
M  END
>  <DOCK_score>  (1) 
-46.777222

>  <SMILES>  (1) 
C[C@H](C[NH2+]Cc1c[nH]nc1-c1ccc(Nc2c[nH]c3ccccc23)o1)Cc1cnn(C)c1

$$$$
