C=CCC[C@@H](C)c1c[nH]c(NC(c2ccccc2)c2ccccc2)[nH+]1
     RDKit          3D

 51 53  0  0  1  0  0  0  0  0999 V2000
  129.8936  129.9854  152.5557 C   0  0  0  0  0  0  0  0  0  0  0  0
  130.2439  131.2326  152.7499 C   0  0  0  0  0  0  0  0  0  0  0  0
  131.5182  131.5512  153.4885 C   0  0  0  0  0  0  0  0  0  0  0  0
  131.1921  132.3721  154.7378 C   0  0  0  0  0  0  0  0  0  0  0  0
  130.2623  131.5676  155.6483 C   0  0  1  0  0  0  0  0  0  0  0  0
  129.3406  131.3372  155.1140 H   0  0  0  0  0  0  0  0  0  0  0  0
  130.9524  130.2656  156.0597 C   0  0  0  0  0  0  0  0  0  0  0  0
  129.9410  132.3763  156.8787 C   0  0  0  0  0  0  0  0  0  0  0  0
  129.1532  131.9843  157.8943 C   0  0  0  0  0  0  0  0  0  0  0  0
  129.1301  133.0160  158.8055 N   0  0  0  0  0  0  0  0  0  0  0  0
  128.6493  133.0311  159.6478 H   0  0  0  0  0  0  0  0  0  0  0  0
  129.9140  134.0080  158.3035 C   0  0  0  0  0  0  0  0  0  0  0  0
  130.1627  135.2286  158.9089 N   0  0  0  0  0  0  0  0  0  0  0  0
  129.5569  135.5398  160.2061 C   0  0  0  0  0  0  0  0  0  0  0  0
  129.9830  136.9181  160.6416 C   0  0  0  0  0  0  0  0  0  0  0  0
  130.0898  137.2156  161.9873 C   0  0  0  0  0  0  0  0  0  0  0  0
  130.4852  138.4785  162.3867 C   0  0  0  0  0  0  0  0  0  0  0  0
  130.7637  139.4471  161.4405 C   0  0  0  0  0  0  0  0  0  0  0  0
  130.6518  139.1511  160.0948 C   0  0  0  0  0  0  0  0  0  0  0  0
  130.2614  137.8867  159.6954 C   0  0  0  0  0  0  0  0  0  0  0  0
  128.0557  135.4933  160.0834 C   0  0  0  0  0  0  0  0  0  0  0  0
  127.2841  135.1300  161.1714 C   0  0  0  0  0  0  0  0  0  0  0  0
  125.9068  135.0920  161.0602 C   0  0  0  0  0  0  0  0  0  0  0  0
  125.3015  135.4072  159.8580 C   0  0  0  0  0  0  0  0  0  0  0  0
  126.0733  135.7655  158.7686 C   0  0  0  0  0  0  0  0  0  0  0  0
  127.4504  135.8086  158.8812 C   0  0  0  0  0  0  0  0  0  0  0  0
  130.3942  133.6124  157.1485 N   0  0  0  0  0  0  0  0  0  0  0  0
  130.9835  134.1309  156.5784 H   0  0  0  0  0  0  0  0  0  0  0  0
  130.5180  129.1854  152.9251 H   0  0  0  0  0  0  0  0  0  0  0  0
  128.9802  129.7572  152.0263 H   0  0  0  0  0  0  0  0  0  0  0  0
  129.6194  132.0327  152.3805 H   0  0  0  0  0  0  0  0  0  0  0  0
  132.1806  132.1243  152.8399 H   0  0  0  0  0  0  0  0  0  0  0  0
  132.0098  130.6234  153.7815 H   0  0  0  0  0  0  0  0  0  0  0  0
  130.7004  133.2999  154.4447 H   0  0  0  0  0  0  0  0  0  0  0  0
  132.1138  132.6025  155.2720 H   0  0  0  0  0  0  0  0  0  0  0  0
  130.2900  129.6925  156.7083 H   0  0  0  0  0  0  0  0  0  0  0  0
  131.1848  129.6807  155.1698 H   0  0  0  0  0  0  0  0  0  0  0  0
  131.8742  130.4960  156.5939 H   0  0  0  0  0  0  0  0  0  0  0  0
  128.6365  131.0398  157.9795 H   0  0  0  0  0  0  0  0  0  0  0  0
  130.7378  135.8774  158.4740 H   0  0  0  0  0  0  0  0  0  0  0  0
  129.8840  134.8079  160.9447 H   0  0  0  0  0  0  0  0  0  0  0  0
  129.8680  136.4603  162.7267 H   0  0  0  0  0  0  0  0  0  0  0  0
  130.5723  138.7099  163.4381 H   0  0  0  0  0  0  0  0  0  0  0  0
  131.0683  140.4351  161.7526 H   0  0  0  0  0  0  0  0  0  0  0  0
  130.8689  139.9080  159.3556 H   0  0  0  0  0  0  0  0  0  0  0  0
  130.1736  137.6555  158.6441 H   0  0  0  0  0  0  0  0  0  0  0  0
  127.7573  134.8793  162.1094 H   0  0  0  0  0  0  0  0  0  0  0  0
  125.3039  134.8118  161.9113 H   0  0  0  0  0  0  0  0  0  0  0  0
  124.2257  135.3732  159.7699 H   0  0  0  0  0  0  0  0  0  0  0  0
  125.6004  136.0114  157.8293 H   0  0  0  0  0  0  0  0  0  0  0  0
  128.0534  136.0881  158.0300 H   0  0  0  0  0  0  0  0  0  0  0  0
  1  2  2  0
  1 29  1  0
  1 30  1  0
  2  3  1  0
  2 31  1  0
  3  4  1  0
  3 32  1  0
  3 33  1  0
  4  5  1  0
  4 34  1  0
  4 35  1  0
  5  6  1  6
  5  7  1  0
  5  8  1  0
  7 36  1  0
  7 37  1  0
  7 38  1  0
  8 27  1  0
  8  9  2  0
  9 10  1  0
  9 39  1  0
 10 11  1  0
 10 12  1  0
 12 13  1  0
 12 27  2  0
 13 14  1  0
 13 40  1  0
 14 15  1  0
 14 21  1  0
 14 41  1  0
 15 20  1  0
 15 16  2  0
 16 17  1  0
 16 42  1  0
 17 18  2  0
 17 43  1  0
 18 19  1  0
 18 44  1  0
 19 20  2  0
 19 45  1  0
 20 46  1  0
 21 26  1  0
 21 22  2  0
 22 23  1  0
 22 47  1  0
 23 24  2  0
 23 48  1  0
 24 25  1  0
 24 49  1  0
 25 26  2  0
 25 50  1  0
 26 51  1  0
 27 28  1  0
M  CHG  1  27   1
M  END
>  <DOCK_score>  (1) 
-58.484894

>  <SMILES>  (1) 
C=CCC[C@@H](C)c1c[nH]c(NC(c2ccccc2)c2ccccc2)[nH+]1

$$$$
