c1ccc([C@@H](Nc2[nH]cc(-c3cccnc3)[nH+]2)c2cccc3ccccc23)cc1
     RDKit          3D

 50 54  0  0  1  0  0  0  0  0999 V2000
  126.0414  135.2717  161.0519 C   0  0  0  0  0  0  0  0  0  0  0  0
  126.8729  135.2612  162.1563 C   0  0  0  0  0  0  0  0  0  0  0  0
  128.2170  135.5503  162.0121 C   0  0  0  0  0  0  0  0  0  0  0  0
  128.7297  135.8490  160.7636 C   0  0  0  0  0  0  0  0  0  0  0  0
  130.1951  136.1641  160.6066 C   0  0  1  0  0  0  0  0  0  0  0  0
  130.7659  135.6235  161.3616 H   0  0  0  0  0  0  0  0  0  0  0  0
  130.6418  135.7567  159.2721 N   0  0  0  0  0  0  0  0  0  0  0  0
  130.5410  134.4321  158.8828 C   0  0  0  0  0  0  0  0  0  0  0  0
  130.0527  133.4165  159.6460 N   0  0  0  0  0  0  0  0  0  0  0  0
  129.7154  133.4900  160.5525 H   0  0  0  0  0  0  0  0  0  0  0  0
  130.1231  132.2687  158.8946 C   0  0  0  0  0  0  0  0  0  0  0  0
  130.6594  132.6140  157.6979 C   0  0  0  0  0  0  0  0  0  0  0  0
  130.9289  131.6958  156.5645 C   0  0  0  0  0  0  0  0  0  0  0  0
  130.8728  132.1586  155.2466 C   0  0  0  0  0  0  0  0  0  0  0  0
  131.1370  131.2632  154.2246 C   0  0  0  0  0  0  0  0  0  0  0  0
  131.4348  129.9490  154.5367 C   0  0  0  0  0  0  0  0  0  0  0  0
  131.4755  129.5401  155.7899 N   0  0  0  0  0  0  0  0  0  0  0  0
  131.2365  130.3566  156.7959 C   0  0  0  0  0  0  0  0  0  0  0  0
  130.9053  133.9480  157.7206 N   0  0  0  0  0  0  0  0  0  0  0  0
  131.2891  134.4617  156.9927 H   0  0  0  0  0  0  0  0  0  0  0  0
  130.4115  137.6455  160.7783 C   0  0  0  0  0  0  0  0  0  0  0  0
  129.3559  138.4662  161.0337 C   0  0  0  0  0  0  0  0  0  0  0  0
  129.5364  139.8383  161.1949 C   0  0  0  0  0  0  0  0  0  0  0  0
  130.7736  140.3982  161.1013 C   0  0  0  0  0  0  0  0  0  0  0  0
  131.8875  139.5830  160.8387 C   0  0  0  0  0  0  0  0  0  0  0  0
  133.1805  140.1245  160.7363 C   0  0  0  0  0  0  0  0  0  0  0  0
  134.2358  139.3038  160.4820 C   0  0  0  0  0  0  0  0  0  0  0  0
  134.0552  137.9313  160.3203 C   0  0  0  0  0  0  0  0  0  0  0  0
  132.8181  137.3716  160.4130 C   0  0  0  0  0  0  0  0  0  0  0  0
  131.7039  138.1871  160.6751 C   0  0  0  0  0  0  0  0  0  0  0  0
  127.8973  135.8641  159.6601 C   0  0  0  0  0  0  0  0  0  0  0  0
  126.5540  135.5711  159.8036 C   0  0  0  0  0  0  0  0  0  0  0  0
  124.9913  135.0462  161.1645 H   0  0  0  0  0  0  0  0  0  0  0  0
  126.4723  135.0276  163.1315 H   0  0  0  0  0  0  0  0  0  0  0  0
  128.8665  135.5426  162.8750 H   0  0  0  0  0  0  0  0  0  0  0  0
  131.0083  136.4152  158.6614 H   0  0  0  0  0  0  0  0  0  0  0  0
  129.8142  131.2798  159.1999 H   0  0  0  0  0  0  0  0  0  0  0  0
  130.6334  133.1896  155.0314 H   0  0  0  0  0  0  0  0  0  0  0  0
  131.1063  131.5862  153.1945 H   0  0  0  0  0  0  0  0  0  0  0  0
  131.6377  129.2468  153.7417 H   0  0  0  0  0  0  0  0  0  0  0  0
  131.2795  129.9846  157.8089 H   0  0  0  0  0  0  0  0  0  0  0  0
  128.3635  138.0474  161.1129 H   0  0  0  0  0  0  0  0  0  0  0  0
  128.6819  140.4671  161.3968 H   0  0  0  0  0  0  0  0  0  0  0  0
  130.8979  141.4640  161.2239 H   0  0  0  0  0  0  0  0  0  0  0  0
  133.3355  141.1862  160.8585 H   0  0  0  0  0  0  0  0  0  0  0  0
  135.2284  139.7226  160.4038 H   0  0  0  0  0  0  0  0  0  0  0  0
  134.9097  137.3024  160.1188 H   0  0  0  0  0  0  0  0  0  0  0  0
  132.6935  136.3064  160.2863 H   0  0  0  0  0  0  0  0  0  0  0  0
  128.2971  136.1018  158.6854 H   0  0  0  0  0  0  0  0  0  0  0  0
  125.9044  135.5796  158.9408 H   0  0  0  0  0  0  0  0  0  0  0  0
  1 32  2  0
  1  2  1  0
  1 33  1  0
  2  3  2  0
  2 34  1  0
  3  4  1  0
  3 35  1  0
  4  5  1  0
  4 31  2  0
  5  6  1  1
  5  7  1  0
  5 21  1  0
  7 36  1  0
  8  7  1  0
  8 19  2  0
  8  9  1  0
  9 10  1  0
  9 11  1  0
 11 12  2  0
 11 37  1  0
 12 13  1  0
 12 19  1  0
 13 18  1  0
 13 14  2  0
 14 15  1  0
 14 38  1  0
 15 16  2  0
 15 39  1  0
 16 17  1  0
 16 40  1  0
 17 18  2  0
 18 41  1  0
 19 20  1  0
 21 30  1  0
 21 22  2  0
 22 23  1  0
 22 42  1  0
 23 24  2  0
 23 43  1  0
 24 25  1  0
 24 44  1  0
 25 30  2  0
 25 26  1  0
 26 27  2  0
 26 45  1  0
 27 28  1  0
 27 46  1  0
 28 29  2  0
 28 47  1  0
 29 30  1  0
 29 48  1  0
 31 32  1  0
 31 49  1  0
 32 50  1  0
M  CHG  1  19   1
M  END
>  <DOCK_score>  (1) 
-57.800144

>  <SMILES>  (1) 
c1ccc([C@@H](Nc2[nH]cc(-c3cccnc3)[nH+]2)c2cccc3ccccc23)cc1

$$$$
