Brc1ccc(-c2c[nH]c(N[C@@H](c3ccc(Br)cc3)c3cccnc3)[nH+]2)cc1
     RDKit          3D

 44 47  0  0  1  0  0  0  0  0999 V2000
  131.2914  129.3760  151.6445 Br  0  0  0  0  0  0  0  0  0  0  0  0
  130.8853  130.3294  153.2262 C   0  0  0  0  0  0  0  0  0  0  0  0
  130.2366  131.5495  153.1487 C   0  0  0  0  0  0  0  0  0  0  0  0
  129.9380  132.2493  154.3000 C   0  0  0  0  0  0  0  0  0  0  0  0
  130.2905  131.7251  155.5423 C   0  0  0  0  0  0  0  0  0  0  0  0
  129.9719  132.4729  156.7832 C   0  0  0  0  0  0  0  0  0  0  0  0
  129.1863  132.0362  157.7986 C   0  0  0  0  0  0  0  0  0  0  0  0
  129.1603  133.0358  158.7408 N   0  0  0  0  0  0  0  0  0  0  0  0
  128.6810  133.0182  159.5840 H   0  0  0  0  0  0  0  0  0  0  0  0
  129.9316  134.0548  158.2730 C   0  0  0  0  0  0  0  0  0  0  0  0
  130.1666  135.2532  158.9251 N   0  0  0  0  0  0  0  0  0  0  0  0
  129.5606  135.5055  160.2348 C   0  0  1  0  0  0  0  0  0  0  0  0
  129.8989  134.7493  160.9434 H   0  0  0  0  0  0  0  0  0  0  0  0
  129.9706  136.8709  160.7234 C   0  0  0  0  0  0  0  0  0  0  0  0
  130.0774  137.1162  162.0797 C   0  0  0  0  0  0  0  0  0  0  0  0
  130.4580  138.3670  162.5282 C   0  0  0  0  0  0  0  0  0  0  0  0
  130.7219  139.3763  161.6199 C   0  0  0  0  0  0  0  0  0  0  0  0
  131.2351  141.0900  162.2330 Br  0  0  0  0  0  0  0  0  0  0  0  0
  130.6099  139.1319  160.2631 C   0  0  0  0  0  0  0  0  0  0  0  0
  130.2343  137.8793  159.8153 C   0  0  0  0  0  0  0  0  0  0  0  0
  128.0597  135.4449  160.1139 C   0  0  0  0  0  0  0  0  0  0  0  0
  127.4360  135.7985  158.9268 C   0  0  0  0  0  0  0  0  0  0  0  0
  126.0535  135.7230  158.8599 C   0  0  0  0  0  0  0  0  0  0  0  0
  125.3468  135.3101  159.9738 C   0  0  0  0  0  0  0  0  0  0  0  0
  125.9731  134.9861  161.0880 N   0  0  0  0  0  0  0  0  0  0  0  0
  127.2872  135.0416  161.1863 C   0  0  0  0  0  0  0  0  0  0  0  0
  130.4106  133.7169  157.1007 N   0  0  0  0  0  0  0  0  0  0  0  0
  130.9883  134.2673  156.5493 H   0  0  0  0  0  0  0  0  0  0  0  0
  130.9485  130.4986  155.6146 C   0  0  0  0  0  0  0  0  0  0  0  0
  131.2372  129.8040  154.4577 C   0  0  0  0  0  0  0  0  0  0  0  0
  129.9643  131.9550  152.1855 H   0  0  0  0  0  0  0  0  0  0  0  0
  129.4316  133.2013  154.2383 H   0  0  0  0  0  0  0  0  0  0  0  0
  128.6785  131.0848  157.8559 H   0  0  0  0  0  0  0  0  0  0  0  0
  130.7358  135.9241  158.5166 H   0  0  0  0  0  0  0  0  0  0  0  0
  129.8674  136.3292  162.7890 H   0  0  0  0  0  0  0  0  0  0  0  0
  130.5450  138.5575  163.5876 H   0  0  0  0  0  0  0  0  0  0  0  0
  130.8154  139.9198  159.5535 H   0  0  0  0  0  0  0  0  0  0  0  0
  130.1470  137.6883  158.7559 H   0  0  0  0  0  0  0  0  0  0  0  0
  128.0141  136.1214  158.0735 H   0  0  0  0  0  0  0  0  0  0  0  0
  125.5349  135.9874  157.9502 H   0  0  0  0  0  0  0  0  0  0  0  0
  124.2693  135.2517  159.9309 H   0  0  0  0  0  0  0  0  0  0  0  0
  127.7650  134.7685  162.1155 H   0  0  0  0  0  0  0  0  0  0  0  0
  131.2281  130.0905  156.5746 H   0  0  0  0  0  0  0  0  0  0  0  0
  131.7428  128.8514  154.5127 H   0  0  0  0  0  0  0  0  0  0  0  0
  1  2  1  0
  2 30  2  0
  2  3  1  0
  3  4  2  0
  3 31  1  0
  4  5  1  0
  4 32  1  0
  5  6  1  0
  5 29  2  0
  6 27  1  0
  6  7  2  0
  7  8  1  0
  7 33  1  0
  8  9  1  0
  8 10  1  0
 10 11  1  0
 10 27  2  0
 11 12  1  0
 11 34  1  0
 12 13  1  1
 12 14  1  0
 12 21  1  0
 14 20  1  0
 14 15  2  0
 15 16  1  0
 15 35  1  0
 16 17  2  0
 16 36  1  0
 17 18  1  0
 17 19  1  0
 19 20  2  0
 19 37  1  0
 20 38  1  0
 21 26  1  0
 21 22  2  0
 22 23  1  0
 22 39  1  0
 23 24  2  0
 23 40  1  0
 24 25  1  0
 24 41  1  0
 25 26  2  0
 26 42  1  0
 27 28  1  0
 29 30  1  0
 29 43  1  0
 30 44  1  0
M  CHG  1  27   1
M  END
>  <DOCK_score>  (1) 
-60.292431

>  <SMILES>  (1) 
Brc1ccc(-c2c[nH]c(N[C@@H](c3ccc(Br)cc3)c3cccnc3)[nH+]2)cc1

$$$$
