FC(F)[C@@H](Nc1[nH]cc(-c2ccc(-c3ccccc3)cc2)[nH+]1)c1cnc(Cl)s1
     RDKit          3D

 44 47  0  0  1  0  0  0  0  0999 V2000
  130.9319  138.2387  160.9933 F   0  0  0  0  0  0  0  0  0  0  0  0
  130.4139  137.0769  161.5757 C   0  0  0  0  0  0  0  0  0  0  0  0
  129.1627  136.7935  161.0178 F   0  0  0  0  0  0  0  0  0  0  0  0
  131.3654  135.9076  161.3145 C   0  0  1  0  0  0  0  0  0  0  0  0
  130.9619  135.0024  161.7682 H   0  0  0  0  0  0  0  0  0  0  0  0
  131.5087  135.7079  159.8702 N   0  0  0  0  0  0  0  0  0  0  0  0
  131.1470  134.4997  159.2993 C   0  0  0  0  0  0  0  0  0  0  0  0
  130.6428  133.4266  159.9676 N   0  0  0  0  0  0  0  0  0  0  0  0
  130.4740  133.3713  160.9213 H   0  0  0  0  0  0  0  0  0  0  0  0
  130.4175  132.4365  159.0429 C   0  0  0  0  0  0  0  0  0  0  0  0
  130.7904  132.9324  157.8364 C   0  0  0  0  0  0  0  0  0  0  0  0
  130.7247  132.2159  156.5403 C   0  0  0  0  0  0  0  0  0  0  0  0
  129.9440  132.7233  155.5015 C   0  0  0  0  0  0  0  0  0  0  0  0
  129.8865  132.0597  154.2960 C   0  0  0  0  0  0  0  0  0  0  0  0
  130.6002  130.8757  154.1169 C   0  0  0  0  0  0  0  0  0  0  0  0
  130.5336  130.1575  152.8210 C   0  0  0  0  0  0  0  0  0  0  0  0
  130.6789  128.7718  152.7804 C   0  0  0  0  0  0  0  0  0  0  0  0
  130.6109  128.1088  151.5719 C   0  0  0  0  0  0  0  0  0  0  0  0
  130.4096  128.8179  150.4013 C   0  0  0  0  0  0  0  0  0  0  0  0
  130.2701  130.1937  150.4351 C   0  0  0  0  0  0  0  0  0  0  0  0
  130.3310  130.8668  151.6384 C   0  0  0  0  0  0  0  0  0  0  0  0
  131.3772  130.3651  155.1573 C   0  0  0  0  0  0  0  0  0  0  0  0
  131.4387  131.0309  156.3613 C   0  0  0  0  0  0  0  0  0  0  0  0
  131.2286  134.2027  158.0254 N   0  0  0  0  0  0  0  0  0  0  0  0
  131.5527  134.7954  157.3293 H   0  0  0  0  0  0  0  0  0  0  0  0
  132.7133  136.2128  161.9154 C   0  0  0  0  0  0  0  0  0  0  0  0
  133.8695  136.2931  161.2514 C   0  0  0  0  0  0  0  0  0  0  0  0
  134.9146  136.5741  162.0047 N   0  0  0  0  0  0  0  0  0  0  0  0
  134.7023  136.7351  163.2682 C   0  0  0  0  0  0  0  0  0  0  0  0
  135.9256  137.1094  164.4417 Cl  0  0  0  0  0  0  0  0  0  0  0  0
  133.0405  136.5344  163.6166 S   0  0  0  0  0  0  0  0  0  0  0  0
  130.3074  137.2255  162.6502 H   0  0  0  0  0  0  0  0  0  0  0  0
  131.8569  136.4222  159.3140 H   0  0  0  0  0  0  0  0  0  0  0  0
  130.0195  131.4518  159.2387 H   0  0  0  0  0  0  0  0  0  0  0  0
  129.3876  133.6383  155.6415 H   0  0  0  0  0  0  0  0  0  0  0  0
  129.2854  132.4548  153.4903 H   0  0  0  0  0  0  0  0  0  0  0  0
  130.8402  128.2177  153.6932 H   0  0  0  0  0  0  0  0  0  0  0  0
  130.7189  127.0347  151.5397 H   0  0  0  0  0  0  0  0  0  0  0  0
  130.3615  128.2953  149.4574 H   0  0  0  0  0  0  0  0  0  0  0  0
  130.1133  130.7422  149.5181 H   0  0  0  0  0  0  0  0  0  0  0  0
  130.2222  131.9409  151.6635 H   0  0  0  0  0  0  0  0  0  0  0  0
  131.9301  129.4478  155.0186 H   0  0  0  0  0  0  0  0  0  0  0  0
  132.0401  130.6360  157.1668 H   0  0  0  0  0  0  0  0  0  0  0  0
  133.9423  136.1396  160.1848 H   0  0  0  0  0  0  0  0  0  0  0  0
  1  2  1  0
  2  3  1  0
  2  4  1  0
  2 32  1  0
  4  5  1  1
  4  6  1  0
  4 26  1  0
  6 33  1  0
  7  6  1  0
  7 24  2  0
  7  8  1  0
  8  9  1  0
  8 10  1  0
 10 11  2  0
 10 34  1  0
 11 12  1  0
 11 24  1  0
 12 23  1  0
 12 13  2  0
 13 14  1  0
 13 35  1  0
 14 15  2  0
 14 36  1  0
 15 16  1  0
 15 22  1  0
 16 21  1  0
 16 17  2  0
 17 18  1  0
 17 37  1  0
 18 19  2  0
 18 38  1  0
 19 20  1  0
 19 39  1  0
 20 21  2  0
 20 40  1  0
 21 41  1  0
 22 23  2  0
 22 42  1  0
 23 43  1  0
 24 25  1  0
 26 31  1  0
 26 27  2  0
 27 28  1  0
 27 44  1  0
 28 29  2  0
 29 30  1  0
 29 31  1  0
M  CHG  1  24   1
M  END
>  <DOCK_score>  (1) 
-58.58707

>  <SMILES>  (1) 
FC(F)[C@@H](Nc1[nH]cc(-c2ccc(-c3ccccc3)cc2)[nH+]1)c1cnc(Cl)s1

$$$$
