Nc1ccc(-c2c[nH]c(Nc3ccc(O)c(N)c3)[nH+]2)cc1
     RDKit          3D

 37 39  0  0  1  0  0  0  0  0999 V2000
  131.2789  129.3605  151.9370 N   0  0  0  0  0  0  0  0  0  0  0  0
  131.0208  130.0486  153.1251 C   0  0  0  0  0  0  0  0  0  0  0  0
  130.1076  131.0963  153.1358 C   0  0  0  0  0  0  0  0  0  0  0  0
  129.8509  131.7766  154.3076 C   0  0  0  0  0  0  0  0  0  0  0  0
  130.5082  131.4128  155.4817 C   0  0  0  0  0  0  0  0  0  0  0  0
  130.2341  132.1437  156.7434 C   0  0  0  0  0  0  0  0  0  0  0  0
  129.7407  131.6055  157.8862 C   0  0  0  0  0  0  0  0  0  0  0  0
  129.6442  132.6284  158.7991 N   0  0  0  0  0  0  0  0  0  0  0  0
  129.3233  132.5557  159.7117 H   0  0  0  0  0  0  0  0  0  0  0  0
  130.0819  133.7619  158.1862 C   0  0  0  0  0  0  0  0  0  0  0  0
  130.1454  135.0189  158.7646 N   0  0  0  0  0  0  0  0  0  0  0  0
  129.2323  135.3766  159.7637 C   0  0  0  0  0  0  0  0  0  0  0  0
  128.0285  135.9782  159.4209 C   0  0  0  0  0  0  0  0  0  0  0  0
  127.1230  136.3276  160.4052 C   0  0  0  0  0  0  0  0  0  0  0  0
  127.4188  136.0891  161.7370 C   0  0  0  0  0  0  0  0  0  0  0  0
  126.5285  136.4390  162.7050 O   0  0  0  0  0  0  0  0  0  0  0  0
  128.6253  135.4858  162.0852 C   0  0  0  0  0  0  0  0  0  0  0  0
  128.9231  135.2395  163.4301 N   0  0  0  0  0  0  0  0  0  0  0  0
  129.5308  135.1304  161.0969 C   0  0  0  0  0  0  0  0  0  0  0  0
  130.4281  133.4690  156.9562 N   0  0  0  0  0  0  0  0  0  0  0  0
  130.7708  134.0991  156.3032 H   0  0  0  0  0  0  0  0  0  0  0  0
  131.4277  130.3653  155.4675 C   0  0  0  0  0  0  0  0  0  0  0  0
  131.6773  129.6843  154.2946 C   0  0  0  0  0  0  0  0  0  0  0  0
  130.8209  129.6140  151.1205 H   0  0  0  0  0  0  0  0  0  0  0  0
  131.9161  128.6292  151.9288 H   0  0  0  0  0  0  0  0  0  0  0  0
  129.5988  131.3780  152.2258 H   0  0  0  0  0  0  0  0  0  0  0  0
  129.1409  132.5904  154.3155 H   0  0  0  0  0  0  0  0  0  0  0  0
  129.4744  130.5715  158.0478 H   0  0  0  0  0  0  0  0  0  0  0  0
  130.8226  135.6513  158.4774 H   0  0  0  0  0  0  0  0  0  0  0  0
  127.7975  136.1693  158.3833 H   0  0  0  0  0  0  0  0  0  0  0  0
  126.1856  136.7912  160.1356 H   0  0  0  0  0  0  0  0  0  0  0  0
  125.7196  136.8469  162.3667 H   0  0  0  0  0  0  0  0  0  0  0  0
  128.2894  135.4888  164.1208 H   0  0  0  0  0  0  0  0  0  0  0  0
  129.7634  134.8193  163.6717 H   0  0  0  0  0  0  0  0  0  0  0  0
  130.4669  134.6629  161.3641 H   0  0  0  0  0  0  0  0  0  0  0  0
  131.9414  130.0846  156.3750 H   0  0  0  0  0  0  0  0  0  0  0  0
  132.3863  128.8696  154.2842 H   0  0  0  0  0  0  0  0  0  0  0  0
  1  2  1  0
  1 24  1  0
  1 25  1  0
  2 23  2  0
  2  3  1  0
  3  4  2  0
  3 26  1  0
  4  5  1  0
  4 27  1  0
  5  6  1  0
  5 22  2  0
  6 20  1  0
  6  7  2  0
  7  8  1  0
  7 28  1  0
  8  9  1  0
  8 10  1  0
 10 11  1  0
 10 20  2  0
 11 12  1  0
 11 29  1  0
 12 19  1  0
 12 13  2  0
 13 14  1  0
 13 30  1  0
 14 15  2  0
 14 31  1  0
 15 16  1  0
 15 17  1  0
 16 32  1  0
 17 18  1  0
 17 19  2  0
 18 33  1  0
 18 34  1  0
 19 35  1  0
 20 21  1  0
 22 23  1  0
 22 36  1  0
 23 37  1  0
M  CHG  1  20   1
M  END
>  <DOCK_score>  (1) 
-49.228451

>  <SMILES>  (1) 
Nc1ccc(-c2c[nH]c(Nc3ccc(O)c(N)c3)[nH+]2)cc1

$$$$
