Cc1ccc([C@@H]2CCCC2Nc2ccc(Nc3[nH]c4ccccc4[nH+]3)cc2)cc1
     RDKit          3D

 56 60  0  0  1  0  0  0  0  0999 V2000
  131.1878  142.1067  163.7986 C   0  0  0  0  0  0  0  0  0  0  0  0
  130.0760  141.0934  163.8896 C   0  0  0  0  0  0  0  0  0  0  0  0
  128.8672  141.3356  163.2643 C   0  0  0  0  0  0  0  0  0  0  0  0
  127.8478  140.4057  163.3470 C   0  0  0  0  0  0  0  0  0  0  0  0
  128.0372  139.2335  164.0549 C   0  0  0  0  0  0  0  0  0  0  0  0
  126.9258  138.2198  164.1450 C   0  0  2  0  0  0  0  0  0  0  0  0
  126.0520  138.5731  163.5974 H   0  0  0  0  0  0  0  0  0  0  0  0
  126.5579  137.9689  165.6220 C   0  0  0  0  0  0  0  0  0  0  0  0
  126.2429  136.4536  165.6829 C   0  0  0  0  0  0  0  0  0  0  0  0
  127.2965  135.8466  164.7235 C   0  0  0  0  0  0  0  0  0  0  0  0
  127.3954  136.8704  163.5737 C   0  0  1  0  0  0  0  0  0  0  0  0
  126.5284  136.4647  162.4647 N   0  0  0  0  0  0  0  0  0  0  0  0
  127.0692  136.2702  161.1888 C   0  0  0  0  0  0  0  0  0  0  0  0
  128.1795  137.0010  160.7864 C   0  0  0  0  0  0  0  0  0  0  0  0
  128.7156  136.8059  159.5290 C   0  0  0  0  0  0  0  0  0  0  0  0
  128.1388  135.8859  158.6634 C   0  0  0  0  0  0  0  0  0  0  0  0
  128.6801  135.6916  157.3857 N   0  0  0  0  0  0  0  0  0  0  0  0
  129.1440  134.4499  157.0166 C   0  0  0  0  0  0  0  0  0  0  0  0
  129.1323  133.3693  157.7943 N   0  0  0  0  0  0  0  0  0  0  0  0
  128.7984  133.3289  158.7041 H   0  0  0  0  0  0  0  0  0  0  0  0
  129.6685  132.3232  157.0907 C   0  0  0  0  0  0  0  0  0  0  0  0
  129.9035  130.9836  157.3867 C   0  0  0  0  0  0  0  0  0  0  0  0
  130.4801  130.1641  156.4407 C   0  0  0  0  0  0  0  0  0  0  0  0
  130.8285  130.6646  155.1947 C   0  0  0  0  0  0  0  0  0  0  0  0
  130.6030  131.9884  154.8854 C   0  0  0  0  0  0  0  0  0  0  0  0
  130.0211  132.8300  155.8291 C   0  0  0  0  0  0  0  0  0  0  0  0
  129.6755  134.1556  155.8319 N   0  0  0  0  0  0  0  0  0  0  0  0
  129.7970  134.7748  155.0953 H   0  0  0  0  0  0  0  0  0  0  0  0
  127.0256  135.1590  159.0636 C   0  0  0  0  0  0  0  0  0  0  0  0
  126.4922  135.3505  160.3228 C   0  0  0  0  0  0  0  0  0  0  0  0
  129.2441  138.9937  164.6845 C   0  0  0  0  0  0  0  0  0  0  0  0
  130.2651  139.9216  164.5982 C   0  0  0  0  0  0  0  0  0  0  0  0
  131.1074  142.8097  164.6277 H   0  0  0  0  0  0  0  0  0  0  0  0
  132.1495  141.5960  163.8471 H   0  0  0  0  0  0  0  0  0  0  0  0
  131.1104  142.6471  162.8552 H   0  0  0  0  0  0  0  0  0  0  0  0
  128.7194  142.2511  162.7107 H   0  0  0  0  0  0  0  0  0  0  0  0
  126.9033  140.5948  162.8584 H   0  0  0  0  0  0  0  0  0  0  0  0
  125.6805  138.5523  165.9010 H   0  0  0  0  0  0  0  0  0  0  0  0
  127.3997  138.2100  166.2711 H   0  0  0  0  0  0  0  0  0  0  0  0
  125.2333  136.2541  165.3239 H   0  0  0  0  0  0  0  0  0  0  0  0
  126.3766  136.0715  166.6950 H   0  0  0  0  0  0  0  0  0  0  0  0
  126.9583  134.8813  164.3468 H   0  0  0  0  0  0  0  0  0  0  0  0
  128.2583  135.7432  165.2260 H   0  0  0  0  0  0  0  0  0  0  0  0
  128.4273  136.9487  163.2313 H   0  0  0  0  0  0  0  0  0  0  0  0
  125.5795  136.3310  162.6148 H   0  0  0  0  0  0  0  0  0  0  0  0
  128.6257  137.7192  161.4583 H   0  0  0  0  0  0  0  0  0  0  0  0
  129.5811  137.3717  159.2173 H   0  0  0  0  0  0  0  0  0  0  0  0
  128.7278  136.4324  156.7612 H   0  0  0  0  0  0  0  0  0  0  0  0
  129.6351  130.5877  158.3551 H   0  0  0  0  0  0  0  0  0  0  0  0
  130.6626  129.1248  156.6712 H   0  0  0  0  0  0  0  0  0  0  0  0
  131.2797  130.0121  154.4619 H   0  0  0  0  0  0  0  0  0  0  0  0
  130.8763  132.3716  153.9133 H   0  0  0  0  0  0  0  0  0  0  0  0
  126.5771  134.4435  158.3904 H   0  0  0  0  0  0  0  0  0  0  0  0
  125.6261  134.7854  160.6340 H   0  0  0  0  0  0  0  0  0  0  0  0
  129.3906  138.0799  165.2412 H   0  0  0  0  0  0  0  0  0  0  0  0
  131.2096  139.7323  165.0864 H   0  0  0  0  0  0  0  0  0  0  0  0
  1  2  1  0
  1 33  1  0
  1 34  1  0
  1 35  1  0
  2 32  2  0
  2  3  1  0
  3  4  2  0
  3 36  1  0
  4  5  1  0
  4 37  1  0
  5  6  1  0
  5 31  2  0
  6  7  1  6
  6 11  1  0
  6  8  1  0
  8  9  1  0
  8 38  1  0
  8 39  1  0
  9 10  1  0
  9 40  1  0
  9 41  1  0
 10 11  1  0
 10 42  1  0
 10 43  1  0
 11 12  1  0
 11 44  1  6
 12 13  1  0
 12 45  1  0
 13 30  1  0
 13 14  2  0
 14 15  1  0
 14 46  1  0
 15 16  2  0
 15 47  1  0
 16 17  1  0
 16 29  1  0
 17 18  1  0
 17 48  1  0
 18 27  1  0
 18 19  2  0
 19 20  1  0
 19 21  1  0
 21 26  2  0
 21 22  1  0
 22 23  2  0
 22 49  1  0
 23 24  1  0
 23 50  1  0
 24 25  2  0
 24 51  1  0
 25 26  1  0
 25 52  1  0
 26 27  1  0
 27 28  1  0
 29 30  2  0
 29 53  1  0
 30 54  1  0
 31 32  1  0
 31 55  1  0
 32 56  1  0
M  CHG  1  19   1
M  END
>  <DOCK_score>  (1) 
-47.759705

>  <SMILES>  (1) 
Cc1ccc([C@@H]2CCCC2Nc2ccc(Nc3[nH]c4ccccc4[nH+]3)cc2)cc1

$$$$
