CCc1ccc(-c2c[nH]c(N[C@H](C)Cc3ccc(-c4ccc(C)cc4)cc3)[nH+]2)cc1
     RDKit          3D

 60 63  0  0  1  0  0  0  0  0999 V2000
  129.9879  128.7379  150.7751 C   0  0  0  0  0  0  0  0  0  0  0  0
  131.1620  129.6473  151.1423 C   0  0  0  0  0  0  0  0  0  0  0  0
  130.8611  130.3584  152.4365 C   0  0  0  0  0  0  0  0  0  0  0  0
  131.2295  129.7845  153.6395 C   0  0  0  0  0  0  0  0  0  0  0  0
  130.9616  130.4337  154.8276 C   0  0  0  0  0  0  0  0  0  0  0  0
  130.3083  131.6648  154.8140 C   0  0  0  0  0  0  0  0  0  0  0  0
  130.0127  132.3648  156.0879 C   0  0  0  0  0  0  0  0  0  0  0  0
  129.2544  131.8852  157.1048 C   0  0  0  0  0  0  0  0  0  0  0  0
  129.2426  132.8499  158.0826 N   0  0  0  0  0  0  0  0  0  0  0  0
  128.7828  132.7982  158.9351 H   0  0  0  0  0  0  0  0  0  0  0  0
  129.9948  133.8918  157.6344 C   0  0  0  0  0  0  0  0  0  0  0  0
  130.2358  135.0677  158.3239 N   0  0  0  0  0  0  0  0  0  0  0  0
  129.2373  135.5837  159.2636 C   0  0  2  0  0  0  0  0  0  0  0  0
  129.0640  134.8485  160.0494 H   0  0  0  0  0  0  0  0  0  0  0  0
  127.9278  135.8531  158.5195 C   0  0  0  0  0  0  0  0  0  0  0  0
  129.7473  136.8850  159.8861 C   0  0  0  0  0  0  0  0  0  0  0  0
  131.0370  136.6196  160.6190 C   0  0  0  0  0  0  0  0  0  0  0  0
  131.2653  135.3783  161.1848 C   0  0  0  0  0  0  0  0  0  0  0  0
  132.4473  135.1281  161.8521 C   0  0  0  0  0  0  0  0  0  0  0  0
  133.4065  136.1323  161.9652 C   0  0  0  0  0  0  0  0  0  0  0  0
  134.6768  135.8710  162.6863 C   0  0  0  0  0  0  0  0  0  0  0  0
  135.3366  136.9100  163.3394 C   0  0  0  0  0  0  0  0  0  0  0  0
  136.5148  136.6600  164.0136 C   0  0  0  0  0  0  0  0  0  0  0  0
  137.0467  135.3832  164.0316 C   0  0  0  0  0  0  0  0  0  0  0  0
  138.3369  135.1174  164.7638 C   0  0  0  0  0  0  0  0  0  0  0  0
  136.3986  134.3492  163.3805 C   0  0  0  0  0  0  0  0  0  0  0  0
  135.2170  134.5867  162.7082 C   0  0  0  0  0  0  0  0  0  0  0  0
  133.1689  137.3826  161.3981 C   0  0  0  0  0  0  0  0  0  0  0  0
  131.9859  137.6203  160.7280 C   0  0  0  0  0  0  0  0  0  0  0  0
  130.4580  133.5957  156.4445 N   0  0  0  0  0  0  0  0  0  0  0  0
  131.0265  134.1666  155.9042 H   0  0  0  0  0  0  0  0  0  0  0  0
  129.9343  132.2360  153.5989 C   0  0  0  0  0  0  0  0  0  0  0  0
  130.2124  131.5805  152.4167 C   0  0  0  0  0  0  0  0  0  0  0  0
  129.0854  129.3380  150.6588 H   0  0  0  0  0  0  0  0  0  0  0  0
  130.2054  128.2237  149.8390 H   0  0  0  0  0  0  0  0  0  0  0  0
  129.8364  128.0036  151.5662 H   0  0  0  0  0  0  0  0  0  0  0  0
  132.0642  129.0478  151.2582 H   0  0  0  0  0  0  0  0  0  0  0  0
  131.3133  130.3822  150.3507 H   0  0  0  0  0  0  0  0  0  0  0  0
  131.7314  128.8283  153.6491 H   0  0  0  0  0  0  0  0  0  0  0  0
  131.2539  129.9867  155.7663 H   0  0  0  0  0  0  0  0  0  0  0  0
  128.7551  130.9282  157.1390 H   0  0  0  0  0  0  0  0  0  0  0  0
  131.0658  135.5501  158.1849 H   0  0  0  0  0  0  0  0  0  0  0  0
  128.1013  136.5884  157.7335 H   0  0  0  0  0  0  0  0  0  0  0  0
  127.5646  134.9261  158.0760 H   0  0  0  0  0  0  0  0  0  0  0  0
  127.1850  136.2369  159.2186 H   0  0  0  0  0  0  0  0  0  0  0  0
  129.9204  137.6202  159.1003 H   0  0  0  0  0  0  0  0  0  0  0  0
  129.0043  137.2688  160.5853 H   0  0  0  0  0  0  0  0  0  0  0  0
  130.5193  134.6021  161.1003 H   0  0  0  0  0  0  0  0  0  0  0  0
  132.6263  134.1571  162.2898 H   0  0  0  0  0  0  0  0  0  0  0  0
  134.9248  137.9082  163.3216 H   0  0  0  0  0  0  0  0  0  0  0  0
  137.0248  137.4637  164.5239 H   0  0  0  0  0  0  0  0  0  0  0  0
  139.1768  135.2618  164.0836 H   0  0  0  0  0  0  0  0  0  0  0  0
  138.4270  135.8074  165.6030 H   0  0  0  0  0  0  0  0  0  0  0  0
  138.3406  134.0926  165.1335 H   0  0  0  0  0  0  0  0  0  0  0  0
  136.8184  133.3541  163.3979 H   0  0  0  0  0  0  0  0  0  0  0  0
  134.7118  133.7786  162.2001 H   0  0  0  0  0  0  0  0  0  0  0  0
  133.9090  138.1647  161.4831 H   0  0  0  0  0  0  0  0  0  0  0  0
  131.8009  138.5889  160.2879 H   0  0  0  0  0  0  0  0  0  0  0  0
  129.4277  133.1897  153.5825 H   0  0  0  0  0  0  0  0  0  0  0  0
  129.9228  132.0220  151.4745 H   0  0  0  0  0  0  0  0  0  0  0  0
  1  2  1  0
  1 34  1  0
  1 35  1  0
  1 36  1  0
  2  3  1  0
  2 37  1  0
  2 38  1  0
  3 33  2  0
  3  4  1  0
  4  5  2  0
  4 39  1  0
  5  6  1  0
  5 40  1  0
  6  7  1  0
  6 32  2  0
  7 30  1  0
  7  8  2  0
  8  9  1  0
  8 41  1  0
  9 10  1  0
  9 11  1  0
 11 12  1  0
 11 30  2  0
 12 13  1  0
 12 42  1  0
 13 14  1  1
 13 15  1  0
 13 16  1  0
 15 43  1  0
 15 44  1  0
 15 45  1  0
 16 17  1  0
 16 46  1  0
 16 47  1  0
 17 29  1  0
 17 18  2  0
 18 19  1  0
 18 48  1  0
 19 20  2  0
 19 49  1  0
 20 21  1  0
 20 28  1  0
 21 27  1  0
 21 22  2  0
 22 23  1  0
 22 50  1  0
 23 24  2  0
 23 51  1  0
 24 25  1  0
 24 26  1  0
 25 52  1  0
 25 53  1  0
 25 54  1  0
 26 27  2  0
 26 55  1  0
 27 56  1  0
 28 29  2  0
 28 57  1  0
 29 58  1  0
 30 31  1  0
 32 33  1  0
 32 59  1  0
 33 60  1  0
M  CHG  1  30   1
M  END
>  <DOCK_score>  (1) 
-61.916203

>  <SMILES>  (1) 
CCc1ccc(-c2c[nH]c(N[C@H](C)Cc3ccc(-c4ccc(C)cc4)cc3)[nH+]2)cc1

$$$$
