CCc1ccc(-c2c[nH]c(N[C@@H](Cc3ccc(O)cc3)c3cc(O)cc(Br)c3)[nH+]2)cc1
     RDKit          3D

 56 59  0  0  1  0  0  0  0  0999 V2000
  130.4949  128.5185  151.6052 C   0  0  0  0  0  0  0  0  0  0  0  0
  131.5923  129.5226  151.9634 C   0  0  0  0  0  0  0  0  0  0  0  0
  131.2193  130.2428  153.2336 C   0  0  0  0  0  0  0  0  0  0  0  0
  131.6106  129.7297  154.4566 C   0  0  0  0  0  0  0  0  0  0  0  0
  131.2768  130.3878  155.6228 C   0  0  0  0  0  0  0  0  0  0  0  0
  130.5340  131.5657  155.5669 C   0  0  0  0  0  0  0  0  0  0  0  0
  130.1673  132.2747  156.8172 C   0  0  0  0  0  0  0  0  0  0  0  0
  129.4312  131.7664  157.8364 C   0  0  0  0  0  0  0  0  0  0  0  0
  129.3324  132.7528  158.7874 N   0  0  0  0  0  0  0  0  0  0  0  0
  128.8646  132.6891  159.6347 H   0  0  0  0  0  0  0  0  0  0  0  0
  130.0118  133.8359  158.3212 C   0  0  0  0  0  0  0  0  0  0  0  0
  130.1538  135.0443  158.9816 N   0  0  0  0  0  0  0  0  0  0  0  0
  129.5431  135.2349  160.2995 C   0  0  1  0  0  0  0  0  0  0  0  0
  129.9502  134.5038  160.9978 H   0  0  0  0  0  0  0  0  0  0  0  0
  129.8484  136.6469  160.8036 C   0  0  0  0  0  0  0  0  0  0  0  0
  129.6699  136.6958  162.2993 C   0  0  0  0  0  0  0  0  0  0  0  0
  130.7382  136.4169  163.1314 C   0  0  0  0  0  0  0  0  0  0  0  0
  130.5785  136.4666  164.5027 C   0  0  0  0  0  0  0  0  0  0  0  0
  129.3419  136.7852  165.0446 C   0  0  0  0  0  0  0  0  0  0  0  0
  129.1806  136.8285  166.3934 O   0  0  0  0  0  0  0  0  0  0  0  0
  128.2701  137.0592  164.2076 C   0  0  0  0  0  0  0  0  0  0  0  0
  128.4365  137.0141  162.8369 C   0  0  0  0  0  0  0  0  0  0  0  0
  128.0511  135.0515  160.1930 C   0  0  0  0  0  0  0  0  0  0  0  0
  127.3359  134.5710  161.2732 C   0  0  0  0  0  0  0  0  0  0  0  0
  125.9617  134.4079  161.1771 C   0  0  0  0  0  0  0  0  0  0  0  0
  125.2558  133.9413  162.2404 O   0  0  0  0  0  0  0  0  0  0  0  0
  125.3099  134.7165  159.9919 C   0  0  0  0  0  0  0  0  0  0  0  0
  126.0302  135.1909  158.9119 C   0  0  0  0  0  0  0  0  0  0  0  0
  125.1432  135.6119  157.2957 Br  0  0  0  0  0  0  0  0  0  0  0  0
  127.4001  135.3583  159.0128 C   0  0  0  0  0  0  0  0  0  0  0  0
  130.5142  133.5444  157.1462 N   0  0  0  0  0  0  0  0  0  0  0  0
  131.0468  134.1419  156.5983 H   0  0  0  0  0  0  0  0  0  0  0  0
  130.1373  132.0754  154.3318 C   0  0  0  0  0  0  0  0  0  0  0  0
  130.4817  131.4119  153.1717 C   0  0  0  0  0  0  0  0  0  0  0  0
  130.3863  127.7959  152.4139 H   0  0  0  0  0  0  0  0  0  0  0  0
  129.5522  129.0462  151.4604 H   0  0  0  0  0  0  0  0  0  0  0  0
  130.7647  127.9978  150.6864 H   0  0  0  0  0  0  0  0  0  0  0  0
  132.5347  128.9955  152.1077 H   0  0  0  0  0  0  0  0  0  0  0  0
  131.7007  130.2458  151.1542 H   0  0  0  0  0  0  0  0  0  0  0  0
  132.1821  128.8143  154.4990 H   0  0  0  0  0  0  0  0  0  0  0  0
  131.5869  129.9886  156.5772 H   0  0  0  0  0  0  0  0  0  0  0  0
  129.0040  130.7760  157.8899 H   0  0  0  0  0  0  0  0  0  0  0  0
  130.6579  135.7646  158.5718 H   0  0  0  0  0  0  0  0  0  0  0  0
  130.8761  136.9083  160.5516 H   0  0  0  0  0  0  0  0  0  0  0  0
  129.1672  137.3559  160.3330 H   0  0  0  0  0  0  0  0  0  0  0  0
  131.6994  136.1639  162.7089 H   0  0  0  0  0  0  0  0  0  0  0  0
  131.4144  136.2526  165.1523 H   0  0  0  0  0  0  0  0  0  0  0  0
  129.9831  136.6229  166.8923 H   0  0  0  0  0  0  0  0  0  0  0  0
  127.3063  137.3072  164.6271 H   0  0  0  0  0  0  0  0  0  0  0  0
  127.6024  137.2273  162.1848 H   0  0  0  0  0  0  0  0  0  0  0  0
  127.8460  134.3269  162.1934 H   0  0  0  0  0  0  0  0  0  0  0  0
  125.7971  133.7509  163.0188 H   0  0  0  0  0  0  0  0  0  0  0  0
  124.2406  134.5863  159.9133 H   0  0  0  0  0  0  0  0  0  0  0  0
  127.9615  135.7298  158.1683 H   0  0  0  0  0  0  0  0  0  0  0  0
  129.5614  132.9878  154.2826 H   0  0  0  0  0  0  0  0  0  0  0  0
  130.1747  131.8058  152.2141 H   0  0  0  0  0  0  0  0  0  0  0  0
  1  2  1  0
  1 35  1  0
  1 36  1  0
  1 37  1  0
  2  3  1  0
  2 38  1  0
  2 39  1  0
  3 34  2  0
  3  4  1  0
  4  5  2  0
  4 40  1  0
  5  6  1  0
  5 41  1  0
  6  7  1  0
  6 33  2  0
  7 31  1  0
  7  8  2  0
  8  9  1  0
  8 42  1  0
  9 10  1  0
  9 11  1  0
 11 12  1  0
 11 31  2  0
 12 13  1  0
 12 43  1  0
 13 14  1  1
 13 15  1  0
 13 23  1  0
 15 16  1  0
 15 44  1  0
 15 45  1  0
 16 22  1  0
 16 17  2  0
 17 18  1  0
 17 46  1  0
 18 19  2  0
 18 47  1  0
 19 20  1  0
 19 21  1  0
 20 48  1  0
 21 22  2  0
 21 49  1  0
 22 50  1  0
 23 30  1  0
 23 24  2  0
 24 25  1  0
 24 51  1  0
 25 26  1  0
 25 27  2  0
 26 52  1  0
 27 28  1  0
 27 53  1  0
 28 29  1  0
 28 30  2  0
 30 54  1  0
 31 32  1  0
 33 34  1  0
 33 55  1  0
 34 56  1  0
M  CHG  1  31   1
M  END
>  <DOCK_score>  (1) 
-56.33532

>  <SMILES>  (1) 
CCc1ccc(-c2c[nH]c(N[C@@H](Cc3ccc(O)cc3)c3cc(O)cc(Br)c3)[nH+]2)cc1

$$$$
