c1ccc(-c2ccc(Nc3ccc(Nc4[nH]cc(-c5ccccc5)[nH+]4)nc3)cc2)cc1
     RDKit          3D

 53 57  0  0  1  0  0  0  0  0999 V2000
  128.4894  142.9545  168.3001 C   0  0  0  0  0  0  0  0  0  0  0  0
  128.7156  141.6124  168.5471 C   0  0  0  0  0  0  0  0  0  0  0  0
  128.3787  140.6674  167.5994 C   0  0  0  0  0  0  0  0  0  0  0  0
  127.8204  141.0685  166.3870 C   0  0  0  0  0  0  0  0  0  0  0  0
  127.4615  140.0578  165.3621 C   0  0  0  0  0  0  0  0  0  0  0  0
  128.1863  138.8705  165.2690 C   0  0  0  0  0  0  0  0  0  0  0  0
  127.8483  137.9305  164.3191 C   0  0  0  0  0  0  0  0  0  0  0  0
  126.7920  138.1706  163.4472 C   0  0  0  0  0  0  0  0  0  0  0  0
  126.4545  137.2198  162.4831 N   0  0  0  0  0  0  0  0  0  0  0  0
  127.3944  136.8362  161.5190 C   0  0  0  0  0  0  0  0  0  0  0  0
  128.3649  137.7370  161.0817 C   0  0  0  0  0  0  0  0  0  0  0  0
  129.2758  137.3137  160.1314 C   0  0  0  0  0  0  0  0  0  0  0  0
  129.1878  136.0160  159.6386 C   0  0  0  0  0  0  0  0  0  0  0  0
  130.0977  135.5815  158.6758 N   0  0  0  0  0  0  0  0  0  0  0  0
  130.0172  134.2903  158.1791 C   0  0  0  0  0  0  0  0  0  0  0  0
  129.5623  133.2048  158.8628 N   0  0  0  0  0  0  0  0  0  0  0  0
  129.2392  133.1959  159.7774 H   0  0  0  0  0  0  0  0  0  0  0  0
  129.6431  132.1253  158.0182 C   0  0  0  0  0  0  0  0  0  0  0  0
  130.1525  132.5797  156.8461 C   0  0  0  0  0  0  0  0  0  0  0  0
  130.4216  131.7641  155.6367 C   0  0  0  0  0  0  0  0  0  0  0  0
  129.7785  132.0599  154.4361 C   0  0  0  0  0  0  0  0  0  0  0  0
  130.0370  131.3013  153.3126 C   0  0  0  0  0  0  0  0  0  0  0  0
  130.9241  130.2416  153.3794 C   0  0  0  0  0  0  0  0  0  0  0  0
  131.5610  129.9402  154.5696 C   0  0  0  0  0  0  0  0  0  0  0  0
  131.3144  130.6955  155.6980 C   0  0  0  0  0  0  0  0  0  0  0  0
  130.3719  133.9118  156.9755 N   0  0  0  0  0  0  0  0  0  0  0  0
  130.7335  134.4918  156.2871 H   0  0  0  0  0  0  0  0  0  0  0  0
  128.2502  135.1893  160.0729 N   0  0  0  0  0  0  0  0  0  0  0  0
  127.3682  135.5574  160.9827 C   0  0  0  0  0  0  0  0  0  0  0  0
  126.0713  139.3564  163.5352 C   0  0  0  0  0  0  0  0  0  0  0  0
  126.4029  140.2967  164.4871 C   0  0  0  0  0  0  0  0  0  0  0  0
  127.6001  142.4224  166.1413 C   0  0  0  0  0  0  0  0  0  0  0  0
  127.9355  143.3584  167.0986 C   0  0  0  0  0  0  0  0  0  0  0  0
  128.7504  143.6902  169.0464 H   0  0  0  0  0  0  0  0  0  0  0  0
  129.1527  141.3031  169.4850 H   0  0  0  0  0  0  0  0  0  0  0  0
  128.5515  139.6194  167.7950 H   0  0  0  0  0  0  0  0  0  0  0  0
  129.0096  138.6857  165.9431 H   0  0  0  0  0  0  0  0  0  0  0  0
  128.4071  137.0090  164.2490 H   0  0  0  0  0  0  0  0  0  0  0  0
  125.5685  136.8246  162.4808 H   0  0  0  0  0  0  0  0  0  0  0  0
  128.4065  138.7405  161.4789 H   0  0  0  0  0  0  0  0  0  0  0  0
  130.0432  137.9838  159.7731 H   0  0  0  0  0  0  0  0  0  0  0  0
  130.7871  136.1830  158.3536 H   0  0  0  0  0  0  0  0  0  0  0  0
  129.3592  131.1082  158.2450 H   0  0  0  0  0  0  0  0  0  0  0  0
  129.0823  132.8840  154.3840 H   0  0  0  0  0  0  0  0  0  0  0  0
  129.5425  131.5323  152.3807 H   0  0  0  0  0  0  0  0  0  0  0  0
  131.1203  129.6476  152.4991 H   0  0  0  0  0  0  0  0  0  0  0  0
  132.2527  129.1121  154.6159 H   0  0  0  0  0  0  0  0  0  0  0  0
  131.8125  130.4592  156.6267 H   0  0  0  0  0  0  0  0  0  0  0  0
  126.6171  134.8552  161.3130 H   0  0  0  0  0  0  0  0  0  0  0  0
  125.2510  139.5409  162.8572 H   0  0  0  0  0  0  0  0  0  0  0  0
  125.8430  141.2176  164.5547 H   0  0  0  0  0  0  0  0  0  0  0  0
  127.1680  142.7389  165.2035 H   0  0  0  0  0  0  0  0  0  0  0  0
  127.7649  144.4078  166.9094 H   0  0  0  0  0  0  0  0  0  0  0  0
  1 33  2  0
  1  2  1  0
  1 34  1  0
  2  3  2  0
  2 35  1  0
  3  4  1  0
  3 36  1  0
  4  5  1  0
  4 32  2  0
  5 31  1  0
  5  6  2  0
  6  7  1  0
  6 37  1  0
  7  8  2  0
  7 38  1  0
  8  9  1  0
  8 30  1  0
  9 10  1  0
  9 39  1  0
 10 29  1  0
 10 11  2  0
 11 12  1  0
 11 40  1  0
 12 13  2  0
 12 41  1  0
 13 14  1  0
 13 28  1  0
 14 42  1  0
 15 14  1  0
 15 26  2  0
 15 16  1  0
 16 17  1  0
 16 18  1  0
 18 19  2  0
 18 43  1  0
 19 20  1  0
 19 26  1  0
 20 25  1  0
 20 21  2  0
 21 22  1  0
 21 44  1  0
 22 23  2  0
 22 45  1  0
 23 24  1  0
 23 46  1  0
 24 25  2  0
 24 47  1  0
 25 48  1  0
 26 27  1  0
 28 29  2  0
 29 49  1  0
 30 31  2  0
 30 50  1  0
 31 51  1  0
 32 33  1  0
 32 52  1  0
 33 53  1  0
M  CHG  1  26   1
M  END
>  <DOCK_score>  (1) 
-54.571796

>  <SMILES>  (1) 
c1ccc(-c2ccc(Nc3ccc(Nc4[nH]cc(-c5ccccc5)[nH+]4)nc3)cc2)cc1

$$$$
