Nc1ccc(-c2c[nH]c(N[C@@H](Cc3nc(-c4ccccc4)c[nH]3)C3=CCCCC3)[nH+]2)cc1
     RDKit          3D

 61 65  0  0  1  0  0  0  0  0999 V2000
  131.0361  129.3982  152.3963 N   0  0  0  0  0  0  0  0  0  0  0  0
  130.8073  130.1469  153.5532 C   0  0  0  0  0  0  0  0  0  0  0  0
  129.9545  131.2435  153.5126 C   0  0  0  0  0  0  0  0  0  0  0  0
  129.7272  131.9842  154.6533 C   0  0  0  0  0  0  0  0  0  0  0  0
  130.3533  131.6320  155.8479 C   0  0  0  0  0  0  0  0  0  0  0  0
  130.1102  132.4273  157.0766 C   0  0  0  0  0  0  0  0  0  0  0  0
  129.5781  131.9641  158.2345 C   0  0  0  0  0  0  0  0  0  0  0  0
  129.5316  133.0271  159.1051 N   0  0  0  0  0  0  0  0  0  0  0  0
  129.1999  133.0094  160.0164 H   0  0  0  0  0  0  0  0  0  0  0  0
  130.0372  134.1086  158.4521 C   0  0  0  0  0  0  0  0  0  0  0  0
  130.1663  135.3817  158.9804 N   0  0  0  0  0  0  0  0  0  0  0  0
  129.7393  135.6509  160.3558 C   0  0  1  0  0  0  0  0  0  0  0  0
  130.3069  135.0223  161.0420 H   0  0  0  0  0  0  0  0  0  0  0  0
  129.9888  137.1233  160.6883 C   0  0  0  0  0  0  0  0  0  0  0  0
  131.4427  137.3216  161.0314 C   0  0  0  0  0  0  0  0  0  0  0  0
  132.1487  136.5507  161.8101 N   0  0  0  0  0  0  0  0  0  0  0  0
  133.4045  137.0351  161.8931 C   0  0  0  0  0  0  0  0  0  0  0  0
  134.5170  136.4525  162.6831 C   0  0  0  0  0  0  0  0  0  0  0  0
  135.8338  136.6010  162.2520 C   0  0  0  0  0  0  0  0  0  0  0  0
  136.8651  136.0612  162.9933 C   0  0  0  0  0  0  0  0  0  0  0  0
  136.5928  135.3647  164.1570 C   0  0  0  0  0  0  0  0  0  0  0  0
  135.2872  135.2096  164.5869 C   0  0  0  0  0  0  0  0  0  0  0  0
  134.2485  135.7498  163.8562 C   0  0  0  0  0  0  0  0  0  0  0  0
  133.4680  138.1523  161.1224 C   0  0  0  0  0  0  0  0  0  0  0  0
  132.2260  138.3251  160.5784 N   0  0  0  0  0  0  0  0  0  0  0  0
  131.9556  139.0392  159.9803 H   0  0  0  0  0  0  0  0  0  0  0  0
  128.2699  135.3465  160.4942 C   0  0  0  0  0  0  0  0  0  0  0  0
  127.5177  135.4990  159.4520 C   0  0  0  0  0  0  0  0  0  0  0  0
  126.0387  135.2452  159.4382 C   0  0  0  0  0  0  0  0  0  0  0  0
  125.6374  134.4012  160.6498 C   0  0  0  0  0  0  0  0  0  0  0  0
  126.2488  135.0342  161.9061 C   0  0  0  0  0  0  0  0  0  0  0  0
  127.7709  134.8796  161.8303 C   0  0  0  0  0  0  0  0  0  0  0  0
  130.3766  133.7475  157.2386 N   0  0  0  0  0  0  0  0  0  0  0  0
  130.7593  134.3309  156.5647 H   0  0  0  0  0  0  0  0  0  0  0  0
  131.2125  130.5350  155.8851 C   0  0  0  0  0  0  0  0  0  0  0  0
  131.4321  129.7935  154.7434 C   0  0  0  0  0  0  0  0  0  0  0  0
  130.5999  129.6437  151.5655 H   0  0  0  0  0  0  0  0  0  0  0  0
  131.6310  128.6322  152.4241 H   0  0  0  0  0  0  0  0  0  0  0  0
  129.4700  131.5163  152.5867 H   0  0  0  0  0  0  0  0  0  0  0  0
  129.0643  132.8362  154.6212 H   0  0  0  0  0  0  0  0  0  0  0  0
  129.2527  130.9539  158.4344 H   0  0  0  0  0  0  0  0  0  0  0  0
  130.5395  136.0956  158.4399 H   0  0  0  0  0  0  0  0  0  0  0  0
  129.3719  137.4133  161.5389 H   0  0  0  0  0  0  0  0  0  0  0  0
  129.7315  137.7391  159.8264 H   0  0  0  0  0  0  0  0  0  0  0  0
  136.0472  137.1413  161.3414 H   0  0  0  0  0  0  0  0  0  0  0  0
  137.8863  136.1796  162.6625 H   0  0  0  0  0  0  0  0  0  0  0  0
  137.4026  134.9399  164.7318 H   0  0  0  0  0  0  0  0  0  0  0  0
  135.0803  134.6650  165.4964 H   0  0  0  0  0  0  0  0  0  0  0  0
  133.2295  135.6284  164.1929 H   0  0  0  0  0  0  0  0  0  0  0  0
  134.3321  138.7819  160.9695 H   0  0  0  0  0  0  0  0  0  0  0  0
  127.9833  135.8298  158.5354 H   0  0  0  0  0  0  0  0  0  0  0  0
  125.5085  136.1971  159.4693 H   0  0  0  0  0  0  0  0  0  0  0  0
  125.7716  134.7151  158.5240 H   0  0  0  0  0  0  0  0  0  0  0  0
  124.5513  134.3831  160.7402 H   0  0  0  0  0  0  0  0  0  0  0  0
  126.0151  133.3857  160.5302 H   0  0  0  0  0  0  0  0  0  0  0  0
  125.9861  136.0912  161.9487 H   0  0  0  0  0  0  0  0  0  0  0  0
  125.8735  134.5242  162.7932 H   0  0  0  0  0  0  0  0  0  0  0  0
  128.0385  133.8321  161.9701 H   0  0  0  0  0  0  0  0  0  0  0  0
  128.2325  135.4763  162.6171 H   0  0  0  0  0  0  0  0  0  0  0  0
  131.7021  130.2630  156.8086 H   0  0  0  0  0  0  0  0  0  0  0  0
  132.0943  128.9408  154.7728 H   0  0  0  0  0  0  0  0  0  0  0  0
  1  2  1  0
  1 37  1  0
  1 38  1  0
  2 36  2  0
  2  3  1  0
  3  4  2  0
  3 39  1  0
  4  5  1  0
  4 40  1  0
  5  6  1  0
  5 35  2  0
  6 33  1  0
  6  7  2  0
  7  8  1  0
  7 41  1  0
  8  9  1  0
  8 10  1  0
 10 11  1  0
 10 33  2  0
 11 12  1  0
 11 42  1  0
 12 13  1  1
 12 14  1  0
 12 27  1  0
 14 15  1  0
 14 43  1  0
 14 44  1  0
 15 25  1  0
 15 16  2  0
 16 17  1  0
 17 18  1  0
 17 24  2  0
 18 23  1  0
 18 19  2  0
 19 20  1  0
 19 45  1  0
 20 21  2  0
 20 46  1  0
 21 22  1  0
 21 47  1  0
 22 23  2  0
 22 48  1  0
 23 49  1  0
 24 25  1  0
 24 50  1  0
 25 26  1  0
 27 32  1  0
 27 28  2  0
 28 29  1  0
 28 51  1  0
 29 30  1  0
 29 52  1  0
 29 53  1  0
 30 31  1  0
 30 54  1  0
 30 55  1  0
 31 32  1  0
 31 56  1  0
 31 57  1  0
 32 58  1  0
 32 59  1  0
 33 34  1  0
 35 36  1  0
 35 60  1  0
 36 61  1  0
M  CHG  1  33   1
M  END
>  <DOCK_score>  (1) 
-57.126511

>  <SMILES>  (1) 
Nc1ccc(-c2c[nH]c(N[C@@H](Cc3nc(-c4ccccc4)c[nH]3)C3=CCCCC3)[nH+]2)cc1

$$$$
