CCc1ccc(-c2c[nH]c(N[C@H](Cc3cccc(-c4ccccc4)c3)c3ccnn3C)[nH+]2)cc1
     RDKit          3D

 64 68  0  0  1  0  0  0  0  0999 V2000
  130.0636  128.8835  151.7080 C   0  0  0  0  0  0  0  0  0  0  0  0
  131.1296  129.9648  151.8947 C   0  0  0  0  0  0  0  0  0  0  0  0
  130.9162  130.6579  153.2158 C   0  0  0  0  0  0  0  0  0  0  0  0
  131.5357  130.1763  154.3544 C   0  0  0  0  0  0  0  0  0  0  0  0
  131.3477  130.8098  155.5660 C   0  0  0  0  0  0  0  0  0  0  0  0
  130.5231  131.9308  155.6428 C   0  0  0  0  0  0  0  0  0  0  0  0
  130.3131  132.6129  156.9431 C   0  0  0  0  0  0  0  0  0  0  0  0
  129.7893  132.0538  158.0621 C   0  0  0  0  0  0  0  0  0  0  0  0
  129.7755  133.0314  159.0271 N   0  0  0  0  0  0  0  0  0  0  0  0
  129.4564  132.9350  159.9380 H   0  0  0  0  0  0  0  0  0  0  0  0
  130.2919  134.1603  158.4691 C   0  0  0  0  0  0  0  0  0  0  0  0
  130.4519  135.3764  159.1109 N   0  0  0  0  0  0  0  0  0  0  0  0
  130.0495  135.5239  160.5118 C   0  0  2  0  0  0  0  0  0  0  0  0
  129.1147  134.9891  160.6795 H   0  0  0  0  0  0  0  0  0  0  0  0
  129.8534  137.0070  160.8326 C   0  0  0  0  0  0  0  0  0  0  0  0
  131.1459  137.7463  160.6007 C   0  0  0  0  0  0  0  0  0  0  0  0
  131.4176  138.2886  159.3573 C   0  0  0  0  0  0  0  0  0  0  0  0
  132.6015  138.9687  159.1376 C   0  0  0  0  0  0  0  0  0  0  0  0
  133.5192  139.1101  160.1592 C   0  0  0  0  0  0  0  0  0  0  0  0
  133.2507  138.5660  161.4134 C   0  0  0  0  0  0  0  0  0  0  0  0
  134.2332  138.7147  162.5154 C   0  0  0  0  0  0  0  0  0  0  0  0
  133.7975  138.7735  163.8375 C   0  0  0  0  0  0  0  0  0  0  0  0
  134.7161  138.9061  164.8590 C   0  0  0  0  0  0  0  0  0  0  0  0
  136.0661  138.9923  164.5716 C   0  0  0  0  0  0  0  0  0  0  0  0
  136.5041  138.9398  163.2602 C   0  0  0  0  0  0  0  0  0  0  0  0
  135.5946  138.8017  162.2313 C   0  0  0  0  0  0  0  0  0  0  0  0
  132.0537  137.8862  161.6306 C   0  0  0  0  0  0  0  0  0  0  0  0
  131.1214  134.9542  161.4050 C   0  0  0  0  0  0  0  0  0  0  0  0
  132.4467  134.9136  161.1347 C   0  0  0  0  0  0  0  0  0  0  0  0
  133.0889  134.3091  162.2202 C   0  0  0  0  0  0  0  0  0  0  0  0
  132.1809  133.9908  163.1068 N   0  0  0  0  0  0  0  0  0  0  0  0
  130.9308  134.3879  162.6149 N   0  0  0  0  0  0  0  0  0  0  0  0
  129.6438  134.2179  163.2939 C   0  0  0  0  0  0  0  0  0  0  0  0
  130.6166  133.9048  157.2253 N   0  0  0  0  0  0  0  0  0  0  0  0
  131.0095  134.5387  156.6050 H   0  0  0  0  0  0  0  0  0  0  0  0
  129.8971  132.4088  154.4930 C   0  0  0  0  0  0  0  0  0  0  0  0
  130.0965  131.7705  153.2858 C   0  0  0  0  0  0  0  0  0  0  0  0
  129.0747  129.3414  151.7225 H   0  0  0  0  0  0  0  0  0  0  0  0
  130.2181  128.3822  150.7524 H   0  0  0  0  0  0  0  0  0  0  0  0
  130.1391  128.1560  152.5162 H   0  0  0  0  0  0  0  0  0  0  0  0
  132.1185  129.5074  151.8800 H   0  0  0  0  0  0  0  0  0  0  0  0
  131.0539  130.6929  151.0862 H   0  0  0  0  0  0  0  0  0  0  0  0
  132.1710  129.3049  154.2947 H   0  0  0  0  0  0  0  0  0  0  0  0
  131.8358  130.4353  156.4538 H   0  0  0  0  0  0  0  0  0  0  0  0
  129.4479  131.0353  158.1732 H   0  0  0  0  0  0  0  0  0  0  0  0
  130.8304  136.1308  158.6330 H   0  0  0  0  0  0  0  0  0  0  0  0
  129.0781  137.4191  160.1867 H   0  0  0  0  0  0  0  0  0  0  0  0
  129.5540  137.1167  161.8750 H   0  0  0  0  0  0  0  0  0  0  0  0
  130.7024  138.1807  158.5554 H   0  0  0  0  0  0  0  0  0  0  0  0
  132.8085  139.3904  158.1650 H   0  0  0  0  0  0  0  0  0  0  0  0
  134.4432  139.6417  159.9866 H   0  0  0  0  0  0  0  0  0  0  0  0
  132.7431  138.7115  164.0629 H   0  0  0  0  0  0  0  0  0  0  0  0
  134.3798  138.9475  165.8844 H   0  0  0  0  0  0  0  0  0  0  0  0
  136.7810  139.1007  165.3738 H   0  0  0  0  0  0  0  0  0  0  0  0
  137.5596  139.0073  163.0413 H   0  0  0  0  0  0  0  0  0  0  0  0
  135.9375  138.7607  161.2080 H   0  0  0  0  0  0  0  0  0  0  0  0
  131.8386  137.4664  162.6021 H   0  0  0  0  0  0  0  0  0  0  0  0
  132.9243  135.2847  160.2400 H   0  0  0  0  0  0  0  0  0  0  0  0
  134.1506  134.1320  162.3095 H   0  0  0  0  0  0  0  0  0  0  0  0
  129.2096  133.2579  163.0146 H   0  0  0  0  0  0  0  0  0  0  0  0
  129.7955  134.2479  164.3728 H   0  0  0  0  0  0  0  0  0  0  0  0
  128.9688  135.0214  162.9994 H   0  0  0  0  0  0  0  0  0  0  0  0
  129.2568  133.2769  154.5466 H   0  0  0  0  0  0  0  0  0  0  0  0
  129.6115  132.1398  152.3942 H   0  0  0  0  0  0  0  0  0  0  0  0
  1  2  1  0
  1 38  1  0
  1 39  1  0
  1 40  1  0
  2  3  1  0
  2 41  1  0
  2 42  1  0
  3 37  2  0
  3  4  1  0
  4  5  2  0
  4 43  1  0
  5  6  1  0
  5 44  1  0
  6  7  1  0
  6 36  2  0
  7 34  1  0
  7  8  2  0
  8  9  1  0
  8 45  1  0
  9 10  1  0
  9 11  1  0
 11 12  1  0
 11 34  2  0
 12 13  1  0
 12 46  1  0
 13 14  1  6
 13 15  1  0
 13 28  1  0
 15 16  1  0
 15 47  1  0
 15 48  1  0
 16 27  1  0
 16 17  2  0
 17 18  1  0
 17 49  1  0
 18 19  2  0
 18 50  1  0
 19 20  1  0
 19 51  1  0
 20 21  1  0
 20 27  2  0
 21 26  1  0
 21 22  2  0
 22 23  1  0
 22 52  1  0
 23 24  2  0
 23 53  1  0
 24 25  1  0
 24 54  1  0
 25 26  2  0
 25 55  1  0
 26 56  1  0
 27 57  1  0
 28 32  1  0
 28 29  2  0
 29 30  1  0
 29 58  1  0
 30 31  2  0
 30 59  1  0
 31 32  1  0
 32 33  1  0
 33 60  1  0
 33 61  1  0
 33 62  1  0
 34 35  1  0
 36 37  1  0
 36 63  1  0
 37 64  1  0
M  CHG  1  34   1
M  END
>  <DOCK_score>  (1) 
-63.227478

>  <SMILES>  (1) 
CCc1ccc(-c2c[nH]c(N[C@H](Cc3cccc(-c4ccccc4)c3)c3ccnn3C)[nH+]2)cc1

$$$$
