CC1(C)C([NH+]=C(NCC2CCCCC2)NC2CCCCC2)C[C@H]1O
     RDKit          3D

 62 64  0  0  1  0  0  0  0  0999 V2000
  125.6309  135.3721  159.4918 C   0  0  0  0  0  0  0  0  0  0  0  0
  125.8643  134.1393  160.3672 C   0  0  0  0  0  0  0  0  0  0  0  0
  125.7870  132.8281  159.5822 C   0  0  0  0  0  0  0  0  0  0  0  0
  127.1086  134.2476  161.2644 C   0  0  1  0  0  0  0  0  0  0  0  0
  128.1313  135.1572  160.7422 N   0  0  0  0  0  0  0  0  0  0  0  0
  128.1147  136.0961  160.9848 H   0  0  0  0  0  0  0  0  0  0  0  0
  129.0635  134.7045  159.9516 C   0  0  0  0  0  0  0  0  0  0  0  0
  130.0233  135.5582  159.4614 N   0  0  0  0  0  0  0  0  0  0  0  0
  129.7037  136.9708  159.2409 C   0  0  0  0  0  0  0  0  0  0  0  0
  130.6258  137.8418  160.0964 C   0  0  0  0  0  0  0  0  0  0  0  0
  130.4259  137.4984  161.5738 C   0  0  0  0  0  0  0  0  0  0  0  0
  131.3480  138.3694  162.4293 C   0  0  0  0  0  0  0  0  0  0  0  0
  131.0142  139.8447  162.1990 C   0  0  0  0  0  0  0  0  0  0  0  0
  131.2142  140.1883  160.7215 C   0  0  0  0  0  0  0  0  0  0  0  0
  130.2920  139.3172  159.8661 C   0  0  0  0  0  0  0  0  0  0  0  0
  129.0869  133.3736  159.6077 N   0  0  0  0  0  0  0  0  0  0  0  0
  130.1346  132.8650  158.7191 C   0  0  0  0  0  0  0  0  0  0  0  0
  130.4250  131.4016  159.0582 C   0  0  0  0  0  0  0  0  0  0  0  0
  131.5192  130.8703  158.1301 C   0  0  0  0  0  0  0  0  0  0  0  0
  131.0504  130.9739  156.6773 C   0  0  0  0  0  0  0  0  0  0  0  0
  130.7600  132.4373  156.3382 C   0  0  0  0  0  0  0  0  0  0  0  0
  129.6658  132.9685  157.2664 C   0  0  0  0  0  0  0  0  0  0  0  0
  126.1957  134.8894  162.3226 C   0  0  0  0  0  0  0  0  0  0  0  0
  125.0303  134.1348  161.6612 C   0  0  1  0  0  0  0  0  0  0  0  0
  124.8673  133.1379  162.0706 H   0  0  0  0  0  0  0  0  0  0  0  0
  123.8279  134.9021  161.5735 O   0  0  0  0  0  0  0  0  0  0  0  0
  126.4907  135.5222  158.8388 H   0  0  0  0  0  0  0  0  0  0  0  0
  124.7365  135.2237  158.8864 H   0  0  0  0  0  0  0  0  0  0  0  0
  125.4989  136.2484  160.1262 H   0  0  0  0  0  0  0  0  0  0  0  0
  125.7605  131.9894  160.2777 H   0  0  0  0  0  0  0  0  0  0  0  0
  124.8840  132.8228  158.9720 H   0  0  0  0  0  0  0  0  0  0  0  0
  126.6616  132.7384  158.9379 H   0  0  0  0  0  0  0  0  0  0  0  0
  127.5148  133.2820  161.5661 H   0  0  0  0  0  0  0  0  0  0  0  0
  130.9121  135.2251  159.2616 H   0  0  0  0  0  0  0  0  0  0  0  0
  129.8462  137.2154  158.1883 H   0  0  0  0  0  0  0  0  0  0  0  0
  128.6666  137.1565  159.5200 H   0  0  0  0  0  0  0  0  0  0  0  0
  131.6630  137.6562  159.8173 H   0  0  0  0  0  0  0  0  0  0  0  0
  129.3888  137.6841  161.8529 H   0  0  0  0  0  0  0  0  0  0  0  0
  130.6637  136.4473  161.7380 H   0  0  0  0  0  0  0  0  0  0  0  0
  132.3852  138.1837  162.1502 H   0  0  0  0  0  0  0  0  0  0  0  0
  131.2057  138.1247  163.4818 H   0  0  0  0  0  0  0  0  0  0  0  0
  131.6712  140.4653  162.8085 H   0  0  0  0  0  0  0  0  0  0  0  0
  129.9771  140.0304  162.4781 H   0  0  0  0  0  0  0  0  0  0  0  0
  132.2514  140.0025  160.4424 H   0  0  0  0  0  0  0  0  0  0  0  0
  130.9764  141.2392  160.5574 H   0  0  0  0  0  0  0  0  0  0  0  0
  130.4346  139.5619  158.8135 H   0  0  0  0  0  0  0  0  0  0  0  0
  129.2549  139.5028  160.1452 H   0  0  0  0  0  0  0  0  0  0  0  0
  128.4096  132.7713  159.9535 H   0  0  0  0  0  0  0  0  0  0  0  0
  131.0413  133.4554  158.8512 H   0  0  0  0  0  0  0  0  0  0  0  0
  129.5183  130.8112  158.9261 H   0  0  0  0  0  0  0  0  0  0  0  0
  130.7590  131.3279  160.0932 H   0  0  0  0  0  0  0  0  0  0  0  0
  132.4259  131.4608  158.2623 H   0  0  0  0  0  0  0  0  0  0  0  0
  131.7261  129.8278  158.3717 H   0  0  0  0  0  0  0  0  0  0  0  0
  131.8300  130.5955  156.0162 H   0  0  0  0  0  0  0  0  0  0  0  0
  130.1437  130.3835  156.5452 H   0  0  0  0  0  0  0  0  0  0  0  0
  131.6668  133.0278  156.4703 H   0  0  0  0  0  0  0  0  0  0  0  0
  130.4260  132.5110  155.3033 H   0  0  0  0  0  0  0  0  0  0  0  0
  129.4589  134.0111  157.0247 H   0  0  0  0  0  0  0  0  0  0  0  0
  128.7592  132.3782  157.1342 H   0  0  0  0  0  0  0  0  0  0  0  0
  126.4078  134.5601  163.3398 H   0  0  0  0  0  0  0  0  0  0  0  0
  126.1200  135.9732  162.2345 H   0  0  0  0  0  0  0  0  0  0  0  0
  123.9689  135.8280  161.3334 H   0  0  0  0  0  0  0  0  0  0  0  0
  1  2  1  0
  1 27  1  0
  1 28  1  0
  1 29  1  0
  2 24  1  0
  2  3  1  0
  2  4  1  0
  3 30  1  0
  3 31  1  0
  3 32  1  0
  4  5  1  0
  4 23  1  0
  4 33  1  1
  5  6  1  0
  7  5  2  0
  7  8  1  0
  7 16  1  0
  8  9  1  0
  8 34  1  0
  9 10  1  0
  9 35  1  0
  9 36  1  0
 10 15  1  0
 10 11  1  0
 10 37  1  0
 11 12  1  0
 11 38  1  0
 11 39  1  0
 12 13  1  0
 12 40  1  0
 12 41  1  0
 13 14  1  0
 13 42  1  0
 13 43  1  0
 14 15  1  0
 14 44  1  0
 14 45  1  0
 15 46  1  0
 15 47  1  0
 16 17  1  0
 16 48  1  0
 17 22  1  0
 17 18  1  0
 17 49  1  0
 18 19  1  0
 18 50  1  0
 18 51  1  0
 19 20  1  0
 19 52  1  0
 19 53  1  0
 20 21  1  0
 20 54  1  0
 20 55  1  0
 21 22  1  0
 21 56  1  0
 21 57  1  0
 22 58  1  0
 22 59  1  0
 23 24  1  0
 23 60  1  0
 23 61  1  0
 24 25  1  1
 24 26  1  0
 26 62  1  0
M  CHG  1   5   1
M  END
>  <DOCK_score>  (1) 
-44.172829

>  <SMILES>  (1) 
CC1(C)C([NH+]=C(NCC2CCCCC2)NC2CCCCC2)C[C@H]1O

$$$$
