Nc1c(Nc2[nH]c3ccccc3[nH+]2)cccc1Nc1ccccc1C1CCC1
     RDKit          3D

 52 56  0  0  0  0  0  0  0  0999 V2000
  132.5259  135.3552  160.4141 N   0  0  0  0  0  0  0  0  0  0  0  0
  131.1986  135.6665  160.0836 C   0  0  0  0  0  0  0  0  0  0  0  0
  130.5772  136.7734  160.6556 C   0  0  0  0  0  0  0  0  0  0  0  0
  131.2767  137.5798  161.5636 N   0  0  0  0  0  0  0  0  0  0  0  0
  132.4316  138.2160  161.1708 C   0  0  0  0  0  0  0  0  0  0  0  0
  133.1688  139.0068  161.9477 N   0  0  0  0  0  0  0  0  0  0  0  0
  132.9812  139.2268  162.8737 H   0  0  0  0  0  0  0  0  0  0  0  0
  134.2388  139.4550  161.2191 C   0  0  0  0  0  0  0  0  0  0  0  0
  135.3168  140.2882  161.5041 C   0  0  0  0  0  0  0  0  0  0  0  0
  136.2494  140.5600  160.5267 C   0  0  0  0  0  0  0  0  0  0  0  0
  136.1220  140.0090  159.2599 C   0  0  0  0  0  0  0  0  0  0  0  0
  135.0611  139.1818  158.9612 C   0  0  0  0  0  0  0  0  0  0  0  0
  134.1100  138.8969  159.9367 C   0  0  0  0  0  0  0  0  0  0  0  0
  132.9717  138.1349  159.9565 N   0  0  0  0  0  0  0  0  0  0  0  0
  132.6186  137.6232  159.2119 H   0  0  0  0  0  0  0  0  0  0  0  0
  129.2639  137.0771  160.3247 C   0  0  0  0  0  0  0  0  0  0  0  0
  128.5726  136.2827  159.4289 C   0  0  0  0  0  0  0  0  0  0  0  0
  129.1845  135.1827  158.8580 C   0  0  0  0  0  0  0  0  0  0  0  0
  130.4996  134.8728  159.1778 C   0  0  0  0  0  0  0  0  0  0  0  0
  131.1201  133.7610  158.5945 N   0  0  0  0  0  0  0  0  0  0  0  0
  131.0396  132.5116  159.2135 C   0  0  0  0  0  0  0  0  0  0  0  0
  130.9406  132.4248  160.5968 C   0  0  0  0  0  0  0  0  0  0  0  0
  130.8548  131.1881  161.2049 C   0  0  0  0  0  0  0  0  0  0  0  0
  130.8800  130.0362  160.4395 C   0  0  0  0  0  0  0  0  0  0  0  0
  130.9842  130.1187  159.0633 C   0  0  0  0  0  0  0  0  0  0  0  0
  131.0640  131.3526  158.4479 C   0  0  0  0  0  0  0  0  0  0  0  0
  131.1770  131.4415  156.9478 C   0  0  0  0  0  0  0  0  0  0  0  0
  130.1286  132.3646  156.3047 C   0  0  0  0  0  0  0  0  0  0  0  0
  130.0115  131.3194  155.1828 C   0  0  0  0  0  0  0  0  0  0  0  0
  130.4928  130.2797  156.2086 C   0  0  0  0  0  0  0  0  0  0  0  0
  133.0126  135.9116  161.0421 H   0  0  0  0  0  0  0  0  0  0  0  0
  132.9558  134.5813  160.0176 H   0  0  0  0  0  0  0  0  0  0  0  0
  130.9467  137.6895  162.4692 H   0  0  0  0  0  0  0  0  0  0  0  0
  135.4220  140.7204  162.4882 H   0  0  0  0  0  0  0  0  0  0  0  0
  137.0859  141.2063  160.7485 H   0  0  0  0  0  0  0  0  0  0  0  0
  136.8596  140.2297  158.5026 H   0  0  0  0  0  0  0  0  0  0  0  0
  134.9682  138.7556  157.9732 H   0  0  0  0  0  0  0  0  0  0  0  0
  128.7811  137.9356  160.7676 H   0  0  0  0  0  0  0  0  0  0  0  0
  127.5511  136.5228  159.1740 H   0  0  0  0  0  0  0  0  0  0  0  0
  128.6399  134.5653  158.1589 H   0  0  0  0  0  0  0  0  0  0  0  0
  131.6059  133.8588  157.7606 H   0  0  0  0  0  0  0  0  0  0  0  0
  130.9257  133.3237  161.1953 H   0  0  0  0  0  0  0  0  0  0  0  0
  130.7726  131.1200  162.2796 H   0  0  0  0  0  0  0  0  0  0  0  0
  130.8175  129.0700  160.9181 H   0  0  0  0  0  0  0  0  0  0  0  0
  131.0033  129.2171  158.4689 H   0  0  0  0  0  0  0  0  0  0  0  0
  132.1955  131.6340  156.6108 H   0  0  0  0  0  0  0  0  0  0  0  0
  129.2200  132.4728  156.8972 H   0  0  0  0  0  0  0  0  0  0  0  0
  130.5338  133.3198  155.9710 H   0  0  0  0  0  0  0  0  0  0  0  0
  130.7108  131.4793  154.3622 H   0  0  0  0  0  0  0  0  0  0  0  0
  128.9891  131.1555  154.8419 H   0  0  0  0  0  0  0  0  0  0  0  0
  131.1920  129.5517  155.7972 H   0  0  0  0  0  0  0  0  0  0  0  0
  129.6838  129.8179  156.7747 H   0  0  0  0  0  0  0  0  0  0  0  0
  1  2  1  0
  1 31  1  0
  1 32  1  0
  2 19  2  0
  2  3  1  0
  3  4  1  0
  3 16  2  0
  4  5  1  0
  4 33  1  0
  5 14  1  0
  5  6  2  0
  6  7  1  0
  6  8  1  0
  8 13  2  0
  8  9  1  0
  9 10  2  0
  9 34  1  0
 10 11  1  0
 10 35  1  0
 11 12  2  0
 11 36  1  0
 12 13  1  0
 12 37  1  0
 13 14  1  0
 14 15  1  0
 16 17  1  0
 16 38  1  0
 17 18  2  0
 17 39  1  0
 18 19  1  0
 18 40  1  0
 19 20  1  0
 20 21  1  0
 20 41  1  0
 21 26  1  0
 21 22  2  0
 22 23  1  0
 22 42  1  0
 23 24  2  0
 23 43  1  0
 24 25  1  0
 24 44  1  0
 25 26  2  0
 25 45  1  0
 26 27  1  0
 27 30  1  0
 27 28  1  0
 27 46  1  0
 28 29  1  0
 28 47  1  0
 28 48  1  0
 29 30  1  0
 29 49  1  0
 29 50  1  0
 30 51  1  0
 30 52  1  0
M  CHG  1   6   1
M  END
>  <DOCK_score>  (1) 
-60.57346

>  <SMILES>  (1) 
Nc1c(Nc2[nH]c3ccccc3[nH+]2)cccc1Nc1ccccc1C1CCC1

$$$$
