c1ccc(-c2ccc(CC[NH+]3CC[C@@H](c4c[nH]c5ccccc45)C3)cc2)cc1
     RDKit          3D

 55 59  0  0  1  0  0  0  0  0999 V2000
  137.1539  143.1200  165.9680 C   0  0  0  0  0  0  0  0  0  0  0  0
  137.4829  143.0856  164.6254 C   0  0  0  0  0  0  0  0  0  0  0  0
  136.9396  142.1189  163.8036 C   0  0  0  0  0  0  0  0  0  0  0  0
  136.0578  141.1767  164.3292 C   0  0  0  0  0  0  0  0  0  0  0  0
  135.4706  140.1349  163.4505 C   0  0  0  0  0  0  0  0  0  0  0  0
  135.2600  140.3979  162.0985 C   0  0  0  0  0  0  0  0  0  0  0  0
  134.7140  139.4252  161.2858 C   0  0  0  0  0  0  0  0  0  0  0  0
  134.3759  138.1911  161.8112 C   0  0  0  0  0  0  0  0  0  0  0  0
  133.7796  137.1332  160.9190 C   0  0  0  0  0  0  0  0  0  0  0  0
  132.2557  137.2702  160.9134 C   0  0  0  0  0  0  0  0  0  0  0  0
  131.6745  136.2389  160.0437 N   0  0  1  0  0  0  0  0  0  0  0  0
  132.2332  136.1205  159.2119 H   0  0  0  0  0  0  0  0  0  0  0  0
  131.5517  134.9514  160.7747 C   0  0  0  0  0  0  0  0  0  0  0  0
  130.4685  134.1657  160.0049 C   0  0  0  0  0  0  0  0  0  0  0  0
  129.6269  135.2411  159.2876 C   0  0  1  0  0  0  0  0  0  0  0  0
  129.6740  135.1007  158.2077 H   0  0  0  0  0  0  0  0  0  0  0  0
  128.1967  135.1876  159.7596 C   0  0  0  0  0  0  0  0  0  0  0  0
  127.5158  136.1775  160.3582 C   0  0  0  0  0  0  0  0  0  0  0  0
  126.2434  135.7625  160.6429 N   0  0  0  0  0  0  0  0  0  0  0  0
  125.5643  136.3039  161.0751 H   0  0  0  0  0  0  0  0  0  0  0  0
  126.0702  134.4624  160.2238 C   0  0  0  0  0  0  0  0  0  0  0  0
  124.9977  133.5773  160.2663 C   0  0  0  0  0  0  0  0  0  0  0  0
  125.1376  132.3078  159.7503 C   0  0  0  0  0  0  0  0  0  0  0  0
  126.3396  131.9009  159.1872 C   0  0  0  0  0  0  0  0  0  0  0  0
  127.4056  132.7538  159.1351 C   0  0  0  0  0  0  0  0  0  0  0  0
  127.2839  134.0475  159.6465 C   0  0  0  0  0  0  0  0  0  0  0  0
  130.2724  136.5863  159.6842 C   0  0  0  0  0  0  0  0  0  0  0  0
  134.5779  137.9264  163.1538 C   0  0  0  0  0  0  0  0  0  0  0  0
  135.1282  138.8901  163.9745 C   0  0  0  0  0  0  0  0  0  0  0  0
  135.7253  141.2195  165.6815 C   0  0  0  0  0  0  0  0  0  0  0  0
  136.2789  142.1870  166.4954 C   0  0  0  0  0  0  0  0  0  0  0  0
  137.5817  143.8776  166.6080 H   0  0  0  0  0  0  0  0  0  0  0  0
  138.1664  143.8164  164.2191 H   0  0  0  0  0  0  0  0  0  0  0  0
  137.1976  142.0927  162.7552 H   0  0  0  0  0  0  0  0  0  0  0  0
  135.5233  141.3612  161.6874 H   0  0  0  0  0  0  0  0  0  0  0  0
  134.5500  139.6281  160.2378 H   0  0  0  0  0  0  0  0  0  0  0  0
  134.0543  136.1464  161.2917 H   0  0  0  0  0  0  0  0  0  0  0  0
  134.1592  137.2570  159.9048 H   0  0  0  0  0  0  0  0  0  0  0  0
  131.9811  138.2569  160.5406 H   0  0  0  0  0  0  0  0  0  0  0  0
  131.8761  137.1462  161.9277 H   0  0  0  0  0  0  0  0  0  0  0  0
  131.2356  135.1268  161.8030 H   0  0  0  0  0  0  0  0  0  0  0  0
  132.4985  134.4117  160.7558 H   0  0  0  0  0  0  0  0  0  0  0  0
  130.9301  133.4985  159.2771 H   0  0  0  0  0  0  0  0  0  0  0  0
  129.8483  133.5976  160.6983 H   0  0  0  0  0  0  0  0  0  0  0  0
  127.9133  137.1564  160.5818 H   0  0  0  0  0  0  0  0  0  0  0  0
  124.0587  133.8844  160.7026 H   0  0  0  0  0  0  0  0  0  0  0  0
  124.3038  131.6222  159.7839 H   0  0  0  0  0  0  0  0  0  0  0  0
  126.4328  130.9019  158.7875 H   0  0  0  0  0  0  0  0  0  0  0  0
  128.3376  132.4302  158.6958 H   0  0  0  0  0  0  0  0  0  0  0  0
  130.2565  137.2785  158.8423 H   0  0  0  0  0  0  0  0  0  0  0  0
  129.7547  137.0185  160.5406 H   0  0  0  0  0  0  0  0  0  0  0  0
  134.3083  136.9626  163.5596 H   0  0  0  0  0  0  0  0  0  0  0  0
  135.2896  138.6808  165.0217 H   0  0  0  0  0  0  0  0  0  0  0  0
  135.0386  140.4945  166.0931 H   0  0  0  0  0  0  0  0  0  0  0  0
  136.0252  142.2185  167.5448 H   0  0  0  0  0  0  0  0  0  0  0  0
  1 31  2  0
  1  2  1  0
  1 32  1  0
  2  3  2  0
  2 33  1  0
  3  4  1  0
  3 34  1  0
  4  5  1  0
  4 30  2  0
  5 29  1  0
  5  6  2  0
  6  7  1  0
  6 35  1  0
  7  8  2  0
  7 36  1  0
  8  9  1  0
  8 28  1  0
  9 10  1  0
  9 37  1  0
  9 38  1  0
 10 11  1  0
 10 39  1  0
 10 40  1  0
 11 12  1  6
 11 27  1  0
 11 13  1  0
 13 14  1  0
 13 41  1  0
 13 42  1  0
 14 15  1  0
 14 43  1  0
 14 44  1  0
 15 16  1  6
 15 17  1  0
 15 27  1  0
 17 26  1  0
 17 18  2  0
 18 19  1  0
 18 45  1  0
 19 20  1  0
 19 21  1  0
 21 26  2  0
 21 22  1  0
 22 23  2  0
 22 46  1  0
 23 24  1  0
 23 47  1  0
 24 25  2  0
 24 48  1  0
 25 26  1  0
 25 49  1  0
 27 50  1  0
 27 51  1  0
 28 29  2  0
 28 52  1  0
 29 53  1  0
 30 31  1  0
 30 54  1  0
 31 55  1  0
M  CHG  1  11   1
M  END
>  <DOCK_score>  (1) 
-45.339848

>  <SMILES>  (1) 
c1ccc(-c2ccc(CC[NH+]3CC[C@@H](c4c[nH]c5ccccc45)C3)cc2)cc1

$$$$
