CC=Cc1c[nH]c(N[C@H](c2ccccc2)c2ccc(C)cc2)[nH+]1
     RDKit          3D

 45 47  0  0  1  0  0  0  0  0999 V2000
  131.2964  130.8572  153.6970 C   0  0  0  0  0  0  0  0  0  0  0  0
  130.8963  131.7299  154.8585 C   0  0  0  0  0  0  0  0  0  0  0  0
  130.6966  131.1922  156.0545 C   0  0  0  0  0  0  0  0  0  0  0  0
  130.3044  132.0479  157.1930 C   0  0  0  0  0  0  0  0  0  0  0  0
  129.5389  131.6714  158.2504 C   0  0  0  0  0  0  0  0  0  0  0  0
  129.4225  132.7684  159.0679 N   0  0  0  0  0  0  0  0  0  0  0  0
  128.9337  132.8115  159.9046 H   0  0  0  0  0  0  0  0  0  0  0  0
  130.1192  133.7840  158.4884 C   0  0  0  0  0  0  0  0  0  0  0  0
  130.2506  135.0644  158.9977 N   0  0  0  0  0  0  0  0  0  0  0  0
  129.1816  135.6396  159.8179 C   0  0  2  0  0  0  0  0  0  0  0  0
  129.0273  135.0195  160.7009 H   0  0  0  0  0  0  0  0  0  0  0  0
  127.9075  135.6961  159.0150 C   0  0  0  0  0  0  0  0  0  0  0  0
  126.6847  135.5870  159.6504 C   0  0  0  0  0  0  0  0  0  0  0  0
  125.5159  135.6431  158.9144 C   0  0  0  0  0  0  0  0  0  0  0  0
  125.5702  135.7991  157.5419 C   0  0  0  0  0  0  0  0  0  0  0  0
  126.7932  135.9029  156.9059 C   0  0  0  0  0  0  0  0  0  0  0  0
  127.9618  135.8512  157.6424 C   0  0  0  0  0  0  0  0  0  0  0  0
  129.5692  137.0324  160.2435 C   0  0  0  0  0  0  0  0  0  0  0  0
  129.8177  138.0023  159.2905 C   0  0  0  0  0  0  0  0  0  0  0  0
  130.1682  139.2812  159.6809 C   0  0  0  0  0  0  0  0  0  0  0  0
  130.2812  139.5871  161.0243 C   0  0  0  0  0  0  0  0  0  0  0  0
  130.6693  140.9797  161.4500 C   0  0  0  0  0  0  0  0  0  0  0  0
  130.0378  138.6158  161.9773 C   0  0  0  0  0  0  0  0  0  0  0  0
  129.6818  137.3383  161.5869 C   0  0  0  0  0  0  0  0  0  0  0  0
  130.6404  133.3522  157.3663 N   0  0  0  0  0  0  0  0  0  0  0  0
  131.1812  133.8795  156.7577 H   0  0  0  0  0  0  0  0  0  0  0  0
  132.2401  130.3611  153.9236 H   0  0  0  0  0  0  0  0  0  0  0  0
  130.5244  130.1074  153.5231 H   0  0  0  0  0  0  0  0  0  0  0  0
  131.4139  131.4715  152.8044 H   0  0  0  0  0  0  0  0  0  0  0  0
  130.7720  132.7935  154.7171 H   0  0  0  0  0  0  0  0  0  0  0  0
  130.8208  130.1287  156.1959 H   0  0  0  0  0  0  0  0  0  0  0  0
  129.1055  130.6962  158.4162 H   0  0  0  0  0  0  0  0  0  0  0  0
  131.0503  135.5807  158.8117 H   0  0  0  0  0  0  0  0  0  0  0  0
  126.6424  135.4614  160.7222 H   0  0  0  0  0  0  0  0  0  0  0  0
  124.5604  135.5625  159.4113 H   0  0  0  0  0  0  0  0  0  0  0  0
  124.6572  135.8403  156.9665 H   0  0  0  0  0  0  0  0  0  0  0  0
  126.8357  136.0248  155.8336 H   0  0  0  0  0  0  0  0  0  0  0  0
  128.9173  135.9323  157.1455 H   0  0  0  0  0  0  0  0  0  0  0  0
  129.7341  137.7621  158.2408 H   0  0  0  0  0  0  0  0  0  0  0  0
  130.3580  140.0403  158.9365 H   0  0  0  0  0  0  0  0  0  0  0  0
  131.7543  141.0458  161.5310 H   0  0  0  0  0  0  0  0  0  0  0  0
  130.3158  141.6976  160.7099 H   0  0  0  0  0  0  0  0  0  0  0  0
  130.2185  141.2030  162.4170 H   0  0  0  0  0  0  0  0  0  0  0  0
  130.1261  138.8547  163.0268 H   0  0  0  0  0  0  0  0  0  0  0  0
  129.4920  136.5793  162.3313 H   0  0  0  0  0  0  0  0  0  0  0  0
  1  2  1  0
  1 27  1  0
  1 28  1  0
  1 29  1  0
  2  3  2  0
  2 30  1  0
  3  4  1  0
  3 31  1  0
  4 25  1  0
  4  5  2  0
  5  6  1  0
  5 32  1  0
  6  7  1  0
  6  8  1  0
  8  9  1  0
  8 25  2  0
  9 10  1  0
  9 33  1  0
 10 11  1  1
 10 12  1  0
 10 18  1  0
 12 17  1  0
 12 13  2  0
 13 14  1  0
 13 34  1  0
 14 15  2  0
 14 35  1  0
 15 16  1  0
 15 36  1  0
 16 17  2  0
 16 37  1  0
 17 38  1  0
 18 24  1  0
 18 19  2  0
 19 20  1  0
 19 39  1  0
 20 21  2  0
 20 40  1  0
 21 22  1  0
 21 23  1  0
 22 41  1  0
 22 42  1  0
 22 43  1  0
 23 24  2  0
 23 44  1  0
 24 45  1  0
 25 26  1  0
M  CHG  1  25   1
M  END
>  <DOCK_score>  (1) 
-56.630112

>  <SMILES>  (1) 
CC=Cc1c[nH]c(N[C@H](c2ccccc2)c2ccc(C)cc2)[nH+]1

$$$$
