O=CNc1cccc(Sc2ccc(-c3cc(Cl)ccc3Nc3[nH]cc(-c4ccccc4)[nH+]3)cc2)c1
     RDKit          3D

 57 61  0  0  1  0  0  0  0  0999 V2000
  131.2460  139.6840  163.0198 O   0  0  0  0  0  0  0  0  0  0  0  0
  131.2295  140.7265  163.6397 C   0  0  0  0  0  0  0  0  0  0  0  0
  132.3850  141.3582  163.9266 N   0  0  0  0  0  0  0  0  0  0  0  0
  133.6035  140.8117  163.5094 C   0  0  0  0  0  0  0  0  0  0  0  0
  134.7573  141.0380  164.2500 C   0  0  0  0  0  0  0  0  0  0  0  0
  135.9612  140.4987  163.8391 C   0  0  0  0  0  0  0  0  0  0  0  0
  136.0227  139.7338  162.6904 C   0  0  0  0  0  0  0  0  0  0  0  0
  134.8727  139.5042  161.9442 C   0  0  0  0  0  0  0  0  0  0  0  0
  134.9520  138.5293  160.4786 S   0  0  0  0  0  0  0  0  0  0  0  0
  133.3517  137.7957  160.4035 C   0  0  0  0  0  0  0  0  0  0  0  0
  132.3219  138.4432  159.7293 C   0  0  0  0  0  0  0  0  0  0  0  0
  131.0710  137.8682  159.6642 C   0  0  0  0  0  0  0  0  0  0  0  0
  130.8368  136.6389  160.2798 C   0  0  0  0  0  0  0  0  0  0  0  0
  129.4918  136.0189  160.2113 C   0  0  0  0  0  0  0  0  0  0  0  0
  128.5415  136.2986  161.1908 C   0  0  0  0  0  0  0  0  0  0  0  0
  127.2901  135.7183  161.1226 C   0  0  0  0  0  0  0  0  0  0  0  0
  126.1072  136.0675  162.3443 Cl  0  0  0  0  0  0  0  0  0  0  0  0
  126.9753  134.8583  160.0833 C   0  0  0  0  0  0  0  0  0  0  0  0
  127.9097  134.5736  159.1064 C   0  0  0  0  0  0  0  0  0  0  0  0
  129.1690  135.1539  159.1592 C   0  0  0  0  0  0  0  0  0  0  0  0
  130.1129  134.8716  158.1690 N   0  0  0  0  0  0  0  0  0  0  0  0
  130.0948  133.6456  157.5243 C   0  0  0  0  0  0  0  0  0  0  0  0
  129.6757  132.4700  158.0677 N   0  0  0  0  0  0  0  0  0  0  0  0
  129.3384  132.3411  158.9680 H   0  0  0  0  0  0  0  0  0  0  0  0
  129.8156  131.5008  157.1051 C   0  0  0  0  0  0  0  0  0  0  0  0
  130.3233  132.1095  156.0044 C   0  0  0  0  0  0  0  0  0  0  0  0
  130.6454  131.4525  154.7140 C   0  0  0  0  0  0  0  0  0  0  0  0
  130.0088  131.8604  153.5433 C   0  0  0  0  0  0  0  0  0  0  0  0
  130.3163  131.2493  152.3448 C   0  0  0  0  0  0  0  0  0  0  0  0
  131.2460  130.2258  152.3059 C   0  0  0  0  0  0  0  0  0  0  0  0
  131.8772  129.8132  153.4657 C   0  0  0  0  0  0  0  0  0  0  0  0
  131.5817  130.4211  154.6688 C   0  0  0  0  0  0  0  0  0  0  0  0
  130.4838  133.4252  156.2921 N   0  0  0  0  0  0  0  0  0  0  0  0
  130.8310  134.0958  155.6833 H   0  0  0  0  0  0  0  0  0  0  0  0
  131.8692  135.9941  160.9602 C   0  0  0  0  0  0  0  0  0  0  0  0
  133.1187  136.5725  161.0229 C   0  0  0  0  0  0  0  0  0  0  0  0
  133.6621  140.0488  162.3523 C   0  0  0  0  0  0  0  0  0  0  0  0
  130.2890  141.1483  163.9617 H   0  0  0  0  0  0  0  0  0  0  0  0
  132.3717  142.1920  164.4223 H   0  0  0  0  0  0  0  0  0  0  0  0
  134.7128  141.6358  165.1483 H   0  0  0  0  0  0  0  0  0  0  0  0
  136.8562  140.6761  164.4169 H   0  0  0  0  0  0  0  0  0  0  0  0
  136.9655  139.3140  162.3717 H   0  0  0  0  0  0  0  0  0  0  0  0
  132.5037  139.3952  159.2528 H   0  0  0  0  0  0  0  0  0  0  0  0
  130.2727  138.3694  159.1370 H   0  0  0  0  0  0  0  0  0  0  0  0
  128.7831  136.9688  162.0024 H   0  0  0  0  0  0  0  0  0  0  0  0
  125.9945  134.4086  160.0362 H   0  0  0  0  0  0  0  0  0  0  0  0
  127.6583  133.9024  158.2987 H   0  0  0  0  0  0  0  0  0  0  0  0
  130.7810  135.5339  157.9329 H   0  0  0  0  0  0  0  0  0  0  0  0
  129.5718  130.4537  157.2063 H   0  0  0  0  0  0  0  0  0  0  0  0
  129.2792  132.6563  153.5732 H   0  0  0  0  0  0  0  0  0  0  0  0
  129.8271  131.5678  151.4361 H   0  0  0  0  0  0  0  0  0  0  0  0
  131.4800  129.7477  151.3661 H   0  0  0  0  0  0  0  0  0  0  0  0
  132.6028  129.0140  153.4293 H   0  0  0  0  0  0  0  0  0  0  0  0
  132.0754  130.0984  155.5737 H   0  0  0  0  0  0  0  0  0  0  0  0
  131.6898  135.0423  161.4379 H   0  0  0  0  0  0  0  0  0  0  0  0
  133.9186  136.0734  161.5497 H   0  0  0  0  0  0  0  0  0  0  0  0
  132.7677  139.8755  161.7725 H   0  0  0  0  0  0  0  0  0  0  0  0
  1  2  2  0
  2  3  1  0
  2 38  1  0
  3  4  1  0
  3 39  1  0
  4 37  2  0
  4  5  1  0
  5  6  2  0
  5 40  1  0
  6  7  1  0
  6 41  1  0
  7  8  2  0
  7 42  1  0
  8  9  1  0
  8 37  1  0
  9 10  1  0
 10 36  1  0
 10 11  2  0
 11 12  1  0
 11 43  1  0
 12 13  2  0
 12 44  1  0
 13 14  1  0
 13 35  1  0
 14 20  1  0
 14 15  2  0
 15 16  1  0
 15 45  1  0
 16 17  1  0
 16 18  2  0
 18 19  1  0
 18 46  1  0
 19 20  2  0
 19 47  1  0
 20 21  1  0
 21 48  1  0
 22 21  1  0
 22 33  2  0
 22 23  1  0
 23 24  1  0
 23 25  1  0
 25 26  2  0
 25 49  1  0
 26 27  1  0
 26 33  1  0
 27 32  1  0
 27 28  2  0
 28 29  1  0
 28 50  1  0
 29 30  2  0
 29 51  1  0
 30 31  1  0
 30 52  1  0
 31 32  2  0
 31 53  1  0
 32 54  1  0
 33 34  1  0
 35 36  2  0
 35 55  1  0
 36 56  1  0
 37 57  1  0
M  CHG  1  33   1
M  END
>  <DOCK_score>  (1) 
-61.539314

>  <SMILES>  (1) 
O=CNc1cccc(Sc2ccc(-c3cc(Cl)ccc3Nc3[nH]cc(-c4ccccc4)[nH+]3)cc2)c1

$$$$
