Oc1ccc2c(c1)C(Nc1[nH]cc(-c3cccnc3)[nH+]1)c1cc(O)ccc1-2
     RDKit          3D

 44 48  0  0  1  0  0  0  0  0999 V2000
  131.6283  130.9861  157.4381 O   0  0  0  0  0  0  0  0  0  0  0  0
  130.4355  131.2128  158.0483 C   0  0  0  0  0  0  0  0  0  0  0  0
  129.6066  130.1468  158.3704 C   0  0  0  0  0  0  0  0  0  0  0  0
  128.3958  130.3723  158.9889 C   0  0  0  0  0  0  0  0  0  0  0  0
  127.9984  131.6761  159.2936 C   0  0  0  0  0  0  0  0  0  0  0  0
  128.8353  132.7406  158.9676 C   0  0  0  0  0  0  0  0  0  0  0  0
  130.0448  132.5110  158.3490 C   0  0  0  0  0  0  0  0  0  0  0  0
  128.1506  134.0099  159.4122 C   0  0  0  0  0  0  0  0  0  0  0  0
  128.9716  134.7037  160.4076 N   0  0  0  0  0  0  0  0  0  0  0  0
  129.4242  135.9880  160.1578 C   0  0  0  0  0  0  0  0  0  0  0  0
  129.6958  136.5079  158.9297 N   0  0  0  0  0  0  0  0  0  0  0  0
  129.6077  136.0495  158.0794 H   0  0  0  0  0  0  0  0  0  0  0  0
  130.1174  137.8019  159.1166 C   0  0  0  0  0  0  0  0  0  0  0  0
  130.0913  138.0353  160.4521 C   0  0  0  0  0  0  0  0  0  0  0  0
  130.4655  139.3038  161.1241 C   0  0  0  0  0  0  0  0  0  0  0  0
  130.9922  139.2930  162.4192 C   0  0  0  0  0  0  0  0  0  0  0  0
  131.3313  140.5028  162.9998 C   0  0  0  0  0  0  0  0  0  0  0  0
  131.1290  141.6735  162.2915 C   0  0  0  0  0  0  0  0  0  0  0  0
  130.6251  141.6526  161.0729 N   0  0  0  0  0  0  0  0  0  0  0  0
  130.2926  140.5257  160.4771 C   0  0  0  0  0  0  0  0  0  0  0  0
  129.6564  136.9055  161.0645 N   0  0  0  0  0  0  0  0  0  0  0  0
  129.5382  136.7938  162.0208 H   0  0  0  0  0  0  0  0  0  0  0  0
  126.8389  133.5849  160.0257 C   0  0  0  0  0  0  0  0  0  0  0  0
  125.8095  134.2997  160.5957 C   0  0  0  0  0  0  0  0  0  0  0  0
  124.6946  133.6372  161.0920 C   0  0  0  0  0  0  0  0  0  0  0  0
  123.6788  134.3433  161.6543 O   0  0  0  0  0  0  0  0  0  0  0  0
  124.6184  132.2533  161.0143 C   0  0  0  0  0  0  0  0  0  0  0  0
  125.6469  131.5331  160.4457 C   0  0  0  0  0  0  0  0  0  0  0  0
  126.7703  132.1948  159.9450 C   0  0  0  0  0  0  0  0  0  0  0  0
  132.1344  131.7891  157.2533 H   0  0  0  0  0  0  0  0  0  0  0  0
  129.9113  129.1378  158.1351 H   0  0  0  0  0  0  0  0  0  0  0  0
  127.7536  129.5404  159.2378 H   0  0  0  0  0  0  0  0  0  0  0  0
  130.6895  133.3406  158.0989 H   0  0  0  0  0  0  0  0  0  0  0  0
  127.9712  134.6595  158.5555 H   0  0  0  0  0  0  0  0  0  0  0  0
  129.2015  134.2619  161.2400 H   0  0  0  0  0  0  0  0  0  0  0  0
  130.4131  138.4997  158.3471 H   0  0  0  0  0  0  0  0  0  0  0  0
  131.1352  138.3640  162.9511 H   0  0  0  0  0  0  0  0  0  0  0  0
  131.7450  140.5325  163.9970 H   0  0  0  0  0  0  0  0  0  0  0  0
  131.3883  142.6196  162.7433 H   0  0  0  0  0  0  0  0  0  0  0  0
  129.8826  140.5490  159.4783 H   0  0  0  0  0  0  0  0  0  0  0  0
  125.8693  135.3763  160.6563 H   0  0  0  0  0  0  0  0  0  0  0  0
  123.8223  135.2995  161.6635 H   0  0  0  0  0  0  0  0  0  0  0  0
  123.7507  131.7393  161.4007 H   0  0  0  0  0  0  0  0  0  0  0  0
  125.5839  130.4565  160.3870 H   0  0  0  0  0  0  0  0  0  0  0  0
  1  2  1  0
  1 30  1  0
  2  7  2  0
  2  3  1  0
  3  4  2  0
  3 31  1  0
  4  5  1  0
  4 32  1  0
  5 29  1  0
  5  6  2  0
  6  7  1  0
  6  8  1  0
  7 33  1  0
  8  9  1  0
  8 23  1  0
  8 34  1  0
  9 35  1  0
 10  9  1  0
 10 21  2  0
 10 11  1  0
 11 12  1  0
 11 13  1  0
 13 14  2  0
 13 36  1  0
 14 15  1  0
 14 21  1  0
 15 20  1  0
 15 16  2  0
 16 17  1  0
 16 37  1  0
 17 18  2  0
 17 38  1  0
 18 19  1  0
 18 39  1  0
 19 20  2  0
 20 40  1  0
 21 22  1  0
 23 29  2  0
 23 24  1  0
 24 25  2  0
 24 41  1  0
 25 26  1  0
 25 27  1  0
 26 42  1  0
 27 28  2  0
 27 43  1  0
 28 29  1  0
 28 44  1  0
M  CHG  1  21   1
M  END
>  <DOCK_score>  (1) 
-41.746944

>  <SMILES>  (1) 
Oc1ccc2c(c1)C(Nc1[nH]cc(-c3cccnc3)[nH+]1)c1cc(O)ccc1-2

$$$$
