C[C@H](NC(NC1CCC1)=[NH+][C@H]1CCC(=O)NC1)c1cnn(C)c1
     RDKit          3D

 50 52  0  0  1  0  0  0  0  0999 V2000
  132.9350  134.5923  161.7966 C   0  0  0  0  0  0  0  0  0  0  0  0
  131.7577  135.3375  161.1643 C   0  0  2  0  0  0  0  0  0  0  0  0
  130.9254  135.3652  161.8675 H   0  0  0  0  0  0  0  0  0  0  0  0
  131.3416  134.6454  159.9419 N   0  0  0  0  0  0  0  0  0  0  0  0
  130.0286  134.6942  159.5375 C   0  0  0  0  0  0  0  0  0  0  0  0
  129.6381  134.0448  158.3904 N   0  0  0  0  0  0  0  0  0  0  0  0
  130.6210  133.3006  157.5991 C   0  0  0  0  0  0  0  0  0  0  0  0
  130.0715  132.7892  156.2570 C   0  0  0  0  0  0  0  0  0  0  0  0
  130.8613  131.4939  156.5190 C   0  0  0  0  0  0  0  0  0  0  0  0
  130.7601  131.8273  158.0168 C   0  0  0  0  0  0  0  0  0  0  0  0
  129.1539  135.3563  160.2415 N   0  0  0  0  0  0  0  0  0  0  0  0
  129.4307  136.1321  160.7538 H   0  0  0  0  0  0  0  0  0  0  0  0
  127.7528  134.9287  160.2591 C   0  0  1  0  0  0  0  0  0  0  0  0
  127.3493  134.9565  159.2469 H   0  0  0  0  0  0  0  0  0  0  0  0
  127.6572  133.5015  160.8120 C   0  0  0  0  0  0  0  0  0  0  0  0
  126.2150  133.0151  160.6492 C   0  0  0  0  0  0  0  0  0  0  0  0
  125.2637  134.0536  161.1706 C   0  0  0  0  0  0  0  0  0  0  0  0
  124.1259  133.7160  161.4199 O   0  0  0  0  0  0  0  0  0  0  0  0
  125.6034  135.3269  161.3746 N   0  0  0  0  0  0  0  0  0  0  0  0
  126.9429  135.8618  161.1602 C   0  0  0  0  0  0  0  0  0  0  0  0
  132.1772  136.7450  160.8266 C   0  0  0  0  0  0  0  0  0  0  0  0
  131.6014  137.9176  161.3265 C   0  0  0  0  0  0  0  0  0  0  0  0
  132.2296  138.9377  160.8006 N   0  0  0  0  0  0  0  0  0  0  0  0
  133.2264  138.4458  159.9481 N   0  0  0  0  0  0  0  0  0  0  0  0
  134.1615  139.2522  159.1597 C   0  0  0  0  0  0  0  0  0  0  0  0
  133.1735  137.0977  159.9817 C   0  0  0  0  0  0  0  0  0  0  0  0
  133.7359  134.4902  161.0644 H   0  0  0  0  0  0  0  0  0  0  0  0
  133.2993  135.1526  162.6577 H   0  0  0  0  0  0  0  0  0  0  0  0
  132.6085  133.6034  162.1183 H   0  0  0  0  0  0  0  0  0  0  0  0
  131.9925  134.1528  159.4180 H   0  0  0  0  0  0  0  0  0  0  0  0
  128.7116  134.0792  158.1050 H   0  0  0  0  0  0  0  0  0  0  0  0
  131.5746  133.8213  157.5105 H   0  0  0  0  0  0  0  0  0  0  0  0
  128.9906  132.6483  156.2529 H   0  0  0  0  0  0  0  0  0  0  0  0
  130.4290  133.3531  155.3953 H   0  0  0  0  0  0  0  0  0  0  0  0
  131.8806  131.5202  156.1336 H   0  0  0  0  0  0  0  0  0  0  0  0
  130.3251  130.5882  156.2359 H   0  0  0  0  0  0  0  0  0  0  0  0
  131.6729  131.6156  158.5738 H   0  0  0  0  0  0  0  0  0  0  0  0
  129.8678  131.4229  158.4947 H   0  0  0  0  0  0  0  0  0  0  0  0
  128.3300  132.8474  160.2573 H   0  0  0  0  0  0  0  0  0  0  0  0
  127.9289  133.4981  161.8676 H   0  0  0  0  0  0  0  0  0  0  0  0
  126.0109  132.8343  159.5939 H   0  0  0  0  0  0  0  0  0  0  0  0
  126.0805  132.0883  161.2068 H   0  0  0  0  0  0  0  0  0  0  0  0
  124.9152  135.9371  161.6828 H   0  0  0  0  0  0  0  0  0  0  0  0
  127.4468  135.9612  162.1216 H   0  0  0  0  0  0  0  0  0  0  0  0
  126.8713  136.8430  160.6911 H   0  0  0  0  0  0  0  0  0  0  0  0
  130.7802  137.9716  162.0257 H   0  0  0  0  0  0  0  0  0  0  0  0
  133.7277  139.4589  158.1814 H   0  0  0  0  0  0  0  0  0  0  0  0
  134.3562  140.1918  159.6768 H   0  0  0  0  0  0  0  0  0  0  0  0
  135.0964  138.7059  159.0347 H   0  0  0  0  0  0  0  0  0  0  0  0
  133.8119  136.4215  159.4324 H   0  0  0  0  0  0  0  0  0  0  0  0
  1  2  1  0
  1 27  1  0
  1 28  1  0
  1 29  1  0
  2  3  1  1
  2  4  1  0
  2 21  1  0
  4 30  1  0
  5  4  1  0
  5  6  1  0
  5 11  2  0
  6  7  1  0
  6 31  1  0
  7 10  1  0
  7  8  1  0
  7 32  1  0
  8  9  1  0
  8 33  1  0
  8 34  1  0
  9 10  1  0
  9 35  1  0
  9 36  1  0
 10 37  1  0
 10 38  1  0
 11 12  1  0
 11 13  1  0
 13 14  1  6
 13 20  1  0
 13 15  1  0
 15 16  1  0
 15 39  1  0
 15 40  1  0
 16 17  1  0
 16 41  1  0
 16 42  1  0
 17 18  2  0
 17 19  1  0
 19 20  1  0
 19 43  1  0
 20 44  1  0
 20 45  1  0
 21 26  2  0
 21 22  1  0
 22 23  2  0
 22 46  1  0
 23 24  1  0
 24 25  1  0
 24 26  1  0
 25 47  1  0
 25 48  1  0
 25 49  1  0
 26 50  1  0
M  CHG  1  11   1
M  END
>  <DOCK_score>  (1) 
-46.01944

>  <SMILES>  (1) 
C[C@H](NC(NC1CCC1)=[NH+][C@H]1CCC(=O)NC1)c1cnn(C)c1

$$$$
