Cc1ccc(NC[C@@H](Nc2[nH]cc(-c3ccc(N)cc3)[nH+]2)c2cccc(O)c2)cc1
     RDKit          3D

 56 59  0  0  1  0  0  0  0  0999 V2000
  124.4962  131.2731  161.9060 C   0  0  0  0  0  0  0  0  0  0  0  0
  125.3489  132.3022  161.2099 C   0  0  0  0  0  0  0  0  0  0  0  0
  126.4410  132.8474  161.8605 C   0  0  0  0  0  0  0  0  0  0  0  0
  127.2250  133.7905  161.2255 C   0  0  0  0  0  0  0  0  0  0  0  0
  126.9156  134.1914  159.9319 C   0  0  0  0  0  0  0  0  0  0  0  0
  127.7061  135.1452  159.2869 N   0  0  0  0  0  0  0  0  0  0  0  0
  128.5661  136.0351  160.0709 C   0  0  0  0  0  0  0  0  0  0  0  0
  129.9416  135.3889  160.2487 C   0  0  1  0  0  0  0  0  0  0  0  0
  129.8315  134.4378  160.7699 H   0  0  0  0  0  0  0  0  0  0  0  0
  130.5463  135.1582  158.9344 N   0  0  0  0  0  0  0  0  0  0  0  0
  130.3268  133.9627  158.2717 C   0  0  0  0  0  0  0  0  0  0  0  0
  129.5680  132.9302  158.7298 N   0  0  0  0  0  0  0  0  0  0  0  0
  129.0909  132.8980  159.5738 H   0  0  0  0  0  0  0  0  0  0  0  0
  129.6031  131.9409  157.7757 C   0  0  0  0  0  0  0  0  0  0  0  0
  130.3815  132.3979  156.7639 C   0  0  0  0  0  0  0  0  0  0  0  0
  130.7055  131.6680  155.5137 C   0  0  0  0  0  0  0  0  0  0  0  0
  130.3436  132.2039  154.2788 C   0  0  0  0  0  0  0  0  0  0  0  0
  130.6511  131.5264  153.1178 C   0  0  0  0  0  0  0  0  0  0  0  0
  131.3109  130.3047  153.1787 C   0  0  0  0  0  0  0  0  0  0  0  0
  131.6165  129.6173  152.0016 N   0  0  0  0  0  0  0  0  0  0  0  0
  131.6675  129.7658  154.4091 C   0  0  0  0  0  0  0  0  0  0  0  0
  131.3671  130.4424  155.5724 C   0  0  0  0  0  0  0  0  0  0  0  0
  130.8111  133.6409  157.0968 N   0  0  0  0  0  0  0  0  0  0  0  0
  131.3848  134.2022  156.5522 H   0  0  0  0  0  0  0  0  0  0  0  0
  130.8263  136.3043  161.0551 C   0  0  0  0  0  0  0  0  0  0  0  0
  131.3522  135.8727  162.2591 C   0  0  0  0  0  0  0  0  0  0  0  0
  132.1649  136.7098  163.0007 C   0  0  0  0  0  0  0  0  0  0  0  0
  132.4536  137.9801  162.5405 C   0  0  0  0  0  0  0  0  0  0  0  0
  131.9270  138.4155  161.3333 C   0  0  0  0  0  0  0  0  0  0  0  0
  132.2099  139.6644  160.8782 O   0  0  0  0  0  0  0  0  0  0  0  0
  131.1159  137.5716  160.5883 C   0  0  0  0  0  0  0  0  0  0  0  0
  125.8150  133.6456  159.2835 C   0  0  0  0  0  0  0  0  0  0  0  0
  125.0384  132.6991  159.9224 C   0  0  0  0  0  0  0  0  0  0  0  0
  123.6939  131.7729  162.4489 H   0  0  0  0  0  0  0  0  0  0  0  0
  124.0681  130.5960  161.1669 H   0  0  0  0  0  0  0  0  0  0  0  0
  125.1100  130.7057  162.6061 H   0  0  0  0  0  0  0  0  0  0  0  0
  126.6808  132.5355  162.8663 H   0  0  0  0  0  0  0  0  0  0  0  0
  128.0778  134.2155  161.7338 H   0  0  0  0  0  0  0  0  0  0  0  0
  127.6858  135.2185  158.3199 H   0  0  0  0  0  0  0  0  0  0  0  0
  128.1162  136.2066  161.0488 H   0  0  0  0  0  0  0  0  0  0  0  0
  128.6762  136.9861  159.5497 H   0  0  0  0  0  0  0  0  0  0  0  0
  131.1004  135.8431  158.5284 H   0  0  0  0  0  0  0  0  0  0  0  0
  129.1056  130.9835  157.8230 H   0  0  0  0  0  0  0  0  0  0  0  0
  129.8268  133.1509  154.2312 H   0  0  0  0  0  0  0  0  0  0  0  0
  130.3746  131.9431  152.1605 H   0  0  0  0  0  0  0  0  0  0  0  0
  132.0771  128.7650  152.0431 H   0  0  0  0  0  0  0  0  0  0  0  0
  131.3679  129.9930  151.1422 H   0  0  0  0  0  0  0  0  0  0  0  0
  132.1797  128.8160  154.4542 H   0  0  0  0  0  0  0  0  0  0  0  0
  131.6448  130.0235  156.5284 H   0  0  0  0  0  0  0  0  0  0  0  0
  131.1280  134.8799  162.6203 H   0  0  0  0  0  0  0  0  0  0  0  0
  132.5748  136.3703  163.9404 H   0  0  0  0  0  0  0  0  0  0  0  0
  133.0891  138.6334  163.1199 H   0  0  0  0  0  0  0  0  0  0  0  0
  132.7856  140.1753  161.4635 H   0  0  0  0  0  0  0  0  0  0  0  0
  130.7084  137.9065  159.6458 H   0  0  0  0  0  0  0  0  0  0  0  0
  125.5691  133.9583  158.2793 H   0  0  0  0  0  0  0  0  0  0  0  0
  124.1849  132.2714  159.4174 H   0  0  0  0  0  0  0  0  0  0  0  0
  1  2  1  0
  1 34  1  0
  1 35  1  0
  1 36  1  0
  2 33  2  0
  2  3  1  0
  3  4  2  0
  3 37  1  0
  4  5  1  0
  4 38  1  0
  5  6  1  0
  5 32  2  0
  6  7  1  0
  6 39  1  0
  7  8  1  0
  7 40  1  0
  7 41  1  0
  8  9  1  1
  8 10  1  0
  8 25  1  0
 10 42  1  0
 11 10  1  0
 11 23  2  0
 11 12  1  0
 12 13  1  0
 12 14  1  0
 14 15  2  0
 14 43  1  0
 15 16  1  0
 15 23  1  0
 16 22  1  0
 16 17  2  0
 17 18  1  0
 17 44  1  0
 18 19  2  0
 18 45  1  0
 19 20  1  0
 19 21  1  0
 20 46  1  0
 20 47  1  0
 21 22  2  0
 21 48  1  0
 22 49  1  0
 23 24  1  0
 25 31  1  0
 25 26  2  0
 26 27  1  0
 26 50  1  0
 27 28  2  0
 27 51  1  0
 28 29  1  0
 28 52  1  0
 29 30  1  0
 29 31  2  0
 30 53  1  0
 31 54  1  0
 32 33  1  0
 32 55  1  0
 33 56  1  0
M  CHG  1  23   1
M  END
>  <DOCK_score>  (1) 
-60.225643

>  <SMILES>  (1) 
Cc1ccc(NC[C@@H](Nc2[nH]cc(-c3ccc(N)cc3)[nH+]2)c2cccc(O)c2)cc1

$$$$
