CC1(F)CC([NH+]=C(NC2CC=CC2)N[C@H]2CCC(=O)NC2)C1
     RDKit          3D

 48 50  0  0  1  0  0  0  0  0999 V2000
  133.3496  136.5213  163.5921 C   0  0  0  0  0  0  0  0  0  0  0  0
  133.6249  135.5292  162.4603 C   0  0  1  0  0  0  0  0  0  0  0  0
  134.8490  134.8673  162.6039 F   0  0  0  0  0  0  0  0  0  0  0  0
  132.4456  134.5867  162.1670 C   0  0  0  0  0  0  0  0  0  0  0  0
  131.9430  135.6542  161.1779 C   0  0  2  0  0  0  0  0  0  0  0  0
  131.4000  135.0965  159.9367 N   0  0  0  0  0  0  0  0  0  0  0  0
  131.9831  134.9472  159.1761 H   0  0  0  0  0  0  0  0  0  0  0  0
  130.1331  134.8011  159.8546 C   0  0  0  0  0  0  0  0  0  0  0  0
  129.6236  134.2778  158.6898 N   0  0  0  0  0  0  0  0  0  0  0  0
  130.4730  133.4591  157.8212 C   0  0  0  0  0  0  0  0  0  0  0  0
  129.6475  132.8184  156.6814 C   0  0  0  0  0  0  0  0  0  0  0  0
  130.2455  131.4417  156.5020 C   0  0  0  0  0  0  0  0  0  0  0  0
  130.9766  131.1088  157.5307 C   0  0  0  0  0  0  0  0  0  0  0  0
  130.9879  132.2071  158.5684 C   0  0  0  0  0  0  0  0  0  0  0  0
  129.3065  135.0125  160.9325 N   0  0  0  0  0  0  0  0  0  0  0  0
  127.8827  134.6804  160.8401 C   0  0  1  0  0  0  0  0  0  0  0  0
  127.5460  134.7974  159.8100 H   0  0  0  0  0  0  0  0  0  0  0  0
  127.6618  133.2318  161.2921 C   0  0  0  0  0  0  0  0  0  0  0  0
  126.2046  132.8551  161.0139 C   0  0  0  0  0  0  0  0  0  0  0  0
  125.2906  133.9216  161.5454 C   0  0  0  0  0  0  0  0  0  0  0  0
  124.1201  133.6472  161.7051 O   0  0  0  0  0  0  0  0  0  0  0  0
  125.6974  135.1542  161.8515 N   0  0  0  0  0  0  0  0  0  0  0  0
  127.0791  135.6091  161.7513 C   0  0  0  0  0  0  0  0  0  0  0  0
  133.4039  136.1185  161.0572 C   0  0  0  0  0  0  0  0  0  0  0  0
  134.0317  137.3674  163.5075 H   0  0  0  0  0  0  0  0  0  0  0  0
  132.3211  136.8756  163.5226 H   0  0  0  0  0  0  0  0  0  0  0  0
  133.4999  136.0280  164.5524 H   0  0  0  0  0  0  0  0  0  0  0  0
  132.7416  133.6530  161.6886 H   0  0  0  0  0  0  0  0  0  0  0  0
  131.7849  134.4353  163.0206 H   0  0  0  0  0  0  0  0  0  0  0  0
  131.2857  136.3946  161.6336 H   0  0  0  0  0  0  0  0  0  0  0  0
  128.7015  134.4506  158.4430 H   0  0  0  0  0  0  0  0  0  0  0  0
  131.3013  134.0452  157.4227 H   0  0  0  0  0  0  0  0  0  0  0  0
  128.5988  132.7423  156.9686 H   0  0  0  0  0  0  0  0  0  0  0  0
  129.7499  133.4001  155.7652 H   0  0  0  0  0  0  0  0  0  0  0  0
  130.0885  130.8159  155.6358 H   0  0  0  0  0  0  0  0  0  0  0  0
  131.5038  130.1713  157.6277 H   0  0  0  0  0  0  0  0  0  0  0  0
  132.0010  132.3732  158.9344 H   0  0  0  0  0  0  0  0  0  0  0  0
  130.3225  131.9577  159.3949 H   0  0  0  0  0  0  0  0  0  0  0  0
  129.6662  135.3815  161.7545 H   0  0  0  0  0  0  0  0  0  0  0  0
  128.3248  132.5688  160.7363 H   0  0  0  0  0  0  0  0  0  0  0  0
  127.8659  133.1452  162.3594 H   0  0  0  0  0  0  0  0  0  0  0  0
  126.0557  132.7534  159.9389 H   0  0  0  0  0  0  0  0  0  0  0  0
  125.9764  131.9070  161.5010 H   0  0  0  0  0  0  0  0  0  0  0  0
  125.0316  135.7895  162.1581 H   0  0  0  0  0  0  0  0  0  0  0  0
  127.5271  135.6152  162.7449 H   0  0  0  0  0  0  0  0  0  0  0  0
  127.0998  136.6199  161.3439 H   0  0  0  0  0  0  0  0  0  0  0  0
  133.5158  137.2020  161.0160 H   0  0  0  0  0  0  0  0  0  0  0  0
  133.9623  135.6044  160.2748 H   0  0  0  0  0  0  0  0  0  0  0  0
  1  2  1  0
  1 25  1  0
  1 26  1  0
  1 27  1  0
  2 24  1  0
  2  3  1  6
  2  4  1  0
  4  5  1  0
  4 28  1  0
  4 29  1  0
  5  6  1  0
  5 24  1  0
  5 30  1  1
  6  7  1  0
  8  6  2  0
  8  9  1  0
  8 15  1  0
  9 10  1  0
  9 31  1  0
 10 14  1  0
 10 11  1  0
 10 32  1  0
 11 12  1  0
 11 33  1  0
 11 34  1  0
 12 13  2  0
 12 35  1  0
 13 14  1  0
 13 36  1  0
 14 37  1  0
 14 38  1  0
 15 16  1  0
 15 39  1  0
 16 17  1  6
 16 23  1  0
 16 18  1  0
 18 19  1  0
 18 40  1  0
 18 41  1  0
 19 20  1  0
 19 42  1  0
 19 43  1  0
 20 21  2  0
 20 22  1  0
 22 23  1  0
 22 44  1  0
 23 45  1  0
 23 46  1  0
 24 47  1  0
 24 48  1  0
M  CHG  1   6   1
M  END
>  <DOCK_score>  (1) 
-41.095173

>  <SMILES>  (1) 
CC1(F)CC([NH+]=C(NC2CC=CC2)N[C@H]2CCC(=O)NC2)C1

$$$$
