ClCc1c(Cl)cccc1N1CC[NH+]([C@@H](c2ccccc2)c2ccccc2Cl)CC1
     RDKit          3D

 53 56  0  0  1  0  0  0  0  0999 V2000
  132.3697  140.0534  163.5721 Cl  0  0  0  0  0  0  0  0  0  0  0  0
  133.8282  139.0707  163.1747 C   0  0  0  0  0  0  0  0  0  0  0  0
  134.3267  139.4437  161.8023 C   0  0  0  0  0  0  0  0  0  0  0  0
  135.2587  140.4540  161.6554 C   0  0  0  0  0  0  0  0  0  0  0  0
  135.8562  141.2929  163.0530 Cl  0  0  0  0  0  0  0  0  0  0  0  0
  135.7122  140.8006  160.3947 C   0  0  0  0  0  0  0  0  0  0  0  0
  135.2384  140.1346  159.2793 C   0  0  0  0  0  0  0  0  0  0  0  0
  134.3117  139.1207  159.4200 C   0  0  0  0  0  0  0  0  0  0  0  0
  133.8542  138.7695  160.6841 C   0  0  0  0  0  0  0  0  0  0  0  0
  132.9169  137.7442  160.8292 N   0  0  0  0  0  0  0  0  0  0  0  0
  131.6486  138.0934  160.1736 C   0  0  0  0  0  0  0  0  0  0  0  0
  130.6324  136.9731  160.4062 C   0  0  0  0  0  0  0  0  0  0  0  0
  131.1563  135.7149  159.8586 N   0  0  0  0  0  0  0  0  0  0  0  0
  131.3304  135.8249  158.8708 H   0  0  0  0  0  0  0  0  0  0  0  0
  130.1728  134.6437  160.0660 C   0  0  1  0  0  0  0  0  0  0  0  0
  129.9843  134.5252  161.1330 H   0  0  0  0  0  0  0  0  0  0  0  0
  128.8869  134.9999  159.3653 C   0  0  0  0  0  0  0  0  0  0  0  0
  127.6801  134.5441  159.8619 C   0  0  0  0  0  0  0  0  0  0  0  0
  126.5002  134.8744  159.2217 C   0  0  0  0  0  0  0  0  0  0  0  0
  126.5281  135.6525  158.0795 C   0  0  0  0  0  0  0  0  0  0  0  0
  127.7354  136.1041  157.5801 C   0  0  0  0  0  0  0  0  0  0  0  0
  128.9148  135.7776  158.2228 C   0  0  0  0  0  0  0  0  0  0  0  0
  130.7101  133.3527  159.5042 C   0  0  0  0  0  0  0  0  0  0  0  0
  131.0251  133.2613  158.1613 C   0  0  0  0  0  0  0  0  0  0  0  0
  131.5229  132.0787  157.6470 C   0  0  0  0  0  0  0  0  0  0  0  0
  131.6952  130.9834  158.4729 C   0  0  0  0  0  0  0  0  0  0  0  0
  131.3757  131.0720  159.8144 C   0  0  0  0  0  0  0  0  0  0  0  0
  130.8827  132.2574  160.3311 C   0  0  0  0  0  0  0  0  0  0  0  0
  130.4805  132.3693  162.0161 Cl  0  0  0  0  0  0  0  0  0  0  0  0
  132.4099  135.3670  160.5406 C   0  0  0  0  0  0  0  0  0  0  0  0
  133.4411  136.4736  160.3088 C   0  0  0  0  0  0  0  0  0  0  0  0
  133.5688  138.0121  163.1918 H   0  0  0  0  0  0  0  0  0  0  0  0
  134.6088  139.2652  163.9102 H   0  0  0  0  0  0  0  0  0  0  0  0
  136.4373  141.5929  160.2818 H   0  0  0  0  0  0  0  0  0  0  0  0
  135.5941  140.4075  158.2966 H   0  0  0  0  0  0  0  0  0  0  0  0
  133.9429  138.6007  158.5481 H   0  0  0  0  0  0  0  0  0  0  0  0
  131.8146  138.2174  159.1035 H   0  0  0  0  0  0  0  0  0  0  0  0
  131.2665  139.0239  160.5931 H   0  0  0  0  0  0  0  0  0  0  0  0
  129.6954  137.2236  159.9086 H   0  0  0  0  0  0  0  0  0  0  0  0
  130.4564  136.8585  161.4758 H   0  0  0  0  0  0  0  0  0  0  0  0
  127.6587  133.9328  160.7521 H   0  0  0  0  0  0  0  0  0  0  0  0
  125.5570  134.5217  159.6120 H   0  0  0  0  0  0  0  0  0  0  0  0
  125.6066  135.9076  157.5774 H   0  0  0  0  0  0  0  0  0  0  0  0
  127.7571  136.7121  156.6877 H   0  0  0  0  0  0  0  0  0  0  0  0
  129.8581  136.1302  157.8325 H   0  0  0  0  0  0  0  0  0  0  0  0
  130.8862  134.1150  157.5148 H   0  0  0  0  0  0  0  0  0  0  0  0
  131.7733  132.0092  156.5988 H   0  0  0  0  0  0  0  0  0  0  0  0
  132.0800  130.0583  158.0695 H   0  0  0  0  0  0  0  0  0  0  0  0
  131.5104  130.2163  160.4594 H   0  0  0  0  0  0  0  0  0  0  0  0
  132.2247  135.2607  161.6095 H   0  0  0  0  0  0  0  0  0  0  0  0
  132.7910  134.4265  160.1427 H   0  0  0  0  0  0  0  0  0  0  0  0
  133.6366  136.5710  159.2409 H   0  0  0  0  0  0  0  0  0  0  0  0
  134.3669  136.2228  160.8265 H   0  0  0  0  0  0  0  0  0  0  0  0
  1  2  1  0
  2  3  1  0
  2 32  1  0
  2 33  1  0
  3  9  2  0
  3  4  1  0
  4  5  1  0
  4  6  2  0
  6  7  1  0
  6 34  1  0
  7  8  2  0
  7 35  1  0
  8  9  1  0
  8 36  1  0
  9 10  1  0
 10 31  1  0
 10 11  1  0
 11 12  1  0
 11 37  1  0
 11 38  1  0
 12 13  1  0
 12 39  1  0
 12 40  1  0
 13 14  1  0
 13 15  1  0
 13 30  1  0
 15 16  1  1
 15 17  1  0
 15 23  1  0
 17 22  1  0
 17 18  2  0
 18 19  1  0
 18 41  1  0
 19 20  2  0
 19 42  1  0
 20 21  1  0
 20 43  1  0
 21 22  2  0
 21 44  1  0
 22 45  1  0
 23 28  1  0
 23 24  2  0
 24 25  1  0
 24 46  1  0
 25 26  2  0
 25 47  1  0
 26 27  1  0
 26 48  1  0
 27 28  2  0
 27 49  1  0
 28 29  1  0
 30 31  1  0
 30 50  1  0
 30 51  1  0
 31 52  1  0
 31 53  1  0
M  CHG  1  13   1
M  END
>  <DOCK_score>  (1) 
-57.65237

>  <SMILES>  (1) 
ClCc1c(Cl)cccc1N1CC[NH+]([C@@H](c2ccccc2)c2ccccc2Cl)CC1

$$$$
