Cc1ccc([C@H](Nc2[nH]cc(-c3ccc(N)cc3)[nH+]2)c2ccccc2Cl)cc1
     RDKit          3D

 50 53  0  0  1  0  0  0  0  0999 V2000
  124.8737  133.0358  160.7366 C   0  0  0  0  0  0  0  0  0  0  0  0
  126.2977  132.9587  160.2493 C   0  0  0  0  0  0  0  0  0  0  0  0
  126.6917  131.9190  159.4280 C   0  0  0  0  0  0  0  0  0  0  0  0
  127.9980  131.8483  158.9810 C   0  0  0  0  0  0  0  0  0  0  0  0
  128.9098  132.8177  159.3545 C   0  0  0  0  0  0  0  0  0  0  0  0
  130.3337  132.7406  158.8672 C   0  0  2  0  0  0  0  0  0  0  0  0
  130.9298  132.1660  159.5760 H   0  0  0  0  0  0  0  0  0  0  0  0
  130.8838  134.0934  158.7504 N   0  0  0  0  0  0  0  0  0  0  0  0
  131.5286  134.6739  159.8292 C   0  0  0  0  0  0  0  0  0  0  0  0
  131.7164  134.0943  161.0460 N   0  0  0  0  0  0  0  0  0  0  0  0
  131.4277  133.2068  161.3103 H   0  0  0  0  0  0  0  0  0  0  0  0
  132.3959  134.9969  161.8294 C   0  0  0  0  0  0  0  0  0  0  0  0
  132.6030  136.1001  161.0688 C   0  0  0  0  0  0  0  0  0  0  0  0
  133.2999  137.3376  161.4972 C   0  0  0  0  0  0  0  0  0  0  0  0
  134.4473  137.7601  160.8278 C   0  0  0  0  0  0  0  0  0  0  0  0
  135.0900  138.9140  161.2239 C   0  0  0  0  0  0  0  0  0  0  0  0
  134.6016  139.6489  162.2977 C   0  0  0  0  0  0  0  0  0  0  0  0
  135.2578  140.8144  162.7012 N   0  0  0  0  0  0  0  0  0  0  0  0
  133.4610  139.2268  162.9702 C   0  0  0  0  0  0  0  0  0  0  0  0
  132.8116  138.0767  162.5737 C   0  0  0  0  0  0  0  0  0  0  0  0
  132.0598  135.8722  159.8468 N   0  0  0  0  0  0  0  0  0  0  0  0
  132.0638  136.4964  159.1043 H   0  0  0  0  0  0  0  0  0  0  0  0
  130.3676  132.0667  157.5197 C   0  0  0  0  0  0  0  0  0  0  0  0
  129.6795  132.6162  156.4543 C   0  0  0  0  0  0  0  0  0  0  0  0
  129.7108  131.9982  155.2184 C   0  0  0  0  0  0  0  0  0  0  0  0
  130.4297  130.8297  155.0470 C   0  0  0  0  0  0  0  0  0  0  0  0
  131.1178  130.2792  156.1116 C   0  0  0  0  0  0  0  0  0  0  0  0
  131.0921  130.9008  157.3475 C   0  0  0  0  0  0  0  0  0  0  0  0
  131.9630  130.2142  158.6831 Cl  0  0  0  0  0  0  0  0  0  0  0  0
  128.5168  133.8549  160.1797 C   0  0  0  0  0  0  0  0  0  0  0  0
  127.2097  133.9279  160.6232 C   0  0  0  0  0  0  0  0  0  0  0  0
  124.7830  132.4977  161.6802 H   0  0  0  0  0  0  0  0  0  0  0  0
  124.5967  134.0795  160.8855 H   0  0  0  0  0  0  0  0  0  0  0  0
  124.2117  132.5861  159.9967 H   0  0  0  0  0  0  0  0  0  0  0  0
  125.9793  131.1617  159.1360 H   0  0  0  0  0  0  0  0  0  0  0  0
  128.3059  131.0358  158.3397 H   0  0  0  0  0  0  0  0  0  0  0  0
  130.7962  134.5824  157.9174 H   0  0  0  0  0  0  0  0  0  0  0  0
  132.7058  134.8543  162.8540 H   0  0  0  0  0  0  0  0  0  0  0  0
  134.8301  137.1864  159.9967 H   0  0  0  0  0  0  0  0  0  0  0  0
  135.9762  139.2443  160.7024 H   0  0  0  0  0  0  0  0  0  0  0  0
  134.9173  141.3282  163.4500 H   0  0  0  0  0  0  0  0  0  0  0  0
  136.0538  141.1100  162.2320 H   0  0  0  0  0  0  0  0  0  0  0  0
  133.0832  139.7995  163.8042 H   0  0  0  0  0  0  0  0  0  0  0  0
  131.9251  137.7492  163.0964 H   0  0  0  0  0  0  0  0  0  0  0  0
  129.1174  133.5287  156.5875 H   0  0  0  0  0  0  0  0  0  0  0  0
  129.1733  132.4282  154.3860 H   0  0  0  0  0  0  0  0  0  0  0  0
  130.4533  130.3470  154.0812 H   0  0  0  0  0  0  0  0  0  0  0  0
  131.6797  129.3665  155.9775 H   0  0  0  0  0  0  0  0  0  0  0  0
  129.2304  134.6099  160.4751 H   0  0  0  0  0  0  0  0  0  0  0  0
  126.9016  134.7405  161.2646 H   0  0  0  0  0  0  0  0  0  0  0  0
  1  2  1  0
  1 32  1  0
  1 33  1  0
  1 34  1  0
  2 31  2  0
  2  3  1  0
  3  4  2  0
  3 35  1  0
  4  5  1  0
  4 36  1  0
  5  6  1  0
  5 30  2  0
  6  7  1  1
  6  8  1  0
  6 23  1  0
  8 37  1  0
  9  8  1  0
  9 21  2  0
  9 10  1  0
 10 11  1  0
 10 12  1  0
 12 13  2  0
 12 38  1  0
 13 14  1  0
 13 21  1  0
 14 20  1  0
 14 15  2  0
 15 16  1  0
 15 39  1  0
 16 17  2  0
 16 40  1  0
 17 18  1  0
 17 19  1  0
 18 41  1  0
 18 42  1  0
 19 20  2  0
 19 43  1  0
 20 44  1  0
 21 22  1  0
 23 28  1  0
 23 24  2  0
 24 25  1  0
 24 45  1  0
 25 26  2  0
 25 46  1  0
 26 27  1  0
 26 47  1  0
 27 28  2  0
 27 48  1  0
 28 29  1  0
 30 31  1  0
 30 49  1  0
 31 50  1  0
M  CHG  1  21   1
M  END
>  <DOCK_score>  (1) 
-56.343922

>  <SMILES>  (1) 
Cc1ccc([C@H](Nc2[nH]cc(-c3ccc(N)cc3)[nH+]2)c2ccccc2Cl)cc1

$$$$
