CC(C)c1ccccc1N1CC[NH+]([C@H](c2ccccc2)c2ccccc2C=CCl)CC1
     RDKit          3D

 63 66  0  0  1  0  0  0  0  0999 V2000
  131.5869  140.7645  162.5559 C   0  0  0  0  0  0  0  0  0  0  0  0
  133.0756  140.5622  162.8454 C   0  0  0  0  0  0  0  0  0  0  0  0
  133.2818  139.2139  163.5386 C   0  0  0  0  0  0  0  0  0  0  0  0
  133.8466  140.5843  161.5507 C   0  0  0  0  0  0  0  0  0  0  0  0
  134.8310  141.5318  161.3482 C   0  0  0  0  0  0  0  0  0  0  0  0
  135.5388  141.5527  160.1607 C   0  0  0  0  0  0  0  0  0  0  0  0
  135.2682  140.6217  159.1742 C   0  0  0  0  0  0  0  0  0  0  0  0
  134.2819  139.6751  159.3680 C   0  0  0  0  0  0  0  0  0  0  0  0
  133.5684  139.6515  160.5599 C   0  0  0  0  0  0  0  0  0  0  0  0
  132.5739  138.6917  160.7615 N   0  0  0  0  0  0  0  0  0  0  0  0
  133.1435  137.3367  160.7695 C   0  0  0  0  0  0  0  0  0  0  0  0
  132.0335  136.3219  161.0519 C   0  0  0  0  0  0  0  0  0  0  0  0
  130.9967  136.4295  160.0172 N   0  0  0  0  0  0  0  0  0  0  0  0
  131.4056  136.2524  159.1120 H   0  0  0  0  0  0  0  0  0  0  0  0
  129.9403  135.4427  160.2784 C   0  0  2  0  0  0  0  0  0  0  0  0
  129.4987  135.6333  161.2566 H   0  0  0  0  0  0  0  0  0  0  0  0
  130.5309  134.0565  160.2554 C   0  0  0  0  0  0  0  0  0  0  0  0
  129.9814  133.0578  161.0375 C   0  0  0  0  0  0  0  0  0  0  0  0
  130.5204  131.7851  161.0130 C   0  0  0  0  0  0  0  0  0  0  0  0
  131.6150  131.5135  160.2136 C   0  0  0  0  0  0  0  0  0  0  0  0
  132.1678  132.5133  159.4354 C   0  0  0  0  0  0  0  0  0  0  0  0
  131.6259  133.7848  159.4566 C   0  0  0  0  0  0  0  0  0  0  0  0
  128.8762  135.5529  159.2169 C   0  0  0  0  0  0  0  0  0  0  0  0
  129.1990  135.3512  157.8907 C   0  0  0  0  0  0  0  0  0  0  0  0
  128.2225  135.4468  156.9157 C   0  0  0  0  0  0  0  0  0  0  0  0
  126.9191  135.7564  157.2617 C   0  0  0  0  0  0  0  0  0  0  0  0
  126.5841  135.9659  158.5833 C   0  0  0  0  0  0  0  0  0  0  0  0
  127.5635  135.8651  159.5726 C   0  0  0  0  0  0  0  0  0  0  0  0
  127.2120  136.0885  160.9904 C   0  0  0  0  0  0  0  0  0  0  0  0
  126.3055  135.3178  161.5789 C   0  0  0  0  0  0  0  0  0  0  0  0
  125.8926  135.5804  163.2445 Cl  0  0  0  0  0  0  0  0  0  0  0  0
  130.4203  137.7803  160.0379 C   0  0  0  0  0  0  0  0  0  0  0  0
  131.5168  138.8074  159.7470 C   0  0  0  0  0  0  0  0  0  0  0  0
  131.0293  140.7485  163.4923 H   0  0  0  0  0  0  0  0  0  0  0  0
  131.4401  141.7251  162.0620 H   0  0  0  0  0  0  0  0  0  0  0  0
  131.2309  139.9643  161.9072 H   0  0  0  0  0  0  0  0  0  0  0  0
  133.4317  141.3625  163.4940 H   0  0  0  0  0  0  0  0  0  0  0  0
  134.3422  139.0698  163.7449 H   0  0  0  0  0  0  0  0  0  0  0  0
  132.7240  139.1978  164.4750 H   0  0  0  0  0  0  0  0  0  0  0  0
  132.9255  138.4136  162.8900 H   0  0  0  0  0  0  0  0  0  0  0  0
  135.0478  142.2574  162.1182 H   0  0  0  0  0  0  0  0  0  0  0  0
  136.3074  142.2950  160.0046 H   0  0  0  0  0  0  0  0  0  0  0  0
  135.8263  140.6377  158.2497 H   0  0  0  0  0  0  0  0  0  0  0  0
  134.0683  138.9509  158.5957 H   0  0  0  0  0  0  0  0  0  0  0  0
  133.5918  137.1250  159.7988 H   0  0  0  0  0  0  0  0  0  0  0  0
  133.9058  137.2673  161.5455 H   0  0  0  0  0  0  0  0  0  0  0  0
  131.5948  136.5256  162.0285 H   0  0  0  0  0  0  0  0  0  0  0  0
  132.4514  135.3150  161.0442 H   0  0  0  0  0  0  0  0  0  0  0  0
  129.1286  133.2711  161.6650 H   0  0  0  0  0  0  0  0  0  0  0  0
  130.0884  131.0039  161.6208 H   0  0  0  0  0  0  0  0  0  0  0  0
  132.0384  130.5200  160.1971 H   0  0  0  0  0  0  0  0  0  0  0  0
  133.0229  132.3011  158.8109 H   0  0  0  0  0  0  0  0  0  0  0  0
  132.0579  134.5661  158.8487 H   0  0  0  0  0  0  0  0  0  0  0  0
  130.2155  135.1135  157.6136 H   0  0  0  0  0  0  0  0  0  0  0  0
  128.4792  135.2830  155.8795 H   0  0  0  0  0  0  0  0  0  0  0  0
  126.1620  135.8340  156.4951 H   0  0  0  0  0  0  0  0  0  0  0  0
  125.5663  136.2074  158.8520 H   0  0  0  0  0  0  0  0  0  0  0  0
  127.6927  136.8789  161.5479 H   0  0  0  0  0  0  0  0  0  0  0  0
  125.8249  134.5276  161.0215 H   0  0  0  0  0  0  0  0  0  0  0  0
  129.9897  137.9766  161.0197 H   0  0  0  0  0  0  0  0  0  0  0  0
  129.6420  137.8549  159.2783 H   0  0  0  0  0  0  0  0  0  0  0  0
  131.0922  139.8109  159.7771 H   0  0  0  0  0  0  0  0  0  0  0  0
  131.9383  138.6203  158.7594 H   0  0  0  0  0  0  0  0  0  0  0  0
  1  2  1  0
  1 34  1  0
  1 35  1  0
  1 36  1  0
  2  3  1  0
  2  4  1  0
  2 37  1  0
  3 38  1  0
  3 39  1  0
  3 40  1  0
  4  9  2  0
  4  5  1  0
  5  6  2  0
  5 41  1  0
  6  7  1  0
  6 42  1  0
  7  8  2  0
  7 43  1  0
  8  9  1  0
  8 44  1  0
  9 10  1  0
 10 33  1  0
 10 11  1  0
 11 12  1  0
 11 45  1  0
 11 46  1  0
 12 13  1  0
 12 47  1  0
 12 48  1  0
 13 14  1  0
 13 15  1  0
 13 32  1  0
 15 16  1  1
 15 17  1  0
 15 23  1  0
 17 22  1  0
 17 18  2  0
 18 19  1  0
 18 49  1  0
 19 20  2  0
 19 50  1  0
 20 21  1  0
 20 51  1  0
 21 22  2  0
 21 52  1  0
 22 53  1  0
 23 28  1  0
 23 24  2  0
 24 25  1  0
 24 54  1  0
 25 26  2  0
 25 55  1  0
 26 27  1  0
 26 56  1  0
 27 28  2  0
 27 57  1  0
 28 29  1  0
 29 30  2  0
 29 58  1  0
 30 31  1  0
 30 59  1  0
 32 33  1  0
 32 60  1  0
 32 61  1  0
 33 62  1  0
 33 63  1  0
M  CHG  1  13   1
M  END
>  <DOCK_score>  (1) 
-56.687973

>  <SMILES>  (1) 
CC(C)c1ccccc1N1CC[NH+]([C@H](c2ccccc2)c2ccccc2C=CCl)CC1

$$$$
