C1=CC[C@@H]([NH2+]Cc2c[nH]nc2-c2ccc(Nc3c[nH]c4ccccc34)o2)CC1
     RDKit          3D

 52 56  0  0  1  0  0  0  0  0999 V2000
  133.5246  140.1132  161.5929 C   0  0  0  0  0  0  0  0  0  0  0  0
  132.5373  140.0608  160.7573 C   0  0  0  0  0  0  0  0  0  0  0  0
  132.0653  138.8013  160.0917 C   0  0  0  0  0  0  0  0  0  0  0  0
  132.6038  137.5779  160.8363 C   0  0  1  0  0  0  0  0  0  0  0  0
  132.1058  137.4879  161.8018 H   0  0  0  0  0  0  0  0  0  0  0  0
  132.3591  136.3679  160.0400 N   0  0  0  0  0  0  0  0  0  0  0  0
  132.9785  135.6327  160.3463 H   0  0  0  0  0  0  0  0  0  0  0  0
  132.5289  136.5666  159.0654 H   0  0  0  0  0  0  0  0  0  0  0  0
  130.9651  135.9391  160.2166 C   0  0  0  0  0  0  0  0  0  0  0  0
  130.7142  134.6979  159.3997 C   0  0  0  0  0  0  0  0  0  0  0  0
  131.6164  134.0614  158.6225 C   0  0  0  0  0  0  0  0  0  0  0  0
  131.0042  133.0000  158.0541 N   0  0  0  0  0  0  0  0  0  0  0  0
  131.4135  132.3668  157.4439 H   0  0  0  0  0  0  0  0  0  0  0  0
  129.6760  132.9720  158.4978 N   0  0  0  0  0  0  0  0  0  0  0  0
  129.4953  133.9925  159.3131 C   0  0  0  0  0  0  0  0  0  0  0  0
  128.2383  134.3392  160.0076 C   0  0  0  0  0  0  0  0  0  0  0  0
  127.0660  133.6566  159.9205 C   0  0  0  0  0  0  0  0  0  0  0  0
  126.1388  134.3314  160.7381 C   0  0  0  0  0  0  0  0  0  0  0  0
  126.7888  135.3907  161.2831 C   0  0  0  0  0  0  0  0  0  0  0  0
  126.2370  136.3202  162.1555 N   0  0  0  0  0  0  0  0  0  0  0  0
  127.0478  136.9515  163.1151 C   0  0  0  0  0  0  0  0  0  0  0  0
  128.3656  136.7516  163.3075 C   0  0  0  0  0  0  0  0  0  0  0  0
  128.8118  137.5510  164.3338 N   0  0  0  0  0  0  0  0  0  0  0  0
  129.7261  137.5860  164.6559 H   0  0  0  0  0  0  0  0  0  0  0  0
  127.7661  138.2901  164.8395 C   0  0  0  0  0  0  0  0  0  0  0  0
  127.6657  139.2288  165.8620 C   0  0  0  0  0  0  0  0  0  0  0  0
  126.4485  139.8106  166.1395 C   0  0  0  0  0  0  0  0  0  0  0  0
  125.3182  139.4707  165.4082 C   0  0  0  0  0  0  0  0  0  0  0  0
  125.3945  138.5518  164.3998 C   0  0  0  0  0  0  0  0  0  0  0  0
  126.6179  137.9494  164.1019 C   0  0  0  0  0  0  0  0  0  0  0  0
  128.0569  135.3885  160.8369 O   0  0  0  0  0  0  0  0  0  0  0  0
  134.1121  137.7588  161.0490 C   0  0  0  0  0  0  0  0  0  0  0  0
  134.3283  138.9203  162.0209 C   0  0  0  0  0  0  0  0  0  0  0  0
  133.7859  141.0753  162.0082 H   0  0  0  0  0  0  0  0  0  0  0  0
  132.0215  140.9806  160.5245 H   0  0  0  0  0  0  0  0  0  0  0  0
  132.4202  138.7824  159.0613 H   0  0  0  0  0  0  0  0  0  0  0  0
  130.9755  138.7779  160.0988 H   0  0  0  0  0  0  0  0  0  0  0  0
  130.2960  136.7334  159.8858 H   0  0  0  0  0  0  0  0  0  0  0  0
  130.7816  135.7245  161.2694 H   0  0  0  0  0  0  0  0  0  0  0  0
  132.6460  134.3528  158.4769 H   0  0  0  0  0  0  0  0  0  0  0  0
  126.8810  132.7675  159.3359 H   0  0  0  0  0  0  0  0  0  0  0  0
  125.1068  134.0579  160.9005 H   0  0  0  0  0  0  0  0  0  0  0  0
  125.2922  136.5337  162.1026 H   0  0  0  0  0  0  0  0  0  0  0  0
  128.9800  136.0686  162.7398 H   0  0  0  0  0  0  0  0  0  0  0  0
  128.5392  139.4997  166.4364 H   0  0  0  0  0  0  0  0  0  0  0  0
  126.3725  140.5386  166.9335 H   0  0  0  0  0  0  0  0  0  0  0  0
  124.3713  139.9366  165.6378 H   0  0  0  0  0  0  0  0  0  0  0  0
  124.5112  138.2926  163.8351 H   0  0  0  0  0  0  0  0  0  0  0  0
  134.5355  136.8450  161.4659 H   0  0  0  0  0  0  0  0  0  0  0  0
  134.5916  137.9874  160.0971 H   0  0  0  0  0  0  0  0  0  0  0  0
  135.3855  139.1847  162.0393 H   0  0  0  0  0  0  0  0  0  0  0  0
  134.0152  138.6128  163.0185 H   0  0  0  0  0  0  0  0  0  0  0  0
  1 33  1  0
  1  2  2  0
  1 34  1  0
  2  3  1  0
  2 35  1  0
  3  4  1  0
  3 36  1  0
  3 37  1  0
  4  5  1  1
  4  6  1  0
  4 32  1  0
  6  7  1  0
  6  8  1  0
  6  9  1  0
  9 10  1  0
  9 38  1  0
  9 39  1  0
 10 15  1  0
 10 11  2  0
 11 12  1  0
 11 40  1  0
 12 13  1  0
 12 14  1  0
 14 15  2  0
 15 16  1  0
 16 31  1  0
 16 17  2  0
 17 18  1  0
 17 41  1  0
 18 19  2  0
 18 42  1  0
 19 20  1  0
 19 31  1  0
 20 21  1  0
 20 43  1  0
 21 30  1  0
 21 22  2  0
 22 23  1  0
 22 44  1  0
 23 24  1  0
 23 25  1  0
 25 30  2  0
 25 26  1  0
 26 27  2  0
 26 45  1  0
 27 28  1  0
 27 46  1  0
 28 29  2  0
 28 47  1  0
 29 30  1  0
 29 48  1  0
 32 33  1  0
 32 49  1  0
 32 50  1  0
 33 51  1  0
 33 52  1  0
M  CHG  1   6   1
M  END
>  <DOCK_score>  (1) 
-45.647465

>  <SMILES>  (1) 
C1=CC[C@@H]([NH2+]Cc2c[nH]nc2-c2ccc(Nc3c[nH]c4ccccc34)o2)CC1

$$$$
