Cn1nccc1[C@H](CSc1ccc(-c2ccccc2)cc1)Nc1[nH]cc(-c2cccnc2)[nH+]1
     RDKit          3D

 58 62  0  0  1  0  0  0  0  0999 V2000
  127.6136  134.6120  162.4548 C   0  0  0  0  0  0  0  0  0  0  0  0
  127.2331  134.9438  161.0795 N   0  0  0  0  0  0  0  0  0  0  0  0
  125.9349  134.9146  160.5538 N   0  0  0  0  0  0  0  0  0  0  0  0
  125.9956  135.2682  159.2956 C   0  0  0  0  0  0  0  0  0  0  0  0
  127.3315  135.5386  158.9815 C   0  0  0  0  0  0  0  0  0  0  0  0
  128.0707  135.3346  160.0964 C   0  0  0  0  0  0  0  0  0  0  0  0
  129.5631  135.5064  160.2167 C   0  0  2  0  0  0  0  0  0  0  0  0
  129.9498  134.8124  160.9628 H   0  0  0  0  0  0  0  0  0  0  0  0
  129.8784  136.9417  160.6431 C   0  0  0  0  0  0  0  0  0  0  0  0
  131.6006  137.3312  160.2276 S   0  0  0  0  0  0  0  0  0  0  0  0
  132.4772  136.8485  161.6780 C   0  0  0  0  0  0  0  0  0  0  0  0
  133.4624  135.8698  161.6007 C   0  0  0  0  0  0  0  0  0  0  0  0
  134.1487  135.4907  162.7342 C   0  0  0  0  0  0  0  0  0  0  0  0
  133.8548  136.0889  163.9589 C   0  0  0  0  0  0  0  0  0  0  0  0
  134.5924  135.6823  165.1798 C   0  0  0  0  0  0  0  0  0  0  0  0
  133.9724  135.7489  166.4262 C   0  0  0  0  0  0  0  0  0  0  0  0
  134.6636  135.3697  167.5590 C   0  0  0  0  0  0  0  0  0  0  0  0
  135.9694  134.9234  167.4586 C   0  0  0  0  0  0  0  0  0  0  0  0
  136.5913  134.8605  166.2249 C   0  0  0  0  0  0  0  0  0  0  0  0
  135.9082  135.2326  165.0849 C   0  0  0  0  0  0  0  0  0  0  0  0
  132.8629  137.0657  164.0355 C   0  0  0  0  0  0  0  0  0  0  0  0
  132.1826  137.4464  162.8988 C   0  0  0  0  0  0  0  0  0  0  0  0
  130.1922  135.2321  158.9223 N   0  0  0  0  0  0  0  0  0  0  0  0
  130.0452  133.9892  158.3309 C   0  0  0  0  0  0  0  0  0  0  0  0
  129.3497  132.9413  158.8506 N   0  0  0  0  0  0  0  0  0  0  0  0
  128.8718  132.9309  159.6947 H   0  0  0  0  0  0  0  0  0  0  0  0
  129.4474  131.9015  157.9581 C   0  0  0  0  0  0  0  0  0  0  0  0
  130.2057  132.3410  156.9233 C   0  0  0  0  0  0  0  0  0  0  0  0
  130.5830  131.5561  155.7225 C   0  0  0  0  0  0  0  0  0  0  0  0
  130.2047  131.9838  154.4466 C   0  0  0  0  0  0  0  0  0  0  0  0
  130.5855  131.2184  153.3580 C   0  0  0  0  0  0  0  0  0  0  0  0
  131.3124  130.0603  153.5663 C   0  0  0  0  0  0  0  0  0  0  0  0
  131.6507  129.6794  154.7828 N   0  0  0  0  0  0  0  0  0  0  0  0
  131.3154  130.3774  155.8484 C   0  0  0  0  0  0  0  0  0  0  0  0
  130.5577  133.6257  157.1805 N   0  0  0  0  0  0  0  0  0  0  0  0
  131.1021  134.1856  156.6053 H   0  0  0  0  0  0  0  0  0  0  0  0
  127.5723  135.5108  163.0702 H   0  0  0  0  0  0  0  0  0  0  0  0
  126.9244  133.8673  162.8528 H   0  0  0  0  0  0  0  0  0  0  0  0
  128.6271  134.2112  162.4647 H   0  0  0  0  0  0  0  0  0  0  0  0
  125.1585  135.3398  158.6168 H   0  0  0  0  0  0  0  0  0  0  0  0
  127.7066  135.8548  158.0194 H   0  0  0  0  0  0  0  0  0  0  0  0
  129.7326  137.0414  161.7187 H   0  0  0  0  0  0  0  0  0  0  0  0
  129.2140  137.6301  160.1208 H   0  0  0  0  0  0  0  0  0  0  0  0
  133.6895  135.4064  160.6520 H   0  0  0  0  0  0  0  0  0  0  0  0
  134.9135  134.7304  162.6738 H   0  0  0  0  0  0  0  0  0  0  0  0
  132.9532  136.0969  166.5056 H   0  0  0  0  0  0  0  0  0  0  0  0
  134.1841  135.4209  168.5254 H   0  0  0  0  0  0  0  0  0  0  0  0
  136.5068  134.6275  168.3475 H   0  0  0  0  0  0  0  0  0  0  0  0
  137.6122  134.5158  166.1531 H   0  0  0  0  0  0  0  0  0  0  0  0
  136.3936  135.1792  164.1217 H   0  0  0  0  0  0  0  0  0  0  0  0
  132.6308  137.5270  164.9840 H   0  0  0  0  0  0  0  0  0  0  0  0
  131.4173  138.2061  162.9568 H   0  0  0  0  0  0  0  0  0  0  0  0
  130.7115  135.9216  158.4797 H   0  0  0  0  0  0  0  0  0  0  0  0
  129.0077  130.9206  158.0624 H   0  0  0  0  0  0  0  0  0  0  0  0
  129.6332  132.8905  154.3133 H   0  0  0  0  0  0  0  0  0  0  0  0
  130.3141  131.5200  152.3571 H   0  0  0  0  0  0  0  0  0  0  0  0
  131.6079  129.4587  152.7195 H   0  0  0  0  0  0  0  0  0  0  0  0
  131.6113  130.0333  156.8285 H   0  0  0  0  0  0  0  0  0  0  0  0
  1  2  1  0
  1 37  1  0
  1 38  1  0
  1 39  1  0
  2  6  1  0
  2  3  1  0
  3  4  2  0
  4  5  1  0
  4 40  1  0
  5  6  2  0
  5 41  1  0
  6  7  1  0
  7  8  1  1
  7  9  1  0
  7 23  1  0
  9 10  1  0
  9 42  1  0
  9 43  1  0
 10 11  1  0
 11 22  1  0
 11 12  2  0
 12 13  1  0
 12 44  1  0
 13 14  2  0
 13 45  1  0
 14 15  1  0
 14 21  1  0
 15 20  1  0
 15 16  2  0
 16 17  1  0
 16 46  1  0
 17 18  2  0
 17 47  1  0
 18 19  1  0
 18 48  1  0
 19 20  2  0
 19 49  1  0
 20 50  1  0
 21 22  2  0
 21 51  1  0
 22 52  1  0
 23 53  1  0
 24 23  1  0
 24 35  2  0
 24 25  1  0
 25 26  1  0
 25 27  1  0
 27 28  2  0
 27 54  1  0
 28 29  1  0
 28 35  1  0
 29 34  1  0
 29 30  2  0
 30 31  1  0
 30 55  1  0
 31 32  2  0
 31 56  1  0
 32 33  1  0
 32 57  1  0
 33 34  2  0
 34 58  1  0
 35 36  1  0
M  CHG  1  35   1
M  END
>  <DOCK_score>  (1) 
-59.149532

>  <SMILES>  (1) 
Cn1nccc1[C@H](CSc1ccc(-c2ccccc2)cc1)Nc1[nH]cc(-c2cccnc2)[nH+]1

$$$$
