C[C@@H]1C2C=CC(CC2)C1C(Nc1[nH]cc(-c2ccc(N)cc2)[nH+]1)c1ccccc1
     RDKit          3D

 58 62  0  0  1  0  0  0  0  0999 V2000
  127.0616  131.6423  159.0683 C   0  0  0  0  0  0  0  0  0  0  0  0
  128.0543  132.3387  160.0014 C   0  0  2  0  0  0  0  0  0  0  0  0
  128.7454  131.6019  160.4109 H   0  0  0  0  0  0  0  0  0  0  0  0
  127.2905  133.0151  161.1469 C   0  0  1  0  0  0  0  0  0  0  0  0
  128.2982  133.7831  161.9895 C   0  0  0  0  0  0  0  0  0  0  0  0
  128.9803  134.6995  161.3068 C   0  0  0  0  0  0  0  0  0  0  0  0
  128.6010  134.7757  159.8353 C   0  0  2  0  0  0  0  0  0  0  0  0
  127.1004  135.0884  159.7562 C   0  0  0  0  0  0  0  0  0  0  0  0
  126.3037  134.0221  160.5403 C   0  0  0  0  0  0  0  0  0  0  0  0
  128.8387  133.3924  159.2163 C   0  0  1  0  0  0  0  0  0  0  0  0
  130.3314  133.0605  159.2687 C   0  0  2  0  0  0  0  0  0  0  0  0
  131.1099  134.2614  158.9559 N   0  0  0  0  0  0  0  0  0  0  0  0
  132.0056  134.7667  159.8827 C   0  0  0  0  0  0  0  0  0  0  0  0
  132.2483  134.2453  161.1159 N   0  0  0  0  0  0  0  0  0  0  0  0
  131.8292  133.4597  161.5004 H   0  0  0  0  0  0  0  0  0  0  0  0
  133.1998  135.0366  161.7152 C   0  0  0  0  0  0  0  0  0  0  0  0
  133.5039  136.0214  160.8343 C   0  0  0  0  0  0  0  0  0  0  0  0
  134.4816  137.1158  161.0515 C   0  0  0  0  0  0  0  0  0  0  0  0
  134.7018  138.0635  160.0534 C   0  0  0  0  0  0  0  0  0  0  0  0
  135.6071  139.0829  160.2595 C   0  0  0  0  0  0  0  0  0  0  0  0
  136.3076  139.1599  161.4570 C   0  0  0  0  0  0  0  0  0  0  0  0
  137.2292  140.1896  161.6617 N   0  0  0  0  0  0  0  0  0  0  0  0
  136.0939  138.2127  162.4519 C   0  0  0  0  0  0  0  0  0  0  0  0
  135.1856  137.1947  162.2522 C   0  0  0  0  0  0  0  0  0  0  0  0
  132.7554  135.8293  159.7193 N   0  0  0  0  0  0  0  0  0  0  0  0
  132.7727  136.3889  158.9272 H   0  0  0  0  0  0  0  0  0  0  0  0
  130.6421  131.9837  158.2612 C   0  0  0  0  0  0  0  0  0  0  0  0
  130.5749  130.6528  158.6289 C   0  0  0  0  0  0  0  0  0  0  0  0
  130.8556  129.6650  157.7035 C   0  0  0  0  0  0  0  0  0  0  0  0
  131.2129  130.0083  156.4130 C   0  0  0  0  0  0  0  0  0  0  0  0
  131.2849  131.3393  156.0466 C   0  0  0  0  0  0  0  0  0  0  0  0
  130.9999  132.3269  156.9708 C   0  0  0  0  0  0  0  0  0  0  0  0
  126.3698  132.3784  158.6590 H   0  0  0  0  0  0  0  0  0  0  0  0
  127.6041  131.1615  158.2542 H   0  0  0  0  0  0  0  0  0  0  0  0
  126.5038  130.8907  159.6270 H   0  0  0  0  0  0  0  0  0  0  0  0
  126.7654  132.2753  161.7511 H   0  0  0  0  0  0  0  0  0  0  0  0
  128.4538  133.5939  163.0415 H   0  0  0  0  0  0  0  0  0  0  0  0
  129.7329  135.3308  161.7557 H   0  0  0  0  0  0  0  0  0  0  0  0
  129.1824  135.5369  159.3148 H   0  0  0  0  0  0  0  0  0  0  0  0
  126.9118  136.0737  160.1824 H   0  0  0  0  0  0  0  0  0  0  0  0
  126.7814  135.0764  158.7140 H   0  0  0  0  0  0  0  0  0  0  0  0
  125.6214  133.5018  159.8679 H   0  0  0  0  0  0  0  0  0  0  0  0
  125.7339  134.4981  161.3383 H   0  0  0  0  0  0  0  0  0  0  0  0
  128.5038  133.3963  158.1791 H   0  0  0  0  0  0  0  0  0  0  0  0
  130.5906  132.7093  160.2674 H   0  0  0  0  0  0  0  0  0  0  0  0
  130.9978  134.7025  158.0992 H   0  0  0  0  0  0  0  0  0  0  0  0
  133.6210  134.9018  162.7005 H   0  0  0  0  0  0  0  0  0  0  0  0
  134.1606  138.0018  159.1206 H   0  0  0  0  0  0  0  0  0  0  0  0
  135.7750  139.8198  159.4881 H   0  0  0  0  0  0  0  0  0  0  0  0
  137.7189  140.2436  162.4972 H   0  0  0  0  0  0  0  0  0  0  0  0
  137.3792  140.8508  160.9680 H   0  0  0  0  0  0  0  0  0  0  0  0
  136.6396  138.2743  163.3820 H   0  0  0  0  0  0  0  0  0  0  0  0
  135.0195  136.4590  163.0254 H   0  0  0  0  0  0  0  0  0  0  0  0
  130.2998  130.3847  159.6383 H   0  0  0  0  0  0  0  0  0  0  0  0
  130.7991  128.6252  157.9897 H   0  0  0  0  0  0  0  0  0  0  0  0
  131.4356  129.2367  155.6910 H   0  0  0  0  0  0  0  0  0  0  0  0
  131.5640  131.6075  155.0384 H   0  0  0  0  0  0  0  0  0  0  0  0
  131.0564  133.3668  156.6846 H   0  0  0  0  0  0  0  0  0  0  0  0
  1  2  1  0
  1 33  1  0
  1 34  1  0
  1 35  1  0
  2  3  1  1
  2 10  1  0
  2  4  1  0
  4  9  1  0
  4  5  1  0
  4 36  1  1
  5  6  2  0
  5 37  1  0
  6  7  1  0
  6 38  1  0
  7  8  1  0
  7 10  1  0
  7 39  1  6
  8  9  1  0
  8 40  1  0
  8 41  1  0
  9 42  1  0
  9 43  1  0
 10 11  1  0
 10 44  1  6
 11 12  1  0
 11 27  1  0
 11 45  1  1
 12 46  1  0
 13 12  1  0
 13 25  2  0
 13 14  1  0
 14 15  1  0
 14 16  1  0
 16 17  2  0
 16 47  1  0
 17 18  1  0
 17 25  1  0
 18 24  1  0
 18 19  2  0
 19 20  1  0
 19 48  1  0
 20 21  2  0
 20 49  1  0
 21 22  1  0
 21 23  1  0
 22 50  1  0
 22 51  1  0
 23 24  2  0
 23 52  1  0
 24 53  1  0
 25 26  1  0
 27 32  1  0
 27 28  2  0
 28 29  1  0
 28 54  1  0
 29 30  2  0
 29 55  1  0
 30 31  1  0
 30 56  1  0
 31 32  2  0
 31 57  1  0
 32 58  1  0
M  CHG  1  25   1
M  END
>  <DOCK_score>  (1) 
-57.813538

>  <SMILES>  (1) 
C[C@@H]1C2C=CC(CC2)C1C(Nc1[nH]cc(-c2ccc(N)cc2)[nH+]1)c1ccccc1

$$$$
