CCc1ccc(-c2c[nH]c(N[C@@H](Cc3ccc(-c4ccccc4)cc3)C3CC3)[nH+]2)cc1
     RDKit          3D

 61 65  0  0  1  0  0  0  0  0999 V2000
  130.5090  129.1160  151.9771 C   0  0  0  0  0  0  0  0  0  0  0  0
  131.7753  129.7551  152.5508 C   0  0  0  0  0  0  0  0  0  0  0  0
  131.4372  130.4821  153.8268 C   0  0  0  0  0  0  0  0  0  0  0  0
  131.5025  129.8159  155.0373 C   0  0  0  0  0  0  0  0  0  0  0  0
  131.1995  130.4782  156.2096 C   0  0  0  0  0  0  0  0  0  0  0  0
  130.8162  131.8177  156.1710 C   0  0  0  0  0  0  0  0  0  0  0  0
  130.4840  132.5335  157.4270 C   0  0  0  0  0  0  0  0  0  0  0  0
  129.9651  131.9769  158.5495 C   0  0  0  0  0  0  0  0  0  0  0  0
  129.8146  132.9907  159.4641 N   0  0  0  0  0  0  0  0  0  0  0  0
  129.4649  132.9046  160.3648 H   0  0  0  0  0  0  0  0  0  0  0  0
  130.2464  134.1381  158.8734 C   0  0  0  0  0  0  0  0  0  0  0  0
  130.2614  135.3914  159.4611 N   0  0  0  0  0  0  0  0  0  0  0  0
  129.2628  135.7366  160.4760 C   0  0  1  0  0  0  0  0  0  0  0  0
  129.0978  134.8797  161.1293 H   0  0  0  0  0  0  0  0  0  0  0  0
  129.7658  136.9203  161.3046 C   0  0  0  0  0  0  0  0  0  0  0  0
  131.0604  136.5469  161.9800 C   0  0  0  0  0  0  0  0  0  0  0  0
  132.2640  136.7803  161.3398 C   0  0  0  0  0  0  0  0  0  0  0  0
  133.4527  136.4447  161.9557 C   0  0  0  0  0  0  0  0  0  0  0  0
  133.4380  135.8599  163.2203 C   0  0  0  0  0  0  0  0  0  0  0  0
  134.7126  135.4913  163.8851 C   0  0  0  0  0  0  0  0  0  0  0  0
  134.8082  135.5134  165.2750 C   0  0  0  0  0  0  0  0  0  0  0  0
  135.9946  135.1650  165.8880 C   0  0  0  0  0  0  0  0  0  0  0  0
  137.0901  134.8042  165.1259 C   0  0  0  0  0  0  0  0  0  0  0  0
  137.0027  134.7856  163.7447 C   0  0  0  0  0  0  0  0  0  0  0  0
  135.8197  135.1271  163.1213 C   0  0  0  0  0  0  0  0  0  0  0  0
  132.2224  135.6221  163.8584 C   0  0  0  0  0  0  0  0  0  0  0  0
  131.0399  135.9666  163.2355 C   0  0  0  0  0  0  0  0  0  0  0  0
  127.9487  136.1158  159.7903 C   0  0  0  0  0  0  0  0  0  0  0  0
  126.6484  135.8047  160.5340 C   0  0  0  0  0  0  0  0  0  0  0  0
  127.0477  134.9760  159.3105 C   0  0  0  0  0  0  0  0  0  0  0  0
  130.6510  133.8599  157.6581 N   0  0  0  0  0  0  0  0  0  0  0  0
  131.0103  134.5004  157.0244 H   0  0  0  0  0  0  0  0  0  0  0  0
  130.7467  132.4822  154.9478 C   0  0  0  0  0  0  0  0  0  0  0  0
  131.0574  131.8115  153.7824 C   0  0  0  0  0  0  0  0  0  0  0  0
  129.7726  129.8920  151.7689 H   0  0  0  0  0  0  0  0  0  0  0  0
  130.7536  128.5900  151.0542 H   0  0  0  0  0  0  0  0  0  0  0  0
  130.0988  128.4103  152.6996 H   0  0  0  0  0  0  0  0  0  0  0  0
  132.5117  128.9789  152.7590 H   0  0  0  0  0  0  0  0  0  0  0  0
  132.1855  130.4606  151.8283 H   0  0  0  0  0  0  0  0  0  0  0  0
  131.7950  128.7767  155.0656 H   0  0  0  0  0  0  0  0  0  0  0  0
  131.2553  129.9585  157.1547 H   0  0  0  0  0  0  0  0  0  0  0  0
  129.7179  130.9359  158.6962 H   0  0  0  0  0  0  0  0  0  0  0  0
  130.9332  136.0411  159.2010 H   0  0  0  0  0  0  0  0  0  0  0  0
  129.9309  137.7771  160.6513 H   0  0  0  0  0  0  0  0  0  0  0  0
  129.0229  137.1770  162.0599 H   0  0  0  0  0  0  0  0  0  0  0  0
  132.2739  137.2298  160.3577 H   0  0  0  0  0  0  0  0  0  0  0  0
  134.3920  136.6308  161.4565 H   0  0  0  0  0  0  0  0  0  0  0  0
  133.9543  135.7988  165.8715 H   0  0  0  0  0  0  0  0  0  0  0  0
  136.0687  135.1778  166.9655 H   0  0  0  0  0  0  0  0  0  0  0  0
  138.0182  134.5367  165.6087 H   0  0  0  0  0  0  0  0  0  0  0  0
  137.8615  134.5037  163.1537 H   0  0  0  0  0  0  0  0  0  0  0  0
  135.7522  135.1127  162.0435 H   0  0  0  0  0  0  0  0  0  0  0  0
  132.2054  135.1695  164.8389 H   0  0  0  0  0  0  0  0  0  0  0  0
  130.0972  135.7825  163.7289 H   0  0  0  0  0  0  0  0  0  0  0  0
  127.9784  137.0224  159.1858 H   0  0  0  0  0  0  0  0  0  0  0  0
  126.7290  135.3299  161.5118 H   0  0  0  0  0  0  0  0  0  0  0  0
  125.8224  136.5065  160.4187 H   0  0  0  0  0  0  0  0  0  0  0  0
  126.4843  135.1332  158.3907 H   0  0  0  0  0  0  0  0  0  0  0  0
  127.3913  133.9562  159.4831 H   0  0  0  0  0  0  0  0  0  0  0  0
  130.4501  133.5202  154.9120 H   0  0  0  0  0  0  0  0  0  0  0  0
  131.0043  132.3255  152.8342 H   0  0  0  0  0  0  0  0  0  0  0  0
  1  2  1  0
  1 35  1  0
  1 36  1  0
  1 37  1  0
  2  3  1  0
  2 38  1  0
  2 39  1  0
  3 34  2  0
  3  4  1  0
  4  5  2  0
  4 40  1  0
  5  6  1  0
  5 41  1  0
  6  7  1  0
  6 33  2  0
  7 31  1  0
  7  8  2  0
  8  9  1  0
  8 42  1  0
  9 10  1  0
  9 11  1  0
 11 12  1  0
 11 31  2  0
 12 13  1  0
 12 43  1  0
 13 14  1  1
 13 15  1  0
 13 28  1  0
 15 16  1  0
 15 44  1  0
 15 45  1  0
 16 27  1  0
 16 17  2  0
 17 18  1  0
 17 46  1  0
 18 19  2  0
 18 47  1  0
 19 20  1  0
 19 26  1  0
 20 25  1  0
 20 21  2  0
 21 22  1  0
 21 48  1  0
 22 23  2  0
 22 49  1  0
 23 24  1  0
 23 50  1  0
 24 25  2  0
 24 51  1  0
 25 52  1  0
 26 27  2  0
 26 53  1  0
 27 54  1  0
 28 30  1  0
 28 29  1  0
 28 55  1  0
 29 30  1  0
 29 56  1  0
 29 57  1  0
 30 58  1  0
 30 59  1  0
 31 32  1  0
 33 34  1  0
 33 60  1  0
 34 61  1  0
M  CHG  1  31   1
M  END
>  <DOCK_score>  (1) 
-58.318871

>  <SMILES>  (1) 
CCc1ccc(-c2c[nH]c(N[C@@H](Cc3ccc(-c4ccccc4)cc3)C3CC3)[nH+]2)cc1

$$$$
