Cc1[nH]c(N[C@@H](C)c2ccccc2Nc2cccc([C@H]3CCC(=O)N3)c2)[nH+]c1C
     RDKit          3D

 57 60  0  0  1  0  0  0  0  0999 V2000
  128.6127  130.9583  159.1034 C   0  0  0  0  0  0  0  0  0  0  0  0
  129.6060  132.0234  158.7164 C   0  0  0  0  0  0  0  0  0  0  0  0
  130.0163  133.0620  159.4938 N   0  0  0  0  0  0  0  0  0  0  0  0
  129.7195  133.2473  160.3985 H   0  0  0  0  0  0  0  0  0  0  0  0
  130.8952  133.7789  158.7992 C   0  0  0  0  0  0  0  0  0  0  0  0
  131.5402  134.9163  159.2464 N   0  0  0  0  0  0  0  0  0  0  0  0
  131.2750  135.4271  160.5936 C   0  0  1  0  0  0  0  0  0  0  0  0
  130.2114  135.3360  160.8139 H   0  0  0  0  0  0  0  0  0  0  0  0
  132.0781  134.6169  161.6133 C   0  0  0  0  0  0  0  0  0  0  0  0
  131.6818  136.8760  160.6707 C   0  0  0  0  0  0  0  0  0  0  0  0
  132.9920  137.2401  160.4282 C   0  0  0  0  0  0  0  0  0  0  0  0
  133.3661  138.5694  160.4991 C   0  0  0  0  0  0  0  0  0  0  0  0
  132.4306  139.5386  160.8124 C   0  0  0  0  0  0  0  0  0  0  0  0
  131.1180  139.1823  161.0508 C   0  0  0  0  0  0  0  0  0  0  0  0
  130.7398  137.8468  160.9860 C   0  0  0  0  0  0  0  0  0  0  0  0
  129.4137  137.4820  161.2319 N   0  0  0  0  0  0  0  0  0  0  0  0
  128.6716  136.8359  160.2403 C   0  0  0  0  0  0  0  0  0  0  0  0
  128.9343  137.0867  158.8991 C   0  0  0  0  0  0  0  0  0  0  0  0
  128.2018  136.4430  157.9217 C   0  0  0  0  0  0  0  0  0  0  0  0
  127.2004  135.5571  158.2762 C   0  0  0  0  0  0  0  0  0  0  0  0
  126.9331  135.3089  159.6099 C   0  0  0  0  0  0  0  0  0  0  0  0
  125.8412  134.3428  159.9914 C   0  0  1  0  0  0  0  0  0  0  0  0
  125.3694  133.9354  159.0971 H   0  0  0  0  0  0  0  0  0  0  0  0
  126.4158  133.2029  160.8614 C   0  0  0  0  0  0  0  0  0  0  0  0
  125.2497  132.9357  161.8411 C   0  0  0  0  0  0  0  0  0  0  0  0
  124.4876  134.2421  161.8759 C   0  0  0  0  0  0  0  0  0  0  0  0
  123.6748  134.5497  162.7218 O   0  0  0  0  0  0  0  0  0  0  0  0
  124.8420  135.0119  160.8326 N   0  0  0  0  0  0  0  0  0  0  0  0
  127.6652  135.9456  160.5928 C   0  0  0  0  0  0  0  0  0  0  0  0
  131.0460  133.2224  157.6007 N   0  0  0  0  0  0  0  0  0  0  0  0
  131.6254  133.5448  156.8927 H   0  0  0  0  0  0  0  0  0  0  0  0
  130.2491  132.1212  157.5403 C   0  0  0  0  0  0  0  0  0  0  0  0
  130.1088  131.1855  156.3672 C   0  0  0  0  0  0  0  0  0  0  0  0
  127.6087  131.2799  158.8268 H   0  0  0  0  0  0  0  0  0  0  0  0
  128.8533  130.0309  158.5835 H   0  0  0  0  0  0  0  0  0  0  0  0
  128.6577  130.7934  160.1800 H   0  0  0  0  0  0  0  0  0  0  0  0
  132.1687  135.3765  158.6682 H   0  0  0  0  0  0  0  0  0  0  0  0
  131.7840  133.5688  161.5575 H   0  0  0  0  0  0  0  0  0  0  0  0
  133.1417  134.7079  161.3930 H   0  0  0  0  0  0  0  0  0  0  0  0
  131.8809  134.9969  162.6157 H   0  0  0  0  0  0  0  0  0  0  0  0
  133.7249  136.4857  160.1834 H   0  0  0  0  0  0  0  0  0  0  0  0
  134.3912  138.8513  160.3090 H   0  0  0  0  0  0  0  0  0  0  0  0
  132.7263  140.5760  160.8669 H   0  0  0  0  0  0  0  0  0  0  0  0
  130.3872  139.9401  161.2913 H   0  0  0  0  0  0  0  0  0  0  0  0
  129.0072  137.6810  162.0900 H   0  0  0  0  0  0  0  0  0  0  0  0
  129.7130  137.7817  158.6217 H   0  0  0  0  0  0  0  0  0  0  0  0
  128.4078  136.6350  156.8789 H   0  0  0  0  0  0  0  0  0  0  0  0
  126.6265  135.0579  157.5096 H   0  0  0  0  0  0  0  0  0  0  0  0
  126.6282  132.3206  160.2578 H   0  0  0  0  0  0  0  0  0  0  0  0
  127.3069  133.5317  161.3961 H   0  0  0  0  0  0  0  0  0  0  0  0
  125.6324  132.6908  162.8320 H   0  0  0  0  0  0  0  0  0  0  0  0
  124.6133  132.1325  161.4698 H   0  0  0  0  0  0  0  0  0  0  0  0
  124.4832  135.8961  160.6581 H   0  0  0  0  0  0  0  0  0  0  0  0
  127.4559  135.7512  161.6344 H   0  0  0  0  0  0  0  0  0  0  0  0
  129.3105  131.5385  155.7143 H   0  0  0  0  0  0  0  0  0  0  0  0
  131.0462  131.1564  155.8117 H   0  0  0  0  0  0  0  0  0  0  0  0
  129.8685  130.1851  156.7270 H   0  0  0  0  0  0  0  0  0  0  0  0
  1  2  1  0
  1 34  1  0
  1 35  1  0
  1 36  1  0
  2 32  2  0
  2  3  1  0
  3  4  1  0
  3  5  1  0
  5  6  1  0
  5 30  2  0
  6  7  1  0
  6 37  1  0
  7  8  1  1
  7  9  1  0
  7 10  1  0
  9 38  1  0
  9 39  1  0
  9 40  1  0
 10 15  1  0
 10 11  2  0
 11 12  1  0
 11 41  1  0
 12 13  2  0
 12 42  1  0
 13 14  1  0
 13 43  1  0
 14 15  2  0
 14 44  1  0
 15 16  1  0
 16 17  1  0
 16 45  1  0
 17 29  1  0
 17 18  2  0
 18 19  1  0
 18 46  1  0
 19 20  2  0
 19 47  1  0
 20 21  1  0
 20 48  1  0
 21 22  1  0
 21 29  2  0
 22 23  1  6
 22 28  1  0
 22 24  1  0
 24 25  1  0
 24 49  1  0
 24 50  1  0
 25 26  1  0
 25 51  1  0
 25 52  1  0
 26 27  2  0
 26 28  1  0
 28 53  1  0
 29 54  1  0
 30 31  1  0
 30 32  1  0
 32 33  1  0
 33 55  1  0
 33 56  1  0
 33 57  1  0
M  CHG  1  30   1
M  END
>  <DOCK_score>  (1) 
-55.286465

>  <SMILES>  (1) 
Cc1[nH]c(N[C@@H](C)c2ccccc2Nc2cccc([C@H]3CCC(=O)N3)c2)[nH+]c1C

$$$$
