Cc1cccc(N2CC[NH+]([C@H](c3ccccc3)c3cnn4ccccc34)CC2)c1C
     RDKit          3D

 59 63  0  0  1  0  0  0  0  0999 V2000
  136.3799  141.3026  162.8323 C   0  0  0  0  0  0  0  0  0  0  0  0
  135.7239  140.6928  161.6204 C   0  0  0  0  0  0  0  0  0  0  0  0
  136.0523  141.1461  160.3556 C   0  0  0  0  0  0  0  0  0  0  0  0
  135.4523  140.5897  159.2410 C   0  0  0  0  0  0  0  0  0  0  0  0
  134.5231  139.5784  159.3874 C   0  0  0  0  0  0  0  0  0  0  0  0
  134.1911  139.1208  160.6560 C   0  0  0  0  0  0  0  0  0  0  0  0
  133.2514  138.0986  160.8077 N   0  0  0  0  0  0  0  0  0  0  0  0
  131.9288  138.5234  160.3277 C   0  0  0  0  0  0  0  0  0  0  0  0
  130.9178  137.3996  160.5657 C   0  0  0  0  0  0  0  0  0  0  0  0
  131.3518  136.1913  159.8521 N   0  0  0  0  0  0  0  0  0  0  0  0
  131.4217  136.3905  158.8655 H   0  0  0  0  0  0  0  0  0  0  0  0
  130.3718  135.1180  160.0665 C   0  0  2  0  0  0  0  0  0  0  0  0
  130.2957  134.9031  161.1324 H   0  0  0  0  0  0  0  0  0  0  0  0
  130.8168  133.8782  159.3345 C   0  0  0  0  0  0  0  0  0  0  0  0
  130.4131  133.6633  158.0300 C   0  0  0  0  0  0  0  0  0  0  0  0
  130.8249  132.5281  157.3572 C   0  0  0  0  0  0  0  0  0  0  0  0
  131.6335  131.6035  157.9918 C   0  0  0  0  0  0  0  0  0  0  0  0
  132.0321  131.8156  159.2982 C   0  0  0  0  0  0  0  0  0  0  0  0
  131.6239  132.9529  159.9696 C   0  0  0  0  0  0  0  0  0  0  0  0
  129.0271  135.5540  159.5445 C   0  0  0  0  0  0  0  0  0  0  0  0
  128.8010  136.4259  158.4919 C   0  0  0  0  0  0  0  0  0  0  0  0
  127.5046  136.5664  158.3230 N   0  0  0  0  0  0  0  0  0  0  0  0
  126.8357  135.7887  159.2765 N   0  0  0  0  0  0  0  0  0  0  0  0
  125.5104  135.5860  159.5345 C   0  0  0  0  0  0  0  0  0  0  0  0
  125.1214  134.7681  160.5348 C   0  0  0  0  0  0  0  0  0  0  0  0
  126.0759  134.1108  161.3284 C   0  0  0  0  0  0  0  0  0  0  0  0
  127.4006  134.3028  161.0834 C   0  0  0  0  0  0  0  0  0  0  0  0
  127.7887  135.1595  160.0357 C   0  0  0  0  0  0  0  0  0  0  0  0
  132.6627  135.7651  160.3595 C   0  0  0  0  0  0  0  0  0  0  0  0
  133.6881  136.8753  160.1197 C   0  0  0  0  0  0  0  0  0  0  0  0
  134.7915  139.6860  161.7742 C   0  0  0  0  0  0  0  0  0  0  0  0
  134.4298  139.1969  163.1530 C   0  0  0  0  0  0  0  0  0  0  0  0
  135.7865  142.1483  163.1798 H   0  0  0  0  0  0  0  0  0  0  0  0
  136.4468  140.5559  163.6236 H   0  0  0  0  0  0  0  0  0  0  0  0
  137.3812  141.6446  162.5700 H   0  0  0  0  0  0  0  0  0  0  0  0
  136.7786  141.9368  160.2383 H   0  0  0  0  0  0  0  0  0  0  0  0
  135.7110  140.9460  158.2549 H   0  0  0  0  0  0  0  0  0  0  0  0
  134.0549  139.1442  158.5163 H   0  0  0  0  0  0  0  0  0  0  0  0
  131.9826  138.7446  159.2617 H   0  0  0  0  0  0  0  0  0  0  0  0
  131.6148  139.4158  160.8692 H   0  0  0  0  0  0  0  0  0  0  0  0
  129.9392  137.7073  160.1975 H   0  0  0  0  0  0  0  0  0  0  0  0
  130.8543  137.1881  161.6331 H   0  0  0  0  0  0  0  0  0  0  0  0
  129.7789  134.3840  157.5354 H   0  0  0  0  0  0  0  0  0  0  0  0
  130.5131  132.3624  156.3364 H   0  0  0  0  0  0  0  0  0  0  0  0
  131.9518  130.7150  157.4669 H   0  0  0  0  0  0  0  0  0  0  0  0
  132.6632  131.0928  159.7940 H   0  0  0  0  0  0  0  0  0  0  0  0
  131.9359  133.1187  160.9901 H   0  0  0  0  0  0  0  0  0  0  0  0
  129.5661  136.9101  157.9033 H   0  0  0  0  0  0  0  0  0  0  0  0
  124.7659  136.0855  158.9322 H   0  0  0  0  0  0  0  0  0  0  0  0
  124.0692  134.6177  160.7263 H   0  0  0  0  0  0  0  0  0  0  0  0
  125.7606  133.4567  162.1279 H   0  0  0  0  0  0  0  0  0  0  0  0
  128.1455  133.8036  161.6853 H   0  0  0  0  0  0  0  0  0  0  0  0
  132.5902  135.5619  161.4279 H   0  0  0  0  0  0  0  0  0  0  0  0
  132.9775  134.8610  159.8383 H   0  0  0  0  0  0  0  0  0  0  0  0
  133.7708  137.0694  159.0503 H   0  0  0  0  0  0  0  0  0  0  0  0
  134.6577  136.5653  160.5095 H   0  0  0  0  0  0  0  0  0  0  0  0
  135.0945  138.3804  163.4347 H   0  0  0  0  0  0  0  0  0  0  0  0
  134.5344  140.0136  163.8672 H   0  0  0  0  0  0  0  0  0  0  0  0
  133.3988  138.8431  163.1541 H   0  0  0  0  0  0  0  0  0  0  0  0
  1  2  1  0
  1 33  1  0
  1 34  1  0
  1 35  1  0
  2 31  2  0
  2  3  1  0
  3  4  2  0
  3 36  1  0
  4  5  1  0
  4 37  1  0
  5  6  2  0
  5 38  1  0
  6  7  1  0
  6 31  1  0
  7 30  1  0
  7  8  1  0
  8  9  1  0
  8 39  1  0
  8 40  1  0
  9 10  1  0
  9 41  1  0
  9 42  1  0
 10 11  1  0
 10 12  1  0
 10 29  1  0
 12 13  1  1
 12 14  1  0
 12 20  1  0
 14 19  1  0
 14 15  2  0
 15 16  1  0
 15 43  1  0
 16 17  2  0
 16 44  1  0
 17 18  1  0
 17 45  1  0
 18 19  2  0
 18 46  1  0
 19 47  1  0
 20 28  2  0
 20 21  1  0
 21 22  2  0
 21 48  1  0
 22 23  1  0
 23 28  1  0
 23 24  1  0
 24 25  2  0
 24 49  1  0
 25 26  1  0
 25 50  1  0
 26 27  2  0
 26 51  1  0
 27 28  1  0
 27 52  1  0
 29 30  1  0
 29 53  1  0
 29 54  1  0
 30 55  1  0
 30 56  1  0
 31 32  1  0
 32 57  1  0
 32 58  1  0
 32 59  1  0
M  CHG  1  10   1
M  END
>  <DOCK_score>  (1) 
-56.301949

>  <SMILES>  (1) 
Cc1cccc(N2CC[NH+]([C@H](c3ccccc3)c3cnn4ccccc34)CC2)c1C

$$$$
