CCc1ccc([C@@H](C=C2CCSCC2)Nc2[nH]cc(-c3ccc(N)cc3)[nH+]2)cc1
     RDKit          3D

 58 61  0  0  1  0  0  0  0  0999 V2000
  124.8597  132.3194  161.7246 C   0  0  0  0  0  0  0  0  0  0  0  0
  124.9290  133.8183  162.0241 C   0  0  0  0  0  0  0  0  0  0  0  0
  126.2946  134.3408  161.6594 C   0  0  0  0  0  0  0  0  0  0  0  0
  126.5337  134.8196  160.3849 C   0  0  0  0  0  0  0  0  0  0  0  0
  127.7863  135.2989  160.0503 C   0  0  0  0  0  0  0  0  0  0  0  0
  128.7997  135.3003  160.9905 C   0  0  0  0  0  0  0  0  0  0  0  0
  130.1653  135.8229  160.6259 C   0  0  1  0  0  0  0  0  0  0  0  0
  130.2145  136.8908  160.8384 H   0  0  0  0  0  0  0  0  0  0  0  0
  131.2120  135.1009  161.4347 C   0  0  0  0  0  0  0  0  0  0  0  0
  132.4788  135.3966  161.2798 C   0  0  0  0  0  0  0  0  0  0  0  0
  132.8741  136.5846  160.4420 C   0  0  0  0  0  0  0  0  0  0  0  0
  133.6048  137.6058  161.3283 C   0  0  0  0  0  0  0  0  0  0  0  0
  135.0535  136.8076  162.0782 S   0  0  0  0  0  0  0  0  0  0  0  0
  134.3196  135.3883  162.9419 C   0  0  0  0  0  0  0  0  0  0  0  0
  133.5334  134.5432  161.9352 C   0  0  0  0  0  0  0  0  0  0  0  0
  130.4095  135.5973  159.1990 N   0  0  0  0  0  0  0  0  0  0  0  0
  130.3970  134.3101  158.6896 C   0  0  0  0  0  0  0  0  0  0  0  0
  130.1652  133.1765  159.4057 N   0  0  0  0  0  0  0  0  0  0  0  0
  129.9813  133.1252  160.3567 H   0  0  0  0  0  0  0  0  0  0  0  0
  130.2404  132.1174  158.5323 C   0  0  0  0  0  0  0  0  0  0  0  0
  130.5155  132.6349  157.3097 C   0  0  0  0  0  0  0  0  0  0  0  0
  130.6868  131.8639  156.0539 C   0  0  0  0  0  0  0  0  0  0  0  0
  130.3457  132.4380  154.8302 C   0  0  0  0  0  0  0  0  0  0  0  0
  130.5111  131.7216  153.6637 C   0  0  0  0  0  0  0  0  0  0  0  0
  131.0067  130.4238  153.7083 C   0  0  0  0  0  0  0  0  0  0  0  0
  131.1684  129.6980  152.5257 N   0  0  0  0  0  0  0  0  0  0  0  0
  131.3420  129.8473  154.9277 C   0  0  0  0  0  0  0  0  0  0  0  0
  131.1837  130.5621  156.0962 C   0  0  0  0  0  0  0  0  0  0  0  0
  130.6008  133.9828  157.4368 N   0  0  0  0  0  0  0  0  0  0  0  0
  130.7850  134.6050  156.7158 H   0  0  0  0  0  0  0  0  0  0  0  0
  128.5620  134.8170  162.2637 C   0  0  0  0  0  0  0  0  0  0  0  0
  127.3080  134.3418  162.5994 C   0  0  0  0  0  0  0  0  0  0  0  0
  125.0411  132.1522  160.6629 H   0  0  0  0  0  0  0  0  0  0  0  0
  125.6168  131.7967  162.3092 H   0  0  0  0  0  0  0  0  0  0  0  0
  123.8719  131.9415  161.9883 H   0  0  0  0  0  0  0  0  0  0  0  0
  124.7477  133.9853  163.0858 H   0  0  0  0  0  0  0  0  0  0  0  0
  124.1719  134.3409  161.4395 H   0  0  0  0  0  0  0  0  0  0  0  0
  125.7419  134.8189  159.6503 H   0  0  0  0  0  0  0  0  0  0  0  0
  127.9734  135.6726  159.0544 H   0  0  0  0  0  0  0  0  0  0  0  0
  130.9177  134.3397  162.1423 H   0  0  0  0  0  0  0  0  0  0  0  0
  133.5343  136.2589  159.6381 H   0  0  0  0  0  0  0  0  0  0  0  0
  131.9813  137.0425  160.0163 H   0  0  0  0  0  0  0  0  0  0  0  0
  132.9345  137.9564  162.1131 H   0  0  0  0  0  0  0  0  0  0  0  0
  133.9279  138.4510  160.7203 H   0  0  0  0  0  0  0  0  0  0  0  0
  133.6476  135.7443  163.7226 H   0  0  0  0  0  0  0  0  0  0  0  0
  135.1090  134.7833  163.3879 H   0  0  0  0  0  0  0  0  0  0  0  0
  133.0570  133.7108  162.4532 H   0  0  0  0  0  0  0  0  0  0  0  0
  134.2127  134.1574  161.1751 H   0  0  0  0  0  0  0  0  0  0  0  0
  130.5801  136.3499  158.6113 H   0  0  0  0  0  0  0  0  0  0  0  0
  130.1060  131.0734  158.7739 H   0  0  0  0  0  0  0  0  0  0  0  0
  129.9561  133.4447  154.7955 H   0  0  0  0  0  0  0  0  0  0  0  0
  130.2508  132.1675  152.7150 H   0  0  0  0  0  0  0  0  0  0  0  0
  131.5145  128.7924  152.5560 H   0  0  0  0  0  0  0  0  0  0  0  0
  130.9346  130.0996  151.6743 H   0  0  0  0  0  0  0  0  0  0  0  0
  131.7266  128.8387  154.9601 H   0  0  0  0  0  0  0  0  0  0  0  0
  131.4448  130.1139  157.0435 H   0  0  0  0  0  0  0  0  0  0  0  0
  129.3548  134.8140  162.9970 H   0  0  0  0  0  0  0  0  0  0  0  0
  127.1211  133.9679  163.5953 H   0  0  0  0  0  0  0  0  0  0  0  0
  1  2  1  0
  1 33  1  0
  1 34  1  0
  1 35  1  0
  2  3  1  0
  2 36  1  0
  2 37  1  0
  3 32  2  0
  3  4  1  0
  4  5  2  0
  4 38  1  0
  5  6  1  0
  5 39  1  0
  6  7  1  0
  6 31  2  0
  7  8  1  6
  7  9  1  0
  7 16  1  0
  9 10  2  0
  9 40  1  0
 10 15  1  0
 10 11  1  0
 11 12  1  0
 11 41  1  0
 11 42  1  0
 12 13  1  0
 12 43  1  0
 12 44  1  0
 13 14  1  0
 14 15  1  0
 14 45  1  0
 14 46  1  0
 15 47  1  0
 15 48  1  0
 16 49  1  0
 17 16  1  0
 17 29  2  0
 17 18  1  0
 18 19  1  0
 18 20  1  0
 20 21  2  0
 20 50  1  0
 21 22  1  0
 21 29  1  0
 22 28  1  0
 22 23  2  0
 23 24  1  0
 23 51  1  0
 24 25  2  0
 24 52  1  0
 25 26  1  0
 25 27  1  0
 26 53  1  0
 26 54  1  0
 27 28  2  0
 27 55  1  0
 28 56  1  0
 29 30  1  0
 31 32  1  0
 31 57  1  0
 32 58  1  0
M  CHG  1  29   1
M  END
>  <DOCK_score>  (1) 
-56.090576

>  <SMILES>  (1) 
CCc1ccc([C@@H](C=C2CCSCC2)Nc2[nH]cc(-c3ccc(N)cc3)[nH+]2)cc1

$$$$
