Cc1c[nH]c(Nc2ccc(Nc3ccc(Cc4ccccc4)cc3)cc2)[nH+]1
     RDKit          3D

 50 53  0  0  1  0  0  0  0  0999 V2000
  130.6993  131.9361  155.2505 C   0  0  0  0  0  0  0  0  0  0  0  0
  130.0279  132.7063  156.3582 C   0  0  0  0  0  0  0  0  0  0  0  0
  129.1050  132.2216  157.2065 C   0  0  0  0  0  0  0  0  0  0  0  0
  128.7594  133.2495  158.0538 N   0  0  0  0  0  0  0  0  0  0  0  0
  128.1143  133.2089  158.7771 H   0  0  0  0  0  0  0  0  0  0  0  0
  129.4938  134.3338  157.6843 C   0  0  0  0  0  0  0  0  0  0  0  0
  129.4505  135.5834  158.2812 N   0  0  0  0  0  0  0  0  0  0  0  0
  128.5944  135.8122  159.3653 C   0  0  0  0  0  0  0  0  0  0  0  0
  129.1160  136.2021  160.5919 C   0  0  0  0  0  0  0  0  0  0  0  0
  128.2714  136.4331  161.6593 C   0  0  0  0  0  0  0  0  0  0  0  0
  126.9014  136.2649  161.5099 C   0  0  0  0  0  0  0  0  0  0  0  0
  126.0451  136.4927  162.5933 N   0  0  0  0  0  0  0  0  0  0  0  0
  126.4952  136.2731  163.8973 C   0  0  0  0  0  0  0  0  0  0  0  0
  126.5182  137.3191  164.8114 C   0  0  0  0  0  0  0  0  0  0  0  0
  126.9590  137.0971  166.1012 C   0  0  0  0  0  0  0  0  0  0  0  0
  127.3874  135.8381  166.4802 C   0  0  0  0  0  0  0  0  0  0  0  0
  127.8729  135.6012  167.8870 C   0  0  0  0  0  0  0  0  0  0  0  0
  126.9269  136.2540  168.8616 C   0  0  0  0  0  0  0  0  0  0  0  0
  127.1386  137.5603  169.2612 C   0  0  0  0  0  0  0  0  0  0  0  0
  126.2680  138.1605  170.1514 C   0  0  0  0  0  0  0  0  0  0  0  0
  125.1913  137.4511  170.6500 C   0  0  0  0  0  0  0  0  0  0  0  0
  124.9828  136.1430  170.2549 C   0  0  0  0  0  0  0  0  0  0  0  0
  125.8504  135.5445  169.3606 C   0  0  0  0  0  0  0  0  0  0  0  0
  127.3706  134.7959  165.5715 C   0  0  0  0  0  0  0  0  0  0  0  0
  126.9263  135.0093  164.2815 C   0  0  0  0  0  0  0  0  0  0  0  0
  126.3797  135.8688  160.2844 C   0  0  0  0  0  0  0  0  0  0  0  0
  127.2239  135.6437  159.2154 C   0  0  0  0  0  0  0  0  0  0  0  0
  130.2536  133.9935  156.6701 N   0  0  0  0  0  0  0  0  0  0  0  0
  130.8785  134.5798  156.2155 H   0  0  0  0  0  0  0  0  0  0  0  0
  130.1163  132.0339  154.3347 H   0  0  0  0  0  0  0  0  0  0  0  0
  131.7013  132.3330  155.0875 H   0  0  0  0  0  0  0  0  0  0  0  0
  130.7659  130.8842  155.5281 H   0  0  0  0  0  0  0  0  0  0  0  0
  128.7102  131.2164  157.2209 H   0  0  0  0  0  0  0  0  0  0  0  0
  130.0133  136.2997  157.9479 H   0  0  0  0  0  0  0  0  0  0  0  0
  130.1822  136.3284  160.7098 H   0  0  0  0  0  0  0  0  0  0  0  0
  128.6767  136.7405  162.6121 H   0  0  0  0  0  0  0  0  0  0  0  0
  125.1394  136.8038  162.4389 H   0  0  0  0  0  0  0  0  0  0  0  0
  126.1881  138.3036  164.5148 H   0  0  0  0  0  0  0  0  0  0  0  0
  126.9734  137.9090  166.8134 H   0  0  0  0  0  0  0  0  0  0  0  0
  127.9132  134.5295  168.0820 H   0  0  0  0  0  0  0  0  0  0  0  0
  128.8684  136.0295  168.0047 H   0  0  0  0  0  0  0  0  0  0  0  0
  127.9821  138.1130  168.8749 H   0  0  0  0  0  0  0  0  0  0  0  0
  126.4312  139.1824  170.4604 H   0  0  0  0  0  0  0  0  0  0  0  0
  124.5133  137.9190  171.3484 H   0  0  0  0  0  0  0  0  0  0  0  0
  124.1419  135.5887  170.6447 H   0  0  0  0  0  0  0  0  0  0  0  0
  125.6875  134.5224  169.0519 H   0  0  0  0  0  0  0  0  0  0  0  0
  127.7059  133.8138  165.8708 H   0  0  0  0  0  0  0  0  0  0  0  0
  126.9135  134.1949  163.5723 H   0  0  0  0  0  0  0  0  0  0  0  0
  125.3140  135.7377  160.1678 H   0  0  0  0  0  0  0  0  0  0  0  0
  126.8186  135.3362  158.2627 H   0  0  0  0  0  0  0  0  0  0  0  0
  1  2  1  0
  1 30  1  0
  1 31  1  0
  1 32  1  0
  2 28  1  0
  2  3  2  0
  3  4  1  0
  3 33  1  0
  4  5  1  0
  4  6  1  0
  6  7  1  0
  6 28  2  0
  7  8  1  0
  7 34  1  0
  8 27  1  0
  8  9  2  0
  9 10  1  0
  9 35  1  0
 10 11  2  0
 10 36  1  0
 11 12  1  0
 11 26  1  0
 12 13  1  0
 12 37  1  0
 13 25  1  0
 13 14  2  0
 14 15  1  0
 14 38  1  0
 15 16  2  0
 15 39  1  0
 16 17  1  0
 16 24  1  0
 17 18  1  0
 17 40  1  0
 17 41  1  0
 18 23  1  0
 18 19  2  0
 19 20  1  0
 19 42  1  0
 20 21  2  0
 20 43  1  0
 21 22  1  0
 21 44  1  0
 22 23  2  0
 22 45  1  0
 23 46  1  0
 24 25  2  0
 24 47  1  0
 25 48  1  0
 26 27  2  0
 26 49  1  0
 27 50  1  0
 28 29  1  0
M  CHG  1  28   1
M  END
>  <DOCK_score>  (1) 
-53.025131

>  <SMILES>  (1) 
Cc1c[nH]c(Nc2ccc(Nc3ccc(Cc4ccccc4)cc3)cc2)[nH+]1

$$$$
