CCC=C[C@H](Cc1ccc(C)cc1)Nc1[nH]cc(-c2ccc(CC)cc2)[nH+]1
     RDKit          3D

 57 59  0  0  1  0  0  0  0  0999 V2000
  126.1898  133.6206  159.5023 C   0  0  0  0  0  0  0  0  0  0  0  0
  126.5205  135.0294  159.9990 C   0  0  0  0  0  0  0  0  0  0  0  0
  128.0024  135.2720  159.8715 C   0  0  0  0  0  0  0  0  0  0  0  0
  128.8031  134.9712  160.8637 C   0  0  0  0  0  0  0  0  0  0  0  0
  130.2851  135.2137  160.7363 C   0  0  2  0  0  0  0  0  0  0  0  0
  130.8259  134.4809  161.3352 H   0  0  0  0  0  0  0  0  0  0  0  0
  130.6158  136.6226  161.2331 C   0  0  0  0  0  0  0  0  0  0  0  0
  132.0820  136.7043  161.5719 C   0  0  0  0  0  0  0  0  0  0  0  0
  132.9951  137.0810  160.6048 C   0  0  0  0  0  0  0  0  0  0  0  0
  134.3393  137.1609  160.9172 C   0  0  0  0  0  0  0  0  0  0  0  0
  134.7719  136.8532  162.1935 C   0  0  0  0  0  0  0  0  0  0  0  0
  136.2380  136.9342  162.5323 C   0  0  0  0  0  0  0  0  0  0  0  0
  133.8594  136.4713  163.1592 C   0  0  0  0  0  0  0  0  0  0  0  0
  132.5145  136.3968  162.8484 C   0  0  0  0  0  0  0  0  0  0  0  0
  130.6819  135.0853  159.3319 N   0  0  0  0  0  0  0  0  0  0  0  0
  130.4797  133.8909  158.6619 C   0  0  0  0  0  0  0  0  0  0  0  0
  129.9295  132.7661  159.1952 N   0  0  0  0  0  0  0  0  0  0  0  0
  129.6110  132.6581  160.1050 H   0  0  0  0  0  0  0  0  0  0  0  0
  129.9080  131.8121  158.2071 C   0  0  0  0  0  0  0  0  0  0  0  0
  130.4452  132.3808  157.0993 C   0  0  0  0  0  0  0  0  0  0  0  0
  130.6281  131.7237  155.7821 C   0  0  0  0  0  0  0  0  0  0  0  0
  130.0079  132.2455  154.6481 C   0  0  0  0  0  0  0  0  0  0  0  0
  130.1821  131.6303  153.4251 C   0  0  0  0  0  0  0  0  0  0  0  0
  130.9705  130.4977  153.3235 C   0  0  0  0  0  0  0  0  0  0  0  0
  131.1569  129.8303  151.9853 C   0  0  0  0  0  0  0  0  0  0  0  0
  130.0605  128.7831  151.7804 C   0  0  0  0  0  0  0  0  0  0  0  0
  131.5837  129.9727  154.4463 C   0  0  0  0  0  0  0  0  0  0  0  0
  131.4212  130.5828  155.6735 C   0  0  0  0  0  0  0  0  0  0  0  0
  130.7913  133.6551  157.4108 N   0  0  0  0  0  0  0  0  0  0  0  0
  131.2018  134.2908  156.8040 H   0  0  0  0  0  0  0  0  0  0  0  0
  126.4849  133.5251  158.4574 H   0  0  0  0  0  0  0  0  0  0  0  0
  126.7307  132.8879  160.1011 H   0  0  0  0  0  0  0  0  0  0  0  0
  125.1179  133.4452  159.5945 H   0  0  0  0  0  0  0  0  0  0  0  0
  126.2254  135.1250  161.0438 H   0  0  0  0  0  0  0  0  0  0  0  0
  125.9796  135.7622  159.4002 H   0  0  0  0  0  0  0  0  0  0  0  0
  128.4043  135.6937  158.9620 H   0  0  0  0  0  0  0  0  0  0  0  0
  128.4012  134.5495  161.7733 H   0  0  0  0  0  0  0  0  0  0  0  0
  130.3824  137.3470  160.4528 H   0  0  0  0  0  0  0  0  0  0  0  0
  130.0247  136.8426  162.1220 H   0  0  0  0  0  0  0  0  0  0  0  0
  132.6576  137.3169  159.6063 H   0  0  0  0  0  0  0  0  0  0  0  0
  135.0521  137.4595  160.1627 H   0  0  0  0  0  0  0  0  0  0  0  0
  136.7098  135.9712  162.3372 H   0  0  0  0  0  0  0  0  0  0  0  0
  136.7107  137.7013  161.9189 H   0  0  0  0  0  0  0  0  0  0  0  0
  136.3539  137.1889  163.5858 H   0  0  0  0  0  0  0  0  0  0  0  0
  134.1974  136.2307  164.1564 H   0  0  0  0  0  0  0  0  0  0  0  0
  131.8017  136.0981  163.6029 H   0  0  0  0  0  0  0  0  0  0  0  0
  131.0863  135.8373  158.8716 H   0  0  0  0  0  0  0  0  0  0  0  0
  129.5345  130.8027  158.2953 H   0  0  0  0  0  0  0  0  0  0  0  0
  129.3920  133.1291  154.7264 H   0  0  0  0  0  0  0  0  0  0  0  0
  129.7016  132.0335  152.5457 H   0  0  0  0  0  0  0  0  0  0  0  0
  132.1326  129.3469  151.9530 H   0  0  0  0  0  0  0  0  0  0  0  0
  131.0959  130.5790  151.1944 H   0  0  0  0  0  0  0  0  0  0  0  0
  130.1953  128.3005  150.8124 H   0  0  0  0  0  0  0  0  0  0  0  0
  130.1210  128.0350  152.5709 H   0  0  0  0  0  0  0  0  0  0  0  0
  129.0845  129.2672  151.8124 H   0  0  0  0  0  0  0  0  0  0  0  0
  132.1941  129.0859  154.3619 H   0  0  0  0  0  0  0  0  0  0  0  0
  131.9043  130.1745  156.5490 H   0  0  0  0  0  0  0  0  0  0  0  0
  1  2  1  0
  1 31  1  0
  1 32  1  0
  1 33  1  0
  2  3  1  0
  2 34  1  0
  2 35  1  0
  3  4  2  0
  3 36  1  0
  4  5  1  0
  4 37  1  0
  5  6  1  1
  5  7  1  0
  5 15  1  0
  7  8  1  0
  7 38  1  0
  7 39  1  0
  8 14  1  0
  8  9  2  0
  9 10  1  0
  9 40  1  0
 10 11  2  0
 10 41  1  0
 11 12  1  0
 11 13  1  0
 12 42  1  0
 12 43  1  0
 12 44  1  0
 13 14  2  0
 13 45  1  0
 14 46  1  0
 15 47  1  0
 16 15  1  0
 16 29  2  0
 16 17  1  0
 17 18  1  0
 17 19  1  0
 19 20  2  0
 19 48  1  0
 20 21  1  0
 20 29  1  0
 21 28  1  0
 21 22  2  0
 22 23  1  0
 22 49  1  0
 23 24  2  0
 23 50  1  0
 24 25  1  0
 24 27  1  0
 25 26  1  0
 25 51  1  0
 25 52  1  0
 26 53  1  0
 26 54  1  0
 26 55  1  0
 27 28  2  0
 27 56  1  0
 28 57  1  0
 29 30  1  0
M  CHG  1  29   1
M  END
>  <DOCK_score>  (1) 
-60.187622

>  <SMILES>  (1) 
CCC=C[C@H](Cc1ccc(C)cc1)Nc1[nH]cc(-c2ccc(CC)cc2)[nH+]1

$$$$
