CCc1ccc(-c2c[nH]c(NCC3=C(C)CCC3)[nH+]2)cc1
     RDKit          3D

 45 47  0  0  1  0  0  0  0  0999 V2000
  130.1515  128.6947  151.4478 C   0  0  0  0  0  0  0  0  0  0  0  0
  131.3219  129.6052  151.8232 C   0  0  0  0  0  0  0  0  0  0  0  0
  131.0031  130.3314  153.1046 C   0  0  0  0  0  0  0  0  0  0  0  0
  131.3489  129.7707  154.3202 C   0  0  0  0  0  0  0  0  0  0  0  0
  131.0630  130.4343  155.4959 C   0  0  0  0  0  0  0  0  0  0  0  0
  130.4151  131.6677  155.4569 C   0  0  0  0  0  0  0  0  0  0  0  0
  130.1007  132.3838  156.7173 C   0  0  0  0  0  0  0  0  0  0  0  0
  129.3139  131.9242  157.7216 C   0  0  0  0  0  0  0  0  0  0  0  0
  129.2955  132.8974  158.6909 N   0  0  0  0  0  0  0  0  0  0  0  0
  128.8191  132.8586  159.5349 H   0  0  0  0  0  0  0  0  0  0  0  0
  130.0656  133.9279  158.2465 C   0  0  0  0  0  0  0  0  0  0  0  0
  130.3027  135.1094  158.9278 N   0  0  0  0  0  0  0  0  0  0  0  0
  129.7008  135.3289  160.2453 C   0  0  0  0  0  0  0  0  0  0  0  0
  128.1995  135.2715  160.1276 C   0  0  0  0  0  0  0  0  0  0  0  0
  127.5289  135.6126  159.0610 C   0  0  0  0  0  0  0  0  0  0  0  0
  128.1544  136.1151  157.7853 C   0  0  0  0  0  0  0  0  0  0  0  0
  126.0435  135.4343  159.2720 C   0  0  0  0  0  0  0  0  0  0  0  0
  125.9282  134.5318  160.5224 C   0  0  0  0  0  0  0  0  0  0  0  0
  127.2723  134.8181  161.2312 C   0  0  0  0  0  0  0  0  0  0  0  0
  130.5451  133.6172  157.0669 N   0  0  0  0  0  0  0  0  0  0  0  0
  131.1246  134.1796  156.5295 H   0  0  0  0  0  0  0  0  0  0  0  0
  130.0639  132.2261  154.2290 C   0  0  0  0  0  0  0  0  0  0  0  0
  130.3592  131.5556  153.0595 C   0  0  0  0  0  0  0  0  0  0  0  0
  130.3828  128.1687  150.5216 H   0  0  0  0  0  0  0  0  0  0  0  0
  129.9839  127.9703  152.2449 H   0  0  0  0  0  0  0  0  0  0  0  0
  129.2534  129.2966  151.3094 H   0  0  0  0  0  0  0  0  0  0  0  0
  132.2207  129.0027  151.9621 H   0  0  0  0  0  0  0  0  0  0  0  0
  131.4901  130.3291  151.0266 H   0  0  0  0  0  0  0  0  0  0  0  0
  131.8477  128.8132  154.3493 H   0  0  0  0  0  0  0  0  0  0  0  0
  131.3377  129.9973  156.4445 H   0  0  0  0  0  0  0  0  0  0  0  0
  128.8017  130.9740  157.7541 H   0  0  0  0  0  0  0  0  0  0  0  0
  130.8674  135.7921  158.5327 H   0  0  0  0  0  0  0  0  0  0  0  0
  130.0410  134.5552  160.9336 H   0  0  0  0  0  0  0  0  0  0  0  0
  129.9986  136.3072  160.6224 H   0  0  0  0  0  0  0  0  0  0  0  0
  128.3693  135.2717  157.1291 H   0  0  0  0  0  0  0  0  0  0  0  0
  127.4653  136.7969  157.2868 H   0  0  0  0  0  0  0  0  0  0  0  0
  129.0809  136.6403  158.0173 H   0  0  0  0  0  0  0  0  0  0  0  0
  125.5905  134.9467  158.4088 H   0  0  0  0  0  0  0  0  0  0  0  0
  125.5709  136.3993  159.4554 H   0  0  0  0  0  0  0  0  0  0  0  0
  125.8499  133.4816  160.2412 H   0  0  0  0  0  0  0  0  0  0  0  0
  125.0856  134.8315  161.1458 H   0  0  0  0  0  0  0  0  0  0  0  0
  127.6550  133.9114  161.7000 H   0  0  0  0  0  0  0  0  0  0  0  0
  127.1500  135.6074  161.9727 H   0  0  0  0  0  0  0  0  0  0  0  0
  129.5614  133.1814  154.1930 H   0  0  0  0  0  0  0  0  0  0  0  0
  130.0876  131.9872  152.1076 H   0  0  0  0  0  0  0  0  0  0  0  0
  1  2  1  0
  1 24  1  0
  1 25  1  0
  1 26  1  0
  2  3  1  0
  2 27  1  0
  2 28  1  0
  3 23  2  0
  3  4  1  0
  4  5  2  0
  4 29  1  0
  5  6  1  0
  5 30  1  0
  6  7  1  0
  6 22  2  0
  7 20  1  0
  7  8  2  0
  8  9  1  0
  8 31  1  0
  9 10  1  0
  9 11  1  0
 11 12  1  0
 11 20  2  0
 12 13  1  0
 12 32  1  0
 13 14  1  0
 13 33  1  0
 13 34  1  0
 14 19  1  0
 14 15  2  0
 15 16  1  0
 15 17  1  0
 16 35  1  0
 16 36  1  0
 16 37  1  0
 17 18  1  0
 17 38  1  0
 17 39  1  0
 18 19  1  0
 18 40  1  0
 18 41  1  0
 19 42  1  0
 19 43  1  0
 20 21  1  0
 22 23  1  0
 22 44  1  0
 23 45  1  0
M  CHG  1  20   1
M  END
>  <DOCK_score>  (1) 
-56.993698

>  <SMILES>  (1) 
CCc1ccc(-c2c[nH]c(NCC3=C(C)CCC3)[nH+]2)cc1

$$$$
