Cc1cc(F)ccc1C[NH2+]Cc1c[nH]nc1-c1ccc(Nc2ccccc2Cl)o1
     RDKit          3D

 50 53  0  0  0  0  0  0  0  0999 V2000
  132.5034  139.3913  160.7934 C   0  0  0  0  0  0  0  0  0  0  0  0
  133.8605  138.8571  161.1729 C   0  0  0  0  0  0  0  0  0  0  0  0
  134.9838  139.6454  161.0091 C   0  0  0  0  0  0  0  0  0  0  0  0
  136.2311  139.1521  161.3521 C   0  0  0  0  0  0  0  0  0  0  0  0
  137.3304  139.9196  161.1868 F   0  0  0  0  0  0  0  0  0  0  0  0
  136.3508  137.8713  161.8645 C   0  0  0  0  0  0  0  0  0  0  0  0
  135.2257  137.0869  162.0328 C   0  0  0  0  0  0  0  0  0  0  0  0
  133.9805  137.5807  161.6897 C   0  0  0  0  0  0  0  0  0  0  0  0
  132.7542  136.7244  161.8737 C   0  0  0  0  0  0  0  0  0  0  0  0
  132.5152  135.9427  160.6531 N   0  0  0  0  0  0  0  0  0  0  0  0
  133.3129  135.3528  160.4699 H   0  0  0  0  0  0  0  0  0  0  0  0
  132.3745  136.5692  159.8747 H   0  0  0  0  0  0  0  0  0  0  0  0
  131.3197  135.1082  160.8324 C   0  0  0  0  0  0  0  0  0  0  0  0
  131.0744  134.3063  159.5802 C   0  0  0  0  0  0  0  0  0  0  0  0
  132.0053  133.6292  158.8745 C   0  0  0  0  0  0  0  0  0  0  0  0
  131.3905  133.0457  157.8229 N   0  0  0  0  0  0  0  0  0  0  0  0
  131.8179  132.4973  157.1466 H   0  0  0  0  0  0  0  0  0  0  0  0
  130.0277  133.3645  157.8811 N   0  0  0  0  0  0  0  0  0  0  0  0
  129.8305  134.1252  158.9397 C   0  0  0  0  0  0  0  0  0  0  0  0
  128.5364  134.6882  159.3775 C   0  0  0  0  0  0  0  0  0  0  0  0
  127.3391  134.5059  158.7602 C   0  0  0  0  0  0  0  0  0  0  0  0
  126.3808  135.2148  159.5106 C   0  0  0  0  0  0  0  0  0  0  0  0
  127.0384  135.7935  160.5466 C   0  0  0  0  0  0  0  0  0  0  0  0
  126.4626  136.5869  161.5324 N   0  0  0  0  0  0  0  0  0  0  0  0
  127.2109  137.5981  162.1412 C   0  0  0  0  0  0  0  0  0  0  0  0
  128.2238  138.2354  161.4357 C   0  0  0  0  0  0  0  0  0  0  0  0
  128.9581  139.2375  162.0386 C   0  0  0  0  0  0  0  0  0  0  0  0
  128.6940  139.5997  163.3470 C   0  0  0  0  0  0  0  0  0  0  0  0
  127.6899  138.9646  164.0546 C   0  0  0  0  0  0  0  0  0  0  0  0
  126.9473  137.9645  163.4561 C   0  0  0  0  0  0  0  0  0  0  0  0
  125.6869  137.1674  164.3445 Cl  0  0  0  0  0  0  0  0  0  0  0  0
  128.3394  135.4667  160.4622 O   0  0  0  0  0  0  0  0  0  0  0  0
  132.0576  139.8936  161.6519 H   0  0  0  0  0  0  0  0  0  0  0  0
  132.6087  140.1001  159.9721 H   0  0  0  0  0  0  0  0  0  0  0  0
  131.8624  138.5666  160.4817 H   0  0  0  0  0  0  0  0  0  0  0  0
  134.8892  140.6443  160.6094 H   0  0  0  0  0  0  0  0  0  0  0  0
  137.3233  137.4855  162.1328 H   0  0  0  0  0  0  0  0  0  0  0  0
  135.3189  136.0878  162.4320 H   0  0  0  0  0  0  0  0  0  0  0  0
  131.8925  137.3617  162.0717 H   0  0  0  0  0  0  0  0  0  0  0  0
  132.9065  136.0476  162.7145 H   0  0  0  0  0  0  0  0  0  0  0  0
  130.4579  135.7456  161.0302 H   0  0  0  0  0  0  0  0  0  0  0  0
  131.4718  134.4315  161.6732 H   0  0  0  0  0  0  0  0  0  0  0  0
  133.0579  133.5670  159.1085 H   0  0  0  0  0  0  0  0  0  0  0  0
  127.1576  133.9284  157.8658 H   0  0  0  0  0  0  0  0  0  0  0  0
  125.3237  135.2845  159.3011 H   0  0  0  0  0  0  0  0  0  0  0  0
  125.5414  136.4386  161.7977 H   0  0  0  0  0  0  0  0  0  0  0  0
  128.4342  137.9502  160.4155 H   0  0  0  0  0  0  0  0  0  0  0  0
  129.7429  139.7361  161.4891 H   0  0  0  0  0  0  0  0  0  0  0  0
  129.2731  140.3808  163.8172 H   0  0  0  0  0  0  0  0  0  0  0  0
  127.4861  139.2502  165.0760 H   0  0  0  0  0  0  0  0  0  0  0  0
  1  2  1  0
  1 33  1  0
  1 34  1  0
  1 35  1  0
  2  8  2  0
  2  3  1  0
  3  4  2  0
  3 36  1  0
  4  5  1  0
  4  6  1  0
  6  7  2  0
  6 37  1  0
  7  8  1  0
  7 38  1  0
  8  9  1  0
  9 10  1  0
  9 39  1  0
  9 40  1  0
 10 11  1  0
 10 12  1  0
 10 13  1  0
 13 14  1  0
 13 41  1  0
 13 42  1  0
 14 19  1  0
 14 15  2  0
 15 16  1  0
 15 43  1  0
 16 17  1  0
 16 18  1  0
 18 19  2  0
 19 20  1  0
 20 32  1  0
 20 21  2  0
 21 22  1  0
 21 44  1  0
 22 23  2  0
 22 45  1  0
 23 24  1  0
 23 32  1  0
 24 25  1  0
 24 46  1  0
 25 30  1  0
 25 26  2  0
 26 27  1  0
 26 47  1  0
 27 28  2  0
 27 48  1  0
 28 29  1  0
 28 49  1  0
 29 30  2  0
 29 50  1  0
 30 31  1  0
M  CHG  1  10   1
M  END
>  <DOCK_score>  (1) 
-42.557453

>  <SMILES>  (1) 
Cc1cc(F)ccc1C[NH2+]Cc1c[nH]nc1-c1ccc(Nc2ccccc2Cl)o1

$$$$
