C=CC[C@H](Nc1[nH]cc(-c2ccc(C(F)(F)F)cc2)[nH+]1)c1ccc(F)cc1
     RDKit          3D

 45 47  0  0  1  0  0  0  0  0999 V2000
  129.1079  136.7474  162.8755 C   0  0  0  0  0  0  0  0  0  0  0  0
  128.6369  137.1192  161.7110 C   0  0  0  0  0  0  0  0  0  0  0  0
  129.4410  136.8752  160.4601 C   0  0  0  0  0  0  0  0  0  0  0  0
  129.0812  135.5053  159.8814 C   0  0  2  0  0  0  0  0  0  0  0  0
  128.9624  134.7878  160.6934 H   0  0  0  0  0  0  0  0  0  0  0  0
  130.1506  135.0571  158.9862 N   0  0  0  0  0  0  0  0  0  0  0  0
  130.0475  133.8365  158.3412 C   0  0  0  0  0  0  0  0  0  0  0  0
  129.3969  132.7404  158.8183 N   0  0  0  0  0  0  0  0  0  0  0  0
  128.9264  132.6744  159.6639 H   0  0  0  0  0  0  0  0  0  0  0  0
  129.5292  131.7450  157.8809 C   0  0  0  0  0  0  0  0  0  0  0  0
  130.2562  132.2609  156.8590 C   0  0  0  0  0  0  0  0  0  0  0  0
  130.6503  131.5463  155.6203 C   0  0  0  0  0  0  0  0  0  0  0  0
  130.2406  132.0241  154.3767 C   0  0  0  0  0  0  0  0  0  0  0  0
  130.6105  131.3555  153.2275 C   0  0  0  0  0  0  0  0  0  0  0  0
  131.3871  130.2128  153.3086 C   0  0  0  0  0  0  0  0  0  0  0  0
  131.7880  129.4880  152.0497 C   0  0  0  0  0  0  0  0  0  0  0  0
  131.2601  130.1548  150.9388 F   0  0  0  0  0  0  0  0  0  0  0  0
  133.1834  129.4559  151.9545 F   0  0  0  0  0  0  0  0  0  0  0  0
  131.2930  128.1801  152.0872 F   0  0  0  0  0  0  0  0  0  0  0  0
  131.7916  129.7313  154.5401 C   0  0  0  0  0  0  0  0  0  0  0  0
  131.4320  130.3948  155.6956 C   0  0  0  0  0  0  0  0  0  0  0  0
  130.5643  133.5444  157.1727 N   0  0  0  0  0  0  0  0  0  0  0  0
  131.0820  134.1499  156.6194 H   0  0  0  0  0  0  0  0  0  0  0  0
  127.7907  135.6091  159.1101 C   0  0  0  0  0  0  0  0  0  0  0  0
  126.5844  135.3925  159.7499 C   0  0  0  0  0  0  0  0  0  0  0  0
  125.3999  135.4931  159.0449 C   0  0  0  0  0  0  0  0  0  0  0  0
  125.4225  135.8000  157.6950 C   0  0  0  0  0  0  0  0  0  0  0  0
  124.2655  135.8931  157.0036 F   0  0  0  0  0  0  0  0  0  0  0  0
  126.6315  136.0110  157.0541 C   0  0  0  0  0  0  0  0  0  0  0  0
  127.8142  135.9151  157.7622 C   0  0  0  0  0  0  0  0  0  0  0  0
  130.0726  136.2662  162.9390 H   0  0  0  0  0  0  0  0  0  0  0  0
  128.5316  136.9223  163.7719 H   0  0  0  0  0  0  0  0  0  0  0  0
  127.6721  137.6004  161.6475 H   0  0  0  0  0  0  0  0  0  0  0  0
  130.5040  136.9001  160.7008 H   0  0  0  0  0  0  0  0  0  0  0  0
  129.2163  137.6498  159.7269 H   0  0  0  0  0  0  0  0  0  0  0  0
  130.9310  135.6157  158.8453 H   0  0  0  0  0  0  0  0  0  0  0  0
  129.1307  130.7434  157.9456 H   0  0  0  0  0  0  0  0  0  0  0  0
  129.6351  132.9161  154.3126 H   0  0  0  0  0  0  0  0  0  0  0  0
  130.2937  131.7249  152.2634 H   0  0  0  0  0  0  0  0  0  0  0  0
  132.3936  128.8367  154.5974 H   0  0  0  0  0  0  0  0  0  0  0  0
  131.7520  130.0200  156.6566 H   0  0  0  0  0  0  0  0  0  0  0  0
  126.5675  135.1489  160.8019 H   0  0  0  0  0  0  0  0  0  0  0  0
  124.4575  135.3286  159.5460 H   0  0  0  0  0  0  0  0  0  0  0  0
  126.6501  136.2502  156.0011 H   0  0  0  0  0  0  0  0  0  0  0  0
  128.7574  136.0797  157.2625 H   0  0  0  0  0  0  0  0  0  0  0  0
  1  2  2  0
  1 31  1  0
  1 32  1  0
  2  3  1  0
  2 33  1  0
  3  4  1  0
  3 34  1  0
  3 35  1  0
  4  5  1  1
  4  6  1  0
  4 24  1  0
  6 36  1  0
  7  6  1  0
  7 22  2  0
  7  8  1  0
  8  9  1  0
  8 10  1  0
 10 11  2  0
 10 37  1  0
 11 12  1  0
 11 22  1  0
 12 21  1  0
 12 13  2  0
 13 14  1  0
 13 38  1  0
 14 15  2  0
 14 39  1  0
 15 16  1  0
 15 20  1  0
 16 17  1  0
 16 18  1  0
 16 19  1  0
 20 21  2  0
 20 40  1  0
 21 41  1  0
 22 23  1  0
 24 30  1  0
 24 25  2  0
 25 26  1  0
 25 42  1  0
 26 27  2  0
 26 43  1  0
 27 28  1  0
 27 29  1  0
 29 30  2  0
 29 44  1  0
 30 45  1  0
M  CHG  1  22   1
M  END
>  <DOCK_score>  (1) 
-56.995598

>  <SMILES>  (1) 
C=CC[C@H](Nc1[nH]cc(-c2ccc(C(F)(F)F)cc2)[nH+]1)c1ccc(F)cc1

$$$$
