CCc1ccc(-c2c[nH]c(NCc3ccccc3[C@H](O)c3cccc4c3NC(=O)CO4)[nH+]2)cc1
     RDKit          3D

 61 65  0  0  1  0  0  0  0  0999 V2000
  130.1179  128.7072  151.4230 C   0  0  0  0  0  0  0  0  0  0  0  0
  131.2727  129.6331  151.8105 C   0  0  0  0  0  0  0  0  0  0  0  0
  130.9397  130.3390  153.0997 C   0  0  0  0  0  0  0  0  0  0  0  0
  131.2950  129.7684  154.3092 C   0  0  0  0  0  0  0  0  0  0  0  0
  130.9926  130.4102  155.4930 C   0  0  0  0  0  0  0  0  0  0  0  0
  130.3284  131.6354  155.4683 C   0  0  0  0  0  0  0  0  0  0  0  0
  130.0008  132.3301  156.7374 C   0  0  0  0  0  0  0  0  0  0  0  0
  129.2215  131.8441  157.7350 C   0  0  0  0  0  0  0  0  0  0  0  0
  129.1873  132.8036  158.7175 N   0  0  0  0  0  0  0  0  0  0  0  0
  128.7122  132.7453  159.5612 H   0  0  0  0  0  0  0  0  0  0  0  0
  129.9408  133.8522  158.2875 C   0  0  0  0  0  0  0  0  0  0  0  0
  130.1614  135.0268  158.9862 N   0  0  0  0  0  0  0  0  0  0  0  0
  129.5589  135.2171  160.3080 C   0  0  0  0  0  0  0  0  0  0  0  0
  130.6461  135.4258  161.3303 C   0  0  0  0  0  0  0  0  0  0  0  0
  131.1920  134.3405  161.9903 C   0  0  0  0  0  0  0  0  0  0  0  0
  132.1893  134.5320  162.9280 C   0  0  0  0  0  0  0  0  0  0  0  0
  132.6411  135.8087  163.2057 C   0  0  0  0  0  0  0  0  0  0  0  0
  132.0994  136.8932  162.5418 C   0  0  0  0  0  0  0  0  0  0  0  0
  131.0984  136.7014  161.6082 C   0  0  0  0  0  0  0  0  0  0  0  0
  130.5031  137.8851  160.8882 C   0  0  2  0  0  0  0  0  0  0  0  0
  129.4334  137.9342  161.0921 H   0  0  0  0  0  0  0  0  0  0  0  0
  130.7140  137.7424  159.4821 O   0  0  0  0  0  0  0  0  0  0  0  0
  131.1649  139.1506  161.3695 C   0  0  0  0  0  0  0  0  0  0  0  0
  132.2968  139.6269  160.7327 C   0  0  0  0  0  0  0  0  0  0  0  0
  132.9053  140.7877  161.1721 C   0  0  0  0  0  0  0  0  0  0  0  0
  132.3867  141.4814  162.2512 C   0  0  0  0  0  0  0  0  0  0  0  0
  131.2550  141.0112  162.8931 C   0  0  0  0  0  0  0  0  0  0  0  0
  130.6384  139.8430  162.4467 C   0  0  0  0  0  0  0  0  0  0  0  0
  129.4970  139.3729  163.1118 N   0  0  0  0  0  0  0  0  0  0  0  0
  128.8336  140.2083  163.9408 C   0  0  0  0  0  0  0  0  0  0  0  0
  127.8590  139.8170  164.5475 O   0  0  0  0  0  0  0  0  0  0  0  0
  129.3100  141.6286  164.1089 C   0  0  0  0  0  0  0  0  0  0  0  0
  130.7306  141.6808  163.9543 O   0  0  0  0  0  0  0  0  0  0  0  0
  130.4276  133.5643  157.1051 N   0  0  0  0  0  0  0  0  0  0  0  0
  131.0015  134.1415  156.5774 H   0  0  0  0  0  0  0  0  0  0  0  0
  129.9684  132.2025  154.2472 C   0  0  0  0  0  0  0  0  0  0  0  0
  130.2806  131.5542  153.0696 C   0  0  0  0  0  0  0  0  0  0  0  0
  129.2095  129.2952  151.2912 H   0  0  0  0  0  0  0  0  0  0  0  0
  130.3586  128.1967  150.4904 H   0  0  0  0  0  0  0  0  0  0  0  0
  129.9624  127.9704  152.2110 H   0  0  0  0  0  0  0  0  0  0  0  0
  131.4281  130.3696  151.0227 H   0  0  0  0  0  0  0  0  0  0  0  0
  132.1811  129.0448  151.9426 H   0  0  0  0  0  0  0  0  0  0  0  0
  131.8096  128.8190  154.3271 H   0  0  0  0  0  0  0  0  0  0  0  0
  131.2703  129.9642  156.4366 H   0  0  0  0  0  0  0  0  0  0  0  0
  128.7263  130.8845  157.7553 H   0  0  0  0  0  0  0  0  0  0  0  0
  130.7148  135.7239  158.6007 H   0  0  0  0  0  0  0  0  0  0  0  0
  128.9763  134.3344  160.5722 H   0  0  0  0  0  0  0  0  0  0  0  0
  128.9067  136.0901  160.2878 H   0  0  0  0  0  0  0  0  0  0  0  0
  130.8390  133.3431  161.7735 H   0  0  0  0  0  0  0  0  0  0  0  0
  132.6153  133.6843  163.4440 H   0  0  0  0  0  0  0  0  0  0  0  0
  133.4201  135.9585  163.9386 H   0  0  0  0  0  0  0  0  0  0  0  0
  132.4554  137.8903  162.7554 H   0  0  0  0  0  0  0  0  0  0  0  0
  131.6453  137.6921  159.2270 H   0  0  0  0  0  0  0  0  0  0  0  0
  132.7061  139.0903  159.8895 H   0  0  0  0  0  0  0  0  0  0  0  0
  133.7886  141.1550  160.6709 H   0  0  0  0  0  0  0  0  0  0  0  0
  132.8643  142.3884  162.5914 H   0  0  0  0  0  0  0  0  0  0  0  0
  129.1862  138.4641  162.9765 H   0  0  0  0  0  0  0  0  0  0  0  0
  129.0398  141.9867  165.1023 H   0  0  0  0  0  0  0  0  0  0  0  0
  128.8396  142.2607  163.3557 H   0  0  0  0  0  0  0  0  0  0  0  0
  129.4493  133.1493  154.2225 H   0  0  0  0  0  0  0  0  0  0  0  0
  130.0056  131.9948  152.1225 H   0  0  0  0  0  0  0  0  0  0  0  0
  1  2  1  0
  1 38  1  0
  1 39  1  0
  1 40  1  0
  2  3  1  0
  2 41  1  0
  2 42  1  0
  3 37  2  0
  3  4  1  0
  4  5  2  0
  4 43  1  0
  5  6  1  0
  5 44  1  0
  6  7  1  0
  6 36  2  0
  7 34  1  0
  7  8  2  0
  8  9  1  0
  8 45  1  0
  9 10  1  0
  9 11  1  0
 11 12  1  0
 11 34  2  0
 12 13  1  0
 12 46  1  0
 13 14  1  0
 13 47  1  0
 13 48  1  0
 14 19  1  0
 14 15  2  0
 15 16  1  0
 15 49  1  0
 16 17  2  0
 16 50  1  0
 17 18  1  0
 17 51  1  0
 18 19  2  0
 18 52  1  0
 19 20  1  0
 20 21  1  6
 20 22  1  0
 20 23  1  0
 22 53  1  0
 23 28  1  0
 23 24  2  0
 24 25  1  0
 24 54  1  0
 25 26  2  0
 25 55  1  0
 26 27  1  0
 26 56  1  0
 27 33  1  0
 27 28  2  0
 28 29  1  0
 29 30  1  0
 29 57  1  0
 30 31  2  0
 30 32  1  0
 32 33  1  0
 32 58  1  0
 32 59  1  0
 34 35  1  0
 36 37  1  0
 36 60  1  0
 37 61  1  0
M  CHG  1  34   1
M  END
>  <DOCK_score>  (1) 
-60.483864

>  <SMILES>  (1) 
CCc1ccc(-c2c[nH]c(NCc3ccccc3[C@H](O)c3cccc4c3NC(=O)CO4)[nH+]2)cc1

$$$$
