CCc1ccc(-c2c[nH]c(N[C@H](CO)c3ccc(C4=CCCC4)cc3)[nH+]2)cc1
     RDKit          3D

 56 59  0  0  1  0  0  0  0  0999 V2000
  130.4597  128.1687  151.4556 C   0  0  0  0  0  0  0  0  0  0  0  0
  131.5153  129.2494  151.6975 C   0  0  0  0  0  0  0  0  0  0  0  0
  131.1436  130.0505  152.9186 C   0  0  0  0  0  0  0  0  0  0  0  0
  131.5955  129.6563  154.1647 C   0  0  0  0  0  0  0  0  0  0  0  0
  131.2630  130.3891  155.2859 C   0  0  0  0  0  0  0  0  0  0  0  0
  130.4607  131.5220  155.1620 C   0  0  0  0  0  0  0  0  0  0  0  0
  130.0954  132.3106  156.3641 C   0  0  0  0  0  0  0  0  0  0  0  0
  129.4155  131.8511  157.4438 C   0  0  0  0  0  0  0  0  0  0  0  0
  129.2950  132.9047  158.3170 N   0  0  0  0  0  0  0  0  0  0  0  0
  128.8557  132.8869  159.1816 H   0  0  0  0  0  0  0  0  0  0  0  0
  129.9054  133.9781  157.7449 C   0  0  0  0  0  0  0  0  0  0  0  0
  130.0058  135.2409  158.3033 N   0  0  0  0  0  0  0  0  0  0  0  0
  128.9622  135.7261  159.2097 C   0  0  2  0  0  0  0  0  0  0  0  0
  128.6423  134.9143  159.8631 H   0  0  0  0  0  0  0  0  0  0  0  0
  127.7681  136.2238  158.3928 C   0  0  0  0  0  0  0  0  0  0  0  0
  127.2515  135.1513  157.6023 O   0  0  0  0  0  0  0  0  0  0  0  0
  129.5069  136.8571  160.0434 C   0  0  0  0  0  0  0  0  0  0  0  0
  129.9759  138.0033  159.4269 C   0  0  0  0  0  0  0  0  0  0  0  0
  130.4707  139.0447  160.1848 C   0  0  0  0  0  0  0  0  0  0  0  0
  130.5075  138.9356  161.5754 C   0  0  0  0  0  0  0  0  0  0  0  0
  131.0409  140.0453  162.3932 C   0  0  0  0  0  0  0  0  0  0  0  0
  130.9773  141.3221  162.0579 C   0  0  0  0  0  0  0  0  0  0  0  0
  131.6167  142.1887  163.1180 C   0  0  0  0  0  0  0  0  0  0  0  0
  132.4637  141.2136  163.9675 C   0  0  0  0  0  0  0  0  0  0  0  0
  131.7268  139.8739  163.7286 C   0  0  0  0  0  0  0  0  0  0  0  0
  130.0381  137.7745  162.1908 C   0  0  0  0  0  0  0  0  0  0  0  0
  129.5410  136.7424  161.4218 C   0  0  0  0  0  0  0  0  0  0  0  0
  130.3875  133.6177  156.5806 N   0  0  0  0  0  0  0  0  0  0  0  0
  130.8734  134.1940  155.9702 H   0  0  0  0  0  0  0  0  0  0  0  0
  130.0034  131.9115  153.9044 C   0  0  0  0  0  0  0  0  0  0  0  0
  130.3469  131.1744  152.7894 C   0  0  0  0  0  0  0  0  0  0  0  0
  129.4880  128.6376  151.3008 H   0  0  0  0  0  0  0  0  0  0  0  0
  130.7285  127.5895  150.5723 H   0  0  0  0  0  0  0  0  0  0  0  0
  130.4110  127.5088  152.3218 H   0  0  0  0  0  0  0  0  0  0  0  0
  132.4868  128.7811  151.8517 H   0  0  0  0  0  0  0  0  0  0  0  0
  131.5638  129.9099  150.8308 H   0  0  0  0  0  0  0  0  0  0  0  0
  132.2132  128.7756  154.2601 H   0  0  0  0  0  0  0  0  0  0  0  0
  131.6203  130.0829  156.2580 H   0  0  0  0  0  0  0  0  0  0  0  0
  129.0403  130.8489  157.5890 H   0  0  0  0  0  0  0  0  0  0  0  0
  130.7672  135.8044  158.0944 H   0  0  0  0  0  0  0  0  0  0  0  0
  126.9916  136.5847  159.0672 H   0  0  0  0  0  0  0  0  0  0  0  0
  128.0879  137.0354  157.7395 H   0  0  0  0  0  0  0  0  0  0  0  0
  127.8897  134.7801  156.9778 H   0  0  0  0  0  0  0  0  0  0  0  0
  129.9509  138.0848  158.3504 H   0  0  0  0  0  0  0  0  0  0  0  0
  130.8328  139.9407  159.7026 H   0  0  0  0  0  0  0  0  0  0  0  0
  130.5292  141.6956  161.1490 H   0  0  0  0  0  0  0  0  0  0  0  0
  132.2546  142.9430  162.6574 H   0  0  0  0  0  0  0  0  0  0  0  0
  130.8518  142.6619  163.7335 H   0  0  0  0  0  0  0  0  0  0  0  0
  133.4903  141.1692  163.6037 H   0  0  0  0  0  0  0  0  0  0  0  0
  132.4366  141.4895  165.0217 H   0  0  0  0  0  0  0  0  0  0  0  0
  130.9910  139.6976  164.5133 H   0  0  0  0  0  0  0  0  0  0  0  0
  132.4410  139.0517  163.6855 H   0  0  0  0  0  0  0  0  0  0  0  0
  130.0636  137.6840  163.2667 H   0  0  0  0  0  0  0  0  0  0  0  0
  129.1775  135.8432  161.8968 H   0  0  0  0  0  0  0  0  0  0  0  0
  129.3813  132.7885  153.8026 H   0  0  0  0  0  0  0  0  0  0  0  0
  129.9928  131.4751  151.8143 H   0  0  0  0  0  0  0  0  0  0  0  0
  1  2  1  0
  1 32  1  0
  1 33  1  0
  1 34  1  0
  2  3  1  0
  2 35  1  0
  2 36  1  0
  3 31  2  0
  3  4  1  0
  4  5  2  0
  4 37  1  0
  5  6  1  0
  5 38  1  0
  6  7  1  0
  6 30  2  0
  7 28  1  0
  7  8  2  0
  8  9  1  0
  8 39  1  0
  9 10  1  0
  9 11  1  0
 11 12  1  0
 11 28  2  0
 12 13  1  0
 12 40  1  0
 13 14  1  1
 13 15  1  0
 13 17  1  0
 15 16  1  0
 15 41  1  0
 15 42  1  0
 16 43  1  0
 17 27  1  0
 17 18  2  0
 18 19  1  0
 18 44  1  0
 19 20  2  0
 19 45  1  0
 20 21  1  0
 20 26  1  0
 21 25  1  0
 21 22  2  0
 22 23  1  0
 22 46  1  0
 23 24  1  0
 23 47  1  0
 23 48  1  0
 24 25  1  0
 24 49  1  0
 24 50  1  0
 25 51  1  0
 25 52  1  0
 26 27  2  0
 26 53  1  0
 27 54  1  0
 28 29  1  0
 30 31  1  0
 30 55  1  0
 31 56  1  0
M  CHG  1  28   1
M  END
>  <DOCK_score>  (1) 
-58.439522

>  <SMILES>  (1) 
CCc1ccc(-c2c[nH]c(N[C@H](CO)c3ccc(C4=CCCC4)cc3)[nH+]2)cc1

$$$$
