Cc1ccccc1[C@@H](c1ccccc1)[NH+]1CCN(c2ccccc2Oc2cccc3cccnc23)CC1
     RDKit          3D

 69 74  0  0  1  0  0  0  0  0999 V2000
  127.9574  133.5167  161.1981 C   0  0  0  0  0  0  0  0  0  0  0  0
  127.8315  134.4822  160.0477 C   0  0  0  0  0  0  0  0  0  0  0  0
  126.5822  134.8128  159.5562 C   0  0  0  0  0  0  0  0  0  0  0  0
  126.4669  135.6984  158.5012 C   0  0  0  0  0  0  0  0  0  0  0  0
  127.6005  136.2537  157.9377 C   0  0  0  0  0  0  0  0  0  0  0  0
  128.8492  135.9264  158.4319 C   0  0  0  0  0  0  0  0  0  0  0  0
  128.9650  135.0367  159.4838 C   0  0  0  0  0  0  0  0  0  0  0  0
  130.3266  134.6762  160.0195 C   0  0  1  0  0  0  0  0  0  0  0  0
  130.2497  134.4457  161.0820 H   0  0  0  0  0  0  0  0  0  0  0  0
  130.8543  133.4731  159.2813 C   0  0  0  0  0  0  0  0  0  0  0  0
  130.4815  133.2487  157.9693 C   0  0  0  0  0  0  0  0  0  0  0  0
  130.9690  132.1474  157.2909 C   0  0  0  0  0  0  0  0  0  0  0  0
  131.8220  131.2653  157.9275 C   0  0  0  0  0  0  0  0  0  0  0  0
  132.1911  131.4871  159.2410 C   0  0  0  0  0  0  0  0  0  0  0  0
  131.7071  132.5907  159.9180 C   0  0  0  0  0  0  0  0  0  0  0  0
  131.2431  135.8083  159.8292 N   0  0  0  0  0  0  0  0  0  0  0  0
  131.3141  136.0216  158.8455 H   0  0  0  0  0  0  0  0  0  0  0  0
  130.7281  136.9811  160.5482 C   0  0  0  0  0  0  0  0  0  0  0  0
  131.6728  138.1659  160.3347 C   0  0  0  0  0  0  0  0  0  0  0  0
  133.0121  137.8161  160.8288 N   0  0  0  0  0  0  0  0  0  0  0  0
  133.8922  138.8963  160.6995 C   0  0  0  0  0  0  0  0  0  0  0  0
  134.1532  139.4350  159.4480 C   0  0  0  0  0  0  0  0  0  0  0  0
  135.0265  140.4988  159.3224 C   0  0  0  0  0  0  0  0  0  0  0  0
  135.6380  141.0319  160.4421 C   0  0  0  0  0  0  0  0  0  0  0  0
  135.3789  140.5038  161.6934 C   0  0  0  0  0  0  0  0  0  0  0  0
  134.5043  139.4376  161.8282 C   0  0  0  0  0  0  0  0  0  0  0  0
  134.2485  138.9173  163.0581 O   0  0  0  0  0  0  0  0  0  0  0  0
  134.8681  139.4775  164.1288 C   0  0  0  0  0  0  0  0  0  0  0  0
  134.6686  140.8059  164.4283 C   0  0  0  0  0  0  0  0  0  0  0  0
  135.3019  141.3945  165.5193 C   0  0  0  0  0  0  0  0  0  0  0  0
  136.1264  140.6698  166.3255 C   0  0  0  0  0  0  0  0  0  0  0  0
  136.3553  139.3118  166.0522 C   0  0  0  0  0  0  0  0  0  0  0  0
  137.2068  138.5360  166.8621 C   0  0  0  0  0  0  0  0  0  0  0  0
  137.3835  137.2214  166.5374 C   0  0  0  0  0  0  0  0  0  0  0  0
  136.7291  136.6846  165.4306 C   0  0  0  0  0  0  0  0  0  0  0  0
  135.9372  137.4100  164.6790 N   0  0  0  0  0  0  0  0  0  0  0  0
  135.7214  138.7020  164.9420 C   0  0  0  0  0  0  0  0  0  0  0  0
  133.5305  136.6284  160.1352 C   0  0  0  0  0  0  0  0  0  0  0  0
  132.5705  135.4563  160.3503 C   0  0  0  0  0  0  0  0  0  0  0  0
  127.8517  134.0568  162.1389 H   0  0  0  0  0  0  0  0  0  0  0  0
  127.1766  132.7597  161.1241 H   0  0  0  0  0  0  0  0  0  0  0  0
  128.9346  133.0353  161.1631 H   0  0  0  0  0  0  0  0  0  0  0  0
  125.6965  134.3790  159.9964 H   0  0  0  0  0  0  0  0  0  0  0  0
  125.4909  135.9559  158.1172 H   0  0  0  0  0  0  0  0  0  0  0  0
  127.5104  136.9454  157.1132 H   0  0  0  0  0  0  0  0  0  0  0  0
  129.7347  136.3633  157.9942 H   0  0  0  0  0  0  0  0  0  0  0  0
  129.8118  133.9356  157.4733 H   0  0  0  0  0  0  0  0  0  0  0  0
  130.6809  131.9743  156.2645 H   0  0  0  0  0  0  0  0  0  0  0  0
  132.2003  130.4031  157.3985 H   0  0  0  0  0  0  0  0  0  0  0  0
  132.8577  130.7979  159.7383 H   0  0  0  0  0  0  0  0  0  0  0  0
  131.9952  132.7639  160.9444 H   0  0  0  0  0  0  0  0  0  0  0  0
  130.6635  136.7551  161.6126 H   0  0  0  0  0  0  0  0  0  0  0  0
  129.7376  137.2333  160.1696 H   0  0  0  0  0  0  0  0  0  0  0  0
  131.2987  139.0322  160.8804 H   0  0  0  0  0  0  0  0  0  0  0  0
  131.7271  138.4009  159.2717 H   0  0  0  0  0  0  0  0  0  0  0  0
  133.6773  139.0205  158.5716 H   0  0  0  0  0  0  0  0  0  0  0  0
  135.2316  140.9153  158.3471 H   0  0  0  0  0  0  0  0  0  0  0  0
  136.3198  141.8632  160.3391 H   0  0  0  0  0  0  0  0  0  0  0  0
  135.8580  140.9228  162.5660 H   0  0  0  0  0  0  0  0  0  0  0  0
  134.0160  141.4005  163.8063 H   0  0  0  0  0  0  0  0  0  0  0  0
  135.1336  142.4398  165.7321 H   0  0  0  0  0  0  0  0  0  0  0  0
  136.6070  141.1400  167.1706 H   0  0  0  0  0  0  0  0  0  0  0  0
  137.7058  138.9686  167.7166 H   0  0  0  0  0  0  0  0  0  0  0  0
  138.0304  136.5986  167.1376 H   0  0  0  0  0  0  0  0  0  0  0  0
  136.8780  135.6432  165.1858 H   0  0  0  0  0  0  0  0  0  0  0  0
  133.6154  136.8381  159.0690 H   0  0  0  0  0  0  0  0  0  0  0  0
  134.5117  136.3731  160.5352 H   0  0  0  0  0  0  0  0  0  0  0  0
  132.4964  135.2382  161.4156 H   0  0  0  0  0  0  0  0  0  0  0  0
  132.9459  134.5781  159.8248 H   0  0  0  0  0  0  0  0  0  0  0  0
  1  2  1  0
  1 40  1  0
  1 41  1  0
  1 42  1  0
  2  7  2  0
  2  3  1  0
  3  4  2  0
  3 43  1  0
  4  5  1  0
  4 44  1  0
  5  6  2  0
  5 45  1  0
  6  7  1  0
  6 46  1  0
  7  8  1  0
  8  9  1  1
  8 10  1  0
  8 16  1  0
 10 15  1  0
 10 11  2  0
 11 12  1  0
 11 47  1  0
 12 13  2  0
 12 48  1  0
 13 14  1  0
 13 49  1  0
 14 15  2  0
 14 50  1  0
 15 51  1  0
 16 17  1  0
 16 39  1  0
 16 18  1  0
 18 19  1  0
 18 52  1  0
 18 53  1  0
 19 20  1  0
 19 54  1  0
 19 55  1  0
 20 21  1  0
 20 38  1  0
 21 26  1  0
 21 22  2  0
 22 23  1  0
 22 56  1  0
 23 24  2  0
 23 57  1  0
 24 25  1  0
 24 58  1  0
 25 26  2  0
 25 59  1  0
 26 27  1  0
 27 28  1  0
 28 37  1  0
 28 29  2  0
 29 30  1  0
 29 60  1  0
 30 31  2  0
 30 61  1  0
 31 32  1  0
 31 62  1  0
 32 37  2  0
 32 33  1  0
 33 34  2  0
 33 63  1  0
 34 35  1  0
 34 64  1  0
 35 36  2  0
 35 65  1  0
 36 37  1  0
 38 39  1  0
 38 66  1  0
 38 67  1  0
 39 68  1  0
 39 69  1  0
M  CHG  1  16   1
M  END
>  <DOCK_score>  (1) 
-56.403679

>  <SMILES>  (1) 
Cc1ccccc1[C@@H](c1ccccc1)[NH+]1CCN(c2ccccc2Oc2cccc3cccnc23)CC1

$$$$
