Nc1ccc(-c2c[nH]c(Nc3cc(N)ccc3-c3ccc(-c4ccccc4)cc3)[nH+]2)cc1
     RDKit          3D

 56 60  0  0  1  0  0  0  0  0999 V2000
  131.4473  129.5038  152.1931 N   0  0  0  0  0  0  0  0  0  0  0  0
  131.1301  130.1813  153.3730 C   0  0  0  0  0  0  0  0  0  0  0  0
  130.3353  131.3210  153.3266 C   0  0  0  0  0  0  0  0  0  0  0  0
  130.0207  131.9909  154.4901 C   0  0  0  0  0  0  0  0  0  0  0  0
  130.5005  131.5248  155.7131 C   0  0  0  0  0  0  0  0  0  0  0  0
  130.1639  132.2442  156.9661 C   0  0  0  0  0  0  0  0  0  0  0  0
  129.4995  131.7270  158.0293 C   0  0  0  0  0  0  0  0  0  0  0  0
  129.3990  132.7303  158.9631 N   0  0  0  0  0  0  0  0  0  0  0  0
  128.9715  132.6665  159.8313 H   0  0  0  0  0  0  0  0  0  0  0  0
  130.0107  133.8299  158.4443 C   0  0  0  0  0  0  0  0  0  0  0  0
  130.1291  135.0591  159.0722 N   0  0  0  0  0  0  0  0  0  0  0  0
  129.1506  135.4791  159.9740 C   0  0  0  0  0  0  0  0  0  0  0  0
  127.8382  135.6311  159.5549 C   0  0  0  0  0  0  0  0  0  0  0  0
  126.8660  136.0444  160.4556 C   0  0  0  0  0  0  0  0  0  0  0  0
  125.5441  136.1924  160.0333 N   0  0  0  0  0  0  0  0  0  0  0  0
  127.2067  136.3168  161.7768 C   0  0  0  0  0  0  0  0  0  0  0  0
  128.5105  136.1736  162.2004 C   0  0  0  0  0  0  0  0  0  0  0  0
  129.4927  135.7539  161.3046 C   0  0  0  0  0  0  0  0  0  0  0  0
  130.8944  135.5986  161.7585 C   0  0  0  0  0  0  0  0  0  0  0  0
  131.5887  136.6967  162.2673 C   0  0  0  0  0  0  0  0  0  0  0  0
  132.8900  136.5508  162.6945 C   0  0  0  0  0  0  0  0  0  0  0  0
  133.5172  135.3082  162.6083 C   0  0  0  0  0  0  0  0  0  0  0  0
  134.9202  135.1527  163.0631 C   0  0  0  0  0  0  0  0  0  0  0  0
  135.7469  134.2012  162.4683 C   0  0  0  0  0  0  0  0  0  0  0  0
  137.0533  134.0647  162.8920 C   0  0  0  0  0  0  0  0  0  0  0  0
  137.5392  134.8625  163.9123 C   0  0  0  0  0  0  0  0  0  0  0  0
  136.7216  135.8046  164.5100 C   0  0  0  0  0  0  0  0  0  0  0  0
  135.4151  135.9537  164.0910 C   0  0  0  0  0  0  0  0  0  0  0  0
  132.8255  134.2118  162.0939 C   0  0  0  0  0  0  0  0  0  0  0  0
  131.5225  134.3557  161.6719 C   0  0  0  0  0  0  0  0  0  0  0  0
  130.4694  133.5340  157.2524 N   0  0  0  0  0  0  0  0  0  0  0  0
  130.9474  134.1420  156.6669 H   0  0  0  0  0  0  0  0  0  0  0  0
  131.3018  130.3849  155.7563 C   0  0  0  0  0  0  0  0  0  0  0  0
  131.6095  129.7152  154.5910 C   0  0  0  0  0  0  0  0  0  0  0  0
  131.1126  129.8290  151.3423 H   0  0  0  0  0  0  0  0  0  0  0  0
  132.0017  128.7091  152.2242 H   0  0  0  0  0  0  0  0  0  0  0  0
  129.9642  131.6819  152.3788 H   0  0  0  0  0  0  0  0  0  0  0  0
  129.4028  132.8759  154.4537 H   0  0  0  0  0  0  0  0  0  0  0  0
  129.1182  130.7209  158.1224 H   0  0  0  0  0  0  0  0  0  0  0  0
  130.8922  135.6279  158.8849 H   0  0  0  0  0  0  0  0  0  0  0  0
  127.5713  135.4245  158.5290 H   0  0  0  0  0  0  0  0  0  0  0  0
  124.8645  136.4847  160.6605 H   0  0  0  0  0  0  0  0  0  0  0  0
  125.3052  136.0030  159.1124 H   0  0  0  0  0  0  0  0  0  0  0  0
  126.4473  136.6417  162.4726 H   0  0  0  0  0  0  0  0  0  0  0  0
  128.7711  136.3862  163.2267 H   0  0  0  0  0  0  0  0  0  0  0  0
  131.1046  137.6601  162.3300 H   0  0  0  0  0  0  0  0  0  0  0  0
  133.4259  137.3998  163.0926 H   0  0  0  0  0  0  0  0  0  0  0  0
  135.3674  133.5749  161.6746 H   0  0  0  0  0  0  0  0  0  0  0  0
  137.6961  133.3306  162.4291 H   0  0  0  0  0  0  0  0  0  0  0  0
  138.5610  134.7492  164.2435 H   0  0  0  0  0  0  0  0  0  0  0  0
  137.1060  136.4244  165.3065 H   0  0  0  0  0  0  0  0  0  0  0  0
  134.7775  136.6892  164.5586 H   0  0  0  0  0  0  0  0  0  0  0  0
  133.3116  133.2496  162.0269 H   0  0  0  0  0  0  0  0  0  0  0  0
  130.9867  133.5065  161.2742 H   0  0  0  0  0  0  0  0  0  0  0  0
  131.6783  130.0246  156.7023 H   0  0  0  0  0  0  0  0  0  0  0  0
  132.2267  128.8294  154.6245 H   0  0  0  0  0  0  0  0  0  0  0  0
  1  2  1  0
  1 35  1  0
  1 36  1  0
  2 34  2  0
  2  3  1  0
  3  4  2  0
  3 37  1  0
  4  5  1  0
  4 38  1  0
  5  6  1  0
  5 33  2  0
  6 31  1  0
  6  7  2  0
  7  8  1  0
  7 39  1  0
  8  9  1  0
  8 10  1  0
 10 11  1  0
 10 31  2  0
 11 12  1  0
 11 40  1  0
 12 18  1  0
 12 13  2  0
 13 14  1  0
 13 41  1  0
 14 15  1  0
 14 16  2  0
 15 42  1  0
 15 43  1  0
 16 17  1  0
 16 44  1  0
 17 18  2  0
 17 45  1  0
 18 19  1  0
 19 30  1  0
 19 20  2  0
 20 21  1  0
 20 46  1  0
 21 22  2  0
 21 47  1  0
 22 23  1  0
 22 29  1  0
 23 28  1  0
 23 24  2  0
 24 25  1  0
 24 48  1  0
 25 26  2  0
 25 49  1  0
 26 27  1  0
 26 50  1  0
 27 28  2  0
 27 51  1  0
 28 52  1  0
 29 30  2  0
 29 53  1  0
 30 54  1  0
 31 32  1  0
 33 34  1  0
 33 55  1  0
 34 56  1  0
M  CHG  1  31   1
M  END
>  <DOCK_score>  (1) 
-59.895412

>  <SMILES>  (1) 
Nc1ccc(-c2c[nH]c(Nc3cc(N)ccc3-c3ccc(-c4ccccc4)cc3)[nH+]2)cc1

$$$$
