CC1CC[NH2+][C@H]1C(=O)Nc1ccc(N[C@H]2c3ccccc3C[C@H]2Br)cc1
     RDKit          3D

 51 54  0  0  1  0  0  0  0  0999 V2000
  128.7011  132.3772  159.5712 C   0  0  0  0  0  0  0  0  0  0  0  0
  129.9375  132.4046  158.6705 C   0  0  1  0  0  0  0  0  0  0  0  0
  129.6026  131.8223  157.2781 C   0  0  0  0  0  0  0  0  0  0  0  0
  130.3911  132.7471  156.3171 C   0  0  0  0  0  0  0  0  0  0  0  0
  130.2583  134.0853  156.9479 N   0  0  0  0  0  0  0  0  0  0  0  0
  129.3586  134.4858  156.7283 H   0  0  0  0  0  0  0  0  0  0  0  0
  130.9981  134.6941  156.6315 H   0  0  0  0  0  0  0  0  0  0  0  0
  130.3733  133.8574  158.4048 C   0  0  1  0  0  0  0  0  0  0  0  0
  131.4051  134.0002  158.7257 H   0  0  0  0  0  0  0  0  0  0  0  0
  129.4691  134.8083  159.1460 C   0  0  0  0  0  0  0  0  0  0  0  0
  128.4548  135.2152  158.6199 O   0  0  0  0  0  0  0  0  0  0  0  0
  129.7877  135.2066  160.3937 N   0  0  0  0  0  0  0  0  0  0  0  0
  128.9467  136.0908  161.0830 C   0  0  0  0  0  0  0  0  0  0  0  0
  129.1428  137.4611  160.9759 C   0  0  0  0  0  0  0  0  0  0  0  0
  128.3111  138.3324  161.6505 C   0  0  0  0  0  0  0  0  0  0  0  0
  127.2848  137.8381  162.4447 C   0  0  0  0  0  0  0  0  0  0  0  0
  126.4447  138.7204  163.1323 N   0  0  0  0  0  0  0  0  0  0  0  0
  126.7899  139.1538  164.4884 C   0  0  1  0  0  0  0  0  0  0  0  0
  126.8543  138.2936  165.1549 H   0  0  0  0  0  0  0  0  0  0  0  0
  128.1004  139.9111  164.4802 C   0  0  0  0  0  0  0  0  0  0  0  0
  129.4042  139.4483  164.4153 C   0  0  0  0  0  0  0  0  0  0  0  0
  130.4593  140.3394  164.4207 C   0  0  0  0  0  0  0  0  0  0  0  0
  130.2142  141.6982  164.4925 C   0  0  0  0  0  0  0  0  0  0  0  0
  128.9148  142.1616  164.5581 C   0  0  0  0  0  0  0  0  0  0  0  0
  127.8555  141.2696  164.5519 C   0  0  0  0  0  0  0  0  0  0  0  0
  126.3636  141.5180  164.6129 C   0  0  0  0  0  0  0  0  0  0  0  0
  125.7442  140.1616  165.0111 C   0  0  1  0  0  0  0  0  0  0  0  0
  125.6404  140.0859  166.0935 H   0  0  0  0  0  0  0  0  0  0  0  0
  124.0117  139.8961  164.1205 Br  0  0  0  0  0  0  0  0  0  0  0  0
  127.0923  136.4669  162.5563 C   0  0  0  0  0  0  0  0  0  0  0  0
  127.9211  135.5961  161.8775 C   0  0  0  0  0  0  0  0  0  0  0  0
  127.8922  132.9310  159.0947 H   0  0  0  0  0  0  0  0  0  0  0  0
  128.3901  131.3447  159.7302 H   0  0  0  0  0  0  0  0  0  0  0  0
  128.9401  132.8365  160.5304 H   0  0  0  0  0  0  0  0  0  0  0  0
  130.7516  131.8434  159.1294 H   0  0  0  0  0  0  0  0  0  0  0  0
  129.9519  130.7931  157.1961 H   0  0  0  0  0  0  0  0  0  0  0  0
  128.5323  131.8843  157.0814 H   0  0  0  0  0  0  0  0  0  0  0  0
  129.9412  132.7436  155.3242 H   0  0  0  0  0  0  0  0  0  0  0  0
  131.4379  132.4475  156.2672 H   0  0  0  0  0  0  0  0  0  0  0  0
  130.5989  134.8813  160.8143 H   0  0  0  0  0  0  0  0  0  0  0  0
  129.9437  137.8456  160.3616 H   0  0  0  0  0  0  0  0  0  0  0  0
  128.4610  139.3984  161.5639 H   0  0  0  0  0  0  0  0  0  0  0  0
  125.6337  139.0453  162.7110 H   0  0  0  0  0  0  0  0  0  0  0  0
  129.5964  138.3870  164.3596 H   0  0  0  0  0  0  0  0  0  0  0  0
  131.4746  139.9753  164.3692 H   0  0  0  0  0  0  0  0  0  0  0  0
  131.0380  142.3966  164.4967 H   0  0  0  0  0  0  0  0  0  0  0  0
  128.7242  143.2232  164.6142 H   0  0  0  0  0  0  0  0  0  0  0  0
  126.1364  142.2731  165.3655 H   0  0  0  0  0  0  0  0  0  0  0  0
  125.9925  141.8333  163.6377 H   0  0  0  0  0  0  0  0  0  0  0  0
  126.2941  136.0820  163.1738 H   0  0  0  0  0  0  0  0  0  0  0  0
  127.7715  134.5299  161.9642 H   0  0  0  0  0  0  0  0  0  0  0  0
  1  2  1  0
  1 32  1  0
  1 33  1  0
  1 34  1  0
  2  8  1  0
  2  3  1  0
  2 35  1  1
  3  4  1  0
  3 36  1  0
  3 37  1  0
  4  5  1  0
  4 38  1  0
  4 39  1  0
  5  6  1  0
  5  7  1  0
  5  8  1  0
  8  9  1  1
  8 10  1  0
 10 11  2  0
 10 12  1  0
 12 13  1  0
 12 40  1  0
 13 31  1  0
 13 14  2  0
 14 15  1  0
 14 41  1  0
 15 16  2  0
 15 42  1  0
 16 17  1  0
 16 30  1  0
 17 18  1  0
 17 43  1  0
 18 19  1  1
 18 27  1  0
 18 20  1  0
 20 25  1  0
 20 21  2  0
 21 22  1  0
 21 44  1  0
 22 23  2  0
 22 45  1  0
 23 24  1  0
 23 46  1  0
 24 25  2  0
 24 47  1  0
 25 26  1  0
 26 27  1  0
 26 48  1  0
 26 49  1  0
 27 28  1  1
 27 29  1  0
 30 31  2  0
 30 50  1  0
 31 51  1  0
M  CHG  1   5   1
M  END
>  <DOCK_score>  (1) 
-41.369694

>  <SMILES>  (1) 
CC1CC[NH2+][C@H]1C(=O)Nc1ccc(N[C@H]2c3ccccc3C[C@H]2Br)cc1

$$$$
