c1cc2c(c(Nc3ccc(-c4n[nH]cc4C[NH2+]CC4CC5C[C@@H]5C4)o3)c1)CCCC2
     RDKit          3D

 61 66  0  0  1  0  0  0  0  0999 V2000
  129.2917  139.3896  161.9555 C   0  0  0  0  0  0  0  0  0  0  0  0
  129.0860  140.0574  163.1460 C   0  0  0  0  0  0  0  0  0  0  0  0
  128.0352  139.7061  163.9843 C   0  0  0  0  0  0  0  0  0  0  0  0
  127.1871  138.6848  163.6237 C   0  0  0  0  0  0  0  0  0  0  0  0
  127.3937  138.0084  162.4205 C   0  0  0  0  0  0  0  0  0  0  0  0
  126.5355  136.9699  162.0515 N   0  0  0  0  0  0  0  0  0  0  0  0
  127.0092  135.9202  161.2727 C   0  0  0  0  0  0  0  0  0  0  0  0
  126.2831  134.8535  160.8539 C   0  0  0  0  0  0  0  0  0  0  0  0
  127.1480  134.0391  160.0972 C   0  0  0  0  0  0  0  0  0  0  0  0
  128.3616  134.6513  160.0922 C   0  0  0  0  0  0  0  0  0  0  0  0
  129.5790  134.1539  159.4188 C   0  0  0  0  0  0  0  0  0  0  0  0
  129.6792  133.0414  158.7180 N   0  0  0  0  0  0  0  0  0  0  0  0
  130.9957  132.9390  158.2510 N   0  0  0  0  0  0  0  0  0  0  0  0
  131.3521  132.2188  157.7076 H   0  0  0  0  0  0  0  0  0  0  0  0
  131.6818  134.0190  158.6836 C   0  0  0  0  0  0  0  0  0  0  0  0
  130.8407  134.7853  159.4105 C   0  0  0  0  0  0  0  0  0  0  0  0
  131.1863  136.0867  160.0873 C   0  0  0  0  0  0  0  0  0  0  0  0
  132.5996  136.4050  159.8439 N   0  0  0  0  0  0  0  0  0  0  0  0
  133.1793  135.6679  160.2164 H   0  0  0  0  0  0  0  0  0  0  0  0
  132.7594  136.4892  158.8513 H   0  0  0  0  0  0  0  0  0  0  0  0
  132.9364  137.6735  160.5035 C   0  0  0  0  0  0  0  0  0  0  0  0
  134.4084  138.0050  160.2501 C   0  0  2  0  0  0  0  0  0  0  0  0
  134.8850  139.1405  161.1896 C   0  0  0  0  0  0  0  0  0  0  0  0
  136.0875  139.7632  160.4506 C   0  0  2  0  0  0  0  0  0  0  0  0
  135.8163  140.8830  159.4439 C   0  0  0  0  0  0  0  0  0  0  0  0
  135.9045  139.4347  158.9586 C   0  0  2  0  0  0  0  0  0  0  0  0
  136.7392  139.1344  158.3251 H   0  0  0  0  0  0  0  0  0  0  0  0
  134.5973  138.6238  158.8429 C   0  0  0  0  0  0  0  0  0  0  0  0
  128.2653  135.7883  160.8127 O   0  0  0  0  0  0  0  0  0  0  0  0
  128.4496  138.3575  161.5919 C   0  0  0  0  0  0  0  0  0  0  0  0
  126.0226  138.2569  164.4780 C   0  0  0  0  0  0  0  0  0  0  0  0
  126.1861  138.7729  165.9063 C   0  0  0  0  0  0  0  0  0  0  0  0
  126.4769  140.2772  165.8463 C   0  0  0  0  0  0  0  0  0  0  0  0
  127.8780  140.4741  165.2707 C   0  0  0  0  0  0  0  0  0  0  0  0
  130.1120  139.6711  161.3119 H   0  0  0  0  0  0  0  0  0  0  0  0
  129.7489  140.8618  163.4285 H   0  0  0  0  0  0  0  0  0  0  0  0
  125.6090  136.9811  162.3387 H   0  0  0  0  0  0  0  0  0  0  0  0
  125.2403  134.6645  161.0618 H   0  0  0  0  0  0  0  0  0  0  0  0
  126.8952  133.1072  159.6133 H   0  0  0  0  0  0  0  0  0  0  0  0
  132.7219  134.2316  158.4846 H   0  0  0  0  0  0  0  0  0  0  0  0
  131.0137  135.9957  161.1596 H   0  0  0  0  0  0  0  0  0  0  0  0
  130.5601  136.8829  159.6848 H   0  0  0  0  0  0  0  0  0  0  0  0
  132.3103  138.4698  160.1012 H   0  0  0  0  0  0  0  0  0  0  0  0
  132.7639  137.5824  161.5760 H   0  0  0  0  0  0  0  0  0  0  0  0
  135.0288  137.1165  160.3679 H   0  0  0  0  0  0  0  0  0  0  0  0
  134.0958  139.8801  161.3251 H   0  0  0  0  0  0  0  0  0  0  0  0
  135.1974  138.7339  162.1515 H   0  0  0  0  0  0  0  0  0  0  0  0
  137.0649  139.7011  160.9289 H   0  0  0  0  0  0  0  0  0  0  0  0
  136.6442  141.5475  159.1962 H   0  0  0  0  0  0  0  0  0  0  0  0
  134.8306  141.3478  159.4628 H   0  0  0  0  0  0  0  0  0  0  0  0
  134.6997  137.8402  158.0921 H   0  0  0  0  0  0  0  0  0  0  0  0
  133.7606  139.2782  158.5984 H   0  0  0  0  0  0  0  0  0  0  0  0
  128.6096  137.8278  160.6644 H   0  0  0  0  0  0  0  0  0  0  0  0
  125.1008  138.6560  164.0550 H   0  0  0  0  0  0  0  0  0  0  0  0
  125.9688  137.1685  164.4931 H   0  0  0  0  0  0  0  0  0  0  0  0
  125.2679  138.5986  166.4670 H   0  0  0  0  0  0  0  0  0  0  0  0
  127.0157  138.2574  166.3902 H   0  0  0  0  0  0  0  0  0  0  0  0
  125.7445  140.7675  165.2052 H   0  0  0  0  0  0  0  0  0  0  0  0
  126.4295  140.7006  166.8496 H   0  0  0  0  0  0  0  0  0  0  0  0
  128.0417  141.5344  165.0786 H   0  0  0  0  0  0  0  0  0  0  0  0
  128.6156  140.1220  165.9918 H   0  0  0  0  0  0  0  0  0  0  0  0
  1 30  2  0
  1  2  1  0
  1 35  1  0
  2  3  2  0
  2 36  1  0
  3 34  1  0
  3  4  1  0
  4  5  2  0
  4 31  1  0
  5  6  1  0
  5 30  1  0
  6  7  1  0
  6 37  1  0
  7 29  1  0
  7  8  2  0
  8  9  1  0
  8 38  1  0
  9 10  2  0
  9 39  1  0
 10 11  1  0
 10 29  1  0
 11 16  1  0
 11 12  2  0
 12 13  1  0
 13 14  1  0
 13 15  1  0
 15 16  2  0
 15 40  1  0
 16 17  1  0
 17 18  1  0
 17 41  1  0
 17 42  1  0
 18 19  1  0
 18 20  1  0
 18 21  1  0
 21 22  1  0
 21 43  1  0
 21 44  1  0
 22 28  1  0
 22 23  1  0
 22 45  1  6
 23 24  1  0
 23 46  1  0
 23 47  1  0
 24 26  1  0
 24 25  1  0
 24 48  1  1
 25 26  1  0
 25 49  1  0
 25 50  1  0
 26 27  1  6
 26 28  1  0
 28 51  1  0
 28 52  1  0
 30 53  1  0
 31 32  1  0
 31 54  1  0
 31 55  1  0
 32 33  1  0
 32 56  1  0
 32 57  1  0
 33 34  1  0
 33 58  1  0
 33 59  1  0
 34 60  1  0
 34 61  1  0
M  CHG  1  18   1
M  END
>  <DOCK_score>  (1) 
-47.862755

>  <SMILES>  (1) 
c1cc2c(c(Nc3ccc(-c4n[nH]cc4C[NH2+]CC4CC5C[C@@H]5C4)o3)c1)CCCC2

$$$$
