O=C1CC[C@@H]([NH+]=C(N[C@H]2C[C@@H](O)[C@@H](O)C2)N[C@H]2[C@@H]3CC=CC[C@@H]32)CN1
     RDKit          3D

 54 57  0  0  1  0  0  0  0  0999 V2000
  123.7492  134.5837  162.6531 O   0  0  0  0  0  0  0  0  0  0  0  0
  124.8132  134.3512  162.1195 C   0  0  0  0  0  0  0  0  0  0  0  0
  125.6259  133.1954  162.6282 C   0  0  0  0  0  0  0  0  0  0  0  0
  126.6764  132.7993  161.5878 C   0  0  0  0  0  0  0  0  0  0  0  0
  127.4083  134.0671  161.1313 C   0  0  1  0  0  0  0  0  0  0  0  0
  127.7770  134.6100  162.0017 H   0  0  0  0  0  0  0  0  0  0  0  0
  128.5334  133.7011  160.2674 N   0  0  0  0  0  0  0  0  0  0  0  0
  128.7101  132.7679  160.0705 H   0  0  0  0  0  0  0  0  0  0  0  0
  129.2972  134.6293  159.7635 C   0  0  0  0  0  0  0  0  0  0  0  0
  129.4895  135.8071  160.4463 N   0  0  0  0  0  0  0  0  0  0  0  0
  130.3480  136.8503  159.8797 C   0  0  1  0  0  0  0  0  0  0  0  0
  130.3263  136.8169  158.7905 H   0  0  0  0  0  0  0  0  0  0  0  0
  129.9285  138.2480  160.3986 C   0  0  0  0  0  0  0  0  0  0  0  0
  131.2028  139.1048  160.2502 C   0  0  1  0  0  0  0  0  0  0  0  0
  131.1755  139.6563  159.3104 H   0  0  0  0  0  0  0  0  0  0  0  0
  131.3123  140.0135  161.3475 O   0  0  0  0  0  0  0  0  0  0  0  0
  132.3919  138.1282  160.2537 C   0  0  1  0  0  0  0  0  0  0  0  0
  132.9412  138.2051  159.3155 H   0  0  0  0  0  0  0  0  0  0  0  0
  133.2580  138.4156  161.3535 O   0  0  0  0  0  0  0  0  0  0  0  0
  131.7988  136.7121  160.4044 C   0  0  0  0  0  0  0  0  0  0  0  0
  129.9104  134.4306  158.5491 N   0  0  0  0  0  0  0  0  0  0  0  0
  129.7053  133.1757  157.8215 C   0  0  1  0  0  0  0  0  0  0  0  0
  128.6728  132.9517  157.5532 H   0  0  0  0  0  0  0  0  0  0  0  0
  130.7981  132.7408  156.8430 C   0  0  2  0  0  0  0  0  0  0  0  0
  131.6707  133.3835  156.7267 H   0  0  0  0  0  0  0  0  0  0  0  0
  130.3161  131.9347  155.6010 C   0  0  0  0  0  0  0  0  0  0  0  0
  130.7621  130.5012  155.7553 C   0  0  0  0  0  0  0  0  0  0  0  0
  130.6172  129.8806  156.8996 C   0  0  0  0  0  0  0  0  0  0  0  0
  130.0026  130.5897  158.0815 C   0  0  0  0  0  0  0  0  0  0  0  0
  130.6131  131.9969  158.1783 C   0  0  2  0  0  0  0  0  0  0  0  0
  131.3616  132.1406  158.9575 H   0  0  0  0  0  0  0  0  0  0  0  0
  126.4279  134.9450  160.3524 C   0  0  0  0  0  0  0  0  0  0  0  0
  125.1990  135.1359  161.1127 N   0  0  0  0  0  0  0  0  0  0  0  0
  124.9685  132.3472  162.8199 H   0  0  0  0  0  0  0  0  0  0  0  0
  126.1238  133.4840  163.5539 H   0  0  0  0  0  0  0  0  0  0  0  0
  126.1883  132.3298  160.7337 H   0  0  0  0  0  0  0  0  0  0  0  0
  127.3887  132.1041  162.0318 H   0  0  0  0  0  0  0  0  0  0  0  0
  129.0567  135.9473  161.3028 H   0  0  0  0  0  0  0  0  0  0  0  0
  129.6263  138.1920  161.4444 H   0  0  0  0  0  0  0  0  0  0  0  0
  129.1219  138.6552  159.7889 H   0  0  0  0  0  0  0  0  0  0  0  0
  131.3422  139.5833  162.2131 H   0  0  0  0  0  0  0  0  0  0  0  0
  132.8269  138.3641  162.2176 H   0  0  0  0  0  0  0  0  0  0  0  0
  132.3571  135.9983  159.7988 H   0  0  0  0  0  0  0  0  0  0  0  0
  131.8007  136.4071  161.4507 H   0  0  0  0  0  0  0  0  0  0  0  0
  130.4787  135.1213  158.1739 H   0  0  0  0  0  0  0  0  0  0  0  0
  130.7600  132.3615  154.7016 H   0  0  0  0  0  0  0  0  0  0  0  0
  129.2294  131.9740  155.5271 H   0  0  0  0  0  0  0  0  0  0  0  0
  131.2034  129.9836  154.9164 H   0  0  0  0  0  0  0  0  0  0  0  0
  130.9395  128.8545  156.9979 H   0  0  0  0  0  0  0  0  0  0  0  0
  130.2174  130.0338  158.9942 H   0  0  0  0  0  0  0  0  0  0  0  0
  128.9244  130.6671  157.9418 H   0  0  0  0  0  0  0  0  0  0  0  0
  126.8870  135.9147  160.1602 H   0  0  0  0  0  0  0  0  0  0  0  0
  126.1927  134.4663  159.4017 H   0  0  0  0  0  0  0  0  0  0  0  0
  124.6261  135.8805  160.8713 H   0  0  0  0  0  0  0  0  0  0  0  0
  1  2  2  0
  2 33  1  0
  2  3  1  0
  3  4  1  0
  3 34  1  0
  3 35  1  0
  4  5  1  0
  4 36  1  0
  4 37  1  0
  5  6  1  1
  5  7  1  0
  5 32  1  0
  7  8  1  0
  9  7  2  0
  9 10  1  0
  9 21  1  0
 10 11  1  0
 10 38  1  0
 11 12  1  6
 11 20  1  0
 11 13  1  0
 13 14  1  0
 13 39  1  0
 13 40  1  0
 14 15  1  6
 14 16  1  0
 14 17  1  0
 16 41  1  0
 17 18  1  6
 17 19  1  0
 17 20  1  0
 19 42  1  0
 20 43  1  0
 20 44  1  0
 21 22  1  0
 21 45  1  0
 22 23  1  6
 22 30  1  0
 22 24  1  0
 24 25  1  6
 24 30  1  0
 24 26  1  0
 26 27  1  0
 26 46  1  0
 26 47  1  0
 27 28  2  0
 27 48  1  0
 28 29  1  0
 28 49  1  0
 29 30  1  0
 29 50  1  0
 29 51  1  0
 30 31  1  1
 32 33  1  0
 32 52  1  0
 32 53  1  0
 33 54  1  0
M  CHG  1   7   1
M  END
>  <DOCK_score>  (1) 
-44.706444

>  <SMILES>  (1) 
O=C1CC[C@@H]([NH+]=C(N[C@H]2C[C@@H](O)[C@@H](O)C2)N[C@H]2[C@@H]3CC=CC[C@@H]32)CN1

$$$$
