OCc1ccc(-c2cccc(C3=CC[N@H+](Cc4ccc(-c5ccccc5)[nH]4)CC3)c2)cc1
     RDKit          3D

 61 65  0  0  1  0  0  0  0  0999 V2000
  135.9070  142.3836  167.3716 O   0  0  0  0  0  0  0  0  0  0  0  0
  136.9799  141.6859  166.7341 C   0  0  0  0  0  0  0  0  0  0  0  0
  136.5194  141.1758  165.3930 C   0  0  0  0  0  0  0  0  0  0  0  0
  135.9487  139.9196  165.2928 C   0  0  0  0  0  0  0  0  0  0  0  0
  135.5254  139.4470  164.0672 C   0  0  0  0  0  0  0  0  0  0  0  0
  135.6736  140.2376  162.9296 C   0  0  0  0  0  0  0  0  0  0  0  0
  135.2201  139.7348  161.6089 C   0  0  0  0  0  0  0  0  0  0  0  0
  135.8626  140.1533  160.4442 C   0  0  0  0  0  0  0  0  0  0  0  0
  135.4427  139.6868  159.2141 C   0  0  0  0  0  0  0  0  0  0  0  0
  134.3850  138.8031  159.1288 C   0  0  0  0  0  0  0  0  0  0  0  0
  133.7339  138.3769  160.2875 C   0  0  0  0  0  0  0  0  0  0  0  0
  132.6014  137.4312  160.1957 C   0  0  0  0  0  0  0  0  0  0  0  0
  131.3830  137.9110  160.0706 C   0  0  0  0  0  0  0  0  0  0  0  0
  130.1665  137.0361  159.9755 C   0  0  0  0  0  0  0  0  0  0  0  0
  130.5480  135.6670  159.6100 N   0  0  2  0  0  0  0  0  0  0  0  0
  130.9083  135.6570  158.6677 H   0  0  0  0  0  0  0  0  0  0  0  0
  129.3734  134.7891  159.6987 C   0  0  0  0  0  0  0  0  0  0  0  0
  129.6134  133.5450  158.8828 C   0  0  0  0  0  0  0  0  0  0  0  0
  129.3398  132.2810  159.2719 C   0  0  0  0  0  0  0  0  0  0  0  0
  129.7112  131.4222  158.2247 C   0  0  0  0  0  0  0  0  0  0  0  0
  130.2048  132.1980  157.2193 C   0  0  0  0  0  0  0  0  0  0  0  0
  130.7161  131.7153  155.9186 C   0  0  0  0  0  0  0  0  0  0  0  0
  130.6047  132.5162  154.7809 C   0  0  0  0  0  0  0  0  0  0  0  0
  131.0887  132.0621  153.5714 C   0  0  0  0  0  0  0  0  0  0  0  0
  131.6736  130.8114  153.4824 C   0  0  0  0  0  0  0  0  0  0  0  0
  131.7818  130.0103  154.6052 C   0  0  0  0  0  0  0  0  0  0  0  0
  131.3068  130.4545  155.8218 C   0  0  0  0  0  0  0  0  0  0  0  0
  130.1380  133.5061  157.6253 N   0  0  0  0  0  0  0  0  0  0  0  0
  130.4194  134.2752  157.1053 H   0  0  0  0  0  0  0  0  0  0  0  0
  131.5867  135.1951  160.5394 C   0  0  0  0  0  0  0  0  0  0  0  0
  132.8836  135.9548  160.2489 C   0  0  0  0  0  0  0  0  0  0  0  0
  134.1505  138.8493  161.5307 C   0  0  0  0  0  0  0  0  0  0  0  0
  136.2543  141.4998  163.0353 C   0  0  0  0  0  0  0  0  0  0  0  0
  136.6690  141.9647  164.2669 C   0  0  0  0  0  0  0  0  0  0  0  0
  135.1223  141.8403  167.5271 H   0  0  0  0  0  0  0  0  0  0  0  0
  137.2877  140.8466  167.3566 H   0  0  0  0  0  0  0  0  0  0  0  0
  137.8217  142.3643  166.5953 H   0  0  0  0  0  0  0  0  0  0  0  0
  135.8347  139.3074  166.1752 H   0  0  0  0  0  0  0  0  0  0  0  0
  135.0803  138.4660  163.9901 H   0  0  0  0  0  0  0  0  0  0  0  0
  136.6909  140.8437  160.5042 H   0  0  0  0  0  0  0  0  0  0  0  0
  135.9437  140.0141  158.3151 H   0  0  0  0  0  0  0  0  0  0  0  0
  134.0610  138.4415  158.1641 H   0  0  0  0  0  0  0  0  0  0  0  0
  131.2519  138.9824  160.0347 H   0  0  0  0  0  0  0  0  0  0  0  0
  129.4925  137.4369  159.2183 H   0  0  0  0  0  0  0  0  0  0  0  0
  129.6554  137.0232  160.9383 H   0  0  0  0  0  0  0  0  0  0  0  0
  129.2034  134.5137  160.7395 H   0  0  0  0  0  0  0  0  0  0  0  0
  128.4985  135.3128  159.3138 H   0  0  0  0  0  0  0  0  0  0  0  0
  128.9128  131.9839  160.2184 H   0  0  0  0  0  0  0  0  0  0  0  0
  129.6222  130.3459  158.2175 H   0  0  0  0  0  0  0  0  0  0  0  0
  130.1442  133.4908  154.8482 H   0  0  0  0  0  0  0  0  0  0  0  0
  131.0068  132.6826  152.6911 H   0  0  0  0  0  0  0  0  0  0  0  0
  132.0471  130.4590  152.5323 H   0  0  0  0  0  0  0  0  0  0  0  0
  132.2396  129.0350  154.5291 H   0  0  0  0  0  0  0  0  0  0  0  0
  131.3916  129.8281  156.6974 H   0  0  0  0  0  0  0  0  0  0  0  0
  131.2732  135.3855  161.5659 H   0  0  0  0  0  0  0  0  0  0  0  0
  131.7461  134.1262  160.3979 H   0  0  0  0  0  0  0  0  0  0  0  0
  133.6078  135.7517  161.0378 H   0  0  0  0  0  0  0  0  0  0  0  0
  133.2890  135.6279  159.2913 H   0  0  0  0  0  0  0  0  0  0  0  0
  133.6474  138.5258  162.4298 H   0  0  0  0  0  0  0  0  0  0  0  0
  136.3758  142.1147  162.1558 H   0  0  0  0  0  0  0  0  0  0  0  0
  137.1152  142.9446  164.3507 H   0  0  0  0  0  0  0  0  0  0  0  0
  1  2  1  0
  1 35  1  0
  2  3  1  0
  2 36  1  0
  2 37  1  0
  3 34  2  0
  3  4  1  0
  4  5  2  0
  4 38  1  0
  5  6  1  0
  5 39  1  0
  6  7  1  0
  6 33  2  0
  7 32  1  0
  7  8  2  0
  8  9  1  0
  8 40  1  0
  9 10  2  0
  9 41  1  0
 10 11  1  0
 10 42  1  0
 11 12  1  0
 11 32  2  0
 12 31  1  0
 12 13  2  0
 13 14  1  0
 13 43  1  0
 14 15  1  0
 14 44  1  0
 14 45  1  0
 15 16  1  6
 15 17  1  0
 15 30  1  0
 17 18  1  0
 17 46  1  0
 17 47  1  0
 18 28  1  0
 18 19  2  0
 19 20  1  0
 19 48  1  0
 20 21  2  0
 20 49  1  0
 21 22  1  0
 21 28  1  0
 22 27  1  0
 22 23  2  0
 23 24  1  0
 23 50  1  0
 24 25  2  0
 24 51  1  0
 25 26  1  0
 25 52  1  0
 26 27  2  0
 26 53  1  0
 27 54  1  0
 28 29  1  0
 30 31  1  0
 30 55  1  0
 30 56  1  0
 31 57  1  0
 31 58  1  0
 32 59  1  0
 33 34  1  0
 33 60  1  0
 34 61  1  0
M  CHG  1  15   1
M  END
>  <DOCK_score>  (1) 
-60.570076

>  <SMILES>  (1) 
OCc1ccc(-c2cccc(C3=CC[N@H+](Cc4ccc(-c5ccccc5)[nH]4)CC3)c2)cc1

$$$$
