Nc1ccc(-c2c[nH]c(NC(=O)N[C@H]3C[C@H]3[NH2+][C@@H]3CCC=C3c3ccccc3)n2)cc1
     RDKit          3D

 58 62  0  0  1  0  0  0  0  0999 V2000
  139.3871  136.9182  165.5542 N   0  0  0  0  0  0  0  0  0  0  0  0
  138.1518  136.6537  164.9577 C   0  0  0  0  0  0  0  0  0  0  0  0
  137.7447  137.3878  163.8498 C   0  0  0  0  0  0  0  0  0  0  0  0
  136.5258  137.1288  163.2597 C   0  0  0  0  0  0  0  0  0  0  0  0
  135.7015  136.1295  163.7749 C   0  0  0  0  0  0  0  0  0  0  0  0
  134.3895  135.8489  163.1415 C   0  0  0  0  0  0  0  0  0  0  0  0
  133.2828  135.3826  163.7724 C   0  0  0  0  0  0  0  0  0  0  0  0
  132.3024  135.2625  162.8182 N   0  0  0  0  0  0  0  0  0  0  0  0
  131.3957  134.9488  162.9612 H   0  0  0  0  0  0  0  0  0  0  0  0
  132.8392  135.6676  161.6354 C   0  0  0  0  0  0  0  0  0  0  0  0
  132.1758  135.7035  160.4160 N   0  0  0  0  0  0  0  0  0  0  0  0
  130.8858  135.3205  160.3390 C   0  0  0  0  0  0  0  0  0  0  0  0
  130.3030  134.9436  161.3374 O   0  0  0  0  0  0  0  0  0  0  0  0
  130.2418  135.3553  159.1555 N   0  0  0  0  0  0  0  0  0  0  0  0
  128.8398  134.9390  159.0720 C   0  0  1  0  0  0  0  0  0  0  0  0
  128.2464  135.1018  159.9718 H   0  0  0  0  0  0  0  0  0  0  0  0
  128.1353  135.0960  157.7229 C   0  0  0  0  0  0  0  0  0  0  0  0
  128.5188  133.7037  158.2282 C   0  0  1  0  0  0  0  0  0  0  0  0
  127.7141  133.0541  158.5727 H   0  0  0  0  0  0  0  0  0  0  0  0
  129.6401  133.0257  157.5643 N   0  0  0  0  0  0  0  0  0  0  0  0
  129.2897  132.4608  156.8052 H   0  0  0  0  0  0  0  0  0  0  0  0
  130.2827  133.7143  157.2023 H   0  0  0  0  0  0  0  0  0  0  0  0
  130.3361  132.1677  158.5325 C   0  0  2  0  0  0  0  0  0  0  0  0
  130.7208  132.7645  159.3594 H   0  0  0  0  0  0  0  0  0  0  0  0
  131.4849  131.3982  157.8411 C   0  0  0  0  0  0  0  0  0  0  0  0
  130.7905  130.0673  157.4717 C   0  0  0  0  0  0  0  0  0  0  0  0
  129.6568  129.9351  158.4620 C   0  0  0  0  0  0  0  0  0  0  0  0
  129.4062  131.0934  159.0471 C   0  0  0  0  0  0  0  0  0  0  0  0
  128.3578  131.3091  160.0665 C   0  0  0  0  0  0  0  0  0  0  0  0
  127.1926  130.5418  160.0463 C   0  0  0  0  0  0  0  0  0  0  0  0
  126.2205  130.7438  161.0045 C   0  0  0  0  0  0  0  0  0  0  0  0
  126.3938  131.7130  161.9763 C   0  0  0  0  0  0  0  0  0  0  0  0
  127.5443  132.4810  161.9984 C   0  0  0  0  0  0  0  0  0  0  0  0
  128.5267  132.2848  161.0496 C   0  0  0  0  0  0  0  0  0  0  0  0
  134.0869  136.0132  161.8360 N   0  0  0  0  0  0  0  0  0  0  0  0
  136.1093  135.3982  164.8893 C   0  0  0  0  0  0  0  0  0  0  0  0
  137.3314  135.6573  165.4733 C   0  0  0  0  0  0  0  0  0  0  0  0
  139.9599  137.6137  165.1951 H   0  0  0  0  0  0  0  0  0  0  0  0
  139.6716  136.4064  166.3274 H   0  0  0  0  0  0  0  0  0  0  0  0
  138.3837  138.1618  163.4510 H   0  0  0  0  0  0  0  0  0  0  0  0
  136.2096  137.6997  162.3992 H   0  0  0  0  0  0  0  0  0  0  0  0
  133.1917  135.1468  164.8225 H   0  0  0  0  0  0  0  0  0  0  0  0
  132.6407  136.0041  159.6196 H   0  0  0  0  0  0  0  0  0  0  0  0
  130.7068  135.6561  158.3592 H   0  0  0  0  0  0  0  0  0  0  0  0
  127.0784  135.3624  157.7350 H   0  0  0  0  0  0  0  0  0  0  0  0
  128.7151  135.5091  156.8976 H   0  0  0  0  0  0  0  0  0  0  0  0
  131.8242  131.9227  156.9479 H   0  0  0  0  0  0  0  0  0  0  0  0
  132.3119  131.2289  158.5306 H   0  0  0  0  0  0  0  0  0  0  0  0
  131.4857  129.2345  157.5774 H   0  0  0  0  0  0  0  0  0  0  0  0
  130.4022  130.1097  156.4541 H   0  0  0  0  0  0  0  0  0  0  0  0
  129.1232  129.0181  158.6642 H   0  0  0  0  0  0  0  0  0  0  0  0
  127.0540  129.7883  159.2852 H   0  0  0  0  0  0  0  0  0  0  0  0
  125.3203  130.1472  160.9928 H   0  0  0  0  0  0  0  0  0  0  0  0
  125.6279  131.8705  162.7211 H   0  0  0  0  0  0  0  0  0  0  0  0
  127.6739  133.2355  162.7601 H   0  0  0  0  0  0  0  0  0  0  0  0
  129.4245  132.8847  161.0682 H   0  0  0  0  0  0  0  0  0  0  0  0
  135.4704  134.6265  165.2927 H   0  0  0  0  0  0  0  0  0  0  0  0
  137.6496  135.0882  166.3342 H   0  0  0  0  0  0  0  0  0  0  0  0
  1  2  1  0
  1 38  1  0
  1 39  1  0
  2 37  2  0
  2  3  1  0
  3  4  2  0
  3 40  1  0
  4  5  1  0
  4 41  1  0
  5  6  1  0
  5 36  2  0
  6 35  1  0
  6  7  2  0
  7  8  1  0
  7 42  1  0
  8  9  1  0
  8 10  1  0
 10 11  1  0
 10 35  2  0
 11 12  1  0
 11 43  1  0
 12 13  2  0
 12 14  1  0
 14 15  1  0
 14 44  1  0
 15 16  1  1
 15 18  1  0
 15 17  1  0
 17 18  1  0
 17 45  1  0
 17 46  1  0
 18 19  1  1
 18 20  1  0
 20 21  1  0
 20 22  1  0
 20 23  1  0
 23 24  1  1
 23 28  1  0
 23 25  1  0
 25 26  1  0
 25 47  1  0
 25 48  1  0
 26 27  1  0
 26 49  1  0
 26 50  1  0
 27 28  2  0
 27 51  1  0
 28 29  1  0
 29 34  1  0
 29 30  2  0
 30 31  1  0
 30 52  1  0
 31 32  2  0
 31 53  1  0
 32 33  1  0
 32 54  1  0
 33 34  2  0
 33 55  1  0
 34 56  1  0
 36 37  1  0
 36 57  1  0
 37 58  1  0
M  CHG  1  20   1
M  END
>  <DOCK_score>  (1) 
-57.945377

>  <SMILES>  (1) 
Nc1ccc(-c2c[nH]c(NC(=O)N[C@H]3C[C@H]3[NH2+][C@@H]3CCC=C3c3ccccc3)n2)cc1

$$$$
