Cc1ccc(Nc2ccc([C@H](c3ccccc3)[NH+]3CCN(c4cccc(C)c4C)CC3)cc2)cn1
     RDKit          3D

 70 74  0  0  1  0  0  0  0  0999 V2000
  129.2118  129.7284  150.4676 C   0  0  0  0  0  0  0  0  0  0  0  0
  129.8915  129.7411  151.8126 C   0  0  0  0  0  0  0  0  0  0  0  0
  130.9351  128.8675  152.0572 C   0  0  0  0  0  0  0  0  0  0  0  0
  131.5552  128.8840  153.2954 C   0  0  0  0  0  0  0  0  0  0  0  0
  131.0984  129.7879  154.2523 C   0  0  0  0  0  0  0  0  0  0  0  0
  131.6913  129.8424  155.5165 N   0  0  0  0  0  0  0  0  0  0  0  0
  131.2250  130.7528  156.4681 C   0  0  0  0  0  0  0  0  0  0  0  0
  130.7209  130.2966  157.6797 C   0  0  0  0  0  0  0  0  0  0  0  0
  130.2648  131.1995  158.6198 C   0  0  0  0  0  0  0  0  0  0  0  0
  130.3001  132.5559  158.3523 C   0  0  0  0  0  0  0  0  0  0  0  0
  129.7956  133.5377  159.3782 C   0  0  2  0  0  0  0  0  0  0  0  0
  129.4458  132.9970  160.2575 H   0  0  0  0  0  0  0  0  0  0  0  0
  128.6584  134.3352  158.7934 C   0  0  0  0  0  0  0  0  0  0  0  0
  127.3589  133.8810  158.9197 C   0  0  0  0  0  0  0  0  0  0  0  0
  126.3155  134.6147  158.3871 C   0  0  0  0  0  0  0  0  0  0  0  0
  126.5723  135.7981  157.7205 C   0  0  0  0  0  0  0  0  0  0  0  0
  127.8722  136.2498  157.5895 C   0  0  0  0  0  0  0  0  0  0  0  0
  128.9152  135.5182  158.1259 C   0  0  0  0  0  0  0  0  0  0  0  0
  130.8839  134.4464  159.7629 N   0  0  0  0  0  0  0  0  0  0  0  0
  131.2075  134.9470  158.9488 H   0  0  0  0  0  0  0  0  0  0  0  0
  131.9926  133.6689  160.3318 C   0  0  0  0  0  0  0  0  0  0  0  0
  133.1340  134.6131  160.7154 C   0  0  0  0  0  0  0  0  0  0  0  0
  132.6465  135.5932  161.6962 N   0  0  0  0  0  0  0  0  0  0  0  0
  133.6763  136.4404  162.1116 C   0  0  0  0  0  0  0  0  0  0  0  0
  134.3431  137.2321  161.1848 C   0  0  0  0  0  0  0  0  0  0  0  0
  135.3604  138.0689  161.5989 C   0  0  0  0  0  0  0  0  0  0  0  0
  135.7162  138.1192  162.9345 C   0  0  0  0  0  0  0  0  0  0  0  0
  135.0547  137.3326  163.8594 C   0  0  0  0  0  0  0  0  0  0  0  0
  135.4458  137.3907  165.3136 C   0  0  0  0  0  0  0  0  0  0  0  0
  134.0323  136.4976  163.4529 C   0  0  0  0  0  0  0  0  0  0  0  0
  133.3078  135.6452  164.4626 C   0  0  0  0  0  0  0  0  0  0  0  0
  131.5197  136.3625  161.1495 C   0  0  0  0  0  0  0  0  0  0  0  0
  130.3916  135.4038  160.7624 C   0  0  0  0  0  0  0  0  0  0  0  0
  130.7968  133.0131  157.1454 C   0  0  0  0  0  0  0  0  0  0  0  0
  131.2589  132.1161  156.2027 C   0  0  0  0  0  0  0  0  0  0  0  0
  130.0444  130.6339  153.9310 C   0  0  0  0  0  0  0  0  0  0  0  0
  129.4826  130.5849  152.7397 N   0  0  0  0  0  0  0  0  0  0  0  0
  129.7155  130.4268  149.7994 H   0  0  0  0  0  0  0  0  0  0  0  0
  129.2589  128.7243  150.0463 H   0  0  0  0  0  0  0  0  0  0  0  0
  128.1694  130.0247  150.5845 H   0  0  0  0  0  0  0  0  0  0  0  0
  131.2627  128.1798  151.2915 H   0  0  0  0  0  0  0  0  0  0  0  0
  132.3729  128.2130  153.5138 H   0  0  0  0  0  0  0  0  0  0  0  0
  132.4268  129.2484  155.7332 H   0  0  0  0  0  0  0  0  0  0  0  0
  130.6890  129.2372  157.8875 H   0  0  0  0  0  0  0  0  0  0  0  0
  129.8766  130.8457  159.5635 H   0  0  0  0  0  0  0  0  0  0  0  0
  127.1586  132.9545  159.4373 H   0  0  0  0  0  0  0  0  0  0  0  0
  125.2998  134.2621  158.4897 H   0  0  0  0  0  0  0  0  0  0  0  0
  125.7573  136.3701  157.3020 H   0  0  0  0  0  0  0  0  0  0  0  0
  128.0727  137.1743  157.0688 H   0  0  0  0  0  0  0  0  0  0  0  0
  129.9309  135.8710  158.0237 H   0  0  0  0  0  0  0  0  0  0  0  0
  131.6465  133.1380  161.2186 H   0  0  0  0  0  0  0  0  0  0  0  0
  132.3484  132.9499  159.5936 H   0  0  0  0  0  0  0  0  0  0  0  0
  133.4893  135.1341  159.8263 H   0  0  0  0  0  0  0  0  0  0  0  0
  133.9509  134.0380  161.1513 H   0  0  0  0  0  0  0  0  0  0  0  0
  134.0658  137.1933  160.1417 H   0  0  0  0  0  0  0  0  0  0  0  0
  135.8790  138.6847  160.8790 H   0  0  0  0  0  0  0  0  0  0  0  0
  136.5122  138.7746  163.2557 H   0  0  0  0  0  0  0  0  0  0  0  0
  134.8583  138.1583  165.8174 H   0  0  0  0  0  0  0  0  0  0  0  0
  135.2564  136.4238  165.7796 H   0  0  0  0  0  0  0  0  0  0  0  0
  136.5055  137.6322  165.3954 H   0  0  0  0  0  0  0  0  0  0  0  0
  133.8143  134.6847  164.5575 H   0  0  0  0  0  0  0  0  0  0  0  0
  133.3034  136.1507  165.4284 H   0  0  0  0  0  0  0  0  0  0  0  0
  132.2816  135.4839  164.1323 H   0  0  0  0  0  0  0  0  0  0  0  0
  131.8485  136.9123  160.2677 H   0  0  0  0  0  0  0  0  0  0  0  0
  131.1587  137.0639  161.9019 H   0  0  0  0  0  0  0  0  0  0  0  0
  129.5605  135.9711  160.3434 H   0  0  0  0  0  0  0  0  0  0  0  0
  130.0538  134.8641  161.6470 H   0  0  0  0  0  0  0  0  0  0  0  0
  130.8228  134.0730  156.9397 H   0  0  0  0  0  0  0  0  0  0  0  0
  131.6460  132.4738  155.2601 H   0  0  0  0  0  0  0  0  0  0  0  0
  129.6821  131.3388  154.6645 H   0  0  0  0  0  0  0  0  0  0  0  0
  1  2  1  0
  1 38  1  0
  1 39  1  0
  1 40  1  0
  2 37  2  0
  2  3  1  0
  3  4  2  0
  3 41  1  0
  4  5  1  0
  4 42  1  0
  5  6  1  0
  5 36  2  0
  6  7  1  0
  6 43  1  0
  7 35  1  0
  7  8  2  0
  8  9  1  0
  8 44  1  0
  9 10  2  0
  9 45  1  0
 10 11  1  0
 10 34  1  0
 11 12  1  1
 11 13  1  0
 11 19  1  0
 13 18  1  0
 13 14  2  0
 14 15  1  0
 14 46  1  0
 15 16  2  0
 15 47  1  0
 16 17  1  0
 16 48  1  0
 17 18  2  0
 17 49  1  0
 18 50  1  0
 19 20  1  0
 19 33  1  0
 19 21  1  0
 21 22  1  0
 21 51  1  0
 21 52  1  0
 22 23  1  0
 22 53  1  0
 22 54  1  0
 23 24  1  0
 23 32  1  0
 24 30  1  0
 24 25  2  0
 25 26  1  0
 25 55  1  0
 26 27  2  0
 26 56  1  0
 27 28  1  0
 27 57  1  0
 28 29  1  0
 28 30  2  0
 29 58  1  0
 29 59  1  0
 29 60  1  0
 30 31  1  0
 31 61  1  0
 31 62  1  0
 31 63  1  0
 32 33  1  0
 32 64  1  0
 32 65  1  0
 33 66  1  0
 33 67  1  0
 34 35  2  0
 34 68  1  0
 35 69  1  0
 36 37  1  0
 36 70  1  0
M  CHG  1  19   1
M  END
>  <DOCK_score>  (1) 
-58.041946

>  <SMILES>  (1) 
Cc1ccc(Nc2ccc([C@H](c3ccccc3)[NH+]3CCN(c4cccc(C)c4C)CC3)cc2)cn1

$$$$
