CCOC(=O)c1oc2ccc(C3=CCN(C)CC3)cc2c1C[NH2+][C@H]1COC2(CCC2)C1
     RDKit          3D

 64 68  0  0  1  0  0  0  0  0999 V2000
  125.9709  132.3101  161.7842 C   0  0  0  0  0  0  0  0  0  0  0  0
  126.0423  132.9795  160.4103 C   0  0  0  0  0  0  0  0  0  0  0  0
  127.1953  133.8605  160.3604 O   0  0  0  0  0  0  0  0  0  0  0  0
  127.0062  135.1389  160.7461 C   0  0  0  0  0  0  0  0  0  0  0  0
  125.9073  135.5066  161.1141 O   0  0  0  0  0  0  0  0  0  0  0  0
  128.1272  136.0864  160.7217 C   0  0  0  0  0  0  0  0  0  0  0  0
  128.0548  137.3844  161.0837 O   0  0  0  0  0  0  0  0  0  0  0  0
  129.2520  137.9885  160.9494 C   0  0  0  0  0  0  0  0  0  0  0  0
  129.6913  139.2876  161.1856 C   0  0  0  0  0  0  0  0  0  0  0  0
  130.9927  139.6274  160.9545 C   0  0  0  0  0  0  0  0  0  0  0  0
  131.9072  138.6788  160.4792 C   0  0  0  0  0  0  0  0  0  0  0  0
  133.3134  139.0645  160.2361 C   0  0  0  0  0  0  0  0  0  0  0  0
  134.0275  139.5134  161.2447 C   0  0  0  0  0  0  0  0  0  0  0  0
  135.4610  139.9394  161.1081 C   0  0  0  0  0  0  0  0  0  0  0  0
  136.0311  139.4128  159.8616 N   0  0  0  0  0  0  0  0  0  0  0  0
  137.3915  139.9241  159.6477 C   0  0  0  0  0  0  0  0  0  0  0  0
  135.1585  139.7426  158.7226 C   0  0  0  0  0  0  0  0  0  0  0  0
  133.8705  138.9216  158.8472 C   0  0  0  0  0  0  0  0  0  0  0  0
  131.4921  137.3751  160.2356 C   0  0  0  0  0  0  0  0  0  0  0  0
  130.1616  137.0261  160.4704 C   0  0  0  0  0  0  0  0  0  0  0  0
  129.3942  135.7888  160.3309 C   0  0  0  0  0  0  0  0  0  0  0  0
  129.9047  134.4547  159.8506 C   0  0  0  0  0  0  0  0  0  0  0  0
  129.7503  134.3675  158.3924 N   0  0  0  0  0  0  0  0  0  0  0  0
  128.7749  134.4610  158.1513 H   0  0  0  0  0  0  0  0  0  0  0  0
  130.2777  135.1072  157.9535 H   0  0  0  0  0  0  0  0  0  0  0  0
  130.2480  133.0671  157.9243 C   0  0  1  0  0  0  0  0  0  0  0  0
  131.1566  132.7923  158.4600 H   0  0  0  0  0  0  0  0  0  0  0  0
  129.1682  131.9809  158.1014 C   0  0  0  0  0  0  0  0  0  0  0  0
  128.8273  131.4939  156.7902 O   0  0  0  0  0  0  0  0  0  0  0  0
  129.9592  131.7364  155.9489 C   0  0  0  0  0  0  0  0  0  0  0  0
  129.7299  131.5782  154.4481 C   0  0  0  0  0  0  0  0  0  0  0  0
  131.1539  130.9961  154.3810 C   0  0  0  0  0  0  0  0  0  0  0  0
  130.9880  130.6120  155.8629 C   0  0  0  0  0  0  0  0  0  0  0  0
  130.5061  133.1035  156.3963 C   0  0  0  0  0  0  0  0  0  0  0  0
  125.1053  131.6488  161.8217 H   0  0  0  0  0  0  0  0  0  0  0  0
  126.8785  131.7307  161.9537 H   0  0  0  0  0  0  0  0  0  0  0  0
  125.8781  133.0740  162.5562 H   0  0  0  0  0  0  0  0  0  0  0  0
  125.1346  133.5589  160.2409 H   0  0  0  0  0  0  0  0  0  0  0  0
  126.1350  132.2157  159.6383 H   0  0  0  0  0  0  0  0  0  0  0  0
  128.9988  140.0305  161.5530 H   0  0  0  0  0  0  0  0  0  0  0  0
  131.3216  140.6389  161.1417 H   0  0  0  0  0  0  0  0  0  0  0  0
  133.5612  139.5792  162.2166 H   0  0  0  0  0  0  0  0  0  0  0  0
  135.5147  141.0280  161.0980 H   0  0  0  0  0  0  0  0  0  0  0  0
  136.0331  139.5574  161.9536 H   0  0  0  0  0  0  0  0  0  0  0  0
  138.0445  139.5625  160.4421 H   0  0  0  0  0  0  0  0  0  0  0  0
  137.7635  139.5751  158.6843 H   0  0  0  0  0  0  0  0  0  0  0  0
  137.3760  141.0139  159.6581 H   0  0  0  0  0  0  0  0  0  0  0  0
  134.9220  140.8064  158.7386 H   0  0  0  0  0  0  0  0  0  0  0  0
  135.6630  139.4907  157.7899 H   0  0  0  0  0  0  0  0  0  0  0  0
  134.0849  137.8715  158.6487 H   0  0  0  0  0  0  0  0  0  0  0  0
  133.1399  139.2847  158.1243 H   0  0  0  0  0  0  0  0  0  0  0  0
  132.1934  136.6383  159.8724 H   0  0  0  0  0  0  0  0  0  0  0  0
  130.9582  134.3537  160.1112 H   0  0  0  0  0  0  0  0  0  0  0  0
  129.3347  133.6557  160.3248 H   0  0  0  0  0  0  0  0  0  0  0  0
  129.5599  131.1653  158.7092 H   0  0  0  0  0  0  0  0  0  0  0  0
  128.2867  132.4096  158.5780 H   0  0  0  0  0  0  0  0  0  0  0  0
  128.9506  130.8581  154.1981 H   0  0  0  0  0  0  0  0  0  0  0  0
  129.6188  132.5253  153.9202 H   0  0  0  0  0  0  0  0  0  0  0  0
  131.9245  131.7477  154.2090 H   0  0  0  0  0  0  0  0  0  0  0  0
  131.2432  130.1376  153.7153 H   0  0  0  0  0  0  0  0  0  0  0  0
  131.8805  130.7886  156.4633 H   0  0  0  0  0  0  0  0  0  0  0  0
  130.5647  129.6190  156.0143 H   0  0  0  0  0  0  0  0  0  0  0  0
  129.9529  133.9170  155.9270 H   0  0  0  0  0  0  0  0  0  0  0  0
  131.5719  133.1853  156.1832 H   0  0  0  0  0  0  0  0  0  0  0  0
  1  2  1  0
  1 35  1  0
  1 36  1  0
  1 37  1  0
  2  3  1  0
  2 38  1  0
  2 39  1  0
  3  4  1  0
  4  5  2  0
  4  6  1  0
  6 21  2  0
  6  7  1  0
  7  8  1  0
  8 20  2  0
  8  9  1  0
  9 10  2  0
  9 40  1  0
 10 11  1  0
 10 41  1  0
 11 12  1  0
 11 19  2  0
 12 18  1  0
 12 13  2  0
 13 14  1  0
 13 42  1  0
 14 15  1  0
 14 43  1  0
 14 44  1  0
 15 16  1  0
 15 17  1  0
 16 45  1  0
 16 46  1  0
 16 47  1  0
 17 18  1  0
 17 48  1  0
 17 49  1  0
 18 50  1  0
 18 51  1  0
 19 20  1  0
 19 52  1  0
 20 21  1  0
 21 22  1  0
 22 23  1  0
 22 53  1  0
 22 54  1  0
 23 24  1  0
 23 25  1  0
 23 26  1  0
 26 27  1  1
 26 34  1  0
 26 28  1  0
 28 29  1  0
 28 55  1  0
 28 56  1  0
 29 30  1  0
 30 33  1  0
 30 31  1  0
 30 34  1  0
 31 32  1  0
 31 57  1  0
 31 58  1  0
 32 33  1  0
 32 59  1  0
 32 60  1  0
 33 61  1  0
 33 62  1  0
 34 63  1  0
 34 64  1  0
M  CHG  1  23   1
M  END
>  <DOCK_score>  (1) 
-47.817333

>  <SMILES>  (1) 
CCOC(=O)c1oc2ccc(C3=CCN(C)CC3)cc2c1C[NH2+][C@H]1COC2(CCC2)C1

$$$$
