O=C1CC[C@H](NC(NC2CC=CC2)=[NH+]CCO)CN1
     RDKit          3D

 42 43  0  0  1  0  0  0  0  0999 V2000
  123.7320  133.6779  161.5151 O   0  0  0  0  0  0  0  0  0  0  0  0
  124.8976  133.9822  161.3748 C   0  0  0  0  0  0  0  0  0  0  0  0
  125.8688  132.9100  160.9710 C   0  0  0  0  0  0  0  0  0  0  0  0
  127.2990  133.3642  161.2731 C   0  0  0  0  0  0  0  0  0  0  0  0
  127.4897  134.7755  160.7045 C   0  0  2  0  0  0  0  0  0  0  0  0
  127.1913  134.7909  159.6564 H   0  0  0  0  0  0  0  0  0  0  0  0
  128.8961  135.1678  160.8243 N   0  0  0  0  0  0  0  0  0  0  0  0
  129.7766  134.8892  159.8059 C   0  0  0  0  0  0  0  0  0  0  0  0
  129.3373  134.2423  158.6750 N   0  0  0  0  0  0  0  0  0  0  0  0
  130.2517  133.3798  157.9226 C   0  0  0  0  0  0  0  0  0  0  0  0
  129.4998  132.6067  156.8145 C   0  0  0  0  0  0  0  0  0  0  0  0
  130.1509  131.2426  156.7894 C   0  0  0  0  0  0  0  0  0  0  0  0
  130.8461  131.0332  157.8740 C   0  0  0  0  0  0  0  0  0  0  0  0
  130.7742  132.2219  158.8042 C   0  0  0  0  0  0  0  0  0  0  0  0
  131.0279  135.2381  159.9125 N   0  0  0  0  0  0  0  0  0  0  0  0
  131.6490  135.0414  159.1938 H   0  0  0  0  0  0  0  0  0  0  0  0
  131.4964  135.9270  161.1175 C   0  0  0  0  0  0  0  0  0  0  0  0
  132.9922  136.2210  160.9880 C   0  0  0  0  0  0  0  0  0  0  0  0
  133.7072  134.9934  160.8328 O   0  0  0  0  0  0  0  0  0  0  0  0
  126.6166  135.7462  161.5009 C   0  0  0  0  0  0  0  0  0  0  0  0
  125.2478  135.2522  161.5820 N   0  0  0  0  0  0  0  0  0  0  0  0
  125.7701  132.7102  159.9040 H   0  0  0  0  0  0  0  0  0  0  0  0
  125.6517  132.0005  161.5312 H   0  0  0  0  0  0  0  0  0  0  0  0
  128.0076  132.6812  160.8047 H   0  0  0  0  0  0  0  0  0  0  0  0
  127.4603  133.3779  162.3510 H   0  0  0  0  0  0  0  0  0  0  0  0
  129.2059  135.6243  161.6221 H   0  0  0  0  0  0  0  0  0  0  0  0
  128.4219  134.3571  158.3753 H   0  0  0  0  0  0  0  0  0  0  0  0
  131.0768  133.9573  157.5056 H   0  0  0  0  0  0  0  0  0  0  0  0
  128.4425  132.5179  157.0639 H   0  0  0  0  0  0  0  0  0  0  0  0
  129.6234  133.1049  155.8529 H   0  0  0  0  0  0  0  0  0  0  0  0
  130.0543  130.5345  155.9796 H   0  0  0  0  0  0  0  0  0  0  0  0
  131.3997  130.1290  158.0800 H   0  0  0  0  0  0  0  0  0  0  0  0
  131.7639  132.4588  159.1947 H   0  0  0  0  0  0  0  0  0  0  0  0
  130.0813  132.0250  159.6222 H   0  0  0  0  0  0  0  0  0  0  0  0
  130.9509  136.8634  161.2359 H   0  0  0  0  0  0  0  0  0  0  0  0
  131.3244  135.2940  161.9879 H   0  0  0  0  0  0  0  0  0  0  0  0
  133.1641  136.8542  160.1176 H   0  0  0  0  0  0  0  0  0  0  0  0
  133.3407  136.7336  161.8847 H   0  0  0  0  0  0  0  0  0  0  0  0
  134.6638  135.1040  160.7447 H   0  0  0  0  0  0  0  0  0  0  0  0
  126.6199  136.7195  161.0099 H   0  0  0  0  0  0  0  0  0  0  0  0
  127.0215  135.8525  162.5072 H   0  0  0  0  0  0  0  0  0  0  0  0
  124.5481  135.8861  161.8046 H   0  0  0  0  0  0  0  0  0  0  0  0
  1  2  2  0
  2 21  1  0
  2  3  1  0
  3  4  1  0
  3 22  1  0
  3 23  1  0
  4  5  1  0
  4 24  1  0
  4 25  1  0
  5  6  1  6
  5  7  1  0
  5 20  1  0
  7 26  1  0
  8  7  1  0
  8  9  1  0
  8 15  2  0
  9 10  1  0
  9 27  1  0
 10 14  1  0
 10 11  1  0
 10 28  1  0
 11 12  1  0
 11 29  1  0
 11 30  1  0
 12 13  2  0
 12 31  1  0
 13 14  1  0
 13 32  1  0
 14 33  1  0
 14 34  1  0
 15 16  1  0
 15 17  1  0
 17 18  1  0
 17 35  1  0
 17 36  1  0
 18 19  1  0
 18 37  1  0
 18 38  1  0
 19 39  1  0
 20 21  1  0
 20 40  1  0
 20 41  1  0
 21 42  1  0
M  CHG  1  15   1
M  END
>  <DOCK_score>  (1) 
-40.92355

>  <SMILES>  (1) 
O=C1CC[C@H](NC(NC2CC=CC2)=[NH+]CCO)CN1

$$$$
