Cc1cccc([C@H](C)Nc2cccc(Nc3[nH]cc(-c4cccnc4)[nH+]3)c2O)c1
     RDKit          3D

 53 56  0  0  1  0  0  0  0  0999 V2000
  128.2433  142.3987  164.3761 C   0  0  0  0  0  0  0  0  0  0  0  0
  127.4198  141.1465  164.2170 C   0  0  0  0  0  0  0  0  0  0  0  0
  126.0456  141.2002  164.3591 C   0  0  0  0  0  0  0  0  0  0  0  0
  125.2903  140.0520  164.2127 C   0  0  0  0  0  0  0  0  0  0  0  0
  125.9086  138.8506  163.9193 C   0  0  0  0  0  0  0  0  0  0  0  0
  127.2829  138.7961  163.7825 C   0  0  0  0  0  0  0  0  0  0  0  0
  127.9573  137.4856  163.4680 C   0  0  2  0  0  0  0  0  0  0  0  0
  127.2055  136.7006  163.3857 H   0  0  0  0  0  0  0  0  0  0  0  0
  128.9395  137.1358  164.5878 C   0  0  0  0  0  0  0  0  0  0  0  0
  128.6830  137.6016  162.2006 N   0  0  0  0  0  0  0  0  0  0  0  0
  128.3551  136.7650  161.1273 C   0  0  0  0  0  0  0  0  0  0  0  0
  127.0551  136.2989  160.9808 C   0  0  0  0  0  0  0  0  0  0  0  0
  126.7302  135.4727  159.9215 C   0  0  0  0  0  0  0  0  0  0  0  0
  127.6964  135.1059  159.0038 C   0  0  0  0  0  0  0  0  0  0  0  0
  129.0004  135.5623  159.1451 C   0  0  0  0  0  0  0  0  0  0  0  0
  129.9797  135.1853  158.2180 N   0  0  0  0  0  0  0  0  0  0  0  0
  129.8894  133.9625  157.5739 C   0  0  0  0  0  0  0  0  0  0  0  0
  129.3262  132.8350  158.0882 N   0  0  0  0  0  0  0  0  0  0  0  0
  128.9193  132.7441  158.9641 H   0  0  0  0  0  0  0  0  0  0  0  0
  129.4381  131.8506  157.1371 C   0  0  0  0  0  0  0  0  0  0  0  0
  130.0729  132.4018  156.0728 C   0  0  0  0  0  0  0  0  0  0  0  0
  130.4179  131.7089  154.8074 C   0  0  0  0  0  0  0  0  0  0  0  0
  130.4734  132.4157  153.6026 C   0  0  0  0  0  0  0  0  0  0  0  0
  130.8053  131.7243  152.4506 C   0  0  0  0  0  0  0  0  0  0  0  0
  131.0584  130.3665  152.5256 C   0  0  0  0  0  0  0  0  0  0  0  0
  130.9931  129.7251  153.6762 N   0  0  0  0  0  0  0  0  0  0  0  0
  130.6861  130.3415  154.7994 C   0  0  0  0  0  0  0  0  0  0  0  0
  130.3370  133.6984  156.3704 N   0  0  0  0  0  0  0  0  0  0  0  0
  130.7852  134.3296  155.7859 H   0  0  0  0  0  0  0  0  0  0  0  0
  129.3307  136.3991  160.2062 C   0  0  0  0  0  0  0  0  0  0  0  0
  130.6063  136.8531  160.3461 O   0  0  0  0  0  0  0  0  0  0  0  0
  128.0384  139.9447  163.9289 C   0  0  0  0  0  0  0  0  0  0  0  0
  128.3450  142.8917  163.4093 H   0  0  0  0  0  0  0  0  0  0  0  0
  127.7494  143.0717  165.0770 H   0  0  0  0  0  0  0  0  0  0  0  0
  129.2308  142.1382  164.7569 H   0  0  0  0  0  0  0  0  0  0  0  0
  125.5622  142.1394  164.5838 H   0  0  0  0  0  0  0  0  0  0  0  0
  124.2168  140.0939  164.3233 H   0  0  0  0  0  0  0  0  0  0  0  0
  125.3180  137.9542  163.8008 H   0  0  0  0  0  0  0  0  0  0  0  0
  129.6913  137.9206  164.6701 H   0  0  0  0  0  0  0  0  0  0  0  0
  128.3996  137.0495  165.5308 H   0  0  0  0  0  0  0  0  0  0  0  0
  129.4273  136.1878  164.3604 H   0  0  0  0  0  0  0  0  0  0  0  0
  129.3907  138.2582  162.1053 H   0  0  0  0  0  0  0  0  0  0  0  0
  126.2969  136.5826  161.6955 H   0  0  0  0  0  0  0  0  0  0  0  0
  125.7181  135.1125  159.8105 H   0  0  0  0  0  0  0  0  0  0  0  0
  127.4380  134.4595  158.1780 H   0  0  0  0  0  0  0  0  0  0  0  0
  130.7215  135.7803  158.0270 H   0  0  0  0  0  0  0  0  0  0  0  0
  129.0910  130.8314  157.2221 H   0  0  0  0  0  0  0  0  0  0  0  0
  130.2664  133.4753  153.5723 H   0  0  0  0  0  0  0  0  0  0  0  0
  130.8616  132.2384  151.5024 H   0  0  0  0  0  0  0  0  0  0  0  0
  131.3141  129.8231  151.6279 H   0  0  0  0  0  0  0  0  0  0  0  0
  130.6425  129.7821  155.7221 H   0  0  0  0  0  0  0  0  0  0  0  0
  131.2112  136.5448  159.6576 H   0  0  0  0  0  0  0  0  0  0  0  0
  129.1118  139.9028  163.8176 H   0  0  0  0  0  0  0  0  0  0  0  0
  1  2  1  0
  1 33  1  0
  1 34  1  0
  1 35  1  0
  2 32  2  0
  2  3  1  0
  3  4  2  0
  3 36  1  0
  4  5  1  0
  4 37  1  0
  5  6  2  0
  5 38  1  0
  6  7  1  0
  6 32  1  0
  7  8  1  6
  7  9  1  0
  7 10  1  0
  9 39  1  0
  9 40  1  0
  9 41  1  0
 10 11  1  0
 10 42  1  0
 11 30  1  0
 11 12  2  0
 12 13  1  0
 12 43  1  0
 13 14  2  0
 13 44  1  0
 14 15  1  0
 14 45  1  0
 15 16  1  0
 15 30  2  0
 16 46  1  0
 17 16  1  0
 17 28  2  0
 17 18  1  0
 18 19  1  0
 18 20  1  0
 20 21  2  0
 20 47  1  0
 21 22  1  0
 21 28  1  0
 22 27  1  0
 22 23  2  0
 23 24  1  0
 23 48  1  0
 24 25  2  0
 24 49  1  0
 25 26  1  0
 25 50  1  0
 26 27  2  0
 27 51  1  0
 28 29  1  0
 30 31  1  0
 31 52  1  0
 32 53  1  0
M  CHG  1  28   1
M  END
>  <DOCK_score>  (1) 
-59.215111

>  <SMILES>  (1) 
Cc1cccc([C@H](C)Nc2cccc(Nc3[nH]cc(-c4cccnc4)[nH+]3)c2O)c1

$$$$
