Cc1cc(CCNC2=C[C@@H]([NH2+]C(Cc3ccccc3)Cc3ccccc3)CCC2)no1
     RDKit          3D

 65 68  0  0  1  0  0  0  0  0999 V2000
  139.4785  136.5758  167.0441 C   0  0  0  0  0  0  0  0  0  0  0  0
  138.4818  136.1779  165.9862 C   0  0  0  0  0  0  0  0  0  0  0  0
  137.9800  136.9677  165.0068 C   0  0  0  0  0  0  0  0  0  0  0  0
  137.0979  136.1176  164.3008 C   0  0  0  0  0  0  0  0  0  0  0  0
  136.2597  136.4813  163.1024 C   0  0  0  0  0  0  0  0  0  0  0  0
  134.9871  135.6322  163.0935 C   0  0  0  0  0  0  0  0  0  0  0  0
  134.1722  135.9857  161.9285 N   0  0  0  0  0  0  0  0  0  0  0  0
  132.9610  135.3424  161.7070 C   0  0  0  0  0  0  0  0  0  0  0  0
  132.2664  135.6873  160.6576 C   0  0  0  0  0  0  0  0  0  0  0  0
  130.9391  135.0867  160.2971 C   0  0  1  0  0  0  0  0  0  0  0  0
  130.1448  135.7838  160.5640 H   0  0  0  0  0  0  0  0  0  0  0  0
  130.8970  134.8310  158.8511 N   0  0  0  0  0  0  0  0  0  0  0  0
  131.3901  133.9747  158.6465 H   0  0  0  0  0  0  0  0  0  0  0  0
  131.3349  135.5967  158.3612 H   0  0  0  0  0  0  0  0  0  0  0  0
  129.4993  134.7068  158.4163 C   0  0  0  0  0  0  0  0  0  0  0  0
  129.4453  133.9684  157.0774 C   0  0  0  0  0  0  0  0  0  0  0  0
  130.0457  132.5953  157.2366 C   0  0  0  0  0  0  0  0  0  0  0  0
  130.6698  131.9853  156.1645 C   0  0  0  0  0  0  0  0  0  0  0  0
  131.2239  130.7274  156.3116 C   0  0  0  0  0  0  0  0  0  0  0  0
  131.1469  130.0762  157.5285 C   0  0  0  0  0  0  0  0  0  0  0  0
  130.5182  130.6840  158.5991 C   0  0  0  0  0  0  0  0  0  0  0  0
  129.9674  131.9435  158.4531 C   0  0  0  0  0  0  0  0  0  0  0  0
  128.8899  136.1009  158.2548 C   0  0  0  0  0  0  0  0  0  0  0  0
  127.4559  135.9737  157.8088 C   0  0  0  0  0  0  0  0  0  0  0  0
  127.1515  135.9432  156.4609 C   0  0  0  0  0  0  0  0  0  0  0  0
  125.8366  135.8226  156.0518 C   0  0  0  0  0  0  0  0  0  0  0  0
  124.8254  135.7408  156.9909 C   0  0  0  0  0  0  0  0  0  0  0  0
  125.1294  135.7765  158.3389 C   0  0  0  0  0  0  0  0  0  0  0  0
  126.4447  135.8932  158.7479 C   0  0  0  0  0  0  0  0  0  0  0  0
  130.7337  133.7711  161.0511 C   0  0  0  0  0  0  0  0  0  0  0  0
  131.0341  134.0101  162.5360 C   0  0  0  0  0  0  0  0  0  0  0  0
  132.5303  134.2921  162.6889 C   0  0  0  0  0  0  0  0  0  0  0  0
  137.1575  134.9572  164.8877 N   0  0  0  0  0  0  0  0  0  0  0  0
  137.9206  134.9713  165.8256 O   0  0  0  0  0  0  0  0  0  0  0  0
  139.6900  135.7193  167.6845 H   0  0  0  0  0  0  0  0  0  0  0  0
  140.4002  136.9097  166.5677 H   0  0  0  0  0  0  0  0  0  0  0  0
  139.0662  137.3859  167.6456 H   0  0  0  0  0  0  0  0  0  0  0  0
  138.2008  138.0067  164.8118 H   0  0  0  0  0  0  0  0  0  0  0  0
  136.8279  136.2938  162.1913 H   0  0  0  0  0  0  0  0  0  0  0  0
  135.9921  137.5366  163.1529 H   0  0  0  0  0  0  0  0  0  0  0  0
  134.4188  135.8196  164.0047 H   0  0  0  0  0  0  0  0  0  0  0  0
  135.2547  134.5767  163.0431 H   0  0  0  0  0  0  0  0  0  0  0  0
  134.4784  136.6687  161.3117 H   0  0  0  0  0  0  0  0  0  0  0  0
  132.6710  136.4505  160.0094 H   0  0  0  0  0  0  0  0  0  0  0  0
  128.9350  134.1478  159.1626 H   0  0  0  0  0  0  0  0  0  0  0  0
  128.4081  133.8762  156.7549 H   0  0  0  0  0  0  0  0  0  0  0  0
  130.0096  134.5274  156.3311 H   0  0  0  0  0  0  0  0  0  0  0  0
  130.7270  132.4927  155.2128 H   0  0  0  0  0  0  0  0  0  0  0  0
  131.7147  130.2525  155.4750 H   0  0  0  0  0  0  0  0  0  0  0  0
  131.5774  129.0923  157.6426 H   0  0  0  0  0  0  0  0  0  0  0  0
  130.4576  130.1750  159.5497 H   0  0  0  0  0  0  0  0  0  0  0  0
  129.4763  132.4184  159.2896 H   0  0  0  0  0  0  0  0  0  0  0  0
  128.9285  136.6270  159.2087 H   0  0  0  0  0  0  0  0  0  0  0  0
  129.4542  136.6599  157.5083 H   0  0  0  0  0  0  0  0  0  0  0  0
  127.9411  136.0106  155.7272 H   0  0  0  0  0  0  0  0  0  0  0  0
  125.5989  135.7950  154.9987 H   0  0  0  0  0  0  0  0  0  0  0  0
  123.7978  135.6492  156.6713 H   0  0  0  0  0  0  0  0  0  0  0  0
  124.3394  135.7130  159.0725 H   0  0  0  0  0  0  0  0  0  0  0  0
  126.6823  135.9212  159.8010 H   0  0  0  0  0  0  0  0  0  0  0  0
  129.7020  133.4396  160.9348 H   0  0  0  0  0  0  0  0  0  0  0  0
  131.4116  133.0137  160.6575 H   0  0  0  0  0  0  0  0  0  0  0  0
  130.4617  134.8665  162.8924 H   0  0  0  0  0  0  0  0  0  0  0  0
  130.7647  133.1244  163.1114 H   0  0  0  0  0  0  0  0  0  0  0  0
  132.7307  134.6408  163.7018 H   0  0  0  0  0  0  0  0  0  0  0  0
  133.0913  133.3755  162.5067 H   0  0  0  0  0  0  0  0  0  0  0  0
  1  2  1  0
  1 35  1  0
  1 36  1  0
  1 37  1  0
  2 34  1  0
  2  3  2  0
  3  4  1  0
  3 38  1  0
  4  5  1  0
  4 33  2  0
  5  6  1  0
  5 39  1  0
  5 40  1  0
  6  7  1  0
  6 41  1  0
  6 42  1  0
  7  8  1  0
  7 43  1  0
  8 32  1  0
  8  9  2  0
  9 10  1  0
  9 44  1  0
 10 11  1  1
 10 12  1  0
 10 30  1  0
 12 13  1  0
 12 14  1  0
 12 15  1  0
 15 16  1  0
 15 23  1  0
 15 45  1  0
 16 17  1  0
 16 46  1  0
 16 47  1  0
 17 22  1  0
 17 18  2  0
 18 19  1  0
 18 48  1  0
 19 20  2  0
 19 49  1  0
 20 21  1  0
 20 50  1  0
 21 22  2  0
 21 51  1  0
 22 52  1  0
 23 24  1  0
 23 53  1  0
 23 54  1  0
 24 29  1  0
 24 25  2  0
 25 26  1  0
 25 55  1  0
 26 27  2  0
 26 56  1  0
 27 28  1  0
 27 57  1  0
 28 29  2  0
 28 58  1  0
 29 59  1  0
 30 31  1  0
 30 60  1  0
 30 61  1  0
 31 32  1  0
 31 62  1  0
 31 63  1  0
 32 64  1  0
 32 65  1  0
 33 34  1  0
M  CHG  1  12   1
M  END
>  <DOCK_score>  (1) 
-57.969986

>  <SMILES>  (1) 
Cc1cc(CCNC2=C[C@@H]([NH2+]C(Cc3ccccc3)Cc3ccccc3)CCC2)no1

$$$$
