Cc1cccc(N2CC[NH+](C(c3ccccc3)c3ccccc3)CC2)c1CC1=CCC=CC1
     RDKit          3D

 68 72  0  0  1  0  0  0  0  0999 V2000
  136.0614  140.8731  162.5992 C   0  0  0  0  0  0  0  0  0  0  0  0
  135.4251  140.1699  161.4279 C   0  0  0  0  0  0  0  0  0  0  0  0
  135.8312  140.4677  160.1396 C   0  0  0  0  0  0  0  0  0  0  0  0
  135.2500  139.8249  159.0623 C   0  0  0  0  0  0  0  0  0  0  0  0
  134.2620  138.8821  159.2694 C   0  0  0  0  0  0  0  0  0  0  0  0
  133.8486  138.5841  160.5614 C   0  0  0  0  0  0  0  0  0  0  0  0
  132.8460  137.6351  160.7741 N   0  0  0  0  0  0  0  0  0  0  0  0
  133.2764  136.3042  160.3230 C   0  0  0  0  0  0  0  0  0  0  0  0
  132.1761  135.2852  160.6274 C   0  0  0  0  0  0  0  0  0  0  0  0
  130.9400  135.6786  159.9384 N   0  0  0  0  0  0  0  0  0  0  0  0
  131.1079  135.7200  158.9443 H   0  0  0  0  0  0  0  0  0  0  0  0
  129.8891  134.6905  160.2163 C   0  0  0  0  0  0  0  0  0  0  0  0
  128.6208  135.0939  159.5095 C   0  0  0  0  0  0  0  0  0  0  0  0
  127.3928  134.7503  160.0433 C   0  0  0  0  0  0  0  0  0  0  0  0
  126.2294  135.1245  159.3974 C   0  0  0  0  0  0  0  0  0  0  0  0
  126.2935  135.8331  158.2130 C   0  0  0  0  0  0  0  0  0  0  0  0
  127.5220  136.1722  157.6758 C   0  0  0  0  0  0  0  0  0  0  0  0
  128.6855  135.8026  158.3243 C   0  0  0  0  0  0  0  0  0  0  0  0
  130.3299  133.3363  159.7234 C   0  0  0  0  0  0  0  0  0  0  0  0
  129.8902  132.1918  160.3617 C   0  0  0  0  0  0  0  0  0  0  0  0
  130.2907  130.9493  159.9065 C   0  0  0  0  0  0  0  0  0  0  0  0
  131.1391  130.8520  158.8195 C   0  0  0  0  0  0  0  0  0  0  0  0
  131.5828  131.9968  158.1845 C   0  0  0  0  0  0  0  0  0  0  0  0
  131.1783  133.2390  158.6364 C   0  0  0  0  0  0  0  0  0  0  0  0
  130.5094  136.9988  160.4173 C   0  0  0  0  0  0  0  0  0  0  0  0
  131.5959  138.0320  160.1111 C   0  0  0  0  0  0  0  0  0  0  0  0
  134.4377  139.2288  161.6421 C   0  0  0  0  0  0  0  0  0  0  0  0
  133.9958  138.9050  163.0460 C   0  0  0  0  0  0  0  0  0  0  0  0
  134.8360  137.7784  163.5897 C   0  0  0  0  0  0  0  0  0  0  0  0
  134.4337  136.5580  163.4039 C   0  0  0  0  0  0  0  0  0  0  0  0
  135.1969  135.3664  163.8985 C   0  0  0  0  0  0  0  0  0  0  0  0
  136.1472  135.7493  164.9928 C   0  0  0  0  0  0  0  0  0  0  0  0
  136.5466  136.9698  165.1831 C   0  0  0  0  0  0  0  0  0  0  0  0
  136.0971  138.1153  164.3268 C   0  0  0  0  0  0  0  0  0  0  0  0
  135.5035  141.7821  162.8239 H   0  0  0  0  0  0  0  0  0  0  0  0
  136.0495  140.2151  163.4681 H   0  0  0  0  0  0  0  0  0  0  0  0
  137.0914  141.1306  162.3524 H   0  0  0  0  0  0  0  0  0  0  0  0
  136.6036  141.2042  159.9750 H   0  0  0  0  0  0  0  0  0  0  0  0
  135.5692  140.0601  158.0576 H   0  0  0  0  0  0  0  0  0  0  0  0
  133.8085  138.3805  158.4273 H   0  0  0  0  0  0  0  0  0  0  0  0
  133.4641  136.3271  159.2496 H   0  0  0  0  0  0  0  0  0  0  0  0
  134.1897  136.0206  160.8462 H   0  0  0  0  0  0  0  0  0  0  0  0
  131.9984  135.2528  161.7024 H   0  0  0  0  0  0  0  0  0  0  0  0
  132.4875  134.2998  160.2808 H   0  0  0  0  0  0  0  0  0  0  0  0
  129.7078  134.6450  161.2902 H   0  0  0  0  0  0  0  0  0  0  0  0
  127.3424  134.1928  160.9669 H   0  0  0  0  0  0  0  0  0  0  0  0
  125.2699  134.8593  159.8164 H   0  0  0  0  0  0  0  0  0  0  0  0
  125.3850  136.1216  157.7054 H   0  0  0  0  0  0  0  0  0  0  0  0
  127.5725  136.7256  156.7496 H   0  0  0  0  0  0  0  0  0  0  0  0
  129.6449  136.0671  157.9049 H   0  0  0  0  0  0  0  0  0  0  0  0
  129.2309  132.2680  161.2137 H   0  0  0  0  0  0  0  0  0  0  0  0
  129.9441  130.0549  160.4030 H   0  0  0  0  0  0  0  0  0  0  0  0
  131.4554  129.8815  158.4668 H   0  0  0  0  0  0  0  0  0  0  0  0
  132.2460  131.9207  157.3353 H   0  0  0  0  0  0  0  0  0  0  0  0
  131.5254  134.1333  158.1404 H   0  0  0  0  0  0  0  0  0  0  0  0
  130.3401  136.9575  161.4933 H   0  0  0  0  0  0  0  0  0  0  0  0
  129.5850  137.2837  159.9148 H   0  0  0  0  0  0  0  0  0  0  0  0
  131.2829  139.0089  160.4797 H   0  0  0  0  0  0  0  0  0  0  0  0
  131.7558  138.0833  159.0341 H   0  0  0  0  0  0  0  0  0  0  0  0
  134.1164  139.7856  163.6770 H   0  0  0  0  0  0  0  0  0  0  0  0
  132.9478  138.6054  163.0369 H   0  0  0  0  0  0  0  0  0  0  0  0
  133.5115  136.3942  162.8663 H   0  0  0  0  0  0  0  0  0  0  0  0
  135.7596  134.9305  163.0729 H   0  0  0  0  0  0  0  0  0  0  0  0
  134.4920  134.6276  164.2796 H   0  0  0  0  0  0  0  0  0  0  0  0
  136.5152  134.9767  165.6515 H   0  0  0  0  0  0  0  0  0  0  0  0
  137.2322  137.1686  165.9935 H   0  0  0  0  0  0  0  0  0  0  0  0
  136.8800  138.3514  163.6062 H   0  0  0  0  0  0  0  0  0  0  0  0
  135.9197  138.9850  164.9593 H   0  0  0  0  0  0  0  0  0  0  0  0
  1  2  1  0
  1 35  1  0
  1 36  1  0
  1 37  1  0
  2 27  2  0
  2  3  1  0
  3  4  2  0
  3 38  1  0
  4  5  1  0
  4 39  1  0
  5  6  2  0
  5 40  1  0
  6  7  1  0
  6 27  1  0
  7 26  1  0
  7  8  1  0
  8  9  1  0
  8 41  1  0
  8 42  1  0
  9 10  1  0
  9 43  1  0
  9 44  1  0
 10 11  1  0
 10 12  1  0
 10 25  1  0
 12 13  1  0
 12 19  1  0
 12 45  1  0
 13 18  1  0
 13 14  2  0
 14 15  1  0
 14 46  1  0
 15 16  2  0
 15 47  1  0
 16 17  1  0
 16 48  1  0
 17 18  2  0
 17 49  1  0
 18 50  1  0
 19 24  1  0
 19 20  2  0
 20 21  1  0
 20 51  1  0
 21 22  2  0
 21 52  1  0
 22 23  1  0
 22 53  1  0
 23 24  2  0
 23 54  1  0
 24 55  1  0
 25 26  1  0
 25 56  1  0
 25 57  1  0
 26 58  1  0
 26 59  1  0
 27 28  1  0
 28 29  1  0
 28 60  1  0
 28 61  1  0
 29 34  1  0
 29 30  2  0
 30 31  1  0
 30 62  1  0
 31 32  1  0
 31 63  1  0
 31 64  1  0
 32 33  2  0
 32 65  1  0
 33 34  1  0
 33 66  1  0
 34 67  1  0
 34 68  1  0
M  CHG  1  10   1
M  END
>  <DOCK_score>  (1) 
-56.806156

>  <SMILES>  (1) 
Cc1cccc(N2CC[NH+](C(c3ccccc3)c3ccccc3)CC2)c1CC1=CCC=CC1

$$$$
