Nc1c[nH]nc1S(=O)(=O)c1nnc(Nc2ccc(-c3n[nH]cc3C[NH2+]C[C@H]3C=CCC3)o2)nn1
     RDKit          3D

 56 60  0  0  1  0  0  0  0  0999 V2000
  131.1078  141.6730  167.1770 N   0  0  0  0  0  0  0  0  0  0  0  0
  129.7629  141.9773  166.8917 C   0  0  0  0  0  0  0  0  0  0  0  0
  128.8430  142.4384  167.7765 C   0  0  0  0  0  0  0  0  0  0  0  0
  127.6724  142.6003  167.1040 N   0  0  0  0  0  0  0  0  0  0  0  0
  126.8364  142.9165  167.4806 H   0  0  0  0  0  0  0  0  0  0  0  0
  127.8898  142.2349  165.7693 N   0  0  0  0  0  0  0  0  0  0  0  0
  129.1380  141.8629  165.6418 C   0  0  0  0  0  0  0  0  0  0  0  0
  129.9028  141.3125  164.1530 S   0  0  0  0  0  0  0  0  0  0  0  0
  129.7938  142.3840  163.2260 O   0  0  0  0  0  0  0  0  0  0  0  0
  131.1450  140.7343  164.5299 O   0  0  0  0  0  0  0  0  0  0  0  0
  128.9164  139.9997  163.5141 C   0  0  0  0  0  0  0  0  0  0  0  0
  127.6143  139.9822  163.7426 N   0  0  0  0  0  0  0  0  0  0  0  0
  126.8878  139.0258  163.2720 N   0  0  0  0  0  0  0  0  0  0  0  0
  127.4519  138.0510  162.5655 C   0  0  0  0  0  0  0  0  0  0  0  0
  126.6761  137.0190  162.0627 N   0  0  0  0  0  0  0  0  0  0  0  0
  127.2685  136.0000  161.3235 C   0  0  0  0  0  0  0  0  0  0  0  0
  126.6244  134.9355  160.7840 C   0  0  0  0  0  0  0  0  0  0  0  0
  127.5961  134.1592  160.1225 C   0  0  0  0  0  0  0  0  0  0  0  0
  128.7887  134.7870  160.2990 C   0  0  0  0  0  0  0  0  0  0  0  0
  130.0937  134.3278  159.7802 C   0  0  0  0  0  0  0  0  0  0  0  0
  130.3051  133.2427  159.0615 N   0  0  0  0  0  0  0  0  0  0  0  0
  131.6743  133.1717  158.7742 N   0  0  0  0  0  0  0  0  0  0  0  0
  132.1120  132.4759  158.2594 H   0  0  0  0  0  0  0  0  0  0  0  0
  132.2792  134.2399  159.3376 C   0  0  0  0  0  0  0  0  0  0  0  0
  131.3339  134.9756  159.9606 C   0  0  0  0  0  0  0  0  0  0  0  0
  131.5633  136.2585  160.7174 C   0  0  0  0  0  0  0  0  0  0  0  0
  132.4469  137.1357  159.9377 N   0  0  0  0  0  0  0  0  0  0  0  0
  133.3304  136.6727  159.7847 H   0  0  0  0  0  0  0  0  0  0  0  0
  132.0168  137.3419  159.0486 H   0  0  0  0  0  0  0  0  0  0  0  0
  132.6706  138.3861  160.6754 C   0  0  0  0  0  0  0  0  0  0  0  0
  133.5909  139.2996  159.8635 C   0  0  1  0  0  0  0  0  0  0  0  0
  133.1395  139.5318  158.8989 H   0  0  0  0  0  0  0  0  0  0  0  0
  133.8801  140.5699  160.6287 C   0  0  0  0  0  0  0  0  0  0  0  0
  135.1482  140.8742  160.5724 C   0  0  0  0  0  0  0  0  0  0  0  0
  135.9162  139.8575  159.7601 C   0  0  0  0  0  0  0  0  0  0  0  0
  134.9735  138.6351  159.6679 C   0  0  0  0  0  0  0  0  0  0  0  0
  128.5762  135.9019  161.0289 O   0  0  0  0  0  0  0  0  0  0  0  0
  128.7623  138.0694  162.3426 N   0  0  0  0  0  0  0  0  0  0  0  0
  129.4813  139.0322  162.8120 N   0  0  0  0  0  0  0  0  0  0  0  0
  131.6921  141.3513  166.4729 H   0  0  0  0  0  0  0  0  0  0  0  0
  131.4498  141.7853  168.0778 H   0  0  0  0  0  0  0  0  0  0  0  0
  129.0096  142.6380  168.8246 H   0  0  0  0  0  0  0  0  0  0  0  0
  125.7200  137.0072  162.2260 H   0  0  0  0  0  0  0  0  0  0  0  0
  125.5672  134.7239  160.8478 H   0  0  0  0  0  0  0  0  0  0  0  0
  127.4265  133.2399  159.5816 H   0  0  0  0  0  0  0  0  0  0  0  0
  133.3339  134.4682  159.2932 H   0  0  0  0  0  0  0  0  0  0  0  0
  130.6088  136.7584  160.8826 H   0  0  0  0  0  0  0  0  0  0  0  0
  132.0278  136.0356  161.6779 H   0  0  0  0  0  0  0  0  0  0  0  0
  131.7161  138.8859  160.8408 H   0  0  0  0  0  0  0  0  0  0  0  0
  133.1352  138.1632  161.6359 H   0  0  0  0  0  0  0  0  0  0  0  0
  133.1355  141.1499  161.1537 H   0  0  0  0  0  0  0  0  0  0  0  0
  135.5905  141.7390  161.0447 H   0  0  0  0  0  0  0  0  0  0  0  0
  136.1291  140.2487  158.7653 H   0  0  0  0  0  0  0  0  0  0  0  0
  136.8423  139.5874  160.2674 H   0  0  0  0  0  0  0  0  0  0  0  0
  135.1803  137.9205  160.4645 H   0  0  0  0  0  0  0  0  0  0  0  0
  135.0441  138.1595  158.6897 H   0  0  0  0  0  0  0  0  0  0  0  0
  1  2  1  0
  1 40  1  0
  1 41  1  0
  2  7  1  0
  2  3  2  0
  3  4  1  0
  3 42  1  0
  4  5  1  0
  4  6  1  0
  6  7  2  0
  7  8  1  0
  8  9  2  0
  8 10  2  0
  8 11  1  0
 11 39  1  0
 11 12  2  0
 12 13  1  0
 13 14  2  0
 14 15  1  0
 14 38  1  0
 15 16  1  0
 15 43  1  0
 16 37  1  0
 16 17  2  0
 17 18  1  0
 17 44  1  0
 18 19  2  0
 18 45  1  0
 19 20  1  0
 19 37  1  0
 20 25  1  0
 20 21  2  0
 21 22  1  0
 22 23  1  0
 22 24  1  0
 24 25  2  0
 24 46  1  0
 25 26  1  0
 26 27  1  0
 26 47  1  0
 26 48  1  0
 27 28  1  0
 27 29  1  0
 27 30  1  0
 30 31  1  0
 30 49  1  0
 30 50  1  0
 31 32  1  6
 31 36  1  0
 31 33  1  0
 33 34  2  0
 33 51  1  0
 34 35  1  0
 34 52  1  0
 35 36  1  0
 35 53  1  0
 35 54  1  0
 36 55  1  0
 36 56  1  0
 38 39  2  0
M  CHG  1  27   1
M  END
>  <DOCK_score>  (1) 
-52.45755

>  <SMILES>  (1) 
Nc1c[nH]nc1S(=O)(=O)c1nnc(Nc2ccc(-c3n[nH]cc3C[NH2+]C[C@H]3C=CCC3)o2)nn1

$$$$
