C1=C(c2cccc(/C3=C/CC/C=C\CC3)c2)CC[N@H+](Cc2ccc(-c3ccccc3)[nH]2)C1
     RDKit          3D

 65 69  0  0  1  0  0  0  0  0999 V2000
  133.0495  134.9339  161.6746 C   0  0  0  0  0  0  0  0  0  0  0  0
  133.4591  136.1657  161.4615 C   0  0  0  0  0  0  0  0  0  0  0  0
  134.7100  136.6219  162.1036 C   0  0  0  0  0  0  0  0  0  0  0  0
  135.5046  137.5868  161.4811 C   0  0  0  0  0  0  0  0  0  0  0  0
  136.6704  138.0177  162.0819 C   0  0  0  0  0  0  0  0  0  0  0  0
  137.0648  137.4902  163.2958 C   0  0  0  0  0  0  0  0  0  0  0  0
  136.2824  136.5213  163.9264 C   0  0  0  0  0  0  0  0  0  0  0  0
  136.7068  135.9565  165.2287 C   0  0  0  0  0  0  0  0  0  0  0  0
  135.8782  136.1011  166.2632 C   0  0  0  0  0  0  0  0  0  0  0  0
  136.2566  135.5640  167.6093 C   0  0  0  0  0  0  0  0  0  0  0  0
  137.1508  136.4928  168.3978 C   0  0  0  0  0  0  0  0  0  0  0  0
  137.7859  137.5584  167.5777 C   0  0  0  0  0  0  0  0  0  0  0  0
  138.6058  137.2570  166.6022 C   0  0  0  0  0  0  0  0  0  0  0  0
  138.9706  135.8255  166.3221 C   0  0  0  0  0  0  0  0  0  0  0  0
  138.0145  135.2565  165.2879 C   0  0  0  0  0  0  0  0  0  0  0  0
  135.1017  136.0862  163.3282 C   0  0  0  0  0  0  0  0  0  0  0  0
  132.7004  137.1266  160.5879 C   0  0  0  0  0  0  0  0  0  0  0  0
  131.2798  136.6027  160.3629 C   0  0  0  0  0  0  0  0  0  0  0  0
  131.3596  135.1965  159.9367 N   0  0  2  0  0  0  0  0  0  0  0  0
  132.0270  135.1089  159.1850 H   0  0  0  0  0  0  0  0  0  0  0  0
  130.0385  134.7459  159.4788 C   0  0  0  0  0  0  0  0  0  0  0  0
  130.1978  133.5264  158.6080 C   0  0  0  0  0  0  0  0  0  0  0  0
  130.1999  132.2455  159.0363 C   0  0  0  0  0  0  0  0  0  0  0  0
  130.3698  131.4202  157.9127 C   0  0  0  0  0  0  0  0  0  0  0  0
  130.4764  132.2328  156.8245 C   0  0  0  0  0  0  0  0  0  0  0  0
  130.6715  131.7937  155.4260 C   0  0  0  0  0  0  0  0  0  0  0  0
  130.1616  132.5564  154.3744 C   0  0  0  0  0  0  0  0  0  0  0  0
  130.3531  132.1446  153.0716 C   0  0  0  0  0  0  0  0  0  0  0  0
  131.0375  130.9716  152.8072 C   0  0  0  0  0  0  0  0  0  0  0  0
  131.5401  130.2077  153.8455 C   0  0  0  0  0  0  0  0  0  0  0  0
  131.3615  130.6118  155.1525 C   0  0  0  0  0  0  0  0  0  0  0  0
  130.3699  133.5303  157.2557 N   0  0  0  0  0  0  0  0  0  0  0  0
  130.4108  134.3191  156.6926 H   0  0  0  0  0  0  0  0  0  0  0  0
  131.7911  134.3765  161.0747 C   0  0  0  0  0  0  0  0  0  0  0  0
  133.6451  134.2952  162.3099 H   0  0  0  0  0  0  0  0  0  0  0  0
  135.2042  138.0001  160.5296 H   0  0  0  0  0  0  0  0  0  0  0  0
  137.2794  138.7672  161.5982 H   0  0  0  0  0  0  0  0  0  0  0  0
  137.9803  137.8283  163.7584 H   0  0  0  0  0  0  0  0  0  0  0  0
  134.9311  136.6063  166.1307 H   0  0  0  0  0  0  0  0  0  0  0  0
  136.7700  134.6139  167.4782 H   0  0  0  0  0  0  0  0  0  0  0  0
  135.3464  135.3934  168.1833 H   0  0  0  0  0  0  0  0  0  0  0  0
  137.9322  135.9033  168.8722 H   0  0  0  0  0  0  0  0  0  0  0  0
  136.5521  136.9675  169.1743 H   0  0  0  0  0  0  0  0  0  0  0  0
  137.5525  138.5933  167.7773 H   0  0  0  0  0  0  0  0  0  0  0  0
  139.0222  138.0471  165.9931 H   0  0  0  0  0  0  0  0  0  0  0  0
  138.9156  135.2402  167.2409 H   0  0  0  0  0  0  0  0  0  0  0  0
  139.9931  135.7814  165.9366 H   0  0  0  0  0  0  0  0  0  0  0  0
  137.8377  134.2021  165.5153 H   0  0  0  0  0  0  0  0  0  0  0  0
  138.4868  135.3153  164.3038 H   0  0  0  0  0  0  0  0  0  0  0  0
  134.4930  135.3365  163.8117 H   0  0  0  0  0  0  0  0  0  0  0  0
  132.6553  138.1011  161.0738 H   0  0  0  0  0  0  0  0  0  0  0  0
  133.2081  137.2229  159.6282 H   0  0  0  0  0  0  0  0  0  0  0  0
  130.7905  137.1927  159.5878 H   0  0  0  0  0  0  0  0  0  0  0  0
  130.7132  136.6720  161.2915 H   0  0  0  0  0  0  0  0  0  0  0  0
  129.4201  134.4982  160.3414 H   0  0  0  0  0  0  0  0  0  0  0  0
  129.5617  135.5414  158.9063 H   0  0  0  0  0  0  0  0  0  0  0  0
  130.0887  131.9154  160.0585 H   0  0  0  0  0  0  0  0  0  0  0  0
  130.4126  130.3411  157.9121 H   0  0  0  0  0  0  0  0  0  0  0  0
  129.6227  133.4695  154.5797 H   0  0  0  0  0  0  0  0  0  0  0  0
  129.9635  132.7365  152.2567 H   0  0  0  0  0  0  0  0  0  0  0  0
  131.1805  130.6511  151.7858 H   0  0  0  0  0  0  0  0  0  0  0  0
  132.0739  129.2932  153.6324 H   0  0  0  0  0  0  0  0  0  0  0  0
  131.7549  130.0150  155.9620 H   0  0  0  0  0  0  0  0  0  0  0  0
  131.0053  134.3661  161.8300 H   0  0  0  0  0  0  0  0  0  0  0  0
  131.9776  133.3578  160.7346 H   0  0  0  0  0  0  0  0  0  0  0  0
  1 34  1  0
  1  2  2  0
  1 35  1  0
  2  3  1  0
  2 17  1  0
  3 16  1  0
  3  4  2  0
  4  5  1  0
  4 36  1  0
  5  6  2  0
  5 37  1  0
  6  7  1  0
  6 38  1  0
  7  8  1  0
  7 16  2  0
  8 15  1  0
  8  9  2  0
  9 10  1  0
  9 39  1  0
 10 11  1  0
 10 40  1  0
 10 41  1  0
 11 12  1  0
 11 42  1  0
 11 43  1  0
 12 13  2  0
 12 44  1  0
 13 14  1  0
 13 45  1  0
 14 15  1  0
 14 46  1  0
 14 47  1  0
 15 48  1  0
 15 49  1  0
 16 50  1  0
 17 18  1  0
 17 51  1  0
 17 52  1  0
 18 19  1  0
 18 53  1  0
 18 54  1  0
 19 20  1  6
 19 21  1  0
 19 34  1  0
 21 22  1  0
 21 55  1  0
 21 56  1  0
 22 32  1  0
 22 23  2  0
 23 24  1  0
 23 57  1  0
 24 25  2  0
 24 58  1  0
 25 26  1  0
 25 32  1  0
 26 31  1  0
 26 27  2  0
 27 28  1  0
 27 59  1  0
 28 29  2  0
 28 60  1  0
 29 30  1  0
 29 61  1  0
 30 31  2  0
 30 62  1  0
 31 63  1  0
 32 33  1  0
 34 64  1  0
 34 65  1  0
M  CHG  1  19   1
M  END
>  <DOCK_score>  (1) 
-57.911293

>  <SMILES>  (1) 
C1=C(c2cccc(/C3=C/CC/C=C\CC3)c2)CC[N@H+](Cc2ccc(-c3ccccc3)[nH]2)C1

$$$$
