Cc1ccccc1[C@@H](c1ccc2c(c1)CCCC2)[NH+]1CCN(c2ccccc2C)CC1
     RDKit          3D

 66 70  0  0  1  0  0  0  0  0999 V2000
  127.1587  131.7181  159.6374 C   0  0  0  0  0  0  0  0  0  0  0  0
  127.1298  133.1023  159.0420 C   0  0  0  0  0  0  0  0  0  0  0  0
  125.9213  133.7425  158.8393 C   0  0  0  0  0  0  0  0  0  0  0  0
  125.8946  135.0097  158.2881 C   0  0  0  0  0  0  0  0  0  0  0  0
  127.0766  135.6391  157.9442 C   0  0  0  0  0  0  0  0  0  0  0  0
  128.2851  135.0013  158.1523 C   0  0  0  0  0  0  0  0  0  0  0  0
  128.3117  133.7338  158.7036 C   0  0  0  0  0  0  0  0  0  0  0  0
  129.6294  133.0382  158.9301 C   0  0  1  0  0  0  0  0  0  0  0  0
  129.5437  132.3671  159.7846 H   0  0  0  0  0  0  0  0  0  0  0  0
  129.9957  132.2444  157.7026 C   0  0  0  0  0  0  0  0  0  0  0  0
  130.1676  130.8752  157.7877 C   0  0  0  0  0  0  0  0  0  0  0  0
  130.5050  130.1558  156.6602 C   0  0  0  0  0  0  0  0  0  0  0  0
  130.6720  130.7955  155.4384 C   0  0  0  0  0  0  0  0  0  0  0  0
  130.4976  132.1584  155.3530 C   0  0  0  0  0  0  0  0  0  0  0  0
  130.1553  132.8806  156.4891 C   0  0  0  0  0  0  0  0  0  0  0  0
  130.6537  132.9162  154.0607 C   0  0  0  0  0  0  0  0  0  0  0  0
  131.4264  132.0836  153.0396 C   0  0  0  0  0  0  0  0  0  0  0  0
  130.7710  130.7005  152.9483 C   0  0  0  0  0  0  0  0  0  0  0  0
  131.0468  129.9499  154.2495 C   0  0  0  0  0  0  0  0  0  0  0  0
  130.6719  134.0386  159.1955 N   0  0  0  0  0  0  0  0  0  0  0  0
  130.7510  134.6597  158.4043 H   0  0  0  0  0  0  0  0  0  0  0  0
  131.9561  133.3603  159.4154 C   0  0  0  0  0  0  0  0  0  0  0  0
  133.0462  134.4029  159.6730 C   0  0  0  0  0  0  0  0  0  0  0  0
  132.6865  135.2020  160.8528 N   0  0  0  0  0  0  0  0  0  0  0  0
  133.6859  136.1308  161.1521 C   0  0  0  0  0  0  0  0  0  0  0  0
  134.0413  137.0961  160.2183 C   0  0  0  0  0  0  0  0  0  0  0  0
  135.0293  138.0132  160.5175 C   0  0  0  0  0  0  0  0  0  0  0  0
  135.6647  137.9716  161.7454 C   0  0  0  0  0  0  0  0  0  0  0  0
  135.3134  137.0122  162.6769 C   0  0  0  0  0  0  0  0  0  0  0  0
  134.3225  136.0949  162.3859 C   0  0  0  0  0  0  0  0  0  0  0  0
  133.9361  135.0534  163.4043 C   0  0  0  0  0  0  0  0  0  0  0  0
  131.3906  135.8673  160.6575 C   0  0  0  0  0  0  0  0  0  0  0  0
  130.3142  134.8125  160.3914 C   0  0  0  0  0  0  0  0  0  0  0  0
  127.1413  131.7899  160.7248 H   0  0  0  0  0  0  0  0  0  0  0  0
  126.2881  131.1577  159.2962 H   0  0  0  0  0  0  0  0  0  0  0  0
  128.0673  131.2057  159.3214 H   0  0  0  0  0  0  0  0  0  0  0  0
  124.9980  133.2510  159.1080 H   0  0  0  0  0  0  0  0  0  0  0  0
  124.9504  135.5083  158.1263 H   0  0  0  0  0  0  0  0  0  0  0  0
  127.0557  136.6292  157.5135 H   0  0  0  0  0  0  0  0  0  0  0  0
  129.2083  135.4930  157.8837 H   0  0  0  0  0  0  0  0  0  0  0  0
  130.0377  130.3705  158.7336 H   0  0  0  0  0  0  0  0  0  0  0  0
  130.6409  129.0865  156.7278 H   0  0  0  0  0  0  0  0  0  0  0  0
  130.0170  133.9496  156.4227 H   0  0  0  0  0  0  0  0  0  0  0  0
  131.1939  133.8437  154.2509 H   0  0  0  0  0  0  0  0  0  0  0  0
  129.6672  133.1506  153.6606 H   0  0  0  0  0  0  0  0  0  0  0  0
  132.4626  131.9783  153.3606 H   0  0  0  0  0  0  0  0  0  0  0  0
  131.3916  132.5714  152.0655 H   0  0  0  0  0  0  0  0  0  0  0  0
  131.1943  130.1484  152.1092 H   0  0  0  0  0  0  0  0  0  0  0  0
  129.6956  130.8123  152.8097 H   0  0  0  0  0  0  0  0  0  0  0  0
  132.1069  129.7028  154.3042 H   0  0  0  0  0  0  0  0  0  0  0  0
  130.4626  129.0298  154.2644 H   0  0  0  0  0  0  0  0  0  0  0  0
  131.8746  132.6989  160.2779 H   0  0  0  0  0  0  0  0  0  0  0  0
  132.2142  132.7757  158.5324 H   0  0  0  0  0  0  0  0  0  0  0  0
  133.1372  135.0562  158.8052 H   0  0  0  0  0  0  0  0  0  0  0  0
  133.9966  133.8996  159.8506 H   0  0  0  0  0  0  0  0  0  0  0  0
  133.5450  137.1296  159.2597 H   0  0  0  0  0  0  0  0  0  0  0  0
  135.3060  138.7639  159.7921 H   0  0  0  0  0  0  0  0  0  0  0  0
  136.4372  138.6901  161.9768 H   0  0  0  0  0  0  0  0  0  0  0  0
  135.8115  136.9826  163.6346 H   0  0  0  0  0  0  0  0  0  0  0  0
  134.5510  134.1641  163.2658 H   0  0  0  0  0  0  0  0  0  0  0  0
  134.0921  135.4505  164.4073 H   0  0  0  0  0  0  0  0  0  0  0  0
  132.8857  134.7922  163.2763 H   0  0  0  0  0  0  0  0  0  0  0  0
  131.4543  136.5447  159.8060 H   0  0  0  0  0  0  0  0  0  0  0  0
  131.1329  136.4319  161.5535 H   0  0  0  0  0  0  0  0  0  0  0  0
  129.3548  135.3047  160.2321 H   0  0  0  0  0  0  0  0  0  0  0  0
  130.2413  134.1436  161.2488 H   0  0  0  0  0  0  0  0  0  0  0  0
  1  2  1  0
  1 34  1  0
  1 35  1  0
  1 36  1  0
  2  7  2  0
  2  3  1  0
  3  4  2  0
  3 37  1  0
  4  5  1  0
  4 38  1  0
  5  6  2  0
  5 39  1  0
  6  7  1  0
  6 40  1  0
  7  8  1  0
  8  9  1  1
  8 10  1  0
  8 20  1  0
 10 15  1  0
 10 11  2  0
 11 12  1  0
 11 41  1  0
 12 13  2  0
 12 42  1  0
 13 19  1  0
 13 14  1  0
 14 15  2  0
 14 16  1  0
 15 43  1  0
 16 17  1  0
 16 44  1  0
 16 45  1  0
 17 18  1  0
 17 46  1  0
 17 47  1  0
 18 19  1  0
 18 48  1  0
 18 49  1  0
 19 50  1  0
 19 51  1  0
 20 21  1  0
 20 33  1  0
 20 22  1  0
 22 23  1  0
 22 52  1  0
 22 53  1  0
 23 24  1  0
 23 54  1  0
 23 55  1  0
 24 25  1  0
 24 32  1  0
 25 30  1  0
 25 26  2  0
 26 27  1  0
 26 56  1  0
 27 28  2  0
 27 57  1  0
 28 29  1  0
 28 58  1  0
 29 30  2  0
 29 59  1  0
 30 31  1  0
 31 60  1  0
 31 61  1  0
 31 62  1  0
 32 33  1  0
 32 63  1  0
 32 64  1  0
 33 65  1  0
 33 66  1  0
M  CHG  1  20   1
M  END
>  <DOCK_score>  (1) 
-56.080303

>  <SMILES>  (1) 
Cc1ccccc1[C@@H](c1ccc2c(c1)CCCC2)[NH+]1CCN(c2ccccc2C)CC1

$$$$
