Cc1ccccc1[C@H](CF)Nc1[nH]cc(-c2ccc(-c3ccccc3)cc2)[nH+]1
     RDKit          3D

 51 54  0  0  1  0  0  0  0  0999 V2000
  128.8243  136.9142  161.3617 C   0  0  0  0  0  0  0  0  0  0  0  0
  130.0106  137.8102  161.6080 C   0  0  0  0  0  0  0  0  0  0  0  0
  129.8192  139.1539  161.8709 C   0  0  0  0  0  0  0  0  0  0  0  0
  130.9073  139.9757  162.0972 C   0  0  0  0  0  0  0  0  0  0  0  0
  132.1871  139.4539  162.0608 C   0  0  0  0  0  0  0  0  0  0  0  0
  132.3785  138.1108  161.7962 C   0  0  0  0  0  0  0  0  0  0  0  0
  131.2901  137.2887  161.5706 C   0  0  0  0  0  0  0  0  0  0  0  0
  131.4984  135.8226  161.2903 C   0  0  2  0  0  0  0  0  0  0  0  0
  130.6423  135.2572  161.6581 H   0  0  0  0  0  0  0  0  0  0  0  0
  132.7678  135.3436  161.9972 C   0  0  0  0  0  0  0  0  0  0  0  0
  132.9612  133.9827  161.7370 F   0  0  0  0  0  0  0  0  0  0  0  0
  131.6360  135.6164  159.8464 N   0  0  0  0  0  0  0  0  0  0  0  0
  131.2258  134.4239  159.2754 C   0  0  0  0  0  0  0  0  0  0  0  0
  130.6762  133.3730  159.9433 N   0  0  0  0  0  0  0  0  0  0  0  0
  130.5036  133.3251  160.8967 H   0  0  0  0  0  0  0  0  0  0  0  0
  130.4115  132.3926  159.0186 C   0  0  0  0  0  0  0  0  0  0  0  0
  130.8068  132.8721  157.8126 C   0  0  0  0  0  0  0  0  0  0  0  0
  130.7146  132.1579  156.5168 C   0  0  0  0  0  0  0  0  0  0  0  0
  129.9575  132.6958  155.4761 C   0  0  0  0  0  0  0  0  0  0  0  0
  129.8754  132.0342  154.2708 C   0  0  0  0  0  0  0  0  0  0  0  0
  130.5407  130.8220  154.0940 C   0  0  0  0  0  0  0  0  0  0  0  0
  130.4475  130.1060  152.7985 C   0  0  0  0  0  0  0  0  0  0  0  0
  130.5363  128.7156  152.7591 C   0  0  0  0  0  0  0  0  0  0  0  0
  130.4443  128.0549  151.5511 C   0  0  0  0  0  0  0  0  0  0  0  0
  130.2744  128.7707  150.3795 C   0  0  0  0  0  0  0  0  0  0  0  0
  130.1904  130.1511  150.4120 C   0  0  0  0  0  0  0  0  0  0  0  0
  130.2764  130.8221  151.6150 C   0  0  0  0  0  0  0  0  0  0  0  0
  131.2941  130.2811  155.1363 C   0  0  0  0  0  0  0  0  0  0  0  0
  131.3803  130.9448  156.3401 C   0  0  0  0  0  0  0  0  0  0  0  0
  131.2974  134.1230  158.0018 N   0  0  0  0  0  0  0  0  0  0  0  0
  131.6473  134.7013  157.3061 H   0  0  0  0  0  0  0  0  0  0  0  0
  128.4841  136.4934  162.3078 H   0  0  0  0  0  0  0  0  0  0  0  0
  128.0185  137.4938  160.9111 H   0  0  0  0  0  0  0  0  0  0  0  0
  129.1121  136.1073  160.6877 H   0  0  0  0  0  0  0  0  0  0  0  0
  128.8195  139.5616  161.8997 H   0  0  0  0  0  0  0  0  0  0  0  0
  130.7579  141.0254  162.3029 H   0  0  0  0  0  0  0  0  0  0  0  0
  133.0373  140.0958  162.2381 H   0  0  0  0  0  0  0  0  0  0  0  0
  133.3783  137.7033  161.7670 H   0  0  0  0  0  0  0  0  0  0  0  0
  133.6241  135.9091  161.6293 H   0  0  0  0  0  0  0  0  0  0  0  0
  132.6655  135.4971  163.0714 H   0  0  0  0  0  0  0  0  0  0  0  0
  132.0144  136.3154  159.2906 H   0  0  0  0  0  0  0  0  0  0  0  0
  129.9726  131.4254  159.2140 H   0  0  0  0  0  0  0  0  0  0  0  0
  129.4386  133.6330  155.6141 H   0  0  0  0  0  0  0  0  0  0  0  0
  129.2922  132.4525  153.4638 H   0  0  0  0  0  0  0  0  0  0  0  0
  130.6734  128.1561  153.6727 H   0  0  0  0  0  0  0  0  0  0  0  0
  130.5088  126.9773  151.5196 H   0  0  0  0  0  0  0  0  0  0  0  0
  130.2074  128.2498  149.4357 H   0  0  0  0  0  0  0  0  0  0  0  0
  130.0578  130.7048  149.4943 H   0  0  0  0  0  0  0  0  0  0  0  0
  130.2115  131.8998  151.6392 H   0  0  0  0  0  0  0  0  0  0  0  0
  131.8094  129.3418  154.9996 H   0  0  0  0  0  0  0  0  0  0  0  0
  131.9635  130.5263  157.1470 H   0  0  0  0  0  0  0  0  0  0  0  0
  1  2  1  0
  1 32  1  0
  1 33  1  0
  1 34  1  0
  2  7  2  0
  2  3  1  0
  3  4  2  0
  3 35  1  0
  4  5  1  0
  4 36  1  0
  5  6  2  0
  5 37  1  0
  6  7  1  0
  6 38  1  0
  7  8  1  0
  8  9  1  1
  8 10  1  0
  8 12  1  0
 10 11  1  0
 10 39  1  0
 10 40  1  0
 12 41  1  0
 13 12  1  0
 13 30  2  0
 13 14  1  0
 14 15  1  0
 14 16  1  0
 16 17  2  0
 16 42  1  0
 17 18  1  0
 17 30  1  0
 18 29  1  0
 18 19  2  0
 19 20  1  0
 19 43  1  0
 20 21  2  0
 20 44  1  0
 21 22  1  0
 21 28  1  0
 22 27  1  0
 22 23  2  0
 23 24  1  0
 23 45  1  0
 24 25  2  0
 24 46  1  0
 25 26  1  0
 25 47  1  0
 26 27  2  0
 26 48  1  0
 27 49  1  0
 28 29  2  0
 28 50  1  0
 29 51  1  0
 30 31  1  0
M  CHG  1  30   1
M  END
>  <DOCK_score>  (1) 
-58.429104

>  <SMILES>  (1) 
Cc1ccccc1[C@H](CF)Nc1[nH]cc(-c2ccc(-c3ccccc3)cc2)[nH+]1

$$$$
