CN(C[C@H]1CCCC[N@@H+]1Cc1ccc2nc[nH]c2c1)S(=O)(=O)c1ccccc1
     RDKit          3D

 55 58  0  0  1  0  0  0  0  0999 V2000
  127.3651  134.8432  158.6747 C   0  0  0  0  0  0  0  0  0  0  0  0
  128.1742  135.7036  159.5415 N   0  0  0  0  0  0  0  0  0  0  0  0
  129.4622  136.2167  159.0679 C   0  0  0  0  0  0  0  0  0  0  0  0
  130.5771  135.7307  159.9960 C   0  0  1  0  0  0  0  0  0  0  0  0
  130.2330  135.7735  161.0294 H   0  0  0  0  0  0  0  0  0  0  0  0
  130.9436  134.2883  159.6403 C   0  0  0  0  0  0  0  0  0  0  0  0
  132.0595  133.8063  160.5719 C   0  0  0  0  0  0  0  0  0  0  0  0
  133.2557  134.7551  160.4529 C   0  0  0  0  0  0  0  0  0  0  0  0
  132.8036  136.1804  160.7786 C   0  0  0  0  0  0  0  0  0  0  0  0
  131.7552  136.5920  159.8374 N   0  0  2  0  0  0  0  0  0  0  0  0
  132.1026  136.5142  158.8933 H   0  0  0  0  0  0  0  0  0  0  0  0
  131.3784  137.9863  160.1055 C   0  0  0  0  0  0  0  0  0  0  0  0
  132.6134  138.7872  160.4285 C   0  0  0  0  0  0  0  0  0  0  0  0
  133.3176  139.4100  159.4076 C   0  0  0  0  0  0  0  0  0  0  0  0
  134.4359  140.1452  159.6803 C   0  0  0  0  0  0  0  0  0  0  0  0
  134.8865  140.2649  160.9978 C   0  0  0  0  0  0  0  0  0  0  0  0
  135.9375  140.9031  161.5737 N   0  0  0  0  0  0  0  0  0  0  0  0
  135.9183  140.7048  162.8595 C   0  0  0  0  0  0  0  0  0  0  0  0
  134.8547  139.9267  163.1967 N   0  0  0  0  0  0  0  0  0  0  0  0
  134.6163  139.6349  164.0905 H   0  0  0  0  0  0  0  0  0  0  0  0
  134.1773  139.6297  162.0311 C   0  0  0  0  0  0  0  0  0  0  0  0
  133.0394  138.8913  161.7354 C   0  0  0  0  0  0  0  0  0  0  0  0
  127.6332  136.0961  161.0566 S   0  0  0  0  0  0  0  0  0  0  0  0
  128.2854  137.3068  161.4143 O   0  0  0  0  0  0  0  0  0  0  0  0
  126.2196  135.9541  161.0271 O   0  0  0  0  0  0  0  0  0  0  0  0
  128.2343  134.8619  162.1611 C   0  0  0  0  0  0  0  0  0  0  0  0
  127.7199  133.5797  162.1111 C   0  0  0  0  0  0  0  0  0  0  0  0
  128.1943  132.6105  162.9749 C   0  0  0  0  0  0  0  0  0  0  0  0
  129.1771  132.9255  163.8947 C   0  0  0  0  0  0  0  0  0  0  0  0
  129.6883  134.2088  163.9477 C   0  0  0  0  0  0  0  0  0  0  0  0
  129.2166  135.1771  163.0813 C   0  0  0  0  0  0  0  0  0  0  0  0
  127.6949  133.8097  158.7785 H   0  0  0  0  0  0  0  0  0  0  0  0
  126.3166  134.9207  158.9624 H   0  0  0  0  0  0  0  0  0  0  0  0
  127.4816  135.1595  157.6380 H   0  0  0  0  0  0  0  0  0  0  0  0
  129.4404  137.3065  159.0657 H   0  0  0  0  0  0  0  0  0  0  0  0
  129.6477  135.8550  158.0565 H   0  0  0  0  0  0  0  0  0  0  0  0
  131.2878  134.2444  158.6070 H   0  0  0  0  0  0  0  0  0  0  0  0
  130.0681  133.6501  159.7605 H   0  0  0  0  0  0  0  0  0  0  0  0
  132.3633  132.7993  160.2860 H   0  0  0  0  0  0  0  0  0  0  0  0
  131.6990  133.8014  161.6004 H   0  0  0  0  0  0  0  0  0  0  0  0
  133.6478  134.7210  159.4365 H   0  0  0  0  0  0  0  0  0  0  0  0
  134.0328  134.4507  161.1540 H   0  0  0  0  0  0  0  0  0  0  0  0
  133.6528  136.8584  160.6950 H   0  0  0  0  0  0  0  0  0  0  0  0
  132.4119  136.2135  161.7952 H   0  0  0  0  0  0  0  0  0  0  0  0
  130.8924  138.4071  159.2253 H   0  0  0  0  0  0  0  0  0  0  0  0
  130.6915  138.0208  160.9512 H   0  0  0  0  0  0  0  0  0  0  0  0
  132.9750  139.3164  158.3876 H   0  0  0  0  0  0  0  0  0  0  0  0
  134.9740  140.6292  158.8787 H   0  0  0  0  0  0  0  0  0  0  0  0
  136.6414  141.1005  163.5574 H   0  0  0  0  0  0  0  0  0  0  0  0
  132.4902  138.4012  162.5258 H   0  0  0  0  0  0  0  0  0  0  0  0
  126.9493  133.3347  161.3952 H   0  0  0  0  0  0  0  0  0  0  0  0
  127.7947  131.6080  162.9337 H   0  0  0  0  0  0  0  0  0  0  0  0
  129.5454  132.1691  164.5718 H   0  0  0  0  0  0  0  0  0  0  0  0
  130.4559  134.4550  164.6666 H   0  0  0  0  0  0  0  0  0  0  0  0
  129.6156  136.1798  163.1232 H   0  0  0  0  0  0  0  0  0  0  0  0
  1  2  1  0
  1 32  1  0
  1 33  1  0
  1 34  1  0
  2  3  1  0
  2 23  1  0
  3  4  1  0
  3 35  1  0
  3 36  1  0
  4  5  1  1
  4 10  1  0
  4  6  1  0
  6  7  1  0
  6 37  1  0
  6 38  1  0
  7  8  1  0
  7 39  1  0
  7 40  1  0
  8  9  1  0
  8 41  1  0
  8 42  1  0
  9 10  1  0
  9 43  1  0
  9 44  1  0
 10 11  1  6
 10 12  1  0
 12 13  1  0
 12 45  1  0
 12 46  1  0
 13 22  1  0
 13 14  2  0
 14 15  1  0
 14 47  1  0
 15 16  2  0
 15 48  1  0
 16 21  1  0
 16 17  1  0
 17 18  2  0
 18 19  1  0
 18 49  1  0
 19 20  1  0
 19 21  1  0
 21 22  2  0
 22 50  1  0
 23 24  2  0
 23 25  2  0
 23 26  1  0
 26 31  1  0
 26 27  2  0
 27 28  1  0
 27 51  1  0
 28 29  2  0
 28 52  1  0
 29 30  1  0
 29 53  1  0
 30 31  2  0
 30 54  1  0
 31 55  1  0
M  CHG  1  10   1
M  END
>  <DOCK_score>  (1) 
-44.138824

>  <SMILES>  (1) 
CN(C[C@H]1CCCC[N@@H+]1Cc1ccc2nc[nH]c2c1)S(=O)(=O)c1ccccc1

$$$$
