c1ccc(CC(Cc2ccccc2)Nc2[nH]cc(-c3ccc(-c4ccccc4)cc3)[nH+]2)cc1
     RDKit          3D

 61 65  0  0  1  0  0  0  0  0999 V2000
  135.2183  138.3783  160.3270 C   0  0  0  0  0  0  0  0  0  0  0  0
  134.9193  137.9214  161.5969 C   0  0  0  0  0  0  0  0  0  0  0  0
  133.6061  137.6761  161.9519 C   0  0  0  0  0  0  0  0  0  0  0  0
  132.5917  137.8877  161.0370 C   0  0  0  0  0  0  0  0  0  0  0  0
  131.1601  137.6200  161.4239 C   0  0  0  0  0  0  0  0  0  0  0  0
  130.8079  136.1664  161.1017 C   0  0  0  0  0  0  0  0  0  0  0  0
  129.3544  135.8946  161.4947 C   0  0  0  0  0  0  0  0  0  0  0  0
  129.2722  135.6541  162.9801 C   0  0  0  0  0  0  0  0  0  0  0  0
  129.3992  134.3719  163.4807 C   0  0  0  0  0  0  0  0  0  0  0  0
  129.3286  134.1518  164.8436 C   0  0  0  0  0  0  0  0  0  0  0  0
  129.1204  135.2127  165.7050 C   0  0  0  0  0  0  0  0  0  0  0  0
  128.9883  136.4943  165.2040 C   0  0  0  0  0  0  0  0  0  0  0  0
  129.0642  136.7150  163.8416 C   0  0  0  0  0  0  0  0  0  0  0  0
  130.9783  135.9292  159.6662 N   0  0  0  0  0  0  0  0  0  0  0  0
  130.7169  134.6776  159.1356 C   0  0  0  0  0  0  0  0  0  0  0  0
  130.2975  133.5905  159.8388 N   0  0  0  0  0  0  0  0  0  0  0  0
  130.1298  133.5535  160.7935 H   0  0  0  0  0  0  0  0  0  0  0  0
  130.1506  132.5567  158.9466 C   0  0  0  0  0  0  0  0  0  0  0  0
  130.4921  133.0392  157.7254 C   0  0  0  0  0  0  0  0  0  0  0  0
  130.4882  132.2771  156.4538 C   0  0  0  0  0  0  0  0  0  0  0  0
  129.6825  132.6931  155.3938 C   0  0  0  0  0  0  0  0  0  0  0  0
  129.6795  131.9852  154.2122 C   0  0  0  0  0  0  0  0  0  0  0  0
  130.4822  130.8524  154.0759 C   0  0  0  0  0  0  0  0  0  0  0  0
  130.4785  130.0900  152.8038 C   0  0  0  0  0  0  0  0  0  0  0  0
  130.7220  128.7181  152.8095 C   0  0  0  0  0  0  0  0  0  0  0  0
  130.7177  128.0141  151.6227 C   0  0  0  0  0  0  0  0  0  0  0  0
  130.4716  128.6671  150.4288 C   0  0  0  0  0  0  0  0  0  0  0  0
  130.2342  130.0302  150.4159 C   0  0  0  0  0  0  0  0  0  0  0  0
  130.2309  130.7438  151.5972 C   0  0  0  0  0  0  0  0  0  0  0  0
  131.2835  130.4339  155.1372 C   0  0  0  0  0  0  0  0  0  0  0  0
  131.2908  131.1444  156.3170 C   0  0  0  0  0  0  0  0  0  0  0  0
  130.8320  134.3445  157.8732 N   0  0  0  0  0  0  0  0  0  0  0  0
  131.1148  134.9366  157.1588 H   0  0  0  0  0  0  0  0  0  0  0  0
  132.8912  138.3395  159.7652 C   0  0  0  0  0  0  0  0  0  0  0  0
  134.2039  138.5898  159.4119 C   0  0  0  0  0  0  0  0  0  0  0  0
  136.2444  138.5695  160.0495 H   0  0  0  0  0  0  0  0  0  0  0  0
  135.7119  137.7558  162.3117 H   0  0  0  0  0  0  0  0  0  0  0  0
  133.3726  137.3188  162.9440 H   0  0  0  0  0  0  0  0  0  0  0  0
  130.5021  138.2857  160.8650 H   0  0  0  0  0  0  0  0  0  0  0  0
  131.0333  137.7966  162.4920 H   0  0  0  0  0  0  0  0  0  0  0  0
  131.4659  135.5008  161.6606 H   0  0  0  0  0  0  0  0  0  0  0  0
  128.7399  136.7554  161.2314 H   0  0  0  0  0  0  0  0  0  0  0  0
  128.9931  135.0141  160.9635 H   0  0  0  0  0  0  0  0  0  0  0  0
  129.5573  133.5424  162.8073 H   0  0  0  0  0  0  0  0  0  0  0  0
  129.4314  133.1506  165.2350 H   0  0  0  0  0  0  0  0  0  0  0  0
  129.0609  135.0404  166.7696 H   0  0  0  0  0  0  0  0  0  0  0  0
  128.8254  137.3231  165.8771 H   0  0  0  0  0  0  0  0  0  0  0  0
  128.9605  137.7161  163.4501 H   0  0  0  0  0  0  0  0  0  0  0  0
  131.2744  136.6491  159.0875 H   0  0  0  0  0  0  0  0  0  0  0  0
  129.8271  131.5516  159.1739 H   0  0  0  0  0  0  0  0  0  0  0  0
  129.0608  133.5697  155.4997 H   0  0  0  0  0  0  0  0  0  0  0  0
  129.0558  132.3075  153.3914 H   0  0  0  0  0  0  0  0  0  0  0  0
  130.9138  128.2068  153.7413 H   0  0  0  0  0  0  0  0  0  0  0  0
  130.9067  126.9506  151.6261 H   0  0  0  0  0  0  0  0  0  0  0  0
  130.4689  128.1119  149.5025 H   0  0  0  0  0  0  0  0  0  0  0  0
  130.0473  130.5361  149.4801 H   0  0  0  0  0  0  0  0  0  0  0  0
  130.0416  131.8069  151.5866 H   0  0  0  0  0  0  0  0  0  0  0  0
  131.9015  129.5543  155.0327 H   0  0  0  0  0  0  0  0  0  0  0  0
  131.9150  130.8226  157.1375 H   0  0  0  0  0  0  0  0  0  0  0  0
  132.0991  138.5007  159.0490 H   0  0  0  0  0  0  0  0  0  0  0  0
  134.4375  138.9464  158.4196 H   0  0  0  0  0  0  0  0  0  0  0  0
  1 35  2  0
  1  2  1  0
  1 36  1  0
  2  3  2  0
  2 37  1  0
  3  4  1  0
  3 38  1  0
  4  5  1  0
  4 34  2  0
  5  6  1  0
  5 39  1  0
  5 40  1  0
  6  7  1  0
  6 14  1  0
  6 41  1  0
  7  8  1  0
  7 42  1  0
  7 43  1  0
  8 13  1  0
  8  9  2  0
  9 10  1  0
  9 44  1  0
 10 11  2  0
 10 45  1  0
 11 12  1  0
 11 46  1  0
 12 13  2  0
 12 47  1  0
 13 48  1  0
 14 49  1  0
 15 14  1  0
 15 32  2  0
 15 16  1  0
 16 17  1  0
 16 18  1  0
 18 19  2  0
 18 50  1  0
 19 20  1  0
 19 32  1  0
 20 31  1  0
 20 21  2  0
 21 22  1  0
 21 51  1  0
 22 23  2  0
 22 52  1  0
 23 24  1  0
 23 30  1  0
 24 29  1  0
 24 25  2  0
 25 26  1  0
 25 53  1  0
 26 27  2  0
 26 54  1  0
 27 28  1  0
 27 55  1  0
 28 29  2  0
 28 56  1  0
 29 57  1  0
 30 31  2  0
 30 58  1  0
 31 59  1  0
 32 33  1  0
 34 35  1  0
 34 60  1  0
 35 61  1  0
M  CHG  1  32   1
M  END
>  <DOCK_score>  (1) 
-58.014568

>  <SMILES>  (1) 
c1ccc(CC(Cc2ccccc2)Nc2[nH]cc(-c3ccc(-c4ccccc4)cc3)[nH+]2)cc1

$$$$
