OCC[NH2+]C[C@@H]1CC=C(c2n[nH]cc2-c2n[nH]cc2Nc2ncc3c(n2)CCOC3)CC1
     RDKit          3D

 61 65  0  0  1  0  0  0  0  0999 V2000
  132.3330  133.5708  153.3043 O   0  0  0  0  0  0  0  0  0  0  0  0
  131.0627  132.9589  153.0712 C   0  0  0  0  0  0  0  0  0  0  0  0
  130.6018  132.2410  154.3412 C   0  0  0  0  0  0  0  0  0  0  0  0
  130.4838  133.2120  155.4372 N   0  0  0  0  0  0  0  0  0  0  0  0
  129.8097  133.9203  155.1878 H   0  0  0  0  0  0  0  0  0  0  0  0
  131.3805  133.6441  155.6018 H   0  0  0  0  0  0  0  0  0  0  0  0
  130.0412  132.5227  156.6566 C   0  0  0  0  0  0  0  0  0  0  0  0
  129.9183  133.5340  157.7981 C   0  0  2  0  0  0  0  0  0  0  0  0
  130.8860  134.0025  157.9780 H   0  0  0  0  0  0  0  0  0  0  0  0
  129.4479  132.8216  159.0677 C   0  0  0  0  0  0  0  0  0  0  0  0
  129.0807  133.8279  160.1190 C   0  0  0  0  0  0  0  0  0  0  0  0
  128.8472  135.0941  159.8684 C   0  0  0  0  0  0  0  0  0  0  0  0
  128.4851  135.9716  161.0000 C   0  0  0  0  0  0  0  0  0  0  0  0
  127.2662  136.2125  161.4361 N   0  0  0  0  0  0  0  0  0  0  0  0
  127.3511  137.0936  162.5207 N   0  0  0  0  0  0  0  0  0  0  0  0
  126.6019  137.4375  163.0320 H   0  0  0  0  0  0  0  0  0  0  0  0
  128.6522  137.3796  162.7378 C   0  0  0  0  0  0  0  0  0  0  0  0
  129.3886  136.7064  161.8107 C   0  0  0  0  0  0  0  0  0  0  0  0
  130.8662  136.7316  161.6770 C   0  0  0  0  0  0  0  0  0  0  0  0
  131.5439  136.5780  160.5592 N   0  0  0  0  0  0  0  0  0  0  0  0
  132.9094  136.6678  160.8577 N   0  0  0  0  0  0  0  0  0  0  0  0
  133.6376  136.5907  160.2216 H   0  0  0  0  0  0  0  0  0  0  0  0
  133.0361  136.8866  162.1936 C   0  0  0  0  0  0  0  0  0  0  0  0
  131.7905  136.9251  162.7267 C   0  0  0  0  0  0  0  0  0  0  0  0
  131.4747  137.1280  164.0827 N   0  0  0  0  0  0  0  0  0  0  0  0
  132.3490  136.7030  165.0678 C   0  0  0  0  0  0  0  0  0  0  0  0
  132.0362  136.9019  166.3404 N   0  0  0  0  0  0  0  0  0  0  0  0
  132.8508  136.5088  167.3049 C   0  0  0  0  0  0  0  0  0  0  0  0
  134.0428  135.8818  166.9699 C   0  0  0  0  0  0  0  0  0  0  0  0
  134.3369  135.6873  165.6350 C   0  0  0  0  0  0  0  0  0  0  0  0
  133.4786  136.1066  164.7168 N   0  0  0  0  0  0  0  0  0  0  0  0
  135.6100  135.0081  165.2045 C   0  0  0  0  0  0  0  0  0  0  0  0
  136.6055  134.9962  166.3669 C   0  0  0  0  0  0  0  0  0  0  0  0
  135.9359  134.5140  167.5338 O   0  0  0  0  0  0  0  0  0  0  0  0
  134.9782  135.4342  168.0592 C   0  0  0  0  0  0  0  0  0  0  0  0
  128.9205  135.7023  158.4981 C   0  0  0  0  0  0  0  0  0  0  0  0
  128.8862  134.6077  157.4317 C   0  0  0  0  0  0  0  0  0  0  0  0
  132.3296  134.2248  154.0166 H   0  0  0  0  0  0  0  0  0  0  0  0
  131.1504  132.2384  152.2580 H   0  0  0  0  0  0  0  0  0  0  0  0
  130.3348  133.7242  152.8018 H   0  0  0  0  0  0  0  0  0  0  0  0
  131.3298  131.4758  154.6106 H   0  0  0  0  0  0  0  0  0  0  0  0
  129.6331  131.7742  154.1634 H   0  0  0  0  0  0  0  0  0  0  0  0
  130.7693  131.7575  156.9259 H   0  0  0  0  0  0  0  0  0  0  0  0
  129.0724  132.0558  156.4788 H   0  0  0  0  0  0  0  0  0  0  0  0
  130.2487  132.1839  159.4421 H   0  0  0  0  0  0  0  0  0  0  0  0
  128.5772  132.2088  158.8344 H   0  0  0  0  0  0  0  0  0  0  0  0
  129.0036  133.4897  161.1418 H   0  0  0  0  0  0  0  0  0  0  0  0
  129.0404  138.0289  163.5086 H   0  0  0  0  0  0  0  0  0  0  0  0
  133.9636  137.0057  162.7340 H   0  0  0  0  0  0  0  0  0  0  0  0
  130.6443  137.5658  164.3271 H   0  0  0  0  0  0  0  0  0  0  0  0
  132.5915  136.6730  168.3405 H   0  0  0  0  0  0  0  0  0  0  0  0
  135.3909  133.9836  164.9040 H   0  0  0  0  0  0  0  0  0  0  0  0
  136.0423  135.5480  164.3621 H   0  0  0  0  0  0  0  0  0  0  0  0
  137.4415  134.3398  166.1258 H   0  0  0  0  0  0  0  0  0  0  0  0
  136.9730  136.0069  166.5441 H   0  0  0  0  0  0  0  0  0  0  0  0
  135.4969  136.3008  168.4689 H   0  0  0  0  0  0  0  0  0  0  0  0
  134.4062  134.9483  168.8496 H   0  0  0  0  0  0  0  0  0  0  0  0
  128.0747  136.3748  158.3557 H   0  0  0  0  0  0  0  0  0  0  0  0
  129.8483  136.2664  158.4024 H   0  0  0  0  0  0  0  0  0  0  0  0
  129.1312  135.0347  156.4593 H   0  0  0  0  0  0  0  0  0  0  0  0
  127.8913  134.1636  157.3998 H   0  0  0  0  0  0  0  0  0  0  0  0
  1  2  1  0
  1 38  1  0
  2  3  1  0
  2 39  1  0
  2 40  1  0
  3  4  1  0
  3 41  1  0
  3 42  1  0
  4  5  1  0
  4  6  1  0
  4  7  1  0
  7  8  1  0
  7 43  1  0
  7 44  1  0
  8  9  1  1
  8 37  1  0
  8 10  1  0
 10 11  1  0
 10 45  1  0
 10 46  1  0
 11 12  2  0
 11 47  1  0
 12 13  1  0
 12 36  1  0
 13 18  1  0
 13 14  2  0
 14 15  1  0
 15 16  1  0
 15 17  1  0
 17 18  2  0
 17 48  1  0
 18 19  1  0
 19 24  1  0
 19 20  2  0
 20 21  1  0
 21 22  1  0
 21 23  1  0
 23 24  2  0
 23 49  1  0
 24 25  1  0
 25 26  1  0
 25 50  1  0
 26 31  1  0
 26 27  2  0
 27 28  1  0
 28 29  2  0
 28 51  1  0
 29 35  1  0
 29 30  1  0
 30 31  2  0
 30 32  1  0
 32 33  1  0
 32 52  1  0
 32 53  1  0
 33 34  1  0
 33 54  1  0
 33 55  1  0
 34 35  1  0
 35 56  1  0
 35 57  1  0
 36 37  1  0
 36 58  1  0
 36 59  1  0
 37 60  1  0
 37 61  1  0
M  CHG  1   4   1
M  END
>  <DOCK_score>  (1) 
-46.477215

>  <SMILES>  (1) 
OCC[NH2+]C[C@@H]1CC=C(c2n[nH]cc2-c2n[nH]cc2Nc2ncc3c(n2)CCOC3)CC1

$$$$
