CC(C)(Cc1c[nH]c2ccccc12)Nc1ccc(-c2n[nH]cc2C[NH2+]C[C@H]2CC3C=CC2CC3)o1
     RDKit          3D

 71 76  0  0  1  0  0  0  0  0999 V2000
  126.2670  137.2650  164.2319 C   0  0  0  0  0  0  0  0  0  0  0  0
  127.0981  136.3883  163.2931 C   0  0  0  0  0  0  0  0  0  0  0  0
  127.7059  135.2280  164.0838 C   0  0  0  0  0  0  0  0  0  0  0  0
  128.2185  137.2249  162.6724 C   0  0  0  0  0  0  0  0  0  0  0  0
  129.1025  137.7699  163.7646 C   0  0  0  0  0  0  0  0  0  0  0  0
  128.9460  138.9357  164.4114 C   0  0  0  0  0  0  0  0  0  0  0  0
  129.9412  139.0926  165.3372 N   0  0  0  0  0  0  0  0  0  0  0  0
  130.0383  139.8569  165.9266 H   0  0  0  0  0  0  0  0  0  0  0  0
  130.7837  138.0041  165.3080 C   0  0  0  0  0  0  0  0  0  0  0  0
  131.9268  137.6583  166.0216 C   0  0  0  0  0  0  0  0  0  0  0  0
  132.5649  136.4668  165.7558 C   0  0  0  0  0  0  0  0  0  0  0  0
  132.0789  135.6053  164.7815 C   0  0  0  0  0  0  0  0  0  0  0  0
  130.9581  135.9251  164.0689 C   0  0  0  0  0  0  0  0  0  0  0  0
  130.2918  137.1249  164.3262 C   0  0  0  0  0  0  0  0  0  0  0  0
  126.2387  135.8584  162.2314 N   0  0  0  0  0  0  0  0  0  0  0  0
  126.7743  135.0293  161.2526 C   0  0  0  0  0  0  0  0  0  0  0  0
  126.1088  134.0470  160.5955 C   0  0  0  0  0  0  0  0  0  0  0  0
  127.0211  133.4649  159.6932 C   0  0  0  0  0  0  0  0  0  0  0  0
  128.2024  134.1181  159.8516 C   0  0  0  0  0  0  0  0  0  0  0  0
  129.4503  133.8419  159.1104 C   0  0  0  0  0  0  0  0  0  0  0  0
  129.6135  132.9210  158.1808 N   0  0  0  0  0  0  0  0  0  0  0  0
  130.9385  132.9872  157.7314 N   0  0  0  0  0  0  0  0  0  0  0  0
  131.3363  132.4249  157.0485 H   0  0  0  0  0  0  0  0  0  0  0  0
  131.5650  133.9731  158.4096 C   0  0  0  0  0  0  0  0  0  0  0  0
  130.6788  134.5167  159.2710 C   0  0  0  0  0  0  0  0  0  0  0  0
  130.9516  135.6476  160.2291 C   0  0  0  0  0  0  0  0  0  0  0  0
  132.3497  136.0775  160.0938 N   0  0  0  0  0  0  0  0  0  0  0  0
  132.5156  136.3898  159.1487 H   0  0  0  0  0  0  0  0  0  0  0  0
  132.9616  135.3032  160.3044 H   0  0  0  0  0  0  0  0  0  0  0  0
  132.6156  137.1797  161.0277 C   0  0  0  0  0  0  0  0  0  0  0  0
  134.0719  137.6274  160.8869 C   0  0  1  0  0  0  0  0  0  0  0  0
  134.7100  136.7529  160.7601 H   0  0  0  0  0  0  0  0  0  0  0  0
  134.2005  138.5471  159.6521 C   0  0  0  0  0  0  0  0  0  0  0  0
  134.7254  139.9155  160.1081 C   0  0  2  0  0  0  0  0  0  0  0  0
  136.0296  139.6994  160.8613 C   0  0  0  0  0  0  0  0  0  0  0  0
  135.9103  138.9062  161.9235 C   0  0  0  0  0  0  0  0  0  0  0  0
  134.4962  138.3916  162.1486 C   0  0  1  0  0  0  0  0  0  0  0  0
  133.5738  139.6069  162.3092 C   0  0  0  0  0  0  0  0  0  0  0  0
  133.7109  140.5188  161.0880 C   0  0  0  0  0  0  0  0  0  0  0  0
  128.0384  135.0663  160.7980 O   0  0  0  0  0  0  0  0  0  0  0  0
  125.4686  136.6689  164.6741 H   0  0  0  0  0  0  0  0  0  0  0  0
  126.9062  137.6591  165.0219 H   0  0  0  0  0  0  0  0  0  0  0  0
  125.8338  138.0916  163.6687 H   0  0  0  0  0  0  0  0  0  0  0  0
  128.2981  134.6033  163.4149 H   0  0  0  0  0  0  0  0  0  0  0  0
  128.3452  135.6221  164.8737 H   0  0  0  0  0  0  0  0  0  0  0  0
  126.9077  134.6319  164.5259 H   0  0  0  0  0  0  0  0  0  0  0  0
  128.8107  136.6003  162.0036 H   0  0  0  0  0  0  0  0  0  0  0  0
  127.7855  138.0516  162.1092 H   0  0  0  0  0  0  0  0  0  0  0  0
  128.1522  139.6447  164.2282 H   0  0  0  0  0  0  0  0  0  0  0  0
  132.3127  138.3218  166.7812 H   0  0  0  0  0  0  0  0  0  0  0  0
  133.4523  136.2002  166.3106 H   0  0  0  0  0  0  0  0  0  0  0  0
  132.5914  134.6750  164.5853 H   0  0  0  0  0  0  0  0  0  0  0  0
  130.5856  135.2498  163.3127 H   0  0  0  0  0  0  0  0  0  0  0  0
  125.2961  136.0862  162.2115 H   0  0  0  0  0  0  0  0  0  0  0  0
  125.0750  133.7670  160.7343 H   0  0  0  0  0  0  0  0  0  0  0  0
  126.8206  132.6542  159.0084 H   0  0  0  0  0  0  0  0  0  0  0  0
  132.5951  134.2729  158.2856 H   0  0  0  0  0  0  0  0  0  0  0  0
  130.7724  135.3101  161.2499 H   0  0  0  0  0  0  0  0  0  0  0  0
  130.2906  136.4840  160.0017 H   0  0  0  0  0  0  0  0  0  0  0  0
  132.4364  136.8423  162.0485 H   0  0  0  0  0  0  0  0  0  0  0  0
  131.9548  138.0162  160.8002 H   0  0  0  0  0  0  0  0  0  0  0  0
  133.2257  138.6708  159.1804 H   0  0  0  0  0  0  0  0  0  0  0  0
  134.8974  138.1109  158.9364 H   0  0  0  0  0  0  0  0  0  0  0  0
  134.8770  140.5755  159.2539 H   0  0  0  0  0  0  0  0  0  0  0  0
  136.9630  140.1568  160.5683 H   0  0  0  0  0  0  0  0  0  0  0  0
  136.7404  138.6511  162.5655 H   0  0  0  0  0  0  0  0  0  0  0  0
  134.4434  137.7478  163.0265 H   0  0  0  0  0  0  0  0  0  0  0  0
  133.8526  140.1581  163.2072 H   0  0  0  0  0  0  0  0  0  0  0  0
  132.5409  139.2697  162.3964 H   0  0  0  0  0  0  0  0  0  0  0  0
  134.0548  141.5029  161.4065 H   0  0  0  0  0  0  0  0  0  0  0  0
  132.7431  140.6145  160.5957 H   0  0  0  0  0  0  0  0  0  0  0  0
  1  2  1  0
  1 41  1  0
  1 42  1  0
  1 43  1  0
  2  3  1  0
  2  4  1  0
  2 15  1  0
  3 44  1  0
  3 45  1  0
  3 46  1  0
  4  5  1  0
  4 47  1  0
  4 48  1  0
  5 14  1  0
  5  6  2  0
  6  7  1  0
  6 49  1  0
  7  8  1  0
  7  9  1  0
  9 14  2  0
  9 10  1  0
 10 11  2  0
 10 50  1  0
 11 12  1  0
 11 51  1  0
 12 13  2  0
 12 52  1  0
 13 14  1  0
 13 53  1  0
 15 16  1  0
 15 54  1  0
 16 40  1  0
 16 17  2  0
 17 18  1  0
 17 55  1  0
 18 19  2  0
 18 56  1  0
 19 20  1  0
 19 40  1  0
 20 25  1  0
 20 21  2  0
 21 22  1  0
 22 23  1  0
 22 24  1  0
 24 25  2  0
 24 57  1  0
 25 26  1  0
 26 27  1  0
 26 58  1  0
 26 59  1  0
 27 28  1  0
 27 29  1  0
 27 30  1  0
 30 31  1  0
 30 60  1  0
 30 61  1  0
 31 32  1  6
 31 37  1  0
 31 33  1  0
 33 34  1  0
 33 62  1  0
 33 63  1  0
 34 39  1  0
 34 35  1  0
 34 64  1  6
 35 36  2  0
 35 65  1  0
 36 37  1  0
 36 66  1  0
 37 38  1  0
 37 67  1  1
 38 39  1  0
 38 68  1  0
 38 69  1  0
 39 70  1  0
 39 71  1  0
M  CHG  1  27   1
M  END
>  <DOCK_score>  (1) 
-49.110161

>  <SMILES>  (1) 
CC(C)(Cc1c[nH]c2ccccc12)Nc1ccc(-c2n[nH]cc2C[NH2+]C[C@H]2CC3C=CC2CC3)o1

$$$$
