Cc1cccc(N2CC[NH+]([C@@H](c3ccccc3)c3ccccn3)CC2)c1C
     RDKit          3D

 55 58  0  0  1  0  0  0  0  0999 V2000
  135.9303  141.0859  162.8298 C   0  0  0  0  0  0  0  0  0  0  0  0
  135.3716  140.3904  161.6153 C   0  0  0  0  0  0  0  0  0  0  0  0
  135.7837  140.7706  160.3510 C   0  0  0  0  0  0  0  0  0  0  0  0
  135.2732  140.1355  159.2338 C   0  0  0  0  0  0  0  0  0  0  0  0
  134.3499  139.1182  159.3774 C   0  0  0  0  0  0  0  0  0  0  0  0
  133.9339  138.7340  160.6456 C   0  0  0  0  0  0  0  0  0  0  0  0
  133.0000  137.7061  160.7944 N   0  0  0  0  0  0  0  0  0  0  0  0
  131.7095  138.0762  160.1960 C   0  0  0  0  0  0  0  0  0  0  0  0
  130.6997  136.9510  160.4321 C   0  0  0  0  0  0  0  0  0  0  0  0
  131.2004  135.7090  159.8286 N   0  0  0  0  0  0  0  0  0  0  0  0
  131.3383  135.8481  158.8388 H   0  0  0  0  0  0  0  0  0  0  0  0
  130.2226  134.6333  160.0401 C   0  0  1  0  0  0  0  0  0  0  0  0
  130.0730  134.4833  161.1094 H   0  0  0  0  0  0  0  0  0  0  0  0
  128.9129  135.0115  159.3978 C   0  0  0  0  0  0  0  0  0  0  0  0
  127.7238  134.5428  159.9244 C   0  0  0  0  0  0  0  0  0  0  0  0
  126.5223  134.8933  159.3378 C   0  0  0  0  0  0  0  0  0  0  0  0
  126.5101  135.7048  158.2188 C   0  0  0  0  0  0  0  0  0  0  0  0
  127.6995  136.1697  157.6893 C   0  0  0  0  0  0  0  0  0  0  0  0
  128.9008  135.8227  158.2785 C   0  0  0  0  0  0  0  0  0  0  0  0
  130.7361  133.3589  159.4210 C   0  0  0  0  0  0  0  0  0  0  0  0
  130.9990  133.3159  158.0647 C   0  0  0  0  0  0  0  0  0  0  0  0
  131.4715  132.1389  157.5052 C   0  0  0  0  0  0  0  0  0  0  0  0
  131.6628  131.0441  158.3346 C   0  0  0  0  0  0  0  0  0  0  0  0
  131.3782  131.1619  159.6817 C   0  0  0  0  0  0  0  0  0  0  0  0
  130.9346  132.2994  160.1804 N   0  0  0  0  0  0  0  0  0  0  0  0
  132.4772  135.3391  160.4534 C   0  0  0  0  0  0  0  0  0  0  0  0
  133.5018  136.4509  160.2175 C   0  0  0  0  0  0  0  0  0  0  0  0
  134.4445  139.3781  161.7657 C   0  0  0  0  0  0  0  0  0  0  0  0
  133.9915  138.9687  163.1434 C   0  0  0  0  0  0  0  0  0  0  0  0
  135.3018  141.9405  163.0804 H   0  0  0  0  0  0  0  0  0  0  0  0
  135.9504  140.3909  163.6694 H   0  0  0  0  0  0  0  0  0  0  0  0
  136.9430  141.4292  162.6181 H   0  0  0  0  0  0  0  0  0  0  0  0
  136.5056  141.5657  160.2359 H   0  0  0  0  0  0  0  0  0  0  0  0
  135.5971  140.4347  158.2481 H   0  0  0  0  0  0  0  0  0  0  0  0
  133.9515  138.6226  158.5044 H   0  0  0  0  0  0  0  0  0  0  0  0
  131.8367  138.2320  159.1247 H   0  0  0  0  0  0  0  0  0  0  0  0
  131.3451  138.9945  160.6567 H   0  0  0  0  0  0  0  0  0  0  0  0
  129.7459  137.2174  159.9769 H   0  0  0  0  0  0  0  0  0  0  0  0
  130.5627  136.8048  161.5036 H   0  0  0  0  0  0  0  0  0  0  0  0
  127.7335  133.9055  160.7963 H   0  0  0  0  0  0  0  0  0  0  0  0
  125.5931  134.5303  159.7517 H   0  0  0  0  0  0  0  0  0  0  0  0
  125.5716  135.9758  157.7584 H   0  0  0  0  0  0  0  0  0  0  0  0
  127.6901  136.8037  156.8150 H   0  0  0  0  0  0  0  0  0  0  0  0
  129.8300  136.1856  157.8646 H   0  0  0  0  0  0  0  0  0  0  0  0
  130.8386  134.1884  157.4487 H   0  0  0  0  0  0  0  0  0  0  0  0
  131.6859  132.0761  156.4486 H   0  0  0  0  0  0  0  0  0  0  0  0
  132.0301  130.1112  157.9330 H   0  0  0  0  0  0  0  0  0  0  0  0
  131.5246  130.3140  160.3343 H   0  0  0  0  0  0  0  0  0  0  0  0
  132.3310  135.2010  161.5247 H   0  0  0  0  0  0  0  0  0  0  0  0
  132.8412  134.4104  160.0139 H   0  0  0  0  0  0  0  0  0  0  0  0
  133.6585  136.5799  159.1465 H   0  0  0  0  0  0  0  0  0  0  0  0
  134.4451  136.1833  160.6937 H   0  0  0  0  0  0  0  0  0  0  0  0
  134.6454  138.1834  163.5224 H   0  0  0  0  0  0  0  0  0  0  0  0
  134.0332  139.8298  163.8104 H   0  0  0  0  0  0  0  0  0  0  0  0
  132.9680  138.5968  163.0938 H   0  0  0  0  0  0  0  0  0  0  0  0
  1  2  1  0
  1 30  1  0
  1 31  1  0
  1 32  1  0
  2 28  2  0
  2  3  1  0
  3  4  2  0
  3 33  1  0
  4  5  1  0
  4 34  1  0
  5  6  2  0
  5 35  1  0
  6  7  1  0
  6 28  1  0
  7 27  1  0
  7  8  1  0
  8  9  1  0
  8 36  1  0
  8 37  1  0
  9 10  1  0
  9 38  1  0
  9 39  1  0
 10 11  1  0
 10 12  1  0
 10 26  1  0
 12 13  1  1
 12 14  1  0
 12 20  1  0
 14 19  1  0
 14 15  2  0
 15 16  1  0
 15 40  1  0
 16 17  2  0
 16 41  1  0
 17 18  1  0
 17 42  1  0
 18 19  2  0
 18 43  1  0
 19 44  1  0
 20 25  1  0
 20 21  2  0
 21 22  1  0
 21 45  1  0
 22 23  2  0
 22 46  1  0
 23 24  1  0
 23 47  1  0
 24 25  2  0
 24 48  1  0
 26 27  1  0
 26 49  1  0
 26 50  1  0
 27 51  1  0
 27 52  1  0
 28 29  1  0
 29 53  1  0
 29 54  1  0
 29 55  1  0
M  CHG  1  10   1
M  END
>  <DOCK_score>  (1) 
-57.441113

>  <SMILES>  (1) 
Cc1cccc(N2CC[NH+]([C@@H](c3ccccc3)c3ccccn3)CC2)c1C

$$$$
