Cc1ccccc1[C@H]1C[C@H](Nc2ccc(-c3n[nH]cc3C[NH2+]C[C@@H]3C=CCC3)o2)C1
     RDKit          3D

 61 65  0  0  1  0  0  0  0  0999 V2000
  126.3287  137.3183  167.2320 C   0  0  0  0  0  0  0  0  0  0  0  0
  126.5118  138.7946  166.9908 C   0  0  0  0  0  0  0  0  0  0  0  0
  126.6928  139.6525  168.0598 C   0  0  0  0  0  0  0  0  0  0  0  0
  126.8611  141.0064  167.8385 C   0  0  0  0  0  0  0  0  0  0  0  0
  126.8482  141.5029  166.5483 C   0  0  0  0  0  0  0  0  0  0  0  0
  126.6717  140.6446  165.4793 C   0  0  0  0  0  0  0  0  0  0  0  0
  126.4984  139.2910  165.7010 C   0  0  0  0  0  0  0  0  0  0  0  0
  126.3012  138.3559  164.5358 C   0  0  1  0  0  0  0  0  0  0  0  0
  125.3529  137.8201  164.5787 H   0  0  0  0  0  0  0  0  0  0  0  0
  126.5800  139.0058  163.1702 C   0  0  0  0  0  0  0  0  0  0  0  0
  127.2487  137.6817  162.7648 C   0  0  2  0  0  0  0  0  0  0  0  0
  128.1570  137.8134  162.1767 H   0  0  0  0  0  0  0  0  0  0  0  0
  126.3224  136.7140  162.1717 N   0  0  0  0  0  0  0  0  0  0  0  0
  126.7804  135.8014  161.2286 C   0  0  0  0  0  0  0  0  0  0  0  0
  126.0282  134.8588  160.6077 C   0  0  0  0  0  0  0  0  0  0  0  0
  126.8840  134.1604  159.7331 C   0  0  0  0  0  0  0  0  0  0  0  0
  128.1200  134.7086  159.8707 C   0  0  0  0  0  0  0  0  0  0  0  0
  129.3379  134.2901  159.1464 C   0  0  0  0  0  0  0  0  0  0  0  0
  129.4164  133.3236  158.2530 N   0  0  0  0  0  0  0  0  0  0  0  0
  130.7437  133.2453  157.8128 N   0  0  0  0  0  0  0  0  0  0  0  0
  131.0897  132.6195  157.1574 H   0  0  0  0  0  0  0  0  0  0  0  0
  131.4589  134.1916  158.4590 C   0  0  0  0  0  0  0  0  0  0  0  0
  130.6230  134.8557  159.2856 C   0  0  0  0  0  0  0  0  0  0  0  0
  130.9973  135.9943  160.1992 C   0  0  0  0  0  0  0  0  0  0  0  0
  132.4290  136.2887  160.0532 N   0  0  0  0  0  0  0  0  0  0  0  0
  132.6237  136.5465  159.0974 H   0  0  0  0  0  0  0  0  0  0  0  0
  132.9673  135.4708  160.2973 H   0  0  0  0  0  0  0  0  0  0  0  0
  132.7940  137.3986  160.9437 C   0  0  0  0  0  0  0  0  0  0  0  0
  134.2852  137.7052  160.7917 C   0  0  2  0  0  0  0  0  0  0  0  0
  134.8565  136.7814  160.7015 H   0  0  0  0  0  0  0  0  0  0  0  0
  134.7784  138.5165  161.9672 C   0  0  0  0  0  0  0  0  0  0  0  0
  135.5388  139.5012  161.5728 C   0  0  0  0  0  0  0  0  0  0  0  0
  135.6748  139.5145  160.0680 C   0  0  0  0  0  0  0  0  0  0  0  0
  134.5246  138.6137  159.5613 C   0  0  0  0  0  0  0  0  0  0  0  0
  128.0428  135.7046  160.7782 O   0  0  0  0  0  0  0  0  0  0  0  0
  127.5126  137.4448  164.2611 C   0  0  0  0  0  0  0  0  0  0  0  0
  127.3011  136.8260  167.2270 H   0  0  0  0  0  0  0  0  0  0  0  0
  125.8487  137.1649  168.1985 H   0  0  0  0  0  0  0  0  0  0  0  0
  125.7038  136.8963  166.4448 H   0  0  0  0  0  0  0  0  0  0  0  0
  126.7029  139.2646  169.0678 H   0  0  0  0  0  0  0  0  0  0  0  0
  127.0025  141.6765  168.6736 H   0  0  0  0  0  0  0  0  0  0  0  0
  126.9795  142.5608  166.3754 H   0  0  0  0  0  0  0  0  0  0  0  0
  126.6657  141.0319  164.4712 H   0  0  0  0  0  0  0  0  0  0  0  0
  127.2717  139.8470  163.2201 H   0  0  0  0  0  0  0  0  0  0  0  0
  125.6779  139.2316  162.6017 H   0  0  0  0  0  0  0  0  0  0  0  0
  125.3895  136.7101  162.4373 H   0  0  0  0  0  0  0  0  0  0  0  0
  124.9730  134.6801  160.7532 H   0  0  0  0  0  0  0  0  0  0  0  0
  126.6107  133.3448  159.0800 H   0  0  0  0  0  0  0  0  0  0  0  0
  132.5144  134.3836  158.3358 H   0  0  0  0  0  0  0  0  0  0  0  0
  130.7871  135.7158  161.2317 H   0  0  0  0  0  0  0  0  0  0  0  0
  130.4160  136.8778  159.9355 H   0  0  0  0  0  0  0  0  0  0  0  0
  132.5838  137.1200  161.9764 H   0  0  0  0  0  0  0  0  0  0  0  0
  132.2126  138.2821  160.6801 H   0  0  0  0  0  0  0  0  0  0  0  0
  134.5371  138.3061  162.9987 H   0  0  0  0  0  0  0  0  0  0  0  0
  136.0088  140.2133  162.2349 H   0  0  0  0  0  0  0  0  0  0  0  0
  135.5596  140.5286  159.6852 H   0  0  0  0  0  0  0  0  0  0  0  0
  136.6391  139.1027  159.7702 H   0  0  0  0  0  0  0  0  0  0  0  0
  133.6386  139.2043  159.3281 H   0  0  0  0  0  0  0  0  0  0  0  0
  134.8387  138.0261  158.6987 H   0  0  0  0  0  0  0  0  0  0  0  0
  127.3628  136.4110  164.5725 H   0  0  0  0  0  0  0  0  0  0  0  0
  128.4587  137.8598  164.6087 H   0  0  0  0  0  0  0  0  0  0  0  0
  1  2  1  0
  1 37  1  0
  1 38  1  0
  1 39  1  0
  2  7  2  0
  2  3  1  0
  3  4  2  0
  3 40  1  0
  4  5  1  0
  4 41  1  0
  5  6  2  0
  5 42  1  0
  6  7  1  0
  6 43  1  0
  7  8  1  0
  8  9  1  6
  8 36  1  0
  8 10  1  0
 10 11  1  0
 10 44  1  0
 10 45  1  0
 11 12  1  6
 11 13  1  0
 11 36  1  0
 13 14  1  0
 13 46  1  0
 14 35  1  0
 14 15  2  0
 15 16  1  0
 15 47  1  0
 16 17  2  0
 16 48  1  0
 17 18  1  0
 17 35  1  0
 18 23  1  0
 18 19  2  0
 19 20  1  0
 20 21  1  0
 20 22  1  0
 22 23  2  0
 22 49  1  0
 23 24  1  0
 24 25  1  0
 24 50  1  0
 24 51  1  0
 25 26  1  0
 25 27  1  0
 25 28  1  0
 28 29  1  0
 28 52  1  0
 28 53  1  0
 29 30  1  6
 29 34  1  0
 29 31  1  0
 31 32  2  0
 31 54  1  0
 32 33  1  0
 32 55  1  0
 33 34  1  0
 33 56  1  0
 33 57  1  0
 34 58  1  0
 34 59  1  0
 36 60  1  0
 36 61  1  0
M  CHG  1  25   1
M  END
>  <DOCK_score>  (1) 
-46.388561

>  <SMILES>  (1) 
Cc1ccccc1[C@H]1C[C@H](Nc2ccc(-c3n[nH]cc3C[NH2+]C[C@@H]3C=CCC3)o2)C1

$$$$
