Nc1ccc(Nc2[nH]cc(-c3ccc(Br)cc3)[nH+]2)cc1
     RDKit          3D

 34 36  0  0  1  0  0  0  0  0999 V2000
  126.5968  136.3659  163.0449 N   0  0  0  0  0  0  0  0  0  0  0  0
  127.4900  136.0307  162.0208 C   0  0  0  0  0  0  0  0  0  0  0  0
  128.6844  135.3900  162.3231 C   0  0  0  0  0  0  0  0  0  0  0  0
  129.5681  135.0646  161.3133 C   0  0  0  0  0  0  0  0  0  0  0  0
  129.2579  135.3689  159.9944 C   0  0  0  0  0  0  0  0  0  0  0  0
  130.1520  135.0341  158.9696 N   0  0  0  0  0  0  0  0  0  0  0  0
  130.0577  133.8025  158.3430 C   0  0  0  0  0  0  0  0  0  0  0  0
  129.6117  132.6523  158.9185 N   0  0  0  0  0  0  0  0  0  0  0  0
  129.3053  132.5486  159.8329 H   0  0  0  0  0  0  0  0  0  0  0  0
  129.6728  131.6664  157.9641 C   0  0  0  0  0  0  0  0  0  0  0  0
  130.1618  132.2398  156.8365 C   0  0  0  0  0  0  0  0  0  0  0  0
  130.4057  131.5542  155.5439 C   0  0  0  0  0  0  0  0  0  0  0  0
  129.7409  131.9745  154.3932 C   0  0  0  0  0  0  0  0  0  0  0  0
  129.9750  131.3364  153.1921 C   0  0  0  0  0  0  0  0  0  0  0  0
  130.8594  130.2743  153.1308 C   0  0  0  0  0  0  0  0  0  0  0  0
  131.1696  129.3990  151.4836 Br  0  0  0  0  0  0  0  0  0  0  0  0
  131.5188  129.8493  154.2720 C   0  0  0  0  0  0  0  0  0  0  0  0
  131.2958  130.4839  155.4769 C   0  0  0  0  0  0  0  0  0  0  0  0
  130.3884  133.5509  157.0998 N   0  0  0  0  0  0  0  0  0  0  0  0
  130.7393  134.1987  156.4689 H   0  0  0  0  0  0  0  0  0  0  0  0
  128.0637  136.0099  159.6919 C   0  0  0  0  0  0  0  0  0  0  0  0
  127.1822  136.3399  160.7022 C   0  0  0  0  0  0  0  0  0  0  0  0
  126.8119  136.1504  163.9658 H   0  0  0  0  0  0  0  0  0  0  0  0
  125.7627  136.8137  162.8337 H   0  0  0  0  0  0  0  0  0  0  0  0
  128.9239  135.1500  163.3485 H   0  0  0  0  0  0  0  0  0  0  0  0
  130.4988  134.5701  161.5490 H   0  0  0  0  0  0  0  0  0  0  0  0
  130.8373  135.6649  158.6986 H   0  0  0  0  0  0  0  0  0  0  0  0
  129.3897  130.6317  158.0891 H   0  0  0  0  0  0  0  0  0  0  0  0
  129.0471  132.8008  154.4406 H   0  0  0  0  0  0  0  0  0  0  0  0
  129.4633  131.6637  152.2991 H   0  0  0  0  0  0  0  0  0  0  0  0
  132.2083  129.0198  154.2191 H   0  0  0  0  0  0  0  0  0  0  0  0
  131.8106  130.1519  156.3665 H   0  0  0  0  0  0  0  0  0  0  0  0
  127.8242  136.2499  158.6666 H   0  0  0  0  0  0  0  0  0  0  0  0
  126.2536  136.8388  160.4671 H   0  0  0  0  0  0  0  0  0  0  0  0
  1  2  1  0
  1 23  1  0
  1 24  1  0
  2 22  2  0
  2  3  1  0
  3  4  2  0
  3 25  1  0
  4  5  1  0
  4 26  1  0
  5  6  1  0
  5 21  2  0
  6 27  1  0
  7  6  1  0
  7 19  2  0
  7  8  1  0
  8  9  1  0
  8 10  1  0
 10 11  2  0
 10 28  1  0
 11 12  1  0
 11 19  1  0
 12 18  1  0
 12 13  2  0
 13 14  1  0
 13 29  1  0
 14 15  2  0
 14 30  1  0
 15 16  1  0
 15 17  1  0
 17 18  2  0
 17 31  1  0
 18 32  1  0
 19 20  1  0
 21 22  1  0
 21 33  1  0
 22 34  1  0
M  CHG  1  19   1
M  END
>  <DOCK_score>  (1) 
-49.135658

>  <SMILES>  (1) 
Nc1ccc(Nc2[nH]cc(-c3ccc(Br)cc3)[nH+]2)cc1

$$$$
