CCc1ccc(-c2c[nH]c(N[C@@H](Cc3ccc(F)cc3)c3ccccc3)[nH+]2)cc1
     RDKit          3D

 54 57  0  0  1  0  0  0  0  0999 V2000
  130.5846  128.4581  151.5932 C   0  0  0  0  0  0  0  0  0  0  0  0
  131.6712  129.4720  151.9564 C   0  0  0  0  0  0  0  0  0  0  0  0
  131.2879  130.1857  153.2272 C   0  0  0  0  0  0  0  0  0  0  0  0
  131.6812  129.6738  154.4500 C   0  0  0  0  0  0  0  0  0  0  0  0
  131.3380  130.3260  155.6169 C   0  0  0  0  0  0  0  0  0  0  0  0
  130.5838  131.4967  155.5617 C   0  0  0  0  0  0  0  0  0  0  0  0
  130.2071  132.1993  156.8126 C   0  0  0  0  0  0  0  0  0  0  0  0
  129.4733  131.6816  157.8288 C   0  0  0  0  0  0  0  0  0  0  0  0
  129.3625  132.6649  158.7816 N   0  0  0  0  0  0  0  0  0  0  0  0
  128.8932  132.5947  159.6276 H   0  0  0  0  0  0  0  0  0  0  0  0
  130.0325  133.7556  158.3195 C   0  0  0  0  0  0  0  0  0  0  0  0
  130.1610  134.9638  158.9829 N   0  0  0  0  0  0  0  0  0  0  0  0
  129.1057  135.4157  159.8931 C   0  0  1  0  0  0  0  0  0  0  0  0
  128.9805  134.6873  160.6943 H   0  0  0  0  0  0  0  0  0  0  0  0
  129.4929  136.7699  160.4907 C   0  0  0  0  0  0  0  0  0  0  0  0
  130.7867  136.6320  161.2509 C   0  0  0  0  0  0  0  0  0  0  0  0
  131.6521  137.7062  161.3419 C   0  0  0  0  0  0  0  0  0  0  0  0
  132.8364  137.5827  162.0435 C   0  0  0  0  0  0  0  0  0  0  0  0
  133.1614  136.3789  162.6454 C   0  0  0  0  0  0  0  0  0  0  0  0
  134.3217  136.2550  163.3262 F   0  0  0  0  0  0  0  0  0  0  0  0
  132.2964  135.3020  162.5488 C   0  0  0  0  0  0  0  0  0  0  0  0
  131.1100  135.4297  161.8519 C   0  0  0  0  0  0  0  0  0  0  0  0
  127.8118  135.5536  159.1329 C   0  0  0  0  0  0  0  0  0  0  0  0
  126.6062  135.3475  159.7772 C   0  0  0  0  0  0  0  0  0  0  0  0
  125.4192  135.4781  159.0807 C   0  0  0  0  0  0  0  0  0  0  0  0
  125.4380  135.8064  157.7381 C   0  0  0  0  0  0  0  0  0  0  0  0
  126.6438  136.0072  157.0925 C   0  0  0  0  0  0  0  0  0  0  0  0
  127.8307  135.8806  157.7899 C   0  0  0  0  0  0  0  0  0  0  0  0
  130.5406  133.4716  157.1452 N   0  0  0  0  0  0  0  0  0  0  0  0
  131.0688  134.0755  156.5999 H   0  0  0  0  0  0  0  0  0  0  0  0
  130.1853  132.0052  154.3267 C   0  0  0  0  0  0  0  0  0  0  0  0
  130.5391  131.3477  153.1660 C   0  0  0  0  0  0  0  0  0  0  0  0
  129.6372  128.9768  151.4472 H   0  0  0  0  0  0  0  0  0  0  0  0
  130.8617  127.9420  150.6740 H   0  0  0  0  0  0  0  0  0  0  0  0
  130.4810  127.7326  152.4001 H   0  0  0  0  0  0  0  0  0  0  0  0
  132.6183  128.9538  152.1019 H   0  0  0  0  0  0  0  0  0  0  0  0
  131.7745  130.1980  151.1490 H   0  0  0  0  0  0  0  0  0  0  0  0
  132.2615  128.7639  154.4919 H   0  0  0  0  0  0  0  0  0  0  0  0
  131.6496  129.9278  156.5712 H   0  0  0  0  0  0  0  0  0  0  0  0
  129.0557  130.6869  157.8790 H   0  0  0  0  0  0  0  0  0  0  0  0
  130.9499  135.5112  158.8453 H   0  0  0  0  0  0  0  0  0  0  0  0
  129.6178  137.4982  159.6895 H   0  0  0  0  0  0  0  0  0  0  0  0
  128.7076  137.1060  161.1679 H   0  0  0  0  0  0  0  0  0  0  0  0
  131.4008  138.6435  160.8679 H   0  0  0  0  0  0  0  0  0  0  0  0
  133.5104  138.4232  162.1179 H   0  0  0  0  0  0  0  0  0  0  0  0
  132.5490  134.3624  163.0175 H   0  0  0  0  0  0  0  0  0  0  0  0
  130.4351  134.5899  161.7763 H   0  0  0  0  0  0  0  0  0  0  0  0
  126.5915  135.0879  160.8254 H   0  0  0  0  0  0  0  0  0  0  0  0
  124.4771  135.3208  159.5851 H   0  0  0  0  0  0  0  0  0  0  0  0
  124.5108  135.9056  157.1935 H   0  0  0  0  0  0  0  0  0  0  0  0
  126.6586  136.2633  156.0435 H   0  0  0  0  0  0  0  0  0  0  0  0
  128.7726  136.0375  157.2856 H   0  0  0  0  0  0  0  0  0  0  0  0
  129.6006  132.9120  154.2780 H   0  0  0  0  0  0  0  0  0  0  0  0
  130.2306  131.7406  152.2085 H   0  0  0  0  0  0  0  0  0  0  0  0
  1  2  1  0
  1 33  1  0
  1 34  1  0
  1 35  1  0
  2  3  1  0
  2 36  1  0
  2 37  1  0
  3 32  2  0
  3  4  1  0
  4  5  2  0
  4 38  1  0
  5  6  1  0
  5 39  1  0
  6  7  1  0
  6 31  2  0
  7 29  1  0
  7  8  2  0
  8  9  1  0
  8 40  1  0
  9 10  1  0
  9 11  1  0
 11 12  1  0
 11 29  2  0
 12 13  1  0
 12 41  1  0
 13 14  1  1
 13 15  1  0
 13 23  1  0
 15 16  1  0
 15 42  1  0
 15 43  1  0
 16 22  1  0
 16 17  2  0
 17 18  1  0
 17 44  1  0
 18 19  2  0
 18 45  1  0
 19 20  1  0
 19 21  1  0
 21 22  2  0
 21 46  1  0
 22 47  1  0
 23 28  1  0
 23 24  2  0
 24 25  1  0
 24 48  1  0
 25 26  2  0
 25 49  1  0
 26 27  1  0
 26 50  1  0
 27 28  2  0
 27 51  1  0
 28 52  1  0
 29 30  1  0
 31 32  1  0
 31 53  1  0
 32 54  1  0
M  CHG  1  29   1
M  END
>  <DOCK_score>  (1) 
-61.455292

>  <SMILES>  (1) 
CCc1ccc(-c2c[nH]c(N[C@@H](Cc3ccc(F)cc3)c3ccccc3)[nH+]2)cc1

$$$$
