C[C@@H](Cc1c[nH]c2cc(F)ccc12)[NH2+]Cc1c[nH]nc1-c1ccc(NCCF)o1
     RDKit          3D

 53 56  0  0  1  0  0  0  0  0999 V2000
  133.3602  136.0000  161.9640 C   0  0  0  0  0  0  0  0  0  0  0  0
  131.9142  136.4374  161.7224 C   0  0  1  0  0  0  0  0  0  0  0  0
  131.2788  136.0473  162.5174 H   0  0  0  0  0  0  0  0  0  0  0  0
  131.8386  137.9656  161.7128 C   0  0  0  0  0  0  0  0  0  0  0  0
  132.7170  138.5051  160.6136 C   0  0  0  0  0  0  0  0  0  0  0  0
  132.3528  138.7402  159.3436 C   0  0  0  0  0  0  0  0  0  0  0  0
  133.4169  139.2320  158.6364 N   0  0  0  0  0  0  0  0  0  0  0  0
  133.3966  139.4792  157.6986 H   0  0  0  0  0  0  0  0  0  0  0  0
  134.5218  139.3182  159.4533 C   0  0  0  0  0  0  0  0  0  0  0  0
  135.8328  139.7370  159.2494 C   0  0  0  0  0  0  0  0  0  0  0  0
  136.7324  139.7049  160.2948 C   0  0  0  0  0  0  0  0  0  0  0  0
  138.0051  140.1118  160.0952 F   0  0  0  0  0  0  0  0  0  0  0  0
  136.3411  139.2581  161.5519 C   0  0  0  0  0  0  0  0  0  0  0  0
  135.0586  138.8424  161.7719 C   0  0  0  0  0  0  0  0  0  0  0  0
  134.1324  138.8668  160.7273 C   0  0  0  0  0  0  0  0  0  0  0  0
  131.4548  135.9164  160.4280 N   0  0  0  0  0  0  0  0  0  0  0  0
  132.1993  135.9926  159.7512 H   0  0  0  0  0  0  0  0  0  0  0  0
  130.6585  136.4507  160.1138 H   0  0  0  0  0  0  0  0  0  0  0  0
  131.0705  134.5063  160.5764 C   0  0  0  0  0  0  0  0  0  0  0  0
  130.5991  133.9717  159.2486 C   0  0  0  0  0  0  0  0  0  0  0  0
  131.3717  133.3914  158.3053 C   0  0  0  0  0  0  0  0  0  0  0  0
  130.5780  133.0476  157.2679 N   0  0  0  0  0  0  0  0  0  0  0  0
  130.8667  132.6112  156.4512 H   0  0  0  0  0  0  0  0  0  0  0  0
  129.2671  133.4353  157.5729 N   0  0  0  0  0  0  0  0  0  0  0  0
  129.2730  133.9938  158.7673 C   0  0  0  0  0  0  0  0  0  0  0  0
  128.0994  134.5444  159.4762 C   0  0  0  0  0  0  0  0  0  0  0  0
  126.8189  134.1048  159.3568 C   0  0  0  0  0  0  0  0  0  0  0  0
  126.0310  134.9079  160.2048 C   0  0  0  0  0  0  0  0  0  0  0  0
  126.8672  135.7958  160.7984 C   0  0  0  0  0  0  0  0  0  0  0  0
  126.4959  136.7746  161.7127 N   0  0  0  0  0  0  0  0  0  0  0  0
  127.5079  137.6707  162.2780 C   0  0  0  0  0  0  0  0  0  0  0  0
  127.0854  138.0930  163.6865 C   0  0  0  0  0  0  0  0  0  0  0  0
  128.0517  138.9486  164.2263 F   0  0  0  0  0  0  0  0  0  0  0  0
  128.1159  135.5662  160.3577 O   0  0  0  0  0  0  0  0  0  0  0  0
  133.3989  134.9157  162.0699 H   0  0  0  0  0  0  0  0  0  0  0  0
  133.9780  136.3047  161.1193 H   0  0  0  0  0  0  0  0  0  0  0  0
  133.7339  136.4675  162.8749 H   0  0  0  0  0  0  0  0  0  0  0  0
  130.8084  138.2772  161.5407 H   0  0  0  0  0  0  0  0  0  0  0  0
  132.1795  138.3522  162.6732 H   0  0  0  0  0  0  0  0  0  0  0  0
  131.3656  138.5695  158.9398 H   0  0  0  0  0  0  0  0  0  0  0  0
  136.1452  140.0861  158.2763 H   0  0  0  0  0  0  0  0  0  0  0  0
  137.0567  139.2396  162.3606 H   0  0  0  0  0  0  0  0  0  0  0  0
  134.7620  138.4967  162.7512 H   0  0  0  0  0  0  0  0  0  0  0  0
  131.9306  133.9291  160.9158 H   0  0  0  0  0  0  0  0  0  0  0  0
  130.2662  134.4239  161.3075 H   0  0  0  0  0  0  0  0  0  0  0  0
  132.4374  133.2289  158.3701 H   0  0  0  0  0  0  0  0  0  0  0  0
  126.4720  133.2949  158.7322 H   0  0  0  0  0  0  0  0  0  0  0  0
  124.9641  134.8313  160.3538 H   0  0  0  0  0  0  0  0  0  0  0  0
  125.5669  136.8646  161.9765 H   0  0  0  0  0  0  0  0  0  0  0  0
  128.4657  137.1527  162.3259 H   0  0  0  0  0  0  0  0  0  0  0  0
  127.6039  138.5544  161.6471 H   0  0  0  0  0  0  0  0  0  0  0  0
  126.1276  138.6110  163.6385 H   0  0  0  0  0  0  0  0  0  0  0  0
  126.9894  137.2094  164.3174 H   0  0  0  0  0  0  0  0  0  0  0  0
  1  2  1  0
  1 35  1  0
  1 36  1  0
  1 37  1  0
  2  3  1  1
  2  4  1  0
  2 16  1  0
  4  5  1  0
  4 38  1  0
  4 39  1  0
  5 15  1  0
  5  6  2  0
  6  7  1  0
  6 40  1  0
  7  8  1  0
  7  9  1  0
  9 15  2  0
  9 10  1  0
 10 11  2  0
 10 41  1  0
 11 12  1  0
 11 13  1  0
 13 14  2  0
 13 42  1  0
 14 15  1  0
 14 43  1  0
 16 17  1  0
 16 18  1  0
 16 19  1  0
 19 20  1  0
 19 44  1  0
 19 45  1  0
 20 25  1  0
 20 21  2  0
 21 22  1  0
 21 46  1  0
 22 23  1  0
 22 24  1  0
 24 25  2  0
 25 26  1  0
 26 34  1  0
 26 27  2  0
 27 28  1  0
 27 47  1  0
 28 29  2  0
 28 48  1  0
 29 30  1  0
 29 34  1  0
 30 31  1  0
 30 49  1  0
 31 32  1  0
 31 50  1  0
 31 51  1  0
 32 33  1  0
 32 52  1  0
 32 53  1  0
M  CHG  1  16   1
M  END
>  <DOCK_score>  (1) 
-43.920147

>  <SMILES>  (1) 
C[C@@H](Cc1c[nH]c2cc(F)ccc12)[NH2+]Cc1c[nH]nc1-c1ccc(NCCF)o1

$$$$
