CC(C)(C)/C=C/CNC(N[C@H]1C[C@@H](O)C1)=[NH+]Cc1cccs1
     RDKit          3D

 50 51  0  0  1  0  0  0  0  0999 V2000
  130.5380  135.9619  165.6309 C   0  0  0  0  0  0  0  0  0  0  0  0
  131.0339  135.3114  164.3379 C   0  0  0  0  0  0  0  0  0  0  0  0
  132.5472  135.1012  164.4206 C   0  0  0  0  0  0  0  0  0  0  0  0
  130.3410  133.9605  164.1482 C   0  0  0  0  0  0  0  0  0  0  0  0
  130.7144  136.2081  163.1698 C   0  0  0  0  0  0  0  0  0  0  0  0
  131.0505  135.8476  161.9559 C   0  0  0  0  0  0  0  0  0  0  0  0
  130.7309  136.7444  160.7877 C   0  0  0  0  0  0  0  0  0  0  0  0
  130.5184  135.9284  159.5898 N   0  0  0  0  0  0  0  0  0  0  0  0
  129.5177  134.9859  159.5686 C   0  0  0  0  0  0  0  0  0  0  0  0
  128.7164  134.8092  160.6717 N   0  0  0  0  0  0  0  0  0  0  0  0
  127.6500  133.8049  160.6491 C   0  0  1  0  0  0  0  0  0  0  0  0
  128.0235  132.7949  160.4801 H   0  0  0  0  0  0  0  0  0  0  0  0
  126.6780  133.9117  161.8359 C   0  0  0  0  0  0  0  0  0  0  0  0
  125.5491  133.6065  160.8373 C   0  0  1  0  0  0  0  0  0  0  0  0
  125.3460  132.5421  160.7199 H   0  0  0  0  0  0  0  0  0  0  0  0
  124.3655  134.3762  161.0585 O   0  0  0  0  0  0  0  0  0  0  0  0
  126.4649  134.1848  159.7458 C   0  0  0  0  0  0  0  0  0  0  0  0
  129.3285  134.2600  158.5027 N   0  0  0  0  0  0  0  0  0  0  0  0
  128.4398  133.9355  158.2882 H   0  0  0  0  0  0  0  0  0  0  0  0
  130.4579  133.9343  157.6283 C   0  0  0  0  0  0  0  0  0  0  0  0
  130.6240  132.4381  157.5584 C   0  0  0  0  0  0  0  0  0  0  0  0
  131.3862  131.7100  158.3757 C   0  0  0  0  0  0  0  0  0  0  0  0
  131.3803  130.3495  158.1210 C   0  0  0  0  0  0  0  0  0  0  0  0
  130.6202  129.9737  157.0914 C   0  0  0  0  0  0  0  0  0  0  0  0
  129.8481  131.3858  156.3819 S   0  0  0  0  0  0  0  0  0  0  0  0
  131.0315  136.9244  165.7660 H   0  0  0  0  0  0  0  0  0  0  0  0
  130.7690  135.3133  166.4759 H   0  0  0  0  0  0  0  0  0  0  0  0
  129.4598  136.1117  165.5719 H   0  0  0  0  0  0  0  0  0  0  0  0
  132.7782  134.4525  165.2657 H   0  0  0  0  0  0  0  0  0  0  0  0
  132.9005  134.6377  163.4996 H   0  0  0  0  0  0  0  0  0  0  0  0
  133.0408  136.0636  164.5558 H   0  0  0  0  0  0  0  0  0  0  0  0
  129.2629  134.1103  164.0893 H   0  0  0  0  0  0  0  0  0  0  0  0
  130.6943  133.4971  163.2272 H   0  0  0  0  0  0  0  0  0  0  0  0
  130.5721  133.3118  164.9933 H   0  0  0  0  0  0  0  0  0  0  0  0
  130.2082  137.1481  163.3331 H   0  0  0  0  0  0  0  0  0  0  0  0
  131.5565  134.9077  161.7926 H   0  0  0  0  0  0  0  0  0  0  0  0
  129.8275  137.3147  161.0040 H   0  0  0  0  0  0  0  0  0  0  0  0
  131.5614  137.4296  160.6180 H   0  0  0  0  0  0  0  0  0  0  0  0
  131.0837  136.0532  158.8115 H   0  0  0  0  0  0  0  0  0  0  0  0
  128.8571  135.3495  161.4649 H   0  0  0  0  0  0  0  0  0  0  0  0
  126.8187  133.1344  162.5869 H   0  0  0  0  0  0  0  0  0  0  0  0
  126.6220  134.9119  162.2659 H   0  0  0  0  0  0  0  0  0  0  0  0
  124.5001  135.3317  160.9948 H   0  0  0  0  0  0  0  0  0  0  0  0
  126.3508  135.2595  159.6042 H   0  0  0  0  0  0  0  0  0  0  0  0
  126.4337  133.6278  158.8093 H   0  0  0  0  0  0  0  0  0  0  0  0
  130.2686  134.3260  156.6290 H   0  0  0  0  0  0  0  0  0  0  0  0
  131.3678  134.3825  158.0279 H   0  0  0  0  0  0  0  0  0  0  0  0
  131.9624  132.1485  159.1771 H   0  0  0  0  0  0  0  0  0  0  0  0
  131.9509  129.6458  158.7091 H   0  0  0  0  0  0  0  0  0  0  0  0
  130.4974  128.9577  156.7463 H   0  0  0  0  0  0  0  0  0  0  0  0
  1  2  1  0
  1 26  1  0
  1 27  1  0
  1 28  1  0
  2  3  1  0
  2  4  1  0
  2  5  1  0
  3 29  1  0
  3 30  1  0
  3 31  1  0
  4 32  1  0
  4 33  1  0
  4 34  1  0
  5  6  2  0
  5 35  1  0
  6  7  1  0
  6 36  1  0
  7  8  1  0
  7 37  1  0
  7 38  1  0
  8 39  1  0
  9  8  1  0
  9 10  1  0
  9 18  2  0
 10 11  1  0
 10 40  1  0
 11 12  1  6
 11 17  1  0
 11 13  1  0
 13 14  1  0
 13 41  1  0
 13 42  1  0
 14 15  1  6
 14 16  1  0
 14 17  1  0
 16 43  1  0
 17 44  1  0
 17 45  1  0
 18 19  1  0
 18 20  1  0
 20 21  1  0
 20 46  1  0
 20 47  1  0
 21 25  1  0
 21 22  2  0
 22 23  1  0
 22 48  1  0
 23 24  2  0
 23 49  1  0
 24 25  1  0
 24 50  1  0
M  CHG  1  18   1
M  END
>  <DOCK_score>  (1) 
-43.314903

>  <SMILES>  (1) 
CC(C)(C)/C=C/CNC(N[C@H]1C[C@@H](O)C1)=[NH+]Cc1cccs1

$$$$
