O=C1CC[C@H](NC(NC2CC=CC2)=[NH+]Cc2ccc(Br)cc2)CN1
     RDKit          3D

 48 50  0  0  1  0  0  0  0  0999 V2000
  124.2870  134.0286  161.1302 O   0  0  0  0  0  0  0  0  0  0  0  0
  125.4531  134.2638  160.8943 C   0  0  0  0  0  0  0  0  0  0  0  0
  126.3230  133.1366  160.4167 C   0  0  0  0  0  0  0  0  0  0  0  0
  127.7978  133.5058  160.5936 C   0  0  0  0  0  0  0  0  0  0  0  0
  128.0212  134.9050  160.0072 C   0  0  2  0  0  0  0  0  0  0  0  0
  127.6375  134.9424  158.9877 H   0  0  0  0  0  0  0  0  0  0  0  0
  129.4532  135.2142  160.0051 N   0  0  0  0  0  0  0  0  0  0  0  0
  130.3272  134.4184  159.3028 C   0  0  0  0  0  0  0  0  0  0  0  0
  129.9041  133.7673  158.1683 N   0  0  0  0  0  0  0  0  0  0  0  0
  130.8355  132.9194  157.4201 C   0  0  0  0  0  0  0  0  0  0  0  0
  130.1018  132.1372  156.3062 C   0  0  0  0  0  0  0  0  0  0  0  0
  130.7728  130.7828  156.2830 C   0  0  0  0  0  0  0  0  0  0  0  0
  131.4642  130.5817  157.3716 C   0  0  0  0  0  0  0  0  0  0  0  0
  131.3694  131.7677  158.3031 C   0  0  0  0  0  0  0  0  0  0  0  0
  131.5569  134.2815  159.7127 N   0  0  0  0  0  0  0  0  0  0  0  0
  132.2665  134.1191  159.0717 H   0  0  0  0  0  0  0  0  0  0  0  0
  131.8672  134.3727  161.1417 C   0  0  0  0  0  0  0  0  0  0  0  0
  132.8340  135.5050  161.3744 C   0  0  0  0  0  0  0  0  0  0  0  0
  133.7377  135.4382  162.4183 C   0  0  0  0  0  0  0  0  0  0  0  0
  134.6218  136.4783  162.6348 C   0  0  0  0  0  0  0  0  0  0  0  0
  134.6089  137.5817  161.8008 C   0  0  0  0  0  0  0  0  0  0  0  0
  135.8227  139.0023  162.0925 Br  0  0  0  0  0  0  0  0  0  0  0  0
  133.7076  137.6460  160.7533 C   0  0  0  0  0  0  0  0  0  0  0  0
  132.8205  136.6077  160.5407 C   0  0  0  0  0  0  0  0  0  0  0  0
  127.2777  135.9231  160.8729 C   0  0  0  0  0  0  0  0  0  0  0  0
  125.8944  135.5096  161.0723 N   0  0  0  0  0  0  0  0  0  0  0  0
  126.1026  132.2392  160.9949 H   0  0  0  0  0  0  0  0  0  0  0  0
  126.1215  132.9453  159.3627 H   0  0  0  0  0  0  0  0  0  0  0  0
  128.4226  132.7836  160.0680 H   0  0  0  0  0  0  0  0  0  0  0  0
  128.0507  133.5076  161.6539 H   0  0  0  0  0  0  0  0  0  0  0  0
  129.7847  135.9803  160.4991 H   0  0  0  0  0  0  0  0  0  0  0  0
  128.9890  133.8694  157.8632 H   0  0  0  0  0  0  0  0  0  0  0  0
  131.6547  133.5095  157.0093 H   0  0  0  0  0  0  0  0  0  0  0  0
  129.0444  132.0327  156.5490 H   0  0  0  0  0  0  0  0  0  0  0  0
  130.2240  132.6388  155.3462 H   0  0  0  0  0  0  0  0  0  0  0  0
  130.6910  130.0747  155.4716 H   0  0  0  0  0  0  0  0  0  0  0  0
  132.0296  129.6853  157.5795 H   0  0  0  0  0  0  0  0  0  0  0  0
  132.3531  132.0183  158.7002 H   0  0  0  0  0  0  0  0  0  0  0  0
  130.6743  131.5592  159.1164 H   0  0  0  0  0  0  0  0  0  0  0  0
  132.3155  133.4373  161.4764 H   0  0  0  0  0  0  0  0  0  0  0  0
  130.9502  134.5571  161.7014 H   0  0  0  0  0  0  0  0  0  0  0  0
  133.7505  134.5749  163.0670 H   0  0  0  0  0  0  0  0  0  0  0  0
  135.3256  136.4277  163.4525 H   0  0  0  0  0  0  0  0  0  0  0  0
  133.6975  138.5070  160.1016 H   0  0  0  0  0  0  0  0  0  0  0  0
  132.1167  136.6576  159.7230 H   0  0  0  0  0  0  0  0  0  0  0  0
  127.7729  136.0030  161.8407 H   0  0  0  0  0  0  0  0  0  0  0  0
  127.2957  136.8956  160.3810 H   0  0  0  0  0  0  0  0  0  0  0  0
  125.2545  136.1828  161.3523 H   0  0  0  0  0  0  0  0  0  0  0  0
  1  2  2  0
  2 26  1  0
  2  3  1  0
  3  4  1  0
  3 27  1  0
  3 28  1  0
  4  5  1  0
  4 29  1  0
  4 30  1  0
  5  6  1  6
  5  7  1  0
  5 25  1  0
  7 31  1  0
  8  7  1  0
  8  9  1  0
  8 15  2  0
  9 10  1  0
  9 32  1  0
 10 14  1  0
 10 11  1  0
 10 33  1  0
 11 12  1  0
 11 34  1  0
 11 35  1  0
 12 13  2  0
 12 36  1  0
 13 14  1  0
 13 37  1  0
 14 38  1  0
 14 39  1  0
 15 16  1  0
 15 17  1  0
 17 18  1  0
 17 40  1  0
 17 41  1  0
 18 24  1  0
 18 19  2  0
 19 20  1  0
 19 42  1  0
 20 21  2  0
 20 43  1  0
 21 22  1  0
 21 23  1  0
 23 24  2  0
 23 44  1  0
 24 45  1  0
 25 26  1  0
 25 46  1  0
 25 47  1  0
 26 48  1  0
M  CHG  1  15   1
M  END
>  <DOCK_score>  (1) 
-44.17519

>  <SMILES>  (1) 
O=C1CC[C@H](NC(NC2CC=CC2)=[NH+]Cc2ccc(Br)cc2)CN1

$$$$
