CC(=CC[NH+]=C(NC1CC1)N[C@H]1CCC(=O)NC1)C1=COCCO1
     RDKit          3D

 51 53  0  0  1  0  0  0  0  0999 V2000
  133.9441  135.2373  162.4130 C   0  0  0  0  0  0  0  0  0  0  0  0
  133.5091  136.0427  161.2160 C   0  0  0  0  0  0  0  0  0  0  0  0
  132.5177  135.6054  160.4448 C   0  0  0  0  0  0  0  0  0  0  0  0
  131.9206  134.2427  160.6856 C   0  0  0  0  0  0  0  0  0  0  0  0
  131.4311  133.6933  159.4189 N   0  0  0  0  0  0  0  0  0  0  0  0
  132.0189  133.1587  158.8627 H   0  0  0  0  0  0  0  0  0  0  0  0
  130.2071  133.9274  159.0367 C   0  0  0  0  0  0  0  0  0  0  0  0
  129.7475  133.4118  157.8479 N   0  0  0  0  0  0  0  0  0  0  0  0
  130.6336  132.5994  157.0106 C   0  0  0  0  0  0  0  0  0  0  0  0
  129.9804  131.6578  155.9969 C   0  0  0  0  0  0  0  0  0  0  0  0
  130.6452  131.0887  157.2527 C   0  0  0  0  0  0  0  0  0  0  0  0
  129.3756  134.6898  159.8225 N   0  0  0  0  0  0  0  0  0  0  0  0
  127.9306  134.4491  159.8086 C   0  0  1  0  0  0  0  0  0  0  0  0
  127.5451  134.5963  158.7998 H   0  0  0  0  0  0  0  0  0  0  0  0
  127.6438  133.0133  160.2646 C   0  0  0  0  0  0  0  0  0  0  0  0
  126.1523  132.7317  160.0668 C   0  0  0  0  0  0  0  0  0  0  0  0
  125.3391  133.8490  160.6545 C   0  0  0  0  0  0  0  0  0  0  0  0
  124.1643  133.6476  160.8784 O   0  0  0  0  0  0  0  0  0  0  0  0
  125.8396  135.0507  160.9439 N   0  0  0  0  0  0  0  0  0  0  0  0
  127.2397  135.4185  160.7684 C   0  0  0  0  0  0  0  0  0  0  0  0
  134.1809  137.3125  160.9005 C   0  0  0  0  0  0  0  0  0  0  0  0
  134.4390  137.6131  159.6270 C   0  0  0  0  0  0  0  0  0  0  0  0
  135.0623  138.7665  159.2793 O   0  0  0  0  0  0  0  0  0  0  0  0
  135.0942  139.8039  160.2669 C   0  0  0  0  0  0  0  0  0  0  0  0
  135.4843  139.1700  161.6101 C   0  0  0  0  0  0  0  0  0  0  0  0
  134.5187  138.1544  161.9152 O   0  0  0  0  0  0  0  0  0  0  0  0
  134.7345  134.5467  162.1186 H   0  0  0  0  0  0  0  0  0  0  0  0
  134.3176  135.9085  163.1864 H   0  0  0  0  0  0  0  0  0  0  0  0
  133.0951  134.6738  162.7999 H   0  0  0  0  0  0  0  0  0  0  0  0
  132.1404  136.2267  159.6461 H   0  0  0  0  0  0  0  0  0  0  0  0
  131.0922  134.3282  161.3889 H   0  0  0  0  0  0  0  0  0  0  0  0
  132.6814  133.5807  161.0990 H   0  0  0  0  0  0  0  0  0  0  0  0
  128.8367  133.5860  157.5636 H   0  0  0  0  0  0  0  0  0  0  0  0
  131.5743  133.0708  156.7262 H   0  0  0  0  0  0  0  0  0  0  0  0
  128.8914  131.6429  155.9529 H   0  0  0  0  0  0  0  0  0  0  0  0
  130.4914  131.5096  155.0457 H   0  0  0  0  0  0  0  0  0  0  0  0
  131.5935  130.5662  157.1271 H   0  0  0  0  0  0  0  0  0  0  0  0
  129.9937  130.6993  158.0349 H   0  0  0  0  0  0  0  0  0  0  0  0
  129.7458  135.3871  160.3861 H   0  0  0  0  0  0  0  0  0  0  0  0
  128.2314  132.3148  159.6687 H   0  0  0  0  0  0  0  0  0  0  0  0
  127.9013  132.9046  161.3181 H   0  0  0  0  0  0  0  0  0  0  0  0
  125.9376  132.6493  159.0013 H   0  0  0  0  0  0  0  0  0  0  0  0
  125.8921  131.7956  160.5608 H   0  0  0  0  0  0  0  0  0  0  0  0
  125.2337  135.7240  161.2909 H   0  0  0  0  0  0  0  0  0  0  0  0
  127.7420  135.3875  161.7353 H   0  0  0  0  0  0  0  0  0  0  0  0
  127.3018  136.4296  160.3660 H   0  0  0  0  0  0  0  0  0  0  0  0
  134.1438  136.9204  158.8527 H   0  0  0  0  0  0  0  0  0  0  0  0
  135.8313  140.5563  159.9868 H   0  0  0  0  0  0  0  0  0  0  0  0
  134.1098  140.2644  160.3492 H   0  0  0  0  0  0  0  0  0  0  0  0
  136.4777  138.7279  161.5342 H   0  0  0  0  0  0  0  0  0  0  0  0
  135.4782  139.9299  162.3915 H   0  0  0  0  0  0  0  0  0  0  0  0
  1  2  1  0
  1 27  1  0
  1 28  1  0
  1 29  1  0
  2  3  2  0
  2 21  1  0
  3  4  1  0
  3 30  1  0
  4  5  1  0
  4 31  1  0
  4 32  1  0
  5  6  1  0
  7  5  2  0
  7  8  1  0
  7 12  1  0
  8  9  1  0
  8 33  1  0
  9 11  1  0
  9 10  1  0
  9 34  1  0
 10 11  1  0
 10 35  1  0
 10 36  1  0
 11 37  1  0
 11 38  1  0
 12 13  1  0
 12 39  1  0
 13 14  1  6
 13 20  1  0
 13 15  1  0
 15 16  1  0
 15 40  1  0
 15 41  1  0
 16 17  1  0
 16 42  1  0
 16 43  1  0
 17 18  2  0
 17 19  1  0
 19 20  1  0
 19 44  1  0
 20 45  1  0
 20 46  1  0
 21 26  1  0
 21 22  2  0
 22 23  1  0
 22 47  1  0
 23 24  1  0
 24 25  1  0
 24 48  1  0
 24 49  1  0
 25 26  1  0
 25 50  1  0
 25 51  1  0
M  CHG  1   5   1
M  END
>  <DOCK_score>  (1) 
-41.4907

>  <SMILES>  (1) 
CC(=CC[NH+]=C(NC1CC1)N[C@H]1CCC(=O)NC1)C1=COCCO1

$$$$
