CC(C)(Nc1cc(N)c(N)cc1C1=CCN[NH2+]C1)c1ccc(N)cc1
     RDKit          3D

 52 54  0  0  0  0  0  0  0  0999 V2000
  133.1108  135.1841  160.0214 C   0  0  0  0  0  0  0  0  0  0  0  0
  131.8215  135.6757  160.6824 C   0  0  0  0  0  0  0  0  0  0  0  0
  131.3380  134.6345  161.6939 C   0  0  0  0  0  0  0  0  0  0  0  0
  130.7932  135.8755  159.6582 N   0  0  0  0  0  0  0  0  0  0  0  0
  129.4447  135.7047  159.9800 C   0  0  0  0  0  0  0  0  0  0  0  0
  128.8613  136.4867  160.9650 C   0  0  0  0  0  0  0  0  0  0  0  0
  127.5212  136.3214  161.2807 C   0  0  0  0  0  0  0  0  0  0  0  0
  126.9349  137.1157  162.2705 N   0  0  0  0  0  0  0  0  0  0  0  0
  126.7569  135.3594  160.6164 C   0  0  0  0  0  0  0  0  0  0  0  0
  125.4026  135.1926  160.9433 N   0  0  0  0  0  0  0  0  0  0  0  0
  127.3324  134.5718  159.6369 C   0  0  0  0  0  0  0  0  0  0  0  0
  128.6806  134.7386  159.3116 C   0  0  0  0  0  0  0  0  0  0  0  0
  129.2987  133.8998  158.2659 C   0  0  0  0  0  0  0  0  0  0  0  0
  129.8503  132.7536  158.6134 C   0  0  0  0  0  0  0  0  0  0  0  0
  130.5048  131.8448  157.6094 C   0  0  0  0  0  0  0  0  0  0  0  0
  130.0889  132.2246  156.2522 N   0  0  0  0  0  0  0  0  0  0  0  0
  130.2758  133.6547  156.0495 N   0  0  0  0  0  0  0  0  0  0  0  0
  131.2024  133.9199  156.3481 H   0  0  0  0  0  0  0  0  0  0  0  0
  130.1577  133.8756  155.0721 H   0  0  0  0  0  0  0  0  0  0  0  0
  129.2716  134.3795  156.8416 C   0  0  0  0  0  0  0  0  0  0  0  0
  132.0854  136.9794  161.3905 C   0  0  0  0  0  0  0  0  0  0  0  0
  132.5335  138.0746  160.6751 C   0  0  0  0  0  0  0  0  0  0  0  0
  132.7769  139.2708  161.3210 C   0  0  0  0  0  0  0  0  0  0  0  0
  132.5708  139.3730  162.6910 C   0  0  0  0  0  0  0  0  0  0  0  0
  132.8163  140.5813  163.3475 N   0  0  0  0  0  0  0  0  0  0  0  0
  132.1255  138.2694  163.4075 C   0  0  0  0  0  0  0  0  0  0  0  0
  131.8792  137.0777  162.7544 C   0  0  0  0  0  0  0  0  0  0  0  0
  133.8491  134.9563  160.7902 H   0  0  0  0  0  0  0  0  0  0  0  0
  132.9018  134.2858  159.4407 H   0  0  0  0  0  0  0  0  0  0  0  0
  133.5000  135.9604  159.3626 H   0  0  0  0  0  0  0  0  0  0  0  0
  130.3764  134.9445  162.1031 H   0  0  0  0  0  0  0  0  0  0  0  0
  131.2281  133.6699  161.1984 H   0  0  0  0  0  0  0  0  0  0  0  0
  132.0652  134.5473  162.5014 H   0  0  0  0  0  0  0  0  0  0  0  0
  131.0487  136.1263  158.7568 H   0  0  0  0  0  0  0  0  0  0  0  0
  129.4503  137.2282  161.4843 H   0  0  0  0  0  0  0  0  0  0  0  0
  125.9986  136.9985  162.4952 H   0  0  0  0  0  0  0  0  0  0  0  0
  127.4645  137.7841  162.7328 H   0  0  0  0  0  0  0  0  0  0  0  0
  124.8709  134.5250  160.4822 H   0  0  0  0  0  0  0  0  0  0  0  0
  124.9979  135.7449  161.6304 H   0  0  0  0  0  0  0  0  0  0  0  0
  126.7404  133.8281  159.1242 H   0  0  0  0  0  0  0  0  0  0  0  0
  129.8318  132.4582  159.6520 H   0  0  0  0  0  0  0  0  0  0  0  0
  131.5880  131.9312  157.6943 H   0  0  0  0  0  0  0  0  0  0  0  0
  130.2067  130.8147  157.8044 H   0  0  0  0  0  0  0  0  0  0  0  0
  129.1314  131.9570  156.0793 H   0  0  0  0  0  0  0  0  0  0  0  0
  128.2809  134.2077  156.4208 H   0  0  0  0  0  0  0  0  0  0  0  0
  129.4940  135.4462  156.8149 H   0  0  0  0  0  0  0  0  0  0  0  0
  132.6939  137.9944  159.6100 H   0  0  0  0  0  0  0  0  0  0  0  0
  133.1272  140.1257  160.7617 H   0  0  0  0  0  0  0  0  0  0  0  0
  133.1310  141.3501  162.8467 H   0  0  0  0  0  0  0  0  0  0  0  0
  132.6682  140.6525  164.3034 H   0  0  0  0  0  0  0  0  0  0  0  0
  131.9685  138.3443  164.4733 H   0  0  0  0  0  0  0  0  0  0  0  0
  131.5291  136.2205  163.3103 H   0  0  0  0  0  0  0  0  0  0  0  0
  1  2  1  0
  1 28  1  0
  1 29  1  0
  1 30  1  0
  2  3  1  0
  2  4  1  0
  2 21  1  0
  3 31  1  0
  3 32  1  0
  3 33  1  0
  4  5  1  0
  4 34  1  0
  5 12  1  0
  5  6  2  0
  6  7  1  0
  6 35  1  0
  7  8  1  0
  7  9  2  0
  8 36  1  0
  8 37  1  0
  9 10  1  0
  9 11  1  0
 10 38  1  0
 10 39  1  0
 11 12  2  0
 11 40  1  0
 12 13  1  0
 13 20  1  0
 13 14  2  0
 14 15  1  0
 14 41  1  0
 15 16  1  0
 15 42  1  0
 15 43  1  0
 16 17  1  0
 16 44  1  0
 17 18  1  0
 17 19  1  0
 17 20  1  0
 20 45  1  0
 20 46  1  0
 21 27  1  0
 21 22  2  0
 22 23  1  0
 22 47  1  0
 23 24  2  0
 23 48  1  0
 24 25  1  0
 24 26  1  0
 25 49  1  0
 25 50  1  0
 26 27  2  0
 26 51  1  0
 27 52  1  0
M  CHG  1  17   1
M  END
>  <DOCK_score>  (1) 
-46.114944

>  <SMILES>  (1) 
CC(C)(Nc1cc(N)c(N)cc1C1=CCN[NH2+]C1)c1ccc(N)cc1

$$$$
