O[C@H](C[NH2+]C[C@@H]1CCC=C1c1cncc(SC2=CCCCC2)c1)c1ccccc1
     RDKit          3D

 60 63  0  0  1  0  0  0  0  0999 V2000
  133.0421  136.7971  160.0448 O   0  0  0  0  0  0  0  0  0  0  0  0
  133.4798  137.5739  161.1616 C   0  0  2  0  0  0  0  0  0  0  0  0
  134.0276  136.9364  161.8554 H   0  0  0  0  0  0  0  0  0  0  0  0
  132.2656  138.1755  161.8718 C   0  0  0  0  0  0  0  0  0  0  0  0
  131.3877  137.0951  162.3410 N   0  0  0  0  0  0  0  0  0  0  0  0
  131.8948  136.5047  162.9832 H   0  0  0  0  0  0  0  0  0  0  0  0
  131.0787  136.5466  161.5524 H   0  0  0  0  0  0  0  0  0  0  0  0
  130.2218  137.6726  163.0229 C   0  0  0  0  0  0  0  0  0  0  0  0
  129.3076  136.5473  163.5115 C   0  0  2  0  0  0  0  0  0  0  0  0
  128.3021  136.9265  163.6938 H   0  0  0  0  0  0  0  0  0  0  0  0
  129.8799  135.9028  164.7970 C   0  0  0  0  0  0  0  0  0  0  0  0
  130.6923  134.7229  164.2162 C   0  0  0  0  0  0  0  0  0  0  0  0
  130.0374  134.4189  162.8888 C   0  0  0  0  0  0  0  0  0  0  0  0
  129.2710  135.4236  162.5019 C   0  0  0  0  0  0  0  0  0  0  0  0
  128.4884  135.4475  161.2478 C   0  0  0  0  0  0  0  0  0  0  0  0
  127.2924  136.1632  161.1722 C   0  0  0  0  0  0  0  0  0  0  0  0
  126.5916  136.1871  160.0573 N   0  0  0  0  0  0  0  0  0  0  0  0
  126.9814  135.5446  158.9741 C   0  0  0  0  0  0  0  0  0  0  0  0
  128.1606  134.8080  158.9648 C   0  0  0  0  0  0  0  0  0  0  0  0
  128.6678  133.9542  157.5093 S   0  0  0  0  0  0  0  0  0  0  0  0
  129.5605  132.5762  158.1490 C   0  0  0  0  0  0  0  0  0  0  0  0
  130.8148  132.4483  157.8153 C   0  0  0  0  0  0  0  0  0  0  0  0
  131.6956  131.3223  158.2721 C   0  0  0  0  0  0  0  0  0  0  0  0
  131.0696  130.6250  159.4818 C   0  0  0  0  0  0  0  0  0  0  0  0
  129.6060  130.3041  159.1543 C   0  0  0  0  0  0  0  0  0  0  0  0
  128.8329  131.6203  159.0486 C   0  0  0  0  0  0  0  0  0  0  0  0
  128.9318  134.7491  160.1212 C   0  0  0  0  0  0  0  0  0  0  0  0
  134.3804  138.6824  160.6802 C   0  0  0  0  0  0  0  0  0  0  0  0
  135.3827  139.1644  161.5011 C   0  0  0  0  0  0  0  0  0  0  0  0
  136.2114  140.1781  161.0580 C   0  0  0  0  0  0  0  0  0  0  0  0
  136.0317  140.7164  159.7976 C   0  0  0  0  0  0  0  0  0  0  0  0
  135.0264  140.2379  158.9784 C   0  0  0  0  0  0  0  0  0  0  0  0
  134.2003  139.2211  159.4199 C   0  0  0  0  0  0  0  0  0  0  0  0
  132.5465  137.3013  159.3852 H   0  0  0  0  0  0  0  0  0  0  0  0
  131.7179  138.8133  161.1781 H   0  0  0  0  0  0  0  0  0  0  0  0
  132.5995  138.7679  162.7236 H   0  0  0  0  0  0  0  0  0  0  0  0
  129.6742  138.3104  162.3289 H   0  0  0  0  0  0  0  0  0  0  0  0
  130.5559  138.2652  163.8747 H   0  0  0  0  0  0  0  0  0  0  0  0
  129.0821  135.5448  165.4478 H   0  0  0  0  0  0  0  0  0  0  0  0
  130.5287  136.6010  165.3259 H   0  0  0  0  0  0  0  0  0  0  0  0
  130.6303  133.8580  164.8768 H   0  0  0  0  0  0  0  0  0  0  0  0
  131.7321  135.0145  164.0683 H   0  0  0  0  0  0  0  0  0  0  0  0
  130.1770  133.5044  162.3314 H   0  0  0  0  0  0  0  0  0  0  0  0
  126.9376  136.7031  162.0376 H   0  0  0  0  0  0  0  0  0  0  0  0
  126.3757  135.5908  158.0811 H   0  0  0  0  0  0  0  0  0  0  0  0
  131.2446  133.1986  157.1681 H   0  0  0  0  0  0  0  0  0  0  0  0
  132.6731  131.7175  158.5487 H   0  0  0  0  0  0  0  0  0  0  0  0
  131.8128  130.6033  157.4614 H   0  0  0  0  0  0  0  0  0  0  0  0
  131.6090  129.7013  159.6919 H   0  0  0  0  0  0  0  0  0  0  0  0
  131.1149  131.2843  160.3486 H   0  0  0  0  0  0  0  0  0  0  0  0
  129.5515  129.7702  158.2056 H   0  0  0  0  0  0  0  0  0  0  0  0
  129.1789  129.6911  159.9480 H   0  0  0  0  0  0  0  0  0  0  0  0
  127.8407  131.4250  158.6414 H   0  0  0  0  0  0  0  0  0  0  0  0
  128.7337  132.0618  160.0402 H   0  0  0  0  0  0  0  0  0  0  0  0
  129.8507  134.1819  160.1465 H   0  0  0  0  0  0  0  0  0  0  0  0
  135.5205  138.7465  162.4874 H   0  0  0  0  0  0  0  0  0  0  0  0
  136.9973  140.5518  161.6978 H   0  0  0  0  0  0  0  0  0  0  0  0
  136.6770  141.5109  159.4525 H   0  0  0  0  0  0  0  0  0  0  0  0
  134.8858  140.6585  157.9937 H   0  0  0  0  0  0  0  0  0  0  0  0
  133.4146  138.8474  158.7801 H   0  0  0  0  0  0  0  0  0  0  0  0
  1  2  1  0
  1 34  1  0
  2  3  1  1
  2  4  1  0
  2 28  1  0
  4  5  1  0
  4 35  1  0
  4 36  1  0
  5  6  1  0
  5  7  1  0
  5  8  1  0
  8  9  1  0
  8 37  1  0
  8 38  1  0
  9 10  1  1
  9 14  1  0
  9 11  1  0
 11 12  1  0
 11 39  1  0
 11 40  1  0
 12 13  1  0
 12 41  1  0
 12 42  1  0
 13 14  2  0
 13 43  1  0
 14 15  1  0
 15 27  1  0
 15 16  2  0
 16 17  1  0
 16 44  1  0
 17 18  2  0
 18 19  1  0
 18 45  1  0
 19 20  1  0
 19 27  2  0
 20 21  1  0
 21 26  1  0
 21 22  2  0
 22 23  1  0
 22 46  1  0
 23 24  1  0
 23 47  1  0
 23 48  1  0
 24 25  1  0
 24 49  1  0
 24 50  1  0
 25 26  1  0
 25 51  1  0
 25 52  1  0
 26 53  1  0
 26 54  1  0
 27 55  1  0
 28 33  1  0
 28 29  2  0
 29 30  1  0
 29 56  1  0
 30 31  2  0
 30 57  1  0
 31 32  1  0
 31 58  1  0
 32 33  2  0
 32 59  1  0
 33 60  1  0
M  CHG  1   5   1
M  END
>  <DOCK_score>  (1) 
-42.019802

>  <SMILES>  (1) 
O[C@H](C[NH2+]C[C@@H]1CCC=C1c1cncc(SC2=CCCCC2)c1)c1ccccc1

$$$$
