Fc1ccccc1Nc1ccccc1Nc1cccc(F)c1NC1=[NH+]CCN1
     RDKit          3D

 48 51  0  0  0  0  0  0  0  0999 V2000
  135.4659  139.6762  158.4550 F   0  0  0  0  0  0  0  0  0  0  0  0
  135.7528  139.4663  159.7585 C   0  0  0  0  0  0  0  0  0  0  0  0
  137.0101  139.7682  160.2484 C   0  0  0  0  0  0  0  0  0  0  0  0
  137.3052  139.5480  161.5814 C   0  0  0  0  0  0  0  0  0  0  0  0
  136.3434  139.0311  162.4299 C   0  0  0  0  0  0  0  0  0  0  0  0
  135.0833  138.7326  161.9491 C   0  0  0  0  0  0  0  0  0  0  0  0
  134.7817  138.9518  160.6115 C   0  0  0  0  0  0  0  0  0  0  0  0
  133.5071  138.6506  160.1217 N   0  0  0  0  0  0  0  0  0  0  0  0
  132.3829  139.2911  160.6558 C   0  0  0  0  0  0  0  0  0  0  0  0
  132.4891  140.5801  161.1567 C   0  0  0  0  0  0  0  0  0  0  0  0
  131.3790  141.2081  161.6899 C   0  0  0  0  0  0  0  0  0  0  0  0
  130.1589  140.5577  161.7196 C   0  0  0  0  0  0  0  0  0  0  0  0
  130.0423  139.2750  161.2172 C   0  0  0  0  0  0  0  0  0  0  0  0
  131.1508  138.6367  160.6810 C   0  0  0  0  0  0  0  0  0  0  0  0
  131.0352  137.3383  160.1718 N   0  0  0  0  0  0  0  0  0  0  0  0
  131.2399  136.2372  161.0105 C   0  0  0  0  0  0  0  0  0  0  0  0
  131.5524  136.4306  162.3490 C   0  0  0  0  0  0  0  0  0  0  0  0
  131.7594  135.3423  163.1751 C   0  0  0  0  0  0  0  0  0  0  0  0
  131.6459  134.0577  162.6753 C   0  0  0  0  0  0  0  0  0  0  0  0
  131.3296  133.8549  161.3432 C   0  0  0  0  0  0  0  0  0  0  0  0
  131.2192  132.5988  160.8583 F   0  0  0  0  0  0  0  0  0  0  0  0
  131.1252  134.9432  160.5054 C   0  0  0  0  0  0  0  0  0  0  0  0
  130.8048  134.7408  159.1544 N   0  0  0  0  0  0  0  0  0  0  0  0
  130.1101  133.6237  158.7755 C   0  0  0  0  0  0  0  0  0  0  0  0
  130.2511  133.0638  157.5848 N   0  0  0  0  0  0  0  0  0  0  0  0
  130.8422  133.3781  156.8828 H   0  0  0  0  0  0  0  0  0  0  0  0
  129.3724  131.8871  157.4953 C   0  0  0  0  0  0  0  0  0  0  0  0
  128.6694  131.8589  158.8675 C   0  0  0  0  0  0  0  0  0  0  0  0
  129.2395  133.0199  159.5685 N   0  0  0  0  0  0  0  0  0  0  0  0
  137.7637  140.1718  159.5884 H   0  0  0  0  0  0  0  0  0  0  0  0
  138.2893  139.7805  161.9607 H   0  0  0  0  0  0  0  0  0  0  0  0
  136.5777  138.8609  163.4703 H   0  0  0  0  0  0  0  0  0  0  0  0
  134.3331  138.3293  162.6131 H   0  0  0  0  0  0  0  0  0  0  0  0
  133.4019  137.9979  159.4120 H   0  0  0  0  0  0  0  0  0  0  0  0
  133.4402  141.0913  161.1349 H   0  0  0  0  0  0  0  0  0  0  0  0
  131.4641  142.2105  162.0828 H   0  0  0  0  0  0  0  0  0  0  0  0
  129.2945  141.0532  162.1364 H   0  0  0  0  0  0  0  0  0  0  0  0
  129.0879  138.7701  161.2422 H   0  0  0  0  0  0  0  0  0  0  0  0
  130.8131  137.2015  159.2375 H   0  0  0  0  0  0  0  0  0  0  0  0
  131.6378  137.4321  162.7441 H   0  0  0  0  0  0  0  0  0  0  0  0
  132.0061  135.4953  164.2153 H   0  0  0  0  0  0  0  0  0  0  0  0
  131.8045  133.2107  163.3263 H   0  0  0  0  0  0  0  0  0  0  0  0
  131.0757  135.3924  158.4888 H   0  0  0  0  0  0  0  0  0  0  0  0
  129.9559  130.9790  157.3440 H   0  0  0  0  0  0  0  0  0  0  0  0
  128.6447  132.0125  156.6935 H   0  0  0  0  0  0  0  0  0  0  0  0
  128.9027  130.9366  159.3995 H   0  0  0  0  0  0  0  0  0  0  0  0
  127.5914  131.9717  158.7517 H   0  0  0  0  0  0  0  0  0  0  0  0
  129.0129  133.2990  160.4694 H   0  0  0  0  0  0  0  0  0  0  0  0
  1  2  1  0
  2  7  2  0
  2  3  1  0
  3  4  2  0
  3 30  1  0
  4  5  1  0
  4 31  1  0
  5  6  2  0
  5 32  1  0
  6  7  1  0
  6 33  1  0
  7  8  1  0
  8  9  1  0
  8 34  1  0
  9 14  1  0
  9 10  2  0
 10 11  1  0
 10 35  1  0
 11 12  2  0
 11 36  1  0
 12 13  1  0
 12 37  1  0
 13 14  2  0
 13 38  1  0
 14 15  1  0
 15 16  1  0
 15 39  1  0
 16 22  1  0
 16 17  2  0
 17 18  1  0
 17 40  1  0
 18 19  2  0
 18 41  1  0
 19 20  1  0
 19 42  1  0
 20 21  1  0
 20 22  2  0
 22 23  1  0
 23 24  1  0
 23 43  1  0
 24 29  2  0
 24 25  1  0
 25 26  1  0
 25 27  1  0
 27 28  1  0
 27 44  1  0
 27 45  1  0
 28 29  1  0
 28 46  1  0
 28 47  1  0
 29 48  1  0
M  CHG  1  29   1
M  END
>  <DOCK_score>  (1) 
-57.601086

>  <SMILES>  (1) 
Fc1ccccc1Nc1ccccc1Nc1cccc(F)c1NC1=[NH+]CCN1

$$$$
