Cc1c(N2CC[NH+](C(c3ccccc3)c3ccccc3)CC2)ccc2cccnc12
     RDKit          3D

 58 62  0  0  0  0  0  0  0  0999 V2000
  133.3833  138.3308  163.5569 C   0  0  0  0  0  0  0  0  0  0  0  0
  133.9392  138.9353  162.2933 C   0  0  0  0  0  0  0  0  0  0  0  0
  133.5325  138.4657  161.0629 C   0  0  0  0  0  0  0  0  0  0  0  0
  132.6037  137.4281  160.9939 N   0  0  0  0  0  0  0  0  0  0  0  0
  133.1929  136.2344  160.3708 C   0  0  0  0  0  0  0  0  0  0  0  0
  132.1627  135.1028  160.3681 C   0  0  0  0  0  0  0  0  0  0  0  0
  130.9707  135.5275  159.6223 N   0  0  0  0  0  0  0  0  0  0  0  0
  131.2316  135.7602  158.6758 H   0  0  0  0  0  0  0  0  0  0  0  0
  129.9893  134.4346  159.6046 C   0  0  0  0  0  0  0  0  0  0  0  0
  128.7662  134.8700  158.8395 C   0  0  0  0  0  0  0  0  0  0  0  0
  127.5269  134.3507  159.1638 C   0  0  0  0  0  0  0  0  0  0  0  0
  126.4042  134.7537  158.4651 C   0  0  0  0  0  0  0  0  0  0  0  0
  126.5224  135.6683  157.4354 C   0  0  0  0  0  0  0  0  0  0  0  0
  127.7625  136.1839  157.1078 C   0  0  0  0  0  0  0  0  0  0  0  0
  128.8844  135.7848  157.8098 C   0  0  0  0  0  0  0  0  0  0  0  0
  130.5951  133.2264  158.9380 C   0  0  0  0  0  0  0  0  0  0  0  0
  130.4625  133.0507  157.5733 C   0  0  0  0  0  0  0  0  0  0  0  0
  131.0224  131.9448  156.9612 C   0  0  0  0  0  0  0  0  0  0  0  0
  131.7059  131.0094  157.7154 C   0  0  0  0  0  0  0  0  0  0  0  0
  131.8339  131.1824  159.0808 C   0  0  0  0  0  0  0  0  0  0  0  0
  131.2786  132.2909  159.6922 C   0  0  0  0  0  0  0  0  0  0  0  0
  130.3793  136.7056  160.2706 C   0  0  0  0  0  0  0  0  0  0  0  0
  131.3947  137.8505  160.2726 C   0  0  0  0  0  0  0  0  0  0  0  0
  134.0459  139.0152  159.8817 C   0  0  0  0  0  0  0  0  0  0  0  0
  134.9482  140.0311  159.9214 C   0  0  0  0  0  0  0  0  0  0  0  0
  135.3836  140.5320  161.1597 C   0  0  0  0  0  0  0  0  0  0  0  0
  136.3209  141.5786  161.2344 C   0  0  0  0  0  0  0  0  0  0  0  0
  136.7003  142.0185  162.4711 C   0  0  0  0  0  0  0  0  0  0  0  0
  136.1613  141.4323  163.6134 C   0  0  0  0  0  0  0  0  0  0  0  0
  135.2881  140.4567  163.5413 N   0  0  0  0  0  0  0  0  0  0  0  0
  134.8745  139.9795  162.3622 C   0  0  0  0  0  0  0  0  0  0  0  0
  134.0148  137.4993  163.8702 H   0  0  0  0  0  0  0  0  0  0  0  0
  133.3615  139.0864  164.3421 H   0  0  0  0  0  0  0  0  0  0  0  0
  132.3717  137.9692  163.3723 H   0  0  0  0  0  0  0  0  0  0  0  0
  133.4828  136.4647  159.3457 H   0  0  0  0  0  0  0  0  0  0  0  0
  134.0715  135.9249  160.9368 H   0  0  0  0  0  0  0  0  0  0  0  0
  131.8832  134.8635  161.3941 H   0  0  0  0  0  0  0  0  0  0  0  0
  132.5930  134.2209  159.8936 H   0  0  0  0  0  0  0  0  0  0  0  0
  129.7077  134.1824  160.6270 H   0  0  0  0  0  0  0  0  0  0  0  0
  127.4351  133.6327  159.9653 H   0  0  0  0  0  0  0  0  0  0  0  0
  125.4353  134.3508  158.7209 H   0  0  0  0  0  0  0  0  0  0  0  0
  125.6459  135.9800  156.8866 H   0  0  0  0  0  0  0  0  0  0  0  0
  127.8549  136.8983  156.3030 H   0  0  0  0  0  0  0  0  0  0  0  0
  129.8533  136.1872  157.5537 H   0  0  0  0  0  0  0  0  0  0  0  0
  129.9247  133.7792  156.9848 H   0  0  0  0  0  0  0  0  0  0  0  0
  130.9219  131.8094  155.8945 H   0  0  0  0  0  0  0  0  0  0  0  0
  132.1394  130.1432  157.2378 H   0  0  0  0  0  0  0  0  0  0  0  0
  132.3676  130.4514  159.6701 H   0  0  0  0  0  0  0  0  0  0  0  0
  131.3784  132.4259  160.7591 H   0  0  0  0  0  0  0  0  0  0  0  0
  130.1090  136.4580  161.2971 H   0  0  0  0  0  0  0  0  0  0  0  0
  129.4876  137.0118  159.7238 H   0  0  0  0  0  0  0  0  0  0  0  0
  130.9615  138.7199  160.7668 H   0  0  0  0  0  0  0  0  0  0  0  0
  131.6550  138.1074  159.2458 H   0  0  0  0  0  0  0  0  0  0  0  0
  133.7175  138.6302  158.9275 H   0  0  0  0  0  0  0  0  0  0  0  0
  135.3337  140.4489  159.0030 H   0  0  0  0  0  0  0  0  0  0  0  0
  136.7291  142.0226  160.3385 H   0  0  0  0  0  0  0  0  0  0  0  0
  137.4182  142.8201  162.5627 H   0  0  0  0  0  0  0  0  0  0  0  0
  136.4707  141.7905  164.5842 H   0  0  0  0  0  0  0  0  0  0  0  0
  1  2  1  0
  1 32  1  0
  1 33  1  0
  1 34  1  0
  2 31  2  0
  2  3  1  0
  3  4  1  0
  3 24  2  0
  4 23  1  0
  4  5  1  0
  5  6  1  0
  5 35  1  0
  5 36  1  0
  6  7  1  0
  6 37  1  0
  6 38  1  0
  7  8  1  0
  7  9  1  0
  7 22  1  0
  9 10  1  0
  9 16  1  0
  9 39  1  0
 10 15  1  0
 10 11  2  0
 11 12  1  0
 11 40  1  0
 12 13  2  0
 12 41  1  0
 13 14  1  0
 13 42  1  0
 14 15  2  0
 14 43  1  0
 15 44  1  0
 16 21  1  0
 16 17  2  0
 17 18  1  0
 17 45  1  0
 18 19  2  0
 18 46  1  0
 19 20  1  0
 19 47  1  0
 20 21  2  0
 20 48  1  0
 21 49  1  0
 22 23  1  0
 22 50  1  0
 22 51  1  0
 23 52  1  0
 23 53  1  0
 24 25  1  0
 24 54  1  0
 25 26  2  0
 25 55  1  0
 26 31  1  0
 26 27  1  0
 27 28  2  0
 27 56  1  0
 28 29  1  0
 28 57  1  0
 29 30  2  0
 29 58  1  0
 30 31  1  0
M  CHG  1   7   1
M  END
>  <DOCK_score>  (1) 
-58.476952

>  <SMILES>  (1) 
Cc1c(N2CC[NH+](C(c3ccccc3)c3ccccc3)CC2)ccc2cccnc12

$$$$
