Cc1cccc(N2CC[NH+](C(c3ccccc3)c3ccccc3)CC2)c1CC1=CCOCC1
     RDKit          3D

 68 72  0  0  1  0  0  0  0  0999 V2000
  135.4473  141.0036  163.1234 C   0  0  0  0  0  0  0  0  0  0  0  0
  134.9797  140.3378  161.8549 C   0  0  0  0  0  0  0  0  0  0  0  0
  135.4990  140.7331  160.6353 C   0  0  0  0  0  0  0  0  0  0  0  0
  135.0686  140.1287  159.4687 C   0  0  0  0  0  0  0  0  0  0  0  0
  134.1222  139.1238  159.5180 C   0  0  0  0  0  0  0  0  0  0  0  0
  133.6029  138.7206  160.7415 C   0  0  0  0  0  0  0  0  0  0  0  0
  132.6461  137.7046  160.7950 N   0  0  0  0  0  0  0  0  0  0  0  0
  133.2018  136.4319  160.3138 C   0  0  0  0  0  0  0  0  0  0  0  0
  132.1433  135.3345  160.4443 C   0  0  0  0  0  0  0  0  0  0  0  0
  130.9587  135.7006  159.6565 N   0  0  0  0  0  0  0  0  0  0  0  0
  131.2208  135.8150  158.6888 H   0  0  0  0  0  0  0  0  0  0  0  0
  129.9499  134.6385  159.7676 C   0  0  0  0  0  0  0  0  0  0  0  0
  128.7345  135.0137  158.9594 C   0  0  0  0  0  0  0  0  0  0  0  0
  127.4840  134.5673  159.3441 C   0  0  0  0  0  0  0  0  0  0  0  0
  126.3686  134.9155  158.6056 C   0  0  0  0  0  0  0  0  0  0  0  0
  126.5049  135.7013  157.4764 C   0  0  0  0  0  0  0  0  0  0  0  0
  127.7560  136.1433  157.0890 C   0  0  0  0  0  0  0  0  0  0  0  0
  128.8707  135.7995  157.8303 C   0  0  0  0  0  0  0  0  0  0  0  0
  130.5216  133.3460  159.2446 C   0  0  0  0  0  0  0  0  0  0  0  0
  130.3779  133.0166  157.9097 C   0  0  0  0  0  0  0  0  0  0  0  0
  130.9065  131.8332  157.4290 C   0  0  0  0  0  0  0  0  0  0  0  0
  131.5697  130.9742  158.2853 C   0  0  0  0  0  0  0  0  0  0  0  0
  131.7087  131.3011  159.6212 C   0  0  0  0  0  0  0  0  0  0  0  0
  131.1848  132.4869  160.1009 C   0  0  0  0  0  0  0  0  0  0  0  0
  130.4007  136.9606  160.1647 C   0  0  0  0  0  0  0  0  0  0  0  0
  131.4449  138.0714  160.0318 C   0  0  0  0  0  0  0  0  0  0  0  0
  134.0376  139.3300  161.9119 C   0  0  0  0  0  0  0  0  0  0  0  0
  133.4771  138.8958  163.2417 C   0  0  0  0  0  0  0  0  0  0  0  0
  132.2526  139.7140  163.5620 C   0  0  0  0  0  0  0  0  0  0  0  0
  131.3123  139.1769  164.2807 C   0  0  0  0  0  0  0  0  0  0  0  0
  130.0473  139.9023  164.6421 C   0  0  0  0  0  0  0  0  0  0  0  0
  130.2004  141.3039  164.4099 O   0  0  0  0  0  0  0  0  0  0  0  0
  130.7120  141.6030  163.1050 C   0  0  0  0  0  0  0  0  0  0  0  0
  132.1628  141.1187  163.0325 C   0  0  0  0  0  0  0  0  0  0  0  0
  136.2671  140.4290  163.5545 H   0  0  0  0  0  0  0  0  0  0  0  0
  135.7904  142.0136  162.8985 H   0  0  0  0  0  0  0  0  0  0  0  0
  134.6227  141.0501  163.8347 H   0  0  0  0  0  0  0  0  0  0  0  0
  136.2392  141.5185  160.5940 H   0  0  0  0  0  0  0  0  0  0  0  0
  135.4730  140.4425  158.5178 H   0  0  0  0  0  0  0  0  0  0  0  0
  133.7861  138.6525  158.6063 H   0  0  0  0  0  0  0  0  0  0  0  0
  133.4924  136.5341  159.2683 H   0  0  0  0  0  0  0  0  0  0  0  0
  134.0751  136.1676  160.9102 H   0  0  0  0  0  0  0  0  0  0  0  0
  131.8627  135.2232  161.4917 H   0  0  0  0  0  0  0  0  0  0  0  0
  132.5487  134.3928  160.0747 H   0  0  0  0  0  0  0  0  0  0  0  0
  129.6670  134.5141  160.8128 H   0  0  0  0  0  0  0  0  0  0  0  0
  127.3780  133.9498  160.2238 H   0  0  0  0  0  0  0  0  0  0  0  0
  125.3911  134.5699  158.9082 H   0  0  0  0  0  0  0  0  0  0  0  0
  125.6339  135.9696  156.8969 H   0  0  0  0  0  0  0  0  0  0  0  0
  127.8624  136.7570  156.2065 H   0  0  0  0  0  0  0  0  0  0  0  0
  129.8483  136.1445  157.5274 H   0  0  0  0  0  0  0  0  0  0  0  0
  129.8559  133.6857  157.2416 H   0  0  0  0  0  0  0  0  0  0  0  0
  130.7975  131.5777  156.3853 H   0  0  0  0  0  0  0  0  0  0  0  0
  131.9787  130.0476  157.9107 H   0  0  0  0  0  0  0  0  0  0  0  0
  132.2265  130.6298  160.2904 H   0  0  0  0  0  0  0  0  0  0  0  0
  131.2931  132.7420  161.1447 H   0  0  0  0  0  0  0  0  0  0  0  0
  130.1292  136.8409  161.2135 H   0  0  0  0  0  0  0  0  0  0  0  0
  129.5143  137.2242  159.5878 H   0  0  0  0  0  0  0  0  0  0  0  0
  131.0362  139.0032  160.4226 H   0  0  0  0  0  0  0  0  0  0  0  0
  131.7065  138.2007  158.9817 H   0  0  0  0  0  0  0  0  0  0  0  0
  134.2271  139.0449  164.0183 H   0  0  0  0  0  0  0  0  0  0  0  0
  133.2070  137.8409  163.1951 H   0  0  0  0  0  0  0  0  0  0  0  0
  131.4460  138.1649  164.6335 H   0  0  0  0  0  0  0  0  0  0  0  0
  129.8218  139.7328  165.6949 H   0  0  0  0  0  0  0  0  0  0  0  0
  129.2282  139.5222  164.0315 H   0  0  0  0  0  0  0  0  0  0  0  0
  130.6752  142.6790  162.9342 H   0  0  0  0  0  0  0  0  0  0  0  0
  130.1157  141.0909  162.3501 H   0  0  0  0  0  0  0  0  0  0  0  0
  132.7947  141.7738  163.6322 H   0  0  0  0  0  0  0  0  0  0  0  0
  132.5006  141.1383  161.9962 H   0  0  0  0  0  0  0  0  0  0  0  0
  1  2  1  0
  1 35  1  0
  1 36  1  0
  1 37  1  0
  2 27  2  0
  2  3  1  0
  3  4  2  0
  3 38  1  0
  4  5  1  0
  4 39  1  0
  5  6  2  0
  5 40  1  0
  6  7  1  0
  6 27  1  0
  7 26  1  0
  7  8  1  0
  8  9  1  0
  8 41  1  0
  8 42  1  0
  9 10  1  0
  9 43  1  0
  9 44  1  0
 10 11  1  0
 10 12  1  0
 10 25  1  0
 12 13  1  0
 12 19  1  0
 12 45  1  0
 13 18  1  0
 13 14  2  0
 14 15  1  0
 14 46  1  0
 15 16  2  0
 15 47  1  0
 16 17  1  0
 16 48  1  0
 17 18  2  0
 17 49  1  0
 18 50  1  0
 19 24  1  0
 19 20  2  0
 20 21  1  0
 20 51  1  0
 21 22  2  0
 21 52  1  0
 22 23  1  0
 22 53  1  0
 23 24  2  0
 23 54  1  0
 24 55  1  0
 25 26  1  0
 25 56  1  0
 25 57  1  0
 26 58  1  0
 26 59  1  0
 27 28  1  0
 28 29  1  0
 28 60  1  0
 28 61  1  0
 29 34  1  0
 29 30  2  0
 30 31  1  0
 30 62  1  0
 31 32  1  0
 31 63  1  0
 31 64  1  0
 32 33  1  0
 33 34  1  0
 33 65  1  0
 33 66  1  0
 34 67  1  0
 34 68  1  0
M  CHG  1  10   1
M  END
>  <DOCK_score>  (1) 
-59.237541

>  <SMILES>  (1) 
Cc1cccc(N2CC[NH+](C(c3ccccc3)c3ccccc3)CC2)c1CC1=CCOCC1

$$$$
