CC(=CCCc1ccccc1)C[C@H](Nc1[nH]cc(-c2ccc(N)cc2)[nH+]1)c1ccccc1
     RDKit          3D

 63 66  0  0  1  0  0  0  0  0999 V2000
  132.4823  135.9347  161.6929 C   0  0  0  0  0  0  0  0  0  0  0  0
  131.5762  136.8365  160.8948 C   0  0  0  0  0  0  0  0  0  0  0  0
  132.0834  137.8206  160.1945 C   0  0  0  0  0  0  0  0  0  0  0  0
  133.5784  137.9768  160.0869 C   0  0  0  0  0  0  0  0  0  0  0  0
  133.9910  139.3373  160.6522 C   0  0  0  0  0  0  0  0  0  0  0  0
  135.4860  139.4936  160.5447 C   0  0  0  0  0  0  0  0  0  0  0  0
  136.3005  139.0805  161.5824 C   0  0  0  0  0  0  0  0  0  0  0  0
  137.6722  139.2194  161.4817 C   0  0  0  0  0  0  0  0  0  0  0  0
  138.2286  139.7809  160.3477 C   0  0  0  0  0  0  0  0  0  0  0  0
  137.4138  140.1987  159.3122 C   0  0  0  0  0  0  0  0  0  0  0  0
  136.0425  140.0550  159.4106 C   0  0  0  0  0  0  0  0  0  0  0  0
  130.0870  136.6062  160.9022 C   0  0  0  0  0  0  0  0  0  0  0  0
  129.7846  135.2069  160.3621 C   0  0  2  0  0  0  0  0  0  0  0  0
  130.2707  134.4617  160.9917 H   0  0  0  0  0  0  0  0  0  0  0  0
  130.2896  135.0929  158.9917 N   0  0  0  0  0  0  0  0  0  0  0  0
  130.1307  133.9090  158.2917 C   0  0  0  0  0  0  0  0  0  0  0  0
  129.5211  132.7866  158.7610 N   0  0  0  0  0  0  0  0  0  0  0  0
  129.1236  132.6727  159.6384 H   0  0  0  0  0  0  0  0  0  0  0  0
  129.5731  131.8438  157.7617 C   0  0  0  0  0  0  0  0  0  0  0  0
  130.2124  132.4176  156.7127 C   0  0  0  0  0  0  0  0  0  0  0  0
  130.4993  131.7740  155.4072 C   0  0  0  0  0  0  0  0  0  0  0  0
  129.9815  132.3169  154.2323 C   0  0  0  0  0  0  0  0  0  0  0  0
  130.2542  131.7204  153.0195 C   0  0  0  0  0  0  0  0  0  0  0  0
  131.0356  130.5717  152.9690 C   0  0  0  0  0  0  0  0  0  0  0  0
  131.3060  129.9661  151.7395 N   0  0  0  0  0  0  0  0  0  0  0  0
  131.5480  130.0254  154.1394 C   0  0  0  0  0  0  0  0  0  0  0  0
  131.2826  130.6221  155.3539 C   0  0  0  0  0  0  0  0  0  0  0  0
  130.5378  133.6863  157.0658 N   0  0  0  0  0  0  0  0  0  0  0  0
  130.9999  134.3261  156.5018 H   0  0  0  0  0  0  0  0  0  0  0  0
  128.2953  134.9767  160.3696 C   0  0  0  0  0  0  0  0  0  0  0  0
  127.6873  134.4216  161.4799 C   0  0  0  0  0  0  0  0  0  0  0  0
  126.3205  134.2145  161.4884 C   0  0  0  0  0  0  0  0  0  0  0  0
  125.5632  134.5539  160.3829 C   0  0  0  0  0  0  0  0  0  0  0  0
  126.1720  135.1040  159.2705 C   0  0  0  0  0  0  0  0  0  0  0  0
  127.5380  135.3153  159.2637 C   0  0  0  0  0  0  0  0  0  0  0  0
  131.8797  135.2380  162.2757 H   0  0  0  0  0  0  0  0  0  0  0  0
  133.1286  135.3770  161.0151 H   0  0  0  0  0  0  0  0  0  0  0  0
  133.0936  136.5366  162.3651 H   0  0  0  0  0  0  0  0  0  0  0  0
  131.4301  138.5202  159.6943 H   0  0  0  0  0  0  0  0  0  0  0  0
  134.0682  137.1846  160.6530 H   0  0  0  0  0  0  0  0  0  0  0  0
  133.8760  137.9128  159.0403 H   0  0  0  0  0  0  0  0  0  0  0  0
  133.5013  140.1297  160.0861 H   0  0  0  0  0  0  0  0  0  0  0  0
  133.6934  139.4014  161.6988 H   0  0  0  0  0  0  0  0  0  0  0  0
  135.8654  138.6461  162.4703 H   0  0  0  0  0  0  0  0  0  0  0  0
  138.3088  138.8933  162.2910 H   0  0  0  0  0  0  0  0  0  0  0  0
  139.3001  139.8935  160.2710 H   0  0  0  0  0  0  0  0  0  0  0  0
  137.8485  140.6378  158.4264 H   0  0  0  0  0  0  0  0  0  0  0  0
  135.4059  140.3818  158.6017 H   0  0  0  0  0  0  0  0  0  0  0  0
  129.6010  137.3515  160.2727 H   0  0  0  0  0  0  0  0  0  0  0  0
  129.7113  136.6911  161.9218 H   0  0  0  0  0  0  0  0  0  0  0  0
  130.7317  135.8481  158.5732 H   0  0  0  0  0  0  0  0  0  0  0  0
  129.1801  130.8387  157.8042 H   0  0  0  0  0  0  0  0  0  0  0  0
  129.3704  133.2067  154.2717 H   0  0  0  0  0  0  0  0  0  0  0  0
  129.8566  132.1430  152.1087 H   0  0  0  0  0  0  0  0  0  0  0  0
  131.8513  129.1647  151.7034 H   0  0  0  0  0  0  0  0  0  0  0  0
  130.9485  130.3468  150.9221 H   0  0  0  0  0  0  0  0  0  0  0  0
  132.1545  129.1328  154.0978 H   0  0  0  0  0  0  0  0  0  0  0  0
  131.6815  130.1974  156.2634 H   0  0  0  0  0  0  0  0  0  0  0  0
  128.2796  134.1530  162.3422 H   0  0  0  0  0  0  0  0  0  0  0  0
  125.8449  133.7848  162.3578 H   0  0  0  0  0  0  0  0  0  0  0  0
  124.4957  134.3895  160.3886 H   0  0  0  0  0  0  0  0  0  0  0  0
  125.5803  135.3692  158.4069 H   0  0  0  0  0  0  0  0  0  0  0  0
  128.0137  135.7451  158.3945 H   0  0  0  0  0  0  0  0  0  0  0  0
  1  2  1  0
  1 36  1  0
  1 37  1  0
  1 38  1  0
  2  3  2  0
  2 12  1  0
  3  4  1  0
  3 39  1  0
  4  5  1  0
  4 40  1  0
  4 41  1  0
  5  6  1  0
  5 42  1  0
  5 43  1  0
  6 11  1  0
  6  7  2  0
  7  8  1  0
  7 44  1  0
  8  9  2  0
  8 45  1  0
  9 10  1  0
  9 46  1  0
 10 11  2  0
 10 47  1  0
 11 48  1  0
 12 13  1  0
 12 49  1  0
 12 50  1  0
 13 14  1  1
 13 15  1  0
 13 30  1  0
 15 51  1  0
 16 15  1  0
 16 28  2  0
 16 17  1  0
 17 18  1  0
 17 19  1  0
 19 20  2  0
 19 52  1  0
 20 21  1  0
 20 28  1  0
 21 27  1  0
 21 22  2  0
 22 23  1  0
 22 53  1  0
 23 24  2  0
 23 54  1  0
 24 25  1  0
 24 26  1  0
 25 55  1  0
 25 56  1  0
 26 27  2  0
 26 57  1  0
 27 58  1  0
 28 29  1  0
 30 35  1  0
 30 31  2  0
 31 32  1  0
 31 59  1  0
 32 33  2  0
 32 60  1  0
 33 34  1  0
 33 61  1  0
 34 35  2  0
 34 62  1  0
 35 63  1  0
M  CHG  1  28   1
M  END
>  <DOCK_score>  (1) 
-69.009506

>  <SMILES>  (1) 
CC(=CCCc1ccccc1)C[C@H](Nc1[nH]cc(-c2ccc(N)cc2)[nH+]1)c1ccccc1

$$$$
