C[C@H](NC(NC1CC=CC1)=[NH+][C@H]1CCC(=O)NC1)c1cnn(C2CC2)c1
     RDKit          3D

 55 58  0  0  1  0  0  0  0  0999 V2000
  133.0590  134.7848  162.5525 C   0  0  0  0  0  0  0  0  0  0  0  0
  131.9556  135.4138  161.6994 C   0  0  2  0  0  0  0  0  0  0  0  0
  131.0572  135.5411  162.3035 H   0  0  0  0  0  0  0  0  0  0  0  0
  131.6593  134.5392  160.5620 N   0  0  0  0  0  0  0  0  0  0  0  0
  130.3934  134.5138  160.0259 C   0  0  0  0  0  0  0  0  0  0  0  0
  130.1153  133.6931  158.9584 N   0  0  0  0  0  0  0  0  0  0  0  0
  131.1678  132.8458  158.3923 C   0  0  0  0  0  0  0  0  0  0  0  0
  130.8355  132.4468  156.9357 C   0  0  0  0  0  0  0  0  0  0  0  0
  131.3208  131.0215  156.8077 C   0  0  0  0  0  0  0  0  0  0  0  0
  131.5210  130.4860  157.9812 C   0  0  0  0  0  0  0  0  0  0  0  0
  131.2027  131.4649  159.0873 C   0  0  0  0  0  0  0  0  0  0  0  0
  129.4571  135.2678  160.5297 N   0  0  0  0  0  0  0  0  0  0  0  0
  129.6863  136.1152  160.9422 H   0  0  0  0  0  0  0  0  0  0  0  0
  128.0586  134.8352  160.4729 C   0  0  1  0  0  0  0  0  0  0  0  0
  127.7582  134.7042  159.4333 H   0  0  0  0  0  0  0  0  0  0  0  0
  127.8994  133.5086  161.2254 C   0  0  0  0  0  0  0  0  0  0  0  0
  126.4776  132.9900  160.9963 C   0  0  0  0  0  0  0  0  0  0  0  0
  125.4856  134.0872  161.2553 C   0  0  0  0  0  0  0  0  0  0  0  0
  124.3264  133.7815  161.4388 O   0  0  0  0  0  0  0  0  0  0  0  0
  125.8112  135.3798  161.2947 N   0  0  0  0  0  0  0  0  0  0  0  0
  127.1692  135.8857  161.1390 C   0  0  0  0  0  0  0  0  0  0  0  0
  132.4155  136.7569  161.1938 C   0  0  0  0  0  0  0  0  0  0  0  0
  132.2359  137.9847  161.8394 C   0  0  0  0  0  0  0  0  0  0  0  0
  132.7686  138.9195  161.0951 N   0  0  0  0  0  0  0  0  0  0  0  0
  133.3049  138.3153  159.9506 N   0  0  0  0  0  0  0  0  0  0  0  0
  133.9930  139.0028  158.8551 C   0  0  0  0  0  0  0  0  0  0  0  0
  135.5229  138.9945  158.8661 C   0  0  0  0  0  0  0  0  0  0  0  0
  134.7625  140.2806  159.1955 C   0  0  0  0  0  0  0  0  0  0  0  0
  133.0751  136.9883  160.0352 C   0  0  0  0  0  0  0  0  0  0  0  0
  133.2794  135.4354  163.3986 H   0  0  0  0  0  0  0  0  0  0  0  0
  132.7264  133.8133  162.9181 H   0  0  0  0  0  0  0  0  0  0  0  0
  133.9572  134.6575  161.9482 H   0  0  0  0  0  0  0  0  0  0  0  0
  132.3560  133.9782  160.1871 H   0  0  0  0  0  0  0  0  0  0  0  0
  129.2222  133.6751  158.5802 H   0  0  0  0  0  0  0  0  0  0  0  0
  132.1382  133.3385  158.4521 H   0  0  0  0  0  0  0  0  0  0  0  0
  129.7605  132.4987  156.7636 H   0  0  0  0  0  0  0  0  0  0  0  0
  131.3649  133.0924  156.2350 H   0  0  0  0  0  0  0  0  0  0  0  0
  131.4806  130.5125  155.8687 H   0  0  0  0  0  0  0  0  0  0  0  0
  131.8688  129.4761  158.1404 H   0  0  0  0  0  0  0  0  0  0  0  0
  131.9815  131.4430  159.8496 H   0  0  0  0  0  0  0  0  0  0  0  0
  130.2321  131.2371  159.5283 H   0  0  0  0  0  0  0  0  0  0  0  0
  128.6200  132.7833  160.8471 H   0  0  0  0  0  0  0  0  0  0  0  0
  128.0644  133.6689  162.2908 H   0  0  0  0  0  0  0  0  0  0  0  0
  126.3786  132.6479  159.9661 H   0  0  0  0  0  0  0  0  0  0  0  0
  126.2823  132.1581  161.6730 H   0  0  0  0  0  0  0  0  0  0  0  0
  125.0996  136.0238  161.4359 H   0  0  0  0  0  0  0  0  0  0  0  0
  127.5762  136.1330  162.1195 H   0  0  0  0  0  0  0  0  0  0  0  0
  127.1503  136.7848  160.5231 H   0  0  0  0  0  0  0  0  0  0  0  0
  131.7427  138.1351  162.7883 H   0  0  0  0  0  0  0  0  0  0  0  0
  133.4961  138.9576  157.8860 H   0  0  0  0  0  0  0  0  0  0  0  0
  136.0175  138.4774  159.6885 H   0  0  0  0  0  0  0  0  0  0  0  0
  136.0329  138.9438  157.9041 H   0  0  0  0  0  0  0  0  0  0  0  0
  134.7722  141.0760  158.4503 H   0  0  0  0  0  0  0  0  0  0  0  0
  134.7564  140.6100  160.2346 H   0  0  0  0  0  0  0  0  0  0  0  0
  133.3657  136.2441  159.3085 H   0  0  0  0  0  0  0  0  0  0  0  0
  1  2  1  0
  1 30  1  0
  1 31  1  0
  1 32  1  0
  2  3  1  1
  2  4  1  0
  2 22  1  0
  4 33  1  0
  5  4  1  0
  5  6  1  0
  5 12  2  0
  6  7  1  0
  6 34  1  0
  7 11  1  0
  7  8  1  0
  7 35  1  0
  8  9  1  0
  8 36  1  0
  8 37  1  0
  9 10  2  0
  9 38  1  0
 10 11  1  0
 10 39  1  0
 11 40  1  0
 11 41  1  0
 12 13  1  0
 12 14  1  0
 14 15  1  6
 14 21  1  0
 14 16  1  0
 16 17  1  0
 16 42  1  0
 16 43  1  0
 17 18  1  0
 17 44  1  0
 17 45  1  0
 18 19  2  0
 18 20  1  0
 20 21  1  0
 20 46  1  0
 21 47  1  0
 21 48  1  0
 22 29  2  0
 22 23  1  0
 23 24  2  0
 23 49  1  0
 24 25  1  0
 25 26  1  0
 25 29  1  0
 26 28  1  0
 26 27  1  0
 26 50  1  0
 27 28  1  0
 27 51  1  0
 27 52  1  0
 28 53  1  0
 28 54  1  0
 29 55  1  0
M  CHG  1  12   1
M  END
>  <DOCK_score>  (1) 
-47.590305

>  <SMILES>  (1) 
C[C@H](NC(NC1CC=CC1)=[NH+][C@H]1CCC(=O)NC1)c1cnn(C2CC2)c1

$$$$
