CC(C[NH2+][C@H]1CC1c1ccccc1)(NCc1cccc2c1NC(=O)CO2)c1ccccc1
     RDKit          3D

 62 66  0  0  1  0  0  0  0  0999 V2000
  128.8460  137.0382  159.3827 C   0  0  0  0  0  0  0  0  0  0  0  0
  129.6497  135.9123  160.0366 C   0  0  2  0  0  0  0  0  0  0  0  0
  130.8445  136.5068  160.7849 C   0  0  0  0  0  0  0  0  0  0  0  0
  131.7014  137.2348  159.8396 N   0  0  0  0  0  0  0  0  0  0  0  0
  132.0320  136.6005  159.1280 H   0  0  0  0  0  0  0  0  0  0  0  0
  131.1714  137.9773  159.4083 H   0  0  0  0  0  0  0  0  0  0  0  0
  132.8486  137.8055  160.5581 C   0  0  1  0  0  0  0  0  0  0  0  0
  132.6276  138.2238  161.5400 H   0  0  0  0  0  0  0  0  0  0  0  0
  134.2084  137.1304  160.3676 C   0  0  0  0  0  0  0  0  0  0  0  0
  133.9329  138.4925  159.7254 C   0  0  2  0  0  0  0  0  0  0  0  0
  134.6136  139.6954  160.3258 C   0  0  0  0  0  0  0  0  0  0  0  0
  135.1017  140.6948  159.5048 C   0  0  0  0  0  0  0  0  0  0  0  0
  135.7215  141.8008  160.0558 C   0  0  0  0  0  0  0  0  0  0  0  0
  135.8633  141.9020  161.4272 C   0  0  0  0  0  0  0  0  0  0  0  0
  135.3800  140.9001  162.2477 C   0  0  0  0  0  0  0  0  0  0  0  0
  134.7551  139.7968  161.6971 C   0  0  0  0  0  0  0  0  0  0  0  0
  130.1311  134.9888  159.0006 N   0  0  0  0  0  0  0  0  0  0  0  0
  129.0088  134.3975  158.2599 C   0  0  0  0  0  0  0  0  0  0  0  0
  129.5403  133.4580  157.2083 C   0  0  0  0  0  0  0  0  0  0  0  0
  129.8328  133.9292  155.9411 C   0  0  0  0  0  0  0  0  0  0  0  0
  130.3209  133.0694  154.9750 C   0  0  0  0  0  0  0  0  0  0  0  0
  130.5205  131.7320  155.2684 C   0  0  0  0  0  0  0  0  0  0  0  0
  130.2301  131.2533  156.5335 C   0  0  0  0  0  0  0  0  0  0  0  0
  129.7426  132.1217  157.5095 C   0  0  0  0  0  0  0  0  0  0  0  0
  129.4444  131.6217  158.7850 N   0  0  0  0  0  0  0  0  0  0  0  0
  129.9315  130.4138  159.1432 C   0  0  0  0  0  0  0  0  0  0  0  0
  129.6663  129.9486  160.2317 O   0  0  0  0  0  0  0  0  0  0  0  0
  130.8067  129.6464  158.1852 C   0  0  0  0  0  0  0  0  0  0  0  0
  130.4217  129.9424  156.8401 O   0  0  0  0  0  0  0  0  0  0  0  0
  128.7707  135.1654  161.0064 C   0  0  0  0  0  0  0  0  0  0  0  0
  127.4537  135.5474  161.1809 C   0  0  0  0  0  0  0  0  0  0  0  0
  126.6460  134.8590  162.0667 C   0  0  0  0  0  0  0  0  0  0  0  0
  127.1586  133.7953  162.7861 C   0  0  0  0  0  0  0  0  0  0  0  0
  128.4768  133.4170  162.6154 C   0  0  0  0  0  0  0  0  0  0  0  0
  129.2830  134.1018  161.7256 C   0  0  0  0  0  0  0  0  0  0  0  0
  127.9948  136.6147  158.8496 H   0  0  0  0  0  0  0  0  0  0  0  0
  129.4819  137.5784  158.6814 H   0  0  0  0  0  0  0  0  0  0  0  0
  128.4889  137.7234  160.1514 H   0  0  0  0  0  0  0  0  0  0  0  0
  130.4873  137.1921  161.5536 H   0  0  0  0  0  0  0  0  0  0  0  0
  131.4170  135.7047  161.2508 H   0  0  0  0  0  0  0  0  0  0  0  0
  134.8820  137.1049  161.2241 H   0  0  0  0  0  0  0  0  0  0  0  0
  134.2516  136.2628  159.7091 H   0  0  0  0  0  0  0  0  0  0  0  0
  133.7951  138.5210  158.6446 H   0  0  0  0  0  0  0  0  0  0  0  0
  134.9951  140.6135  158.4331 H   0  0  0  0  0  0  0  0  0  0  0  0
  136.0988  142.5838  159.4148 H   0  0  0  0  0  0  0  0  0  0  0  0
  136.3514  142.7639  161.8575 H   0  0  0  0  0  0  0  0  0  0  0  0
  135.4908  140.9791  163.3192 H   0  0  0  0  0  0  0  0  0  0  0  0
  134.3779  139.0139  162.3382 H   0  0  0  0  0  0  0  0  0  0  0  0
  130.7741  135.4505  158.3750 H   0  0  0  0  0  0  0  0  0  0  0  0
  128.3685  133.8468  158.9489 H   0  0  0  0  0  0  0  0  0  0  0  0
  128.4318  135.1891  157.7816 H   0  0  0  0  0  0  0  0  0  0  0  0
  129.6797  134.9722  155.7059 H   0  0  0  0  0  0  0  0  0  0  0  0
  130.5471  133.4429  153.9872 H   0  0  0  0  0  0  0  0  0  0  0  0
  130.9018  131.0630  154.5111 H   0  0  0  0  0  0  0  0  0  0  0  0
  128.9008  132.1362  159.4021 H   0  0  0  0  0  0  0  0  0  0  0  0
  130.6944  128.5777  158.3677 H   0  0  0  0  0  0  0  0  0  0  0  0
  131.8474  129.9330  158.3361 H   0  0  0  0  0  0  0  0  0  0  0  0
  127.0548  136.3812  160.6223 H   0  0  0  0  0  0  0  0  0  0  0  0
  125.6157  135.1546  162.1997 H   0  0  0  0  0  0  0  0  0  0  0  0
  126.5288  133.2601  163.4814 H   0  0  0  0  0  0  0  0  0  0  0  0
  128.8771  132.5861  163.1776 H   0  0  0  0  0  0  0  0  0  0  0  0
  130.3132  133.8061  161.5925 H   0  0  0  0  0  0  0  0  0  0  0  0
  1 36  1  0
  1 37  1  0
  1 38  1  0
  2  1  1  0
  2  3  1  0
  2 17  1  6
  2 30  1  0
  3  4  1  0
  3 39  1  0
  3 40  1  0
  4  5  1  0
  4  6  1  0
  4  7  1  0
  7  8  1  1
  7 10  1  0
  7  9  1  0
  9 10  1  0
  9 41  1  0
  9 42  1  0
 10 11  1  0
 10 43  1  6
 11 16  1  0
 11 12  2  0
 12 13  1  0
 12 44  1  0
 13 14  2  0
 13 45  1  0
 14 15  1  0
 14 46  1  0
 15 16  2  0
 15 47  1  0
 16 48  1  0
 17 18  1  0
 17 49  1  0
 18 19  1  0
 18 50  1  0
 18 51  1  0
 19 24  1  0
 19 20  2  0
 20 21  1  0
 20 52  1  0
 21 22  2  0
 21 53  1  0
 22 23  1  0
 22 54  1  0
 23 29  1  0
 23 24  2  0
 24 25  1  0
 25 26  1  0
 25 55  1  0
 26 27  2  0
 26 28  1  0
 28 29  1  0
 28 56  1  0
 28 57  1  0
 30 35  1  0
 30 31  2  0
 31 32  1  0
 31 58  1  0
 32 33  2  0
 32 59  1  0
 33 34  1  0
 33 60  1  0
 34 35  2  0
 34 61  1  0
 35 62  1  0
M  CHG  1   4   1
M  END
>  <DOCK_score>  (1) 
-62.916756

>  <SMILES>  (1) 
CC(C[NH2+][C@H]1CC1c1ccccc1)(NCc1cccc2c1NC(=O)CO2)c1ccccc1

$$$$
