CCC=CSc1ccc([C@H](Nc2[nH]cc(-c3cccnc3)[nH+]2)c2ccccc2)cc1
     RDKit          3D

 55 58  0  0  1  0  0  0  0  0999 V2000
  127.4588  143.0861  165.4247 C   0  0  0  0  0  0  0  0  0  0  0  0
  128.0135  141.6678  165.2787 C   0  0  0  0  0  0  0  0  0  0  0  0
  128.5989  141.4967  163.9007 C   0  0  0  0  0  0  0  0  0  0  0  0
  129.8711  141.7791  163.6836 C   0  0  0  0  0  0  0  0  0  0  0  0
  130.5559  141.5791  162.0720 S   0  0  0  0  0  0  0  0  0  0  0  0
  130.3145  139.8638  161.7500 C   0  0  0  0  0  0  0  0  0  0  0  0
  130.8907  138.9110  162.5816 C   0  0  0  0  0  0  0  0  0  0  0  0
  130.6997  137.5677  162.3259 C   0  0  0  0  0  0  0  0  0  0  0  0
  129.9364  137.1698  161.2434 C   0  0  0  0  0  0  0  0  0  0  0  0
  129.7304  135.7026  160.9676 C   0  0  2  0  0  0  0  0  0  0  0  0
  130.2542  135.1142  161.7209 H   0  0  0  0  0  0  0  0  0  0  0  0
  130.2573  135.3766  159.6400 N   0  0  0  0  0  0  0  0  0  0  0  0
  130.1799  134.0789  159.1641 C   0  0  0  0  0  0  0  0  0  0  0  0
  129.6406  133.0213  159.8296 N   0  0  0  0  0  0  0  0  0  0  0  0
  129.2449  133.0409  160.7150 H   0  0  0  0  0  0  0  0  0  0  0  0
  129.7604  131.9208  159.0161 C   0  0  0  0  0  0  0  0  0  0  0  0
  130.3689  132.3371  157.8780 C   0  0  0  0  0  0  0  0  0  0  0  0
  130.7068  131.4895  156.7085 C   0  0  0  0  0  0  0  0  0  0  0  0
  130.1679  131.7688  155.4492 C   0  0  0  0  0  0  0  0  0  0  0  0
  130.5189  130.9515  154.3890 C   0  0  0  0  0  0  0  0  0  0  0  0
  131.3746  129.8872  154.6096 C   0  0  0  0  0  0  0  0  0  0  0  0
  131.8633  129.6451  155.8104 N   0  0  0  0  0  0  0  0  0  0  0  0
  131.5621  130.3984  156.8485 C   0  0  0  0  0  0  0  0  0  0  0  0
  130.6141  133.6661  157.9984 N   0  0  0  0  0  0  0  0  0  0  0  0
  131.0390  134.2227  157.3271 H   0  0  0  0  0  0  0  0  0  0  0  0
  128.2582  135.3843  161.0158 C   0  0  0  0  0  0  0  0  0  0  0  0
  127.6726  135.0004  162.2077 C   0  0  0  0  0  0  0  0  0  0  0  0
  126.3214  134.7125  162.2528 C   0  0  0  0  0  0  0  0  0  0  0  0
  125.5574  134.8001  161.1040 C   0  0  0  0  0  0  0  0  0  0  0  0
  126.1439  135.1790  159.9111 C   0  0  0  0  0  0  0  0  0  0  0  0
  127.4943  135.4709  159.8669 C   0  0  0  0  0  0  0  0  0  0  0  0
  129.3664  138.1150  160.4101 C   0  0  0  0  0  0  0  0  0  0  0  0
  129.5490  139.4602  160.6626 C   0  0  0  0  0  0  0  0  0  0  0  0
  128.2630  143.8075  165.2794 H   0  0  0  0  0  0  0  0  0  0  0  0
  126.6828  143.2516  164.6773 H   0  0  0  0  0  0  0  0  0  0  0  0
  127.0353  143.2099  166.4216 H   0  0  0  0  0  0  0  0  0  0  0  0
  127.2094  140.9464  165.4240 H   0  0  0  0  0  0  0  0  0  0  0  0
  128.7895  141.5023  166.0262 H   0  0  0  0  0  0  0  0  0  0  0  0
  127.9783  141.1433  163.0905 H   0  0  0  0  0  0  0  0  0  0  0  0
  130.4916  142.1325  164.4939 H   0  0  0  0  0  0  0  0  0  0  0  0
  131.4869  139.2210  163.4272 H   0  0  0  0  0  0  0  0  0  0  0  0
  131.1468  136.8267  162.9722 H   0  0  0  0  0  0  0  0  0  0  0  0
  130.6603  136.0700  159.0945 H   0  0  0  0  0  0  0  0  0  0  0  0
  129.4326  130.9164  159.2401 H   0  0  0  0  0  0  0  0  0  0  0  0
  129.4981  132.6040  155.3064 H   0  0  0  0  0  0  0  0  0  0  0  0
  130.1256  131.1398  153.4010 H   0  0  0  0  0  0  0  0  0  0  0  0
  131.6471  129.2447  153.7854 H   0  0  0  0  0  0  0  0  0  0  0  0
  131.9821  130.1683  157.8164 H   0  0  0  0  0  0  0  0  0  0  0  0
  128.2704  134.9284  163.1044 H   0  0  0  0  0  0  0  0  0  0  0  0
  125.8630  134.4169  163.1849 H   0  0  0  0  0  0  0  0  0  0  0  0
  124.5021  134.5727  161.1387 H   0  0  0  0  0  0  0  0  0  0  0  0
  125.5470  135.2473  159.0136 H   0  0  0  0  0  0  0  0  0  0  0  0
  127.9525  135.7669  158.9348 H   0  0  0  0  0  0  0  0  0  0  0  0
  128.7746  137.8007  159.5631 H   0  0  0  0  0  0  0  0  0  0  0  0
  129.1000  140.1978  160.0141 H   0  0  0  0  0  0  0  0  0  0  0  0
  1  2  1  0
  1 34  1  0
  1 35  1  0
  1 36  1  0
  2  3  1  0
  2 37  1  0
  2 38  1  0
  3  4  2  0
  3 39  1  0
  4  5  1  0
  4 40  1  0
  5  6  1  0
  6 33  2  0
  6  7  1  0
  7  8  2  0
  7 41  1  0
  8  9  1  0
  8 42  1  0
  9 10  1  0
  9 32  2  0
 10 11  1  1
 10 12  1  0
 10 26  1  0
 12 43  1  0
 13 12  1  0
 13 24  2  0
 13 14  1  0
 14 15  1  0
 14 16  1  0
 16 17  2  0
 16 44  1  0
 17 18  1  0
 17 24  1  0
 18 23  1  0
 18 19  2  0
 19 20  1  0
 19 45  1  0
 20 21  2  0
 20 46  1  0
 21 22  1  0
 21 47  1  0
 22 23  2  0
 23 48  1  0
 24 25  1  0
 26 31  1  0
 26 27  2  0
 27 28  1  0
 27 49  1  0
 28 29  2  0
 28 50  1  0
 29 30  1  0
 29 51  1  0
 30 31  2  0
 30 52  1  0
 31 53  1  0
 32 33  1  0
 32 54  1  0
 33 55  1  0
M  CHG  1  24   1
M  END
>  <DOCK_score>  (1) 
-55.925053

>  <SMILES>  (1) 
CCC=CSc1ccc([C@H](Nc2[nH]cc(-c3cccnc3)[nH+]2)c2ccccc2)cc1

$$$$
