CNc1ccc(Nc2[nH]cc(-c3ccccc3)[nH+]2)cn1
     RDKit          3D

 36 38  0  0  1  0  0  0  0  0999 V2000
  126.7705  136.2453  164.2077 C   0  0  0  0  0  0  0  0  0  0  0  0
  126.5003  136.4995  162.7905 N   0  0  0  0  0  0  0  0  0  0  0  0
  127.4361  136.1324  161.8265 C   0  0  0  0  0  0  0  0  0  0  0  0
  128.6296  135.5352  162.2188 C   0  0  0  0  0  0  0  0  0  0  0  0
  129.5498  135.1703  161.2537 C   0  0  0  0  0  0  0  0  0  0  0  0
  129.2471  135.4266  159.9170 C   0  0  0  0  0  0  0  0  0  0  0  0
  130.1525  135.0791  158.9057 N   0  0  0  0  0  0  0  0  0  0  0  0
  130.0847  133.8280  158.3156 C   0  0  0  0  0  0  0  0  0  0  0  0
  129.6473  132.6891  158.9194 N   0  0  0  0  0  0  0  0  0  0  0  0
  129.3295  132.6084  159.8322 H   0  0  0  0  0  0  0  0  0  0  0  0
  129.7386  131.6754  157.9973 C   0  0  0  0  0  0  0  0  0  0  0  0
  130.2287  132.2231  156.8573 C   0  0  0  0  0  0  0  0  0  0  0  0
  130.4960  131.5037  155.5880 C   0  0  0  0  0  0  0  0  0  0  0  0
  129.8355  131.8782  154.4193 C   0  0  0  0  0  0  0  0  0  0  0  0
  130.0920  131.2086  153.2400 C   0  0  0  0  0  0  0  0  0  0  0  0
  130.9940  130.1606  153.2188 C   0  0  0  0  0  0  0  0  0  0  0  0
  131.6489  129.7808  154.3772 C   0  0  0  0  0  0  0  0  0  0  0  0
  131.4045  130.4470  155.5609 C   0  0  0  0  0  0  0  0  0  0  0  0
  130.4259  133.5463  157.0816 N   0  0  0  0  0  0  0  0  0  0  0  0
  130.7669  134.1820  156.4332 H   0  0  0  0  0  0  0  0  0  0  0  0
  128.0397  136.0300  159.6007 C   0  0  0  0  0  0  0  0  0  0  0  0
  127.1822  136.3607  160.5479 N   0  0  0  0  0  0  0  0  0  0  0  0
  125.9286  136.5935  164.8062 H   0  0  0  0  0  0  0  0  0  0  0  0
  126.9102  135.1758  164.3647 H   0  0  0  0  0  0  0  0  0  0  0  0
  127.6736  136.7775  164.5066 H   0  0  0  0  0  0  0  0  0  0  0  0
  125.6680  136.9199  162.5231 H   0  0  0  0  0  0  0  0  0  0  0  0
  128.8332  135.3555  163.2641 H   0  0  0  0  0  0  0  0  0  0  0  0
  130.4828  134.7011  161.5289 H   0  0  0  0  0  0  0  0  0  0  0  0
  130.8267  135.7148  158.6188 H   0  0  0  0  0  0  0  0  0  0  0  0
  129.4711  130.6404  158.1503 H   0  0  0  0  0  0  0  0  0  0  0  0
  129.1274  132.6935  154.4353 H   0  0  0  0  0  0  0  0  0  0  0  0
  129.5841  131.5006  152.3329 H   0  0  0  0  0  0  0  0  0  0  0  0
  131.1883  129.6366  152.2947 H   0  0  0  0  0  0  0  0  0  0  0  0
  132.3529  128.9622  154.3549 H   0  0  0  0  0  0  0  0  0  0  0  0
  131.9163  130.1502  156.4644 H   0  0  0  0  0  0  0  0  0  0  0  0
  127.7982  136.2322  158.5677 H   0  0  0  0  0  0  0  0  0  0  0  0
  1  2  1  0
  1 23  1  0
  1 24  1  0
  1 25  1  0
  2  3  1  0
  2 26  1  0
  3 22  2  0
  3  4  1  0
  4  5  2  0
  4 27  1  0
  5  6  1  0
  5 28  1  0
  6  7  1  0
  6 21  2  0
  7 29  1  0
  8  7  1  0
  8 19  2  0
  8  9  1  0
  9 10  1  0
  9 11  1  0
 11 12  2  0
 11 30  1  0
 12 13  1  0
 12 19  1  0
 13 18  1  0
 13 14  2  0
 14 15  1  0
 14 31  1  0
 15 16  2  0
 15 32  1  0
 16 17  1  0
 16 33  1  0
 17 18  2  0
 17 34  1  0
 18 35  1  0
 19 20  1  0
 21 22  1  0
 21 36  1  0
M  CHG  1  19   1
M  END
>  <DOCK_score>  (1) 
-48.531055

>  <SMILES>  (1) 
CNc1ccc(Nc2[nH]cc(-c3ccccc3)[nH+]2)cn1

$$$$
