CCc1ccc(-c2c[nH]c(N[C@@H](/C=C/C(=O)OCC3CC=CC3)c3ccccc3)[nH+]2)cc1
     RDKit          3D

 62 65  0  0  1  0  0  0  0  0999 V2000
  129.6773  128.7328  151.0779 C   0  0  0  0  0  0  0  0  0  0  0  0
  130.9056  129.5958  151.3733 C   0  0  0  0  0  0  0  0  0  0  0  0
  130.7121  130.3141  152.6838 C   0  0  0  0  0  0  0  0  0  0  0  0
  131.1308  129.7215  153.8621 C   0  0  0  0  0  0  0  0  0  0  0  0
  130.9556  130.3739  155.0656 C   0  0  0  0  0  0  0  0  0  0  0  0
  130.3559  131.6317  155.0926 C   0  0  0  0  0  0  0  0  0  0  0  0
  130.1649  132.3379  156.3829 C   0  0  0  0  0  0  0  0  0  0  0  0
  129.4383  131.8912  157.4372 C   0  0  0  0  0  0  0  0  0  0  0  0
  129.5282  132.8491  158.4177 N   0  0  0  0  0  0  0  0  0  0  0  0
  129.1129  132.8153  159.2937 H   0  0  0  0  0  0  0  0  0  0  0  0
  130.3077  133.8541  157.9335 C   0  0  0  0  0  0  0  0  0  0  0  0
  130.6446  135.0122  158.6131 N   0  0  0  0  0  0  0  0  0  0  0  0
  130.1501  135.2328  159.9742 C   0  0  1  0  0  0  0  0  0  0  0  0
  130.5057  134.4332  160.6242 H   0  0  0  0  0  0  0  0  0  0  0  0
  130.6567  136.5574  160.4843 C   0  0  0  0  0  0  0  0  0  0  0  0
  130.8723  136.7307  161.7861 C   0  0  0  0  0  0  0  0  0  0  0  0
  131.3661  138.0224  162.2833 C   0  0  0  0  0  0  0  0  0  0  0  0
  131.5777  138.9322  161.5058 O   0  0  0  0  0  0  0  0  0  0  0  0
  131.5848  138.1979  163.6018 O   0  0  0  0  0  0  0  0  0  0  0  0
  132.0728  139.4994  164.0215 C   0  0  0  0  0  0  0  0  0  0  0  0
  133.6028  139.5002  164.0044 C   0  0  0  0  0  0  0  0  0  0  0  0
  134.1704  138.5706  165.1021 C   0  0  0  0  0  0  0  0  0  0  0  0
  135.3983  139.2867  165.6146 C   0  0  0  0  0  0  0  0  0  0  0  0
  135.3937  140.5421  165.2571 C   0  0  0  0  0  0  0  0  0  0  0  0
  134.1622  140.8724  164.4464 C   0  0  0  0  0  0  0  0  0  0  0  0
  128.6432  135.2408  159.9661 C   0  0  0  0  0  0  0  0  0  0  0  0
  127.9436  134.8118  161.0785 C   0  0  0  0  0  0  0  0  0  0  0  0
  126.5613  134.8227  161.0725 C   0  0  0  0  0  0  0  0  0  0  0  0
  125.8784  135.2551  159.9509 C   0  0  0  0  0  0  0  0  0  0  0  0
  126.5780  135.6793  158.8366 C   0  0  0  0  0  0  0  0  0  0  0  0
  127.9602  135.6719  158.8441 C   0  0  0  0  0  0  0  0  0  0  0  0
  130.6824  133.5472  156.7155 N   0  0  0  0  0  0  0  0  0  0  0  0
  131.2417  134.0962  156.1440 H   0  0  0  0  0  0  0  0  0  0  0  0
  129.9312  132.2211  153.9031 C   0  0  0  0  0  0  0  0  0  0  0  0
  130.1165  131.5618  152.7049 C   0  0  0  0  0  0  0  0  0  0  0  0
  129.8173  128.2137  150.1297 H   0  0  0  0  0  0  0  0  0  0  0  0
  129.5463  128.0022  151.8762 H   0  0  0  0  0  0  0  0  0  0  0  0
  128.7933  129.3675  151.0175 H   0  0  0  0  0  0  0  0  0  0  0  0
  131.0367  130.3264  150.5749 H   0  0  0  0  0  0  0  0  0  0  0  0
  131.7897  128.9611  151.4336 H   0  0  0  0  0  0  0  0  0  0  0  0
  131.5955  128.7469  153.8401 H   0  0  0  0  0  0  0  0  0  0  0  0
  131.2829  129.9108  155.9847 H   0  0  0  0  0  0  0  0  0  0  0  0
  128.8930  130.9609  157.4947 H   0  0  0  0  0  0  0  0  0  0  0  0
  131.2082  135.6774  158.1880 H   0  0  0  0  0  0  0  0  0  0  0  0
  130.8446  137.3660  159.7934 H   0  0  0  0  0  0  0  0  0  0  0  0
  130.6843  135.9223  162.4769 H   0  0  0  0  0  0  0  0  0  0  0  0
  131.7015  140.2640  163.3392 H   0  0  0  0  0  0  0  0  0  0  0  0
  131.7206  139.7114  165.0310 H   0  0  0  0  0  0  0  0  0  0  0  0
  133.9811  139.2219  163.0210 H   0  0  0  0  0  0  0  0  0  0  0  0
  133.4436  138.4418  165.9040 H   0  0  0  0  0  0  0  0  0  0  0  0
  134.4440  137.6046  164.6774 H   0  0  0  0  0  0  0  0  0  0  0  0
  136.1776  138.8210  166.1997 H   0  0  0  0  0  0  0  0  0  0  0  0
  136.1687  141.2514  165.5075 H   0  0  0  0  0  0  0  0  0  0  0  0
  134.4297  141.4715  163.5761 H   0  0  0  0  0  0  0  0  0  0  0  0
  133.4329  141.3995  165.0616 H   0  0  0  0  0  0  0  0  0  0  0  0
  128.4769  134.4708  161.9535 H   0  0  0  0  0  0  0  0  0  0  0  0
  126.0147  134.4910  161.9429 H   0  0  0  0  0  0  0  0  0  0  0  0
  124.7985  135.2612  159.9452 H   0  0  0  0  0  0  0  0  0  0  0  0
  126.0445  136.0167  157.9601 H   0  0  0  0  0  0  0  0  0  0  0  0
  128.5068  136.0031  157.9735 H   0  0  0  0  0  0  0  0  0  0  0  0
  129.4614  133.1934  153.9187 H   0  0  0  0  0  0  0  0  0  0  0  0
  129.7918  132.0196  151.7820 H   0  0  0  0  0  0  0  0  0  0  0  0
  1  2  1  0
  1 36  1  0
  1 37  1  0
  1 38  1  0
  2  3  1  0
  2 39  1  0
  2 40  1  0
  3 35  2  0
  3  4  1  0
  4  5  2  0
  4 41  1  0
  5  6  1  0
  5 42  1  0
  6  7  1  0
  6 34  2  0
  7 32  1  0
  7  8  2  0
  8  9  1  0
  8 43  1  0
  9 10  1  0
  9 11  1  0
 11 12  1  0
 11 32  2  0
 12 13  1  0
 12 44  1  0
 13 14  1  1
 13 15  1  0
 13 26  1  0
 15 16  2  0
 15 45  1  0
 16 17  1  0
 16 46  1  0
 17 18  2  0
 17 19  1  0
 19 20  1  0
 20 21  1  0
 20 47  1  0
 20 48  1  0
 21 25  1  0
 21 22  1  0
 21 49  1  0
 22 23  1  0
 22 50  1  0
 22 51  1  0
 23 24  2  0
 23 52  1  0
 24 25  1  0
 24 53  1  0
 25 54  1  0
 25 55  1  0
 26 31  1  0
 26 27  2  0
 27 28  1  0
 27 56  1  0
 28 29  2  0
 28 57  1  0
 29 30  1  0
 29 58  1  0
 30 31  2  0
 30 59  1  0
 31 60  1  0
 32 33  1  0
 34 35  1  0
 34 61  1  0
 35 62  1  0
M  CHG  1  32   1
M  END
>  <DOCK_score>  (1) 
-60.610283

>  <SMILES>  (1) 
CCc1ccc(-c2c[nH]c(N[C@@H](/C=C/C(=O)OCC3CC=CC3)c3ccccc3)[nH+]2)cc1

$$$$
