Oc1ccc2c(c1)C(N[C@H]1CNCC[NH2+]C1)c1ccccc1-2
     RDKit          3D

 44 47  0  0  1  0  0  0  0  0999 V2000
  123.7870  134.8663  161.2041 O   0  0  0  0  0  0  0  0  0  0  0  0
  124.8135  134.2773  160.5367 C   0  0  0  0  0  0  0  0  0  0  0  0
  124.7110  132.9523  160.1346 C   0  0  0  0  0  0  0  0  0  0  0  0
  125.7528  132.3480  159.4575 C   0  0  0  0  0  0  0  0  0  0  0  0
  126.9120  133.0729  159.1717 C   0  0  0  0  0  0  0  0  0  0  0  0
  127.0058  134.4029  159.5787 C   0  0  0  0  0  0  0  0  0  0  0  0
  125.9652  135.0003  160.2560 C   0  0  0  0  0  0  0  0  0  0  0  0
  128.3542  134.9174  159.1372 C   0  0  1  0  0  0  0  0  0  0  0  0
  129.1431  135.3348  160.3040 N   0  0  0  0  0  0  0  0  0  0  0  0
  130.2215  136.2511  159.9098 C   0  0  1  0  0  0  0  0  0  0  0  0
  130.6545  135.9032  158.9718 H   0  0  0  0  0  0  0  0  0  0  0  0
  129.6596  137.5827  159.7062 C   0  0  0  0  0  0  0  0  0  0  0  0
  130.6971  138.5532  159.2731 N   0  0  0  0  0  0  0  0  0  0  0  0
  131.4766  138.9807  160.4087 C   0  0  0  0  0  0  0  0  0  0  0  0
  132.7570  138.1506  160.6119 C   0  0  0  0  0  0  0  0  0  0  0  0
  132.5432  136.6984  160.4123 N   0  0  0  0  0  0  0  0  0  0  0  0
  133.3123  136.1953  160.8287 H   0  0  0  0  0  0  0  0  0  0  0  0
  132.5262  136.5060  159.4220 H   0  0  0  0  0  0  0  0  0  0  0  0
  131.3107  136.2340  160.9985 C   0  0  0  0  0  0  0  0  0  0  0  0
  129.0324  133.7660  158.4362 C   0  0  0  0  0  0  0  0  0  0  0  0
  130.2656  133.6475  157.8317 C   0  0  0  0  0  0  0  0  0  0  0  0
  130.6410  132.4476  157.2530 C   0  0  0  0  0  0  0  0  0  0  0  0
  129.7803  131.3654  157.2799 C   0  0  0  0  0  0  0  0  0  0  0  0
  128.5442  131.4750  157.8828 C   0  0  0  0  0  0  0  0  0  0  0  0
  128.1588  132.6821  158.4684 C   0  0  0  0  0  0  0  0  0  0  0  0
  123.9506  135.7893  161.4419 H   0  0  0  0  0  0  0  0  0  0  0  0
  123.8147  132.3909  160.3535 H   0  0  0  0  0  0  0  0  0  0  0  0
  125.6702  131.3172  159.1458 H   0  0  0  0  0  0  0  0  0  0  0  0
  126.0452  136.0312  160.5683 H   0  0  0  0  0  0  0  0  0  0  0  0
  128.2297  135.7543  158.4499 H   0  0  0  0  0  0  0  0  0  0  0  0
  129.5104  134.5348  160.7969 H   0  0  0  0  0  0  0  0  0  0  0  0
  129.2163  137.9285  160.6400 H   0  0  0  0  0  0  0  0  0  0  0  0
  128.8834  137.5274  158.9430 H   0  0  0  0  0  0  0  0  0  0  0  0
  131.2878  138.1561  158.5580 H   0  0  0  0  0  0  0  0  0  0  0  0
  131.7549  140.0253  160.2693 H   0  0  0  0  0  0  0  0  0  0  0  0
  130.8618  138.9013  161.3053 H   0  0  0  0  0  0  0  0  0  0  0  0
  133.1247  138.3150  161.6248 H   0  0  0  0  0  0  0  0  0  0  0  0
  133.5135  138.4941  159.9064 H   0  0  0  0  0  0  0  0  0  0  0  0
  131.0220  136.8928  161.8175 H   0  0  0  0  0  0  0  0  0  0  0  0
  131.4408  135.2183  161.3723 H   0  0  0  0  0  0  0  0  0  0  0  0
  130.9394  134.4913  157.8099 H   0  0  0  0  0  0  0  0  0  0  0  0
  131.6073  132.3564  156.7795 H   0  0  0  0  0  0  0  0  0  0  0  0
  130.0768  130.4309  156.8269 H   0  0  0  0  0  0  0  0  0  0  0  0
  127.8750  130.6275  157.9012 H   0  0  0  0  0  0  0  0  0  0  0  0
  1  2  1  0
  1 26  1  0
  2  7  2  0
  2  3  1  0
  3  4  2  0
  3 27  1  0
  4  5  1  0
  4 28  1  0
  5 25  1  0
  5  6  2  0
  6  7  1  0
  6  8  1  0
  7 29  1  0
  8  9  1  0
  8 20  1  0
  8 30  1  6
  9 10  1  0
  9 31  1  0
 10 11  1  6
 10 19  1  0
 10 12  1  0
 12 13  1  0
 12 32  1  0
 12 33  1  0
 13 14  1  0
 13 34  1  0
 14 15  1  0
 14 35  1  0
 14 36  1  0
 15 16  1  0
 15 37  1  0
 15 38  1  0
 16 17  1  0
 16 18  1  0
 16 19  1  0
 19 39  1  0
 19 40  1  0
 20 25  2  0
 20 21  1  0
 21 22  2  0
 21 41  1  0
 22 23  1  0
 22 42  1  0
 23 24  2  0
 23 43  1  0
 24 25  1  0
 24 44  1  0
M  CHG  1  16   1
M  END
>  <DOCK_score>  (1) 
-43.004295

>  <SMILES>  (1) 
Oc1ccc2c(c1)C(N[C@H]1CNCC[NH2+]C1)c1ccccc1-2

$$$$
