ClCCCC=Cc1c[nH]c(NC(c2ccccc2)c2ccccc2)[nH+]1
     RDKit          3D

 48 50  0  0  1  0  0  0  0  0999 V2000
  130.8922  128.2726  152.4134 Cl  0  0  0  0  0  0  0  0  0  0  0  0
  130.6202  129.9483  151.8060 C   0  0  0  0  0  0  0  0  0  0  0  0
  130.2673  130.8650  152.9789 C   0  0  0  0  0  0  0  0  0  0  0  0
  131.4178  130.8687  153.9875 C   0  0  0  0  0  0  0  0  0  0  0  0
  131.0701  131.7718  155.1428 C   0  0  0  0  0  0  0  0  0  0  0  0
  130.4381  131.2815  156.2009 C   0  0  0  0  0  0  0  0  0  0  0  0
  130.0973  132.1668  157.3335 C   0  0  0  0  0  0  0  0  0  0  0  0
  129.4553  131.7977  158.4723 C   0  0  0  0  0  0  0  0  0  0  0  0
  129.3503  132.9227  159.2524 N   0  0  0  0  0  0  0  0  0  0  0  0
  128.9415  132.9766  160.1304 H   0  0  0  0  0  0  0  0  0  0  0  0
  129.9223  133.9493  158.5656 C   0  0  0  0  0  0  0  0  0  0  0  0
  130.0197  135.2580  159.0058 N   0  0  0  0  0  0  0  0  0  0  0  0
  128.9993  135.8070  159.9023 C   0  0  0  0  0  0  0  0  0  0  0  0
  129.3360  137.2391  160.2296 C   0  0  0  0  0  0  0  0  0  0  0  0
  128.9550  137.7784  161.4441 C   0  0  0  0  0  0  0  0  0  0  0  0
  129.2680  139.0903  161.7464 C   0  0  0  0  0  0  0  0  0  0  0  0
  129.9528  139.8663  160.8299 C   0  0  0  0  0  0  0  0  0  0  0  0
  130.3293  139.3286  159.6133 C   0  0  0  0  0  0  0  0  0  0  0  0
  130.0207  138.0149  159.3132 C   0  0  0  0  0  0  0  0  0  0  0  0
  127.6534  135.7494  159.2266 C   0  0  0  0  0  0  0  0  0  0  0  0
  126.5064  135.5984  159.9832 C   0  0  0  0  0  0  0  0  0  0  0  0
  125.2713  135.5503  159.3639 C   0  0  0  0  0  0  0  0  0  0  0  0
  125.1844  135.6429  157.9873 C   0  0  0  0  0  0  0  0  0  0  0  0
  126.3320  135.7887  157.2305 C   0  0  0  0  0  0  0  0  0  0  0  0
  127.5664  135.8419  157.8502 C   0  0  0  0  0  0  0  0  0  0  0  0
  130.3705  133.4941  157.4214 N   0  0  0  0  0  0  0  0  0  0  0  0
  130.8254  134.0209  156.7457 H   0  0  0  0  0  0  0  0  0  0  0  0
  129.8006  129.9456  151.0875 H   0  0  0  0  0  0  0  0  0  0  0  0
  131.5268  130.3108  151.3215 H   0  0  0  0  0  0  0  0  0  0  0  0
  129.3607  130.5026  153.4633 H   0  0  0  0  0  0  0  0  0  0  0  0
  130.1030  131.8780  152.6116 H   0  0  0  0  0  0  0  0  0  0  0  0
  132.3244  131.2311  153.5031 H   0  0  0  0  0  0  0  0  0  0  0  0
  131.5822  129.8557  154.3548 H   0  0  0  0  0  0  0  0  0  0  0  0
  131.3356  132.8181  155.1092 H   0  0  0  0  0  0  0  0  0  0  0  0
  130.1726  130.2352  156.2345 H   0  0  0  0  0  0  0  0  0  0  0  0
  129.0997  130.8082  158.7188 H   0  0  0  0  0  0  0  0  0  0  0  0
  130.7613  135.8128  158.7176 H   0  0  0  0  0  0  0  0  0  0  0  0
  128.9700  135.2216  160.8212 H   0  0  0  0  0  0  0  0  0  0  0  0
  128.4160  137.1734  162.1582 H   0  0  0  0  0  0  0  0  0  0  0  0
  128.9736  139.5106  162.6967 H   0  0  0  0  0  0  0  0  0  0  0  0
  130.1934  140.8928  161.0643 H   0  0  0  0  0  0  0  0  0  0  0  0
  130.8640  139.9348  158.8972 H   0  0  0  0  0  0  0  0  0  0  0  0
  130.3146  137.5949  158.3626 H   0  0  0  0  0  0  0  0  0  0  0  0
  126.5746  135.5216  161.0582 H   0  0  0  0  0  0  0  0  0  0  0  0
  124.3749  135.4361  159.9550 H   0  0  0  0  0  0  0  0  0  0  0  0
  124.2199  135.6009  157.5031 H   0  0  0  0  0  0  0  0  0  0  0  0
  126.2640  135.8606  156.1550 H   0  0  0  0  0  0  0  0  0  0  0  0
  128.4631  135.9555  157.2588 H   0  0  0  0  0  0  0  0  0  0  0  0
  1  2  1  0
  2  3  1  0
  2 28  1  0
  2 29  1  0
  3  4  1  0
  3 30  1  0
  3 31  1  0
  4  5  1  0
  4 32  1  0
  4 33  1  0
  5  6  2  0
  5 34  1  0
  6  7  1  0
  6 35  1  0
  7 26  1  0
  7  8  2  0
  8  9  1  0
  8 36  1  0
  9 10  1  0
  9 11  1  0
 11 12  1  0
 11 26  2  0
 12 13  1  0
 12 37  1  0
 13 14  1  0
 13 20  1  0
 13 38  1  0
 14 19  1  0
 14 15  2  0
 15 16  1  0
 15 39  1  0
 16 17  2  0
 16 40  1  0
 17 18  1  0
 17 41  1  0
 18 19  2  0
 18 42  1  0
 19 43  1  0
 20 25  1  0
 20 21  2  0
 21 22  1  0
 21 44  1  0
 22 23  2  0
 22 45  1  0
 23 24  1  0
 23 46  1  0
 24 25  2  0
 24 47  1  0
 25 48  1  0
 26 27  1  0
M  CHG  1  26   1
M  END
>  <DOCK_score>  (1) 
-61.160847

>  <SMILES>  (1) 
ClCCCC=Cc1c[nH]c(NC(c2ccccc2)c2ccccc2)[nH+]1

$$$$
