FC(F)[C@H](Cc1ccc(Cl)cc1)N1CC[NH+](Cc2cccc3cccnc23)CC1
     RDKit          3D

 54 57  0  0  1  0  0  0  0  0999 V2000
  131.5137  130.2886  158.1143 F   0  0  0  0  0  0  0  0  0  0  0  0
  130.1609  130.4863  157.8180 C   0  0  0  0  0  0  0  0  0  0  0  0
  129.4116  130.4280  158.9980 F   0  0  0  0  0  0  0  0  0  0  0  0
  129.9770  131.8574  157.1644 C   0  0  2  0  0  0  0  0  0  0  0  0
  129.0322  131.8773  156.6213 H   0  0  0  0  0  0  0  0  0  0  0  0
  131.1295  132.1177  156.1923 C   0  0  0  0  0  0  0  0  0  0  0  0
  130.8679  131.3928  154.8974 C   0  0  0  0  0  0  0  0  0  0  0  0
  131.3214  130.0982  154.7265 C   0  0  0  0  0  0  0  0  0  0  0  0
  131.0868  129.4347  153.5369 C   0  0  0  0  0  0  0  0  0  0  0  0
  130.3883  130.0627  152.5211 C   0  0  0  0  0  0  0  0  0  0  0  0
  130.0881  129.2280  151.0289 Cl  0  0  0  0  0  0  0  0  0  0  0  0
  129.9344  131.3583  152.6928 C   0  0  0  0  0  0  0  0  0  0  0  0
  130.1741  132.0226  153.8809 C   0  0  0  0  0  0  0  0  0  0  0  0
  129.9674  132.8972  158.2021 N   0  0  0  0  0  0  0  0  0  0  0  0
  129.2595  134.0985  157.7373 C   0  0  0  0  0  0  0  0  0  0  0  0
  129.2201  135.1320  158.8652 C   0  0  0  0  0  0  0  0  0  0  0  0
  130.5918  135.4744  159.2639 N   0  0  0  0  0  0  0  0  0  0  0  0
  131.0893  135.8479  158.4696 H   0  0  0  0  0  0  0  0  0  0  0  0
  130.5537  136.4799  160.3341 C   0  0  0  0  0  0  0  0  0  0  0  0
  131.8833  137.1853  160.4083 C   0  0  0  0  0  0  0  0  0  0  0  0
  132.1003  138.3125  159.6770 C   0  0  0  0  0  0  0  0  0  0  0  0
  133.3218  138.9805  159.7313 C   0  0  0  0  0  0  0  0  0  0  0  0
  134.3340  138.5230  160.5188 C   0  0  0  0  0  0  0  0  0  0  0  0
  134.1456  137.3628  161.2865 C   0  0  0  0  0  0  0  0  0  0  0  0
  135.1664  136.8570  162.1135 C   0  0  0  0  0  0  0  0  0  0  0  0
  134.9051  135.7344  162.8463 C   0  0  0  0  0  0  0  0  0  0  0  0
  133.6616  135.1134  162.7476 C   0  0  0  0  0  0  0  0  0  0  0  0
  132.7154  135.5837  161.9720 N   0  0  0  0  0  0  0  0  0  0  0  0
  132.9019  136.6850  161.2374 C   0  0  0  0  0  0  0  0  0  0  0  0
  131.2778  134.2695  159.7486 C   0  0  0  0  0  0  0  0  0  0  0  0
  131.3343  133.2288  158.6281 C   0  0  0  0  0  0  0  0  0  0  0  0
  129.8215  129.7090  157.1334 H   0  0  0  0  0  0  0  0  0  0  0  0
  132.0612  131.7576  156.6287 H   0  0  0  0  0  0  0  0  0  0  0  0
  131.2081  133.1878  156.0002 H   0  0  0  0  0  0  0  0  0  0  0  0
  131.8630  129.6065  155.5210 H   0  0  0  0  0  0  0  0  0  0  0  0
  131.4453  128.4249  153.4018 H   0  0  0  0  0  0  0  0  0  0  0  0
  129.3931  131.8508  151.8985 H   0  0  0  0  0  0  0  0  0  0  0  0
  129.8198  133.0339  154.0151 H   0  0  0  0  0  0  0  0  0  0  0  0
  129.7814  134.5183  156.8774 H   0  0  0  0  0  0  0  0  0  0  0  0
  128.2416  133.8331  157.4515 H   0  0  0  0  0  0  0  0  0  0  0  0
  128.6862  134.7167  159.7200 H   0  0  0  0  0  0  0  0  0  0  0  0
  128.7079  136.0293  158.5180 H   0  0  0  0  0  0  0  0  0  0  0  0
  129.7685  137.2058  160.1229 H   0  0  0  0  0  0  0  0  0  0  0  0
  130.3488  135.9899  161.2859 H   0  0  0  0  0  0  0  0  0  0  0  0
  131.3129  138.6956  159.0449 H   0  0  0  0  0  0  0  0  0  0  0  0
  133.4675  139.8731  159.1410 H   0  0  0  0  0  0  0  0  0  0  0  0
  135.2764  139.0494  160.5525 H   0  0  0  0  0  0  0  0  0  0  0  0
  136.1245  137.3513  162.1780 H   0  0  0  0  0  0  0  0  0  0  0  0
  135.6649  135.3228  163.4942 H   0  0  0  0  0  0  0  0  0  0  0  0
  133.4725  134.2210  163.3256 H   0  0  0  0  0  0  0  0  0  0  0  0
  130.7334  133.8587  160.5989 H   0  0  0  0  0  0  0  0  0  0  0  0
  132.2911  134.5275  160.0563 H   0  0  0  0  0  0  0  0  0  0  0  0
  131.8303  132.3291  158.9922 H   0  0  0  0  0  0  0  0  0  0  0  0
  131.8904  133.6344  157.7829 H   0  0  0  0  0  0  0  0  0  0  0  0
  1  2  1  0
  2  3  1  0
  2  4  1  0
  2 32  1  0
  4  5  1  6
  4  6  1  0
  4 14  1  0
  6  7  1  0
  6 33  1  0
  6 34  1  0
  7 13  1  0
  7  8  2  0
  8  9  1  0
  8 35  1  0
  9 10  2  0
  9 36  1  0
 10 11  1  0
 10 12  1  0
 12 13  2  0
 12 37  1  0
 13 38  1  0
 14 31  1  0
 14 15  1  0
 15 16  1  0
 15 39  1  0
 15 40  1  0
 16 17  1  0
 16 41  1  0
 16 42  1  0
 17 18  1  0
 17 19  1  0
 17 30  1  0
 19 20  1  0
 19 43  1  0
 19 44  1  0
 20 29  1  0
 20 21  2  0
 21 22  1  0
 21 45  1  0
 22 23  2  0
 22 46  1  0
 23 24  1  0
 23 47  1  0
 24 29  2  0
 24 25  1  0
 25 26  2  0
 25 48  1  0
 26 27  1  0
 26 49  1  0
 27 28  2  0
 27 50  1  0
 28 29  1  0
 30 31  1  0
 30 51  1  0
 30 52  1  0
 31 53  1  0
 31 54  1  0
M  CHG  1  17   1
M  END
>  <DOCK_score>  (1) 
-56.74342

>  <SMILES>  (1) 
FC(F)[C@H](Cc1ccc(Cl)cc1)N1CC[NH+](Cc2cccc3cccnc23)CC1

$$$$
