Cc1ccc([C@@H](CC(=O)c2ccn(C3CC3)n2)Nc2[nH]cc(-c3ccc(N)cc3)[nH+]2)cc1
     RDKit          3D

 59 63  0  0  1  0  0  0  0  0999 V2000
  134.1105  134.6204  163.2809 C   0  0  0  0  0  0  0  0  0  0  0  0
  132.9676  134.8200  162.3194 C   0  0  0  0  0  0  0  0  0  0  0  0
  131.8210  134.0574  162.4407 C   0  0  0  0  0  0  0  0  0  0  0  0
  130.7725  134.2406  161.5586 C   0  0  0  0  0  0  0  0  0  0  0  0
  130.8705  135.1863  160.5552 C   0  0  0  0  0  0  0  0  0  0  0  0
  129.7277  135.3857  159.5933 C   0  0  1  0  0  0  0  0  0  0  0  0
  128.9181  134.7003  159.8442 H   0  0  0  0  0  0  0  0  0  0  0  0
  129.2244  136.8272  159.6911 C   0  0  0  0  0  0  0  0  0  0  0  0
  128.3239  136.9644  160.8917 C   0  0  0  0  0  0  0  0  0  0  0  0
  127.3154  136.2958  160.9728 O   0  0  0  0  0  0  0  0  0  0  0  0
  128.6680  137.9088  161.9645 C   0  0  0  0  0  0  0  0  0  0  0  0
  127.9284  138.1429  163.1505 C   0  0  0  0  0  0  0  0  0  0  0  0
  128.6222  139.0845  163.8302 C   0  0  0  0  0  0  0  0  0  0  0  0
  129.7145  139.3925  163.0874 N   0  0  0  0  0  0  0  0  0  0  0  0
  130.7350  140.3739  163.4639 C   0  0  0  0  0  0  0  0  0  0  0  0
  130.4302  141.8488  163.1947 C   0  0  0  0  0  0  0  0  0  0  0  0
  131.4581  141.1099  162.3341 C   0  0  0  0  0  0  0  0  0  0  0  0
  129.7274  138.6953  162.0083 N   0  0  0  0  0  0  0  0  0  0  0  0
  130.1869  135.1203  158.2277 N   0  0  0  0  0  0  0  0  0  0  0  0
  130.1000  133.8415  157.7044 C   0  0  0  0  0  0  0  0  0  0  0  0
  129.6107  132.7508  158.3544 N   0  0  0  0  0  0  0  0  0  0  0  0
  129.2622  132.7294  159.2594 H   0  0  0  0  0  0  0  0  0  0  0  0
  129.7009  131.6846  157.4911 C   0  0  0  0  0  0  0  0  0  0  0  0
  130.2423  132.1552  156.3404 C   0  0  0  0  0  0  0  0  0  0  0  0
  130.5283  131.3600  155.1211 C   0  0  0  0  0  0  0  0  0  0  0  0
  129.9153  131.6893  153.9132 C   0  0  0  0  0  0  0  0  0  0  0  0
  130.1872  130.9523  152.7799 C   0  0  0  0  0  0  0  0  0  0  0  0
  131.0624  129.8748  152.8436 C   0  0  0  0  0  0  0  0  0  0  0  0
  131.3316  129.1263  151.6953 N   0  0  0  0  0  0  0  0  0  0  0  0
  131.6707  129.5412  154.0483 C   0  0  0  0  0  0  0  0  0  0  0  0
  131.4062  130.2788  155.1828 C   0  0  0  0  0  0  0  0  0  0  0  0
  130.4763  133.4816  156.5014 N   0  0  0  0  0  0  0  0  0  0  0  0
  130.8606  134.0700  155.8330 H   0  0  0  0  0  0  0  0  0  0  0  0
  132.0191  135.9453  160.4306 C   0  0  0  0  0  0  0  0  0  0  0  0
  133.0655  135.7662  161.3163 C   0  0  0  0  0  0  0  0  0  0  0  0
  134.7901  133.8652  162.8858 H   0  0  0  0  0  0  0  0  0  0  0  0
  134.6469  135.5607  163.4082 H   0  0  0  0  0  0  0  0  0  0  0  0
  133.7216  134.2908  164.2443 H   0  0  0  0  0  0  0  0  0  0  0  0
  131.7446  133.3182  163.2244 H   0  0  0  0  0  0  0  0  0  0  0  0
  129.8770  133.6445  161.6532 H   0  0  0  0  0  0  0  0  0  0  0  0
  130.0737  137.5023  159.7951 H   0  0  0  0  0  0  0  0  0  0  0  0
  128.6678  137.0798  158.7887 H   0  0  0  0  0  0  0  0  0  0  0  0
  127.0051  137.6688  163.4492 H   0  0  0  0  0  0  0  0  0  0  0  0
  128.3561  139.5115  164.7858 H   0  0  0  0  0  0  0  0  0  0  0  0
  131.3109  140.1339  164.3576 H   0  0  0  0  0  0  0  0  0  0  0  0
  129.4702  142.0889  162.7375 H   0  0  0  0  0  0  0  0  0  0  0  0
  130.8058  142.5793  163.9113 H   0  0  0  0  0  0  0  0  0  0  0  0
  132.5095  141.3546  162.4849 H   0  0  0  0  0  0  0  0  0  0  0  0
  131.1747  140.8638  161.3108 H   0  0  0  0  0  0  0  0  0  0  0  0
  130.5516  135.8406  157.6901 H   0  0  0  0  0  0  0  0  0  0  0  0
  129.4021  130.6665  157.6925 H   0  0  0  0  0  0  0  0  0  0  0  0
  129.2315  132.5237  153.8641 H   0  0  0  0  0  0  0  0  0  0  0  0
  129.7157  131.2096  151.8429 H   0  0  0  0  0  0  0  0  0  0  0  0
  131.9425  128.3734  151.7395 H   0  0  0  0  0  0  0  0  0  0  0  0
  130.9074  129.3576  150.8548 H   0  0  0  0  0  0  0  0  0  0  0  0
  132.3507  128.7036  154.0956 H   0  0  0  0  0  0  0  0  0  0  0  0
  131.8791  130.0194  156.1185 H   0  0  0  0  0  0  0  0  0  0  0  0
  132.0975  136.6812  159.6440 H   0  0  0  0  0  0  0  0  0  0  0  0
  133.9611  136.3622  161.2216 H   0  0  0  0  0  0  0  0  0  0  0  0
  1  2  1  0
  1 36  1  0
  1 37  1  0
  1 38  1  0
  2 35  2  0
  2  3  1  0
  3  4  2  0
  3 39  1  0
  4  5  1  0
  4 40  1  0
  5  6  1  0
  5 34  2  0
  6  7  1  1
  6  8  1  0
  6 19  1  0
  8  9  1  0
  8 41  1  0
  8 42  1  0
  9 10  2  0
  9 11  1  0
 11 18  2  0
 11 12  1  0
 12 13  2  0
 12 43  1  0
 13 14  1  0
 13 44  1  0
 14 15  1  0
 14 18  1  0
 15 17  1  0
 15 16  1  0
 15 45  1  0
 16 17  1  0
 16 46  1  0
 16 47  1  0
 17 48  1  0
 17 49  1  0
 19 50  1  0
 20 19  1  0
 20 32  2  0
 20 21  1  0
 21 22  1  0
 21 23  1  0
 23 24  2  0
 23 51  1  0
 24 25  1  0
 24 32  1  0
 25 31  1  0
 25 26  2  0
 26 27  1  0
 26 52  1  0
 27 28  2  0
 27 53  1  0
 28 29  1  0
 28 30  1  0
 29 54  1  0
 29 55  1  0
 30 31  2  0
 30 56  1  0
 31 57  1  0
 32 33  1  0
 34 35  1  0
 34 58  1  0
 35 59  1  0
M  CHG  1  32   1
M  END
>  <DOCK_score>  (1) 
-56.181992

>  <SMILES>  (1) 
Cc1ccc([C@@H](CC(=O)c2ccn(C3CC3)n2)Nc2[nH]cc(-c3ccc(N)cc3)[nH+]2)cc1

$$$$
