CCc1ccc(-c2c[nH]c(N[C@@H](Cc3cnnn3C)c3ccc4sccc4c3)[nH+]2)cc1
     RDKit          3D

 56 60  0  0  1  0  0  0  0  0999 V2000
  130.2686  128.5821  151.4189 C   0  0  0  0  0  0  0  0  0  0  0  0
  131.3802  129.5661  151.7884 C   0  0  0  0  0  0  0  0  0  0  0  0
  131.0105  130.2879  153.0586 C   0  0  0  0  0  0  0  0  0  0  0  0
  131.3844  129.7640  154.2825 C   0  0  0  0  0  0  0  0  0  0  0  0
  131.0527  130.4232  155.4487 C   0  0  0  0  0  0  0  0  0  0  0  0
  130.3304  131.6138  155.3920 C   0  0  0  0  0  0  0  0  0  0  0  0
  129.9666  132.3242  156.6422 C   0  0  0  0  0  0  0  0  0  0  0  0
  129.2143  131.8247  157.6539 C   0  0  0  0  0  0  0  0  0  0  0  0
  129.1259  132.8087  158.6084 N   0  0  0  0  0  0  0  0  0  0  0  0
  128.6509  132.7497  159.4521 H   0  0  0  0  0  0  0  0  0  0  0  0
  129.8274  133.8818  158.1515 C   0  0  0  0  0  0  0  0  0  0  0  0
  129.9852  135.0850  158.8179 N   0  0  0  0  0  0  0  0  0  0  0  0
  129.9856  135.1166  160.2825 C   0  0  1  0  0  0  0  0  0  0  0  0
  129.2274  134.4310  160.6609 H   0  0  0  0  0  0  0  0  0  0  0  0
  131.3610  134.6926  160.8014 C   0  0  0  0  0  0  0  0  0  0  0  0
  131.4690  133.1899  160.7686 C   0  0  0  0  0  0  0  0  0  0  0  0
  131.9278  132.4299  159.7469 C   0  0  0  0  0  0  0  0  0  0  0  0
  131.8456  131.1579  160.1528 N   0  0  0  0  0  0  0  0  0  0  0  0
  131.3675  131.1320  161.3468 N   0  0  0  0  0  0  0  0  0  0  0  0
  131.1322  132.3291  161.7570 N   0  0  0  0  0  0  0  0  0  0  0  0
  130.5895  132.6965  163.0672 C   0  0  0  0  0  0  0  0  0  0  0  0
  129.6796  136.5145  160.7549 C   0  0  0  0  0  0  0  0  0  0  0  0
  128.5634  136.7438  161.5482 C   0  0  0  0  0  0  0  0  0  0  0  0
  128.2779  138.0142  161.9890 C   0  0  0  0  0  0  0  0  0  0  0  0
  129.1040  139.0847  161.6316 C   0  0  0  0  0  0  0  0  0  0  0  0
  128.9958  140.7949  162.0282 S   0  0  0  0  0  0  0  0  0  0  0  0
  130.4453  141.1673  161.1154 C   0  0  0  0  0  0  0  0  0  0  0  0
  130.9575  140.0852  160.5635 C   0  0  0  0  0  0  0  0  0  0  0  0
  130.2247  138.8576  160.8284 C   0  0  0  0  0  0  0  0  0  0  0  0
  130.4967  137.5418  160.3953 C   0  0  0  0  0  0  0  0  0  0  0  0
  130.3324  133.5867  156.9786 N   0  0  0  0  0  0  0  0  0  0  0  0
  130.8789  134.1772  156.4368 H   0  0  0  0  0  0  0  0  0  0  0  0
  129.9517  132.1347  154.1559 C   0  0  0  0  0  0  0  0  0  0  0  0
  130.2934  131.4697  152.9959 C   0  0  0  0  0  0  0  0  0  0  0  0
  130.5361  128.0601  150.5002 H   0  0  0  0  0  0  0  0  0  0  0  0
  130.1419  127.8585  152.2243 H   0  0  0  0  0  0  0  0  0  0  0  0
  129.3362  129.1263  151.2694 H   0  0  0  0  0  0  0  0  0  0  0  0
  132.3127  129.0224  151.9377 H   0  0  0  0  0  0  0  0  0  0  0  0
  131.5068  130.2903  150.9828 H   0  0  0  0  0  0  0  0  0  0  0  0
  131.9404  128.8391  154.3256 H   0  0  0  0  0  0  0  0  0  0  0  0
  131.3492  130.0153  156.4039 H   0  0  0  0  0  0  0  0  0  0  0  0
  128.7696  130.8416  157.7003 H   0  0  0  0  0  0  0  0  0  0  0  0
  130.0954  135.9070  158.3150 H   0  0  0  0  0  0  0  0  0  0  0  0
  132.1369  135.1264  160.1705 H   0  0  0  0  0  0  0  0  0  0  0  0
  131.4871  135.0436  161.8256 H   0  0  0  0  0  0  0  0  0  0  0  0
  132.2895  132.7813  158.7920 H   0  0  0  0  0  0  0  0  0  0  0  0
  129.5013  132.7269  163.0142 H   0  0  0  0  0  0  0  0  0  0  0  0
  130.8968  131.9581  163.8077 H   0  0  0  0  0  0  0  0  0  0  0  0
  130.9668  133.6780  163.3544 H   0  0  0  0  0  0  0  0  0  0  0  0
  127.9200  135.9212  161.8230 H   0  0  0  0  0  0  0  0  0  0  0  0
  127.4112  138.1868  162.6099 H   0  0  0  0  0  0  0  0  0  0  0  0
  130.8655  142.1573  161.0178 H   0  0  0  0  0  0  0  0  0  0  0  0
  131.8529  140.1088  159.9602 H   0  0  0  0  0  0  0  0  0  0  0  0
  131.3589  137.3491  159.7742 H   0  0  0  0  0  0  0  0  0  0  0  0
  129.3916  133.0567  154.1059 H   0  0  0  0  0  0  0  0  0  0  0  0
  130.0001  131.8721  152.0376 H   0  0  0  0  0  0  0  0  0  0  0  0
  1  2  1  0
  1 35  1  0
  1 36  1  0
  1 37  1  0
  2  3  1  0
  2 38  1  0
  2 39  1  0
  3 34  2  0
  3  4  1  0
  4  5  2  0
  4 40  1  0
  5  6  1  0
  5 41  1  0
  6  7  1  0
  6 33  2  0
  7 31  1  0
  7  8  2  0
  8  9  1  0
  8 42  1  0
  9 10  1  0
  9 11  1  0
 11 12  1  0
 11 31  2  0
 12 13  1  0
 12 43  1  0
 13 14  1  1
 13 15  1  0
 13 22  1  0
 15 16  1  0
 15 44  1  0
 15 45  1  0
 16 20  1  0
 16 17  2  0
 17 18  1  0
 17 46  1  0
 18 19  2  0
 19 20  1  0
 20 21  1  0
 21 47  1  0
 21 48  1  0
 21 49  1  0
 22 30  1  0
 22 23  2  0
 23 24  1  0
 23 50  1  0
 24 25  2  0
 24 51  1  0
 25 29  1  0
 25 26  1  0
 26 27  1  0
 27 28  2  0
 27 52  1  0
 28 29  1  0
 28 53  1  0
 29 30  2  0
 30 54  1  0
 31 32  1  0
 33 34  1  0
 33 55  1  0
 34 56  1  0
M  CHG  1  31   1
M  END
>  <DOCK_score>  (1) 
-61.684776

>  <SMILES>  (1) 
CCc1ccc(-c2c[nH]c(N[C@@H](Cc3cnnn3C)c3ccc4sccc4c3)[nH+]2)cc1

$$$$
