Oc1ccc(-c2ccc3c(C[N@@H+]4CC=C(c5ccccc5NC5CC5)CC4)c[nH]c3c2)cc1
     RDKit          3D

 63 68  0  0  1  0  0  0  0  0999 V2000
  130.8583  128.5759  151.2460 O   0  0  0  0  0  0  0  0  0  0  0  0
  130.7746  129.3490  152.3604 C   0  0  0  0  0  0  0  0  0  0  0  0
  131.6479  129.1360  153.4184 C   0  0  0  0  0  0  0  0  0  0  0  0
  131.5653  129.9186  154.5508 C   0  0  0  0  0  0  0  0  0  0  0  0
  130.6035  130.9244  154.6327 C   0  0  0  0  0  0  0  0  0  0  0  0
  130.5115  131.7675  155.8493 C   0  0  0  0  0  0  0  0  0  0  0  0
  130.0541  133.0859  155.7487 C   0  0  0  0  0  0  0  0  0  0  0  0
  129.9645  133.8719  156.8595 C   0  0  0  0  0  0  0  0  0  0  0  0
  130.3312  133.3602  158.1075 C   0  0  0  0  0  0  0  0  0  0  0  0
  130.3577  133.9139  159.4630 C   0  0  0  0  0  0  0  0  0  0  0  0
  129.9537  135.3075  159.8700 C   0  0  0  0  0  0  0  0  0  0  0  0
  131.1212  136.1962  159.7987 N   0  0  2  0  0  0  0  0  0  0  0  0
  131.4764  136.2120  158.8545 H   0  0  0  0  0  0  0  0  0  0  0  0
  132.1651  135.7097  160.7081 C   0  0  0  0  0  0  0  0  0  0  0  0
  133.2901  136.7010  160.7912 C   0  0  0  0  0  0  0  0  0  0  0  0
  133.1663  137.9579  160.4205 C   0  0  0  0  0  0  0  0  0  0  0  0
  134.3326  138.8555  160.5455 C   0  0  0  0  0  0  0  0  0  0  0  0
  135.2301  138.9908  159.4864 C   0  0  0  0  0  0  0  0  0  0  0  0
  136.3177  139.8307  159.6089 C   0  0  0  0  0  0  0  0  0  0  0  0
  136.5235  140.5410  160.7792 C   0  0  0  0  0  0  0  0  0  0  0  0
  135.6425  140.4164  161.8359 C   0  0  0  0  0  0  0  0  0  0  0  0
  134.5403  139.5804  161.7271 C   0  0  0  0  0  0  0  0  0  0  0  0
  133.6466  139.4581  162.7900 N   0  0  0  0  0  0  0  0  0  0  0  0
  132.9270  140.6358  163.2813 C   0  0  0  0  0  0  0  0  0  0  0  0
  132.1181  140.4825  164.5709 C   0  0  0  0  0  0  0  0  0  0  0  0
  131.3983  140.6035  163.2263 C   0  0  0  0  0  0  0  0  0  0  0  0
  131.8798  138.5125  159.8734 C   0  0  0  0  0  0  0  0  0  0  0  0
  130.7296  137.5567  160.2002 C   0  0  0  0  0  0  0  0  0  0  0  0
  130.8095  132.9443  160.2749 C   0  0  0  0  0  0  0  0  0  0  0  0
  131.0746  131.8145  159.5500 N   0  0  0  0  0  0  0  0  0  0  0  0
  131.4114  130.9826  159.9178 H   0  0  0  0  0  0  0  0  0  0  0  0
  130.7926  132.0351  158.2199 C   0  0  0  0  0  0  0  0  0  0  0  0
  130.8744  131.2416  157.0828 C   0  0  0  0  0  0  0  0  0  0  0  0
  129.7245  131.1323  153.5708 C   0  0  0  0  0  0  0  0  0  0  0  0
  129.8156  130.3498  152.4388 C   0  0  0  0  0  0  0  0  0  0  0  0
  130.2097  128.7976  150.5639 H   0  0  0  0  0  0  0  0  0  0  0  0
  132.3927  128.3565  153.3545 H   0  0  0  0  0  0  0  0  0  0  0  0
  132.2448  129.7522  155.3737 H   0  0  0  0  0  0  0  0  0  0  0  0
  129.7700  133.4836  154.7856 H   0  0  0  0  0  0  0  0  0  0  0  0
  129.6104  134.8887  156.7751 H   0  0  0  0  0  0  0  0  0  0  0  0
  129.1779  135.6720  159.1968 H   0  0  0  0  0  0  0  0  0  0  0  0
  129.5711  135.2914  160.8905 H   0  0  0  0  0  0  0  0  0  0  0  0
  131.7394  135.5648  161.7011 H   0  0  0  0  0  0  0  0  0  0  0  0
  132.5481  134.7575  160.3408 H   0  0  0  0  0  0  0  0  0  0  0  0
  134.2441  136.3670  161.1717 H   0  0  0  0  0  0  0  0  0  0  0  0
  135.0741  138.4385  158.5715 H   0  0  0  0  0  0  0  0  0  0  0  0
  137.0117  139.9347  158.7879 H   0  0  0  0  0  0  0  0  0  0  0  0
  137.3778  141.1959  160.8668 H   0  0  0  0  0  0  0  0  0  0  0  0
  135.8092  140.9735  162.7460 H   0  0  0  0  0  0  0  0  0  0  0  0
  133.5013  138.5932  163.2043 H   0  0  0  0  0  0  0  0  0  0  0  0
  133.4167  141.5935  163.1048 H   0  0  0  0  0  0  0  0  0  0  0  0
  132.1214  139.5053  165.0539 H   0  0  0  0  0  0  0  0  0  0  0  0
  132.0758  141.3393  165.2432 H   0  0  0  0  0  0  0  0  0  0  0  0
  130.8824  141.5399  163.0140 H   0  0  0  0  0  0  0  0  0  0  0  0
  130.9280  139.7060  162.8242 H   0  0  0  0  0  0  0  0  0  0  0  0
  131.9631  138.6241  158.7923 H   0  0  0  0  0  0  0  0  0  0  0  0
  131.6829  139.4851  160.3244 H   0  0  0  0  0  0  0  0  0  0  0  0
  129.8369  137.8573  159.6517 H   0  0  0  0  0  0  0  0  0  0  0  0
  130.5286  137.5786  161.2713 H   0  0  0  0  0  0  0  0  0  0  0  0
  130.9434  133.0419  161.3421 H   0  0  0  0  0  0  0  0  0  0  0  0
  131.2225  130.2219  157.1567 H   0  0  0  0  0  0  0  0  0  0  0  0
  128.9754  131.9077  153.6329 H   0  0  0  0  0  0  0  0  0  0  0  0
  129.1375  130.5127  151.6143 H   0  0  0  0  0  0  0  0  0  0  0  0
  1  2  1  0
  1 36  1  0
  2 35  2  0
  2  3  1  0
  3  4  2  0
  3 37  1  0
  4  5  1  0
  4 38  1  0
  5  6  1  0
  5 34  2  0
  6 33  1  0
  6  7  2  0
  7  8  1  0
  7 39  1  0
  8  9  2  0
  8 40  1  0
  9 32  1  0
  9 10  1  0
 10 11  1  0
 10 29  2  0
 11 12  1  0
 11 41  1  0
 11 42  1  0
 12 13  1  6
 12 28  1  0
 12 14  1  0
 14 15  1  0
 14 43  1  0
 14 44  1  0
 15 16  2  0
 15 45  1  0
 16 17  1  0
 16 27  1  0
 17 22  1  0
 17 18  2  0
 18 19  1  0
 18 46  1  0
 19 20  2  0
 19 47  1  0
 20 21  1  0
 20 48  1  0
 21 22  2  0
 21 49  1  0
 22 23  1  0
 23 24  1  0
 23 50  1  0
 24 26  1  0
 24 25  1  0
 24 51  1  0
 25 26  1  0
 25 52  1  0
 25 53  1  0
 26 54  1  0
 26 55  1  0
 27 28  1  0
 27 56  1  0
 27 57  1  0
 28 58  1  0
 28 59  1  0
 29 30  1  0
 29 60  1  0
 30 31  1  0
 30 32  1  0
 32 33  2  0
 33 61  1  0
 34 35  1  0
 34 62  1  0
 35 63  1  0
M  CHG  1  12   1
M  END
>  <DOCK_score>  (1) 
-57.509369

>  <SMILES>  (1) 
Oc1ccc(-c2ccc3c(C[N@@H+]4CC=C(c5ccccc5NC5CC5)CC4)c[nH]c3c2)cc1

$$$$
