Nc1ccc(-c2c[nH]c(N[C@@H](CSc3ccccc3)C3CCOCC3)[nH+]2)cc1
     RDKit          3D

 55 58  0  0  1  0  0  0  0  0999 V2000
  131.4959  129.7783  151.8705 N   0  0  0  0  0  0  0  0  0  0  0  0
  131.2422  130.4239  153.0831 C   0  0  0  0  0  0  0  0  0  0  0  0
  130.8551  131.7587  153.0910 C   0  0  0  0  0  0  0  0  0  0  0  0
  130.6044  132.3979  154.2867 C   0  0  0  0  0  0  0  0  0  0  0  0
  130.7392  131.7042  155.4884 C   0  0  0  0  0  0  0  0  0  0  0  0
  130.4700  132.3897  156.7762 C   0  0  0  0  0  0  0  0  0  0  0  0
  130.0007  131.8073  157.9071 C   0  0  0  0  0  0  0  0  0  0  0  0
  129.8996  132.7991  158.8539 N   0  0  0  0  0  0  0  0  0  0  0  0
  129.5924  132.6921  159.7677 H   0  0  0  0  0  0  0  0  0  0  0  0
  130.3106  133.9585  158.2721 C   0  0  0  0  0  0  0  0  0  0  0  0
  130.3612  135.1966  158.8894 N   0  0  0  0  0  0  0  0  0  0  0  0
  129.9500  135.3349  160.2887 C   0  0  1  0  0  0  0  0  0  0  0  0
  130.5776  134.7019  160.9161 H   0  0  0  0  0  0  0  0  0  0  0  0
  130.1016  136.7941  160.7231 C   0  0  0  0  0  0  0  0  0  0  0  0
  131.8398  137.1297  161.1188 S   0  0  0  0  0  0  0  0  0  0  0  0
  131.8185  138.8275  161.5898 C   0  0  0  0  0  0  0  0  0  0  0  0
  132.9952  139.4579  161.9765 C   0  0  0  0  0  0  0  0  0  0  0  0
  132.9754  140.7897  162.3404 C   0  0  0  0  0  0  0  0  0  0  0  0
  131.7849  141.4936  162.3300 C   0  0  0  0  0  0  0  0  0  0  0  0
  130.6111  140.8681  161.9509 C   0  0  0  0  0  0  0  0  0  0  0  0
  130.6239  139.5378  161.5811 C   0  0  0  0  0  0  0  0  0  0  0  0
  128.4879  134.9084  160.4350 C   0  0  0  0  0  0  0  0  0  0  0  0
  127.5731  136.0554  159.9944 C   0  0  0  0  0  0  0  0  0  0  0  0
  126.1138  135.6503  160.2184 C   0  0  0  0  0  0  0  0  0  0  0  0
  125.9184  135.3207  161.5951 O   0  0  0  0  0  0  0  0  0  0  0  0
  126.7121  134.2232  162.0507 C   0  0  0  0  0  0  0  0  0  0  0  0
  128.1954  134.5708  161.9002 C   0  0  0  0  0  0  0  0  0  0  0  0
  130.6452  133.7109  157.0292 N   0  0  0  0  0  0  0  0  0  0  0  0
  130.9686  134.3673  156.3924 H   0  0  0  0  0  0  0  0  0  0  0  0
  131.1333  130.3671  155.4783 C   0  0  0  0  0  0  0  0  0  0  0  0
  131.3771  129.7302  154.2799 C   0  0  0  0  0  0  0  0  0  0  0  0
  131.4017  130.2618  151.0347 H   0  0  0  0  0  0  0  0  0  0  0  0
  131.7661  128.8468  151.8641 H   0  0  0  0  0  0  0  0  0  0  0  0
  130.7510  132.2959  152.1598 H   0  0  0  0  0  0  0  0  0  0  0  0
  130.3032  133.4350  154.2924 H   0  0  0  0  0  0  0  0  0  0  0  0
  129.7534  130.7643  158.0389 H   0  0  0  0  0  0  0  0  0  0  0  0
  130.6691  135.9727  158.3955 H   0  0  0  0  0  0  0  0  0  0  0  0
  129.7801  137.4494  159.9137 H   0  0  0  0  0  0  0  0  0  0  0  0
  129.4866  136.9766  161.6044 H   0  0  0  0  0  0  0  0  0  0  0  0
  133.9244  138.9077  161.9887 H   0  0  0  0  0  0  0  0  0  0  0  0
  133.8901  141.2812  162.6373 H   0  0  0  0  0  0  0  0  0  0  0  0
  131.7718  142.5341  162.6190 H   0  0  0  0  0  0  0  0  0  0  0  0
  129.6832  141.4208  161.9443 H   0  0  0  0  0  0  0  0  0  0  0  0
  129.7069  139.0497  161.2857 H   0  0  0  0  0  0  0  0  0  0  0  0
  128.2986  134.0321  159.8150 H   0  0  0  0  0  0  0  0  0  0  0  0
  127.7348  136.2646  158.9370 H   0  0  0  0  0  0  0  0  0  0  0  0
  127.7980  136.9464  160.5806 H   0  0  0  0  0  0  0  0  0  0  0  0
  125.4607  136.4797  159.9469 H   0  0  0  0  0  0  0  0  0  0  0  0
  125.8779  134.7841  159.6003 H   0  0  0  0  0  0  0  0  0  0  0  0
  126.4898  134.0243  163.0992 H   0  0  0  0  0  0  0  0  0  0  0  0
  126.4838  133.3382  161.4566 H   0  0  0  0  0  0  0  0  0  0  0  0
  128.4331  135.4312  162.5258 H   0  0  0  0  0  0  0  0  0  0  0  0
  128.8021  133.7188  162.2069 H   0  0  0  0  0  0  0  0  0  0  0  0
  131.2427  129.8290  156.4084 H   0  0  0  0  0  0  0  0  0  0  0  0
  131.6780  128.6930  154.2714 H   0  0  0  0  0  0  0  0  0  0  0  0
  1  2  1  0
  1 32  1  0
  1 33  1  0
  2 31  2  0
  2  3  1  0
  3  4  2  0
  3 34  1  0
  4  5  1  0
  4 35  1  0
  5  6  1  0
  5 30  2  0
  6 28  1  0
  6  7  2  0
  7  8  1  0
  7 36  1  0
  8  9  1  0
  8 10  1  0
 10 11  1  0
 10 28  2  0
 11 12  1  0
 11 37  1  0
 12 13  1  1
 12 14  1  0
 12 22  1  0
 14 15  1  0
 14 38  1  0
 14 39  1  0
 15 16  1  0
 16 21  1  0
 16 17  2  0
 17 18  1  0
 17 40  1  0
 18 19  2  0
 18 41  1  0
 19 20  1  0
 19 42  1  0
 20 21  2  0
 20 43  1  0
 21 44  1  0
 22 27  1  0
 22 23  1  0
 22 45  1  0
 23 24  1  0
 23 46  1  0
 23 47  1  0
 24 25  1  0
 24 48  1  0
 24 49  1  0
 25 26  1  0
 26 27  1  0
 26 50  1  0
 26 51  1  0
 27 52  1  0
 27 53  1  0
 28 29  1  0
 30 31  1  0
 30 54  1  0
 31 55  1  0
M  CHG  1  28   1
M  END
>  <DOCK_score>  (1) 
-57.598022

>  <SMILES>  (1) 
Nc1ccc(-c2c[nH]c(N[C@@H](CSc3ccccc3)C3CCOCC3)[nH+]2)cc1

$$$$
