Nc1ccc(Nc2cc(Nc3[nH]c4ccccc4[nH+]3)cc3ccccc23)cc1
     RDKit          3D

 48 52  0  0  0  0  0  0  0  0999 V2000
  125.4485  130.6025  159.5856 N   0  0  0  0  0  0  0  0  0  0  0  0
  125.7640  131.9167  159.9492 C   0  0  0  0  0  0  0  0  0  0  0  0
  127.0218  132.4327  159.6654 C   0  0  0  0  0  0  0  0  0  0  0  0
  127.3330  133.7292  160.0241 C   0  0  0  0  0  0  0  0  0  0  0  0
  126.3884  134.5173  160.6687 C   0  0  0  0  0  0  0  0  0  0  0  0
  126.7038  135.8317  161.0324 N   0  0  0  0  0  0  0  0  0  0  0  0
  128.0183  136.1716  161.3442 C   0  0  0  0  0  0  0  0  0  0  0  0
  128.8716  136.6138  160.3578 C   0  0  0  0  0  0  0  0  0  0  0  0
  130.1938  136.9531  160.6580 C   0  0  0  0  0  0  0  0  0  0  0  0
  131.0419  137.3946  159.6384 N   0  0  0  0  0  0  0  0  0  0  0  0
  132.0590  138.2773  159.9232 C   0  0  0  0  0  0  0  0  0  0  0  0
  133.2175  138.3420  159.2707 N   0  0  0  0  0  0  0  0  0  0  0  0
  133.4801  137.7809  158.5243 H   0  0  0  0  0  0  0  0  0  0  0  0
  133.9785  139.3309  159.8356 C   0  0  0  0  0  0  0  0  0  0  0  0
  135.2455  139.8421  159.5691 C   0  0  0  0  0  0  0  0  0  0  0  0
  135.7425  140.8747  160.3345 C   0  0  0  0  0  0  0  0  0  0  0  0
  134.9864  141.4133  161.3651 C   0  0  0  0  0  0  0  0  0  0  0  0
  133.7275  140.9238  161.6382 C   0  0  0  0  0  0  0  0  0  0  0  0
  133.2103  139.8808  160.8751 C   0  0  0  0  0  0  0  0  0  0  0  0
  132.0275  139.1901  160.8918 N   0  0  0  0  0  0  0  0  0  0  0  0
  131.2915  139.3406  161.5055 H   0  0  0  0  0  0  0  0  0  0  0  0
  130.6696  136.8629  161.9487 C   0  0  0  0  0  0  0  0  0  0  0  0
  129.8209  136.4204  162.9761 C   0  0  0  0  0  0  0  0  0  0  0  0
  130.2777  136.3185  164.3022 C   0  0  0  0  0  0  0  0  0  0  0  0
  129.4298  135.8861  165.2753 C   0  0  0  0  0  0  0  0  0  0  0  0
  128.1128  135.5429  164.9776 C   0  0  0  0  0  0  0  0  0  0  0  0
  127.6366  135.6291  163.7046 C   0  0  0  0  0  0  0  0  0  0  0  0
  128.4814  136.0704  162.6746 C   0  0  0  0  0  0  0  0  0  0  0  0
  125.1325  133.9993  160.9575 C   0  0  0  0  0  0  0  0  0  0  0  0
  124.8192  132.7048  160.5932 C   0  0  0  0  0  0  0  0  0  0  0  0
  126.1083  130.0521  159.1353 H   0  0  0  0  0  0  0  0  0  0  0  0
  124.5700  130.2420  159.7837 H   0  0  0  0  0  0  0  0  0  0  0  0
  127.7564  131.8198  159.1645 H   0  0  0  0  0  0  0  0  0  0  0  0
  128.3113  134.1303  159.8038 H   0  0  0  0  0  0  0  0  0  0  0  0
  126.0073  136.5058  161.0674 H   0  0  0  0  0  0  0  0  0  0  0  0
  128.5167  136.6952  159.3411 H   0  0  0  0  0  0  0  0  0  0  0  0
  130.9139  137.0789  158.7303 H   0  0  0  0  0  0  0  0  0  0  0  0
  135.8392  139.4277  158.7678 H   0  0  0  0  0  0  0  0  0  0  0  0
  136.7276  141.2674  160.1304 H   0  0  0  0  0  0  0  0  0  0  0  0
  135.3869  142.2226  161.9576 H   0  0  0  0  0  0  0  0  0  0  0  0
  133.1437  141.3482  162.4416 H   0  0  0  0  0  0  0  0  0  0  0  0
  131.6920  137.1321  162.1690 H   0  0  0  0  0  0  0  0  0  0  0  0
  131.2961  136.5813  164.5473 H   0  0  0  0  0  0  0  0  0  0  0  0
  129.7831  135.8084  166.2929 H   0  0  0  0  0  0  0  0  0  0  0  0
  127.4599  135.2028  165.7679 H   0  0  0  0  0  0  0  0  0  0  0  0
  126.6136  135.3588  163.4888 H   0  0  0  0  0  0  0  0  0  0  0  0
  124.3992  134.6105  161.4627 H   0  0  0  0  0  0  0  0  0  0  0  0
  123.8410  132.3036  160.8135 H   0  0  0  0  0  0  0  0  0  0  0  0
  1  2  1  0
  1 31  1  0
  1 32  1  0
  2 30  2  0
  2  3  1  0
  3  4  2  0
  3 33  1  0
  4  5  1  0
  4 34  1  0
  5  6  1  0
  5 29  2  0
  6  7  1  0
  6 35  1  0
  7 28  1  0
  7  8  2  0
  8  9  1  0
  8 36  1  0
  9 10  1  0
  9 22  2  0
 10 11  1  0
 10 37  1  0
 11 20  1  0
 11 12  2  0
 12 13  1  0
 12 14  1  0
 14 19  2  0
 14 15  1  0
 15 16  2  0
 15 38  1  0
 16 17  1  0
 16 39  1  0
 17 18  2  0
 17 40  1  0
 18 19  1  0
 18 41  1  0
 19 20  1  0
 20 21  1  0
 22 23  1  0
 22 42  1  0
 23 28  2  0
 23 24  1  0
 24 25  2  0
 24 43  1  0
 25 26  1  0
 25 44  1  0
 26 27  2  0
 26 45  1  0
 27 28  1  0
 27 46  1  0
 29 30  1  0
 29 47  1  0
 30 48  1  0
M  CHG  1  12   1
M  END
>  <DOCK_score>  (1) 
-44.712746

>  <SMILES>  (1) 
Nc1ccc(Nc2cc(Nc3[nH]c4ccccc4[nH+]3)cc3ccccc23)cc1

$$$$
