Cc1ccc([C@H](CSCC2CCCC2)Nc2[nH]cc(-c3ccc(N)cc3)[nH+]2)cc1
     RDKit          3D

 60 63  0  0  1  0  0  0  0  0999 V2000
  125.3143  134.5144  162.3917 C   0  0  0  0  0  0  0  0  0  0  0  0
  126.7278  134.8652  162.0044 C   0  0  0  0  0  0  0  0  0  0  0  0
  127.7552  134.6993  162.9143 C   0  0  0  0  0  0  0  0  0  0  0  0
  129.0518  135.0211  162.5590 C   0  0  0  0  0  0  0  0  0  0  0  0
  129.3210  135.5088  161.2939 C   0  0  0  0  0  0  0  0  0  0  0  0
  130.7344  135.8601  160.9068 C   0  0  2  0  0  0  0  0  0  0  0  0
  131.4298  135.2224  161.4526 H   0  0  0  0  0  0  0  0  0  0  0  0
  131.0084  137.3253  161.2513 C   0  0  0  0  0  0  0  0  0  0  0  0
  132.7099  137.7482  160.7853 S   0  0  0  0  0  0  0  0  0  0  0  0
  133.0487  139.2287  161.7772 C   0  0  0  0  0  0  0  0  0  0  0  0
  134.4703  139.7182  161.4937 C   0  0  0  0  0  0  0  0  0  0  0  0
  135.4935  138.6464  161.9230 C   0  0  0  0  0  0  0  0  0  0  0  0
  136.6783  139.4626  162.4988 C   0  0  0  0  0  0  0  0  0  0  0  0
  135.9674  140.6233  163.2381 C   0  0  0  0  0  0  0  0  0  0  0  0
  134.7715  140.9747  162.3292 C   0  0  0  0  0  0  0  0  0  0  0  0
  130.9115  135.6556  159.4669 N   0  0  0  0  0  0  0  0  0  0  0  0
  130.7162  134.4003  158.9168 C   0  0  0  0  0  0  0  0  0  0  0  0
  130.3540  133.2822  159.6025 N   0  0  0  0  0  0  0  0  0  0  0  0
  130.1882  133.2214  160.5563 H   0  0  0  0  0  0  0  0  0  0  0  0
  130.2669  132.2543  158.6936 C   0  0  0  0  0  0  0  0  0  0  0  0
  130.5782  132.7745  157.4808 C   0  0  0  0  0  0  0  0  0  0  0  0
  130.6150  132.0331  156.1964 C   0  0  0  0  0  0  0  0  0  0  0  0
  130.3230  132.6905  155.0022 C   0  0  0  0  0  0  0  0  0  0  0  0
  130.3635  132.0007  153.8089 C   0  0  0  0  0  0  0  0  0  0  0  0
  130.6840  130.6484  153.7973 C   0  0  0  0  0  0  0  0  0  0  0  0
  130.7190  129.9500  152.5879 N   0  0  0  0  0  0  0  0  0  0  0  0
  130.9697  129.9895  154.9873 C   0  0  0  0  0  0  0  0  0  0  0  0
  130.9360  130.6766  156.1822 C   0  0  0  0  0  0  0  0  0  0  0  0
  130.8440  134.0941  157.6487 N   0  0  0  0  0  0  0  0  0  0  0  0
  131.0914  134.7121  156.9432 H   0  0  0  0  0  0  0  0  0  0  0  0
  128.2929  135.6797  160.3858 C   0  0  0  0  0  0  0  0  0  0  0  0
  126.9971  135.3525  160.7391 C   0  0  0  0  0  0  0  0  0  0  0  0
  124.8284  135.3890  162.8240 H   0  0  0  0  0  0  0  0  0  0  0  0
  124.7643  134.1932  161.5071 H   0  0  0  0  0  0  0  0  0  0  0  0
  125.3279  133.7072  163.1241 H   0  0  0  0  0  0  0  0  0  0  0  0
  127.5449  134.3186  163.9028 H   0  0  0  0  0  0  0  0  0  0  0  0
  129.8544  134.8918  163.2701 H   0  0  0  0  0  0  0  0  0  0  0  0
  130.3131  137.9631  160.7055 H   0  0  0  0  0  0  0  0  0  0  0  0
  130.8767  137.4775  162.3226 H   0  0  0  0  0  0  0  0  0  0  0  0
  132.3362  140.0114  161.5168 H   0  0  0  0  0  0  0  0  0  0  0  0
  132.9519  138.9869  162.8356 H   0  0  0  0  0  0  0  0  0  0  0  0
  134.5840  139.9392  160.4325 H   0  0  0  0  0  0  0  0  0  0  0  0
  135.0686  137.9985  162.6896 H   0  0  0  0  0  0  0  0  0  0  0  0
  135.8157  138.0603  161.0624 H   0  0  0  0  0  0  0  0  0  0  0  0
  137.3094  139.8447  161.6965 H   0  0  0  0  0  0  0  0  0  0  0  0
  137.2630  138.8616  163.1952 H   0  0  0  0  0  0  0  0  0  0  0  0
  136.6357  141.4787  163.3370 H   0  0  0  0  0  0  0  0  0  0  0  0
  135.6189  140.2974  164.2182 H   0  0  0  0  0  0  0  0  0  0  0  0
  135.0324  141.8054  161.6734 H   0  0  0  0  0  0  0  0  0  0  0  0
  133.9050  141.2358  162.9366 H   0  0  0  0  0  0  0  0  0  0  0  0
  131.1657  136.3997  158.8991 H   0  0  0  0  0  0  0  0  0  0  0  0
  130.0014  131.2290  158.9052 H   0  0  0  0  0  0  0  0  0  0  0  0
  130.0694  133.7403  155.0114 H   0  0  0  0  0  0  0  0  0  0  0  0
  130.1414  132.5107  152.8832 H   0  0  0  0  0  0  0  0  0  0  0  0
  130.9428  129.0066  152.5787 H   0  0  0  0  0  0  0  0  0  0  0  0
  130.5197  130.4095  151.7568 H   0  0  0  0  0  0  0  0  0  0  0  0
  131.2180  128.9385  154.9758 H   0  0  0  0  0  0  0  0  0  0  0  0
  131.1585  130.1644  157.1066 H   0  0  0  0  0  0  0  0  0  0  0  0
  128.5026  136.0648  159.3988 H   0  0  0  0  0  0  0  0  0  0  0  0
  126.1944  135.4818  160.0282 H   0  0  0  0  0  0  0  0  0  0  0  0
  1  2  1  0
  1 33  1  0
  1 34  1  0
  1 35  1  0
  2 32  2  0
  2  3  1  0
  3  4  2  0
  3 36  1  0
  4  5  1  0
  4 37  1  0
  5  6  1  0
  5 31  2  0
  6  7  1  1
  6  8  1  0
  6 16  1  0
  8  9  1  0
  8 38  1  0
  8 39  1  0
  9 10  1  0
 10 11  1  0
 10 40  1  0
 10 41  1  0
 11 15  1  0
 11 12  1  0
 11 42  1  0
 12 13  1  0
 12 43  1  0
 12 44  1  0
 13 14  1  0
 13 45  1  0
 13 46  1  0
 14 15  1  0
 14 47  1  0
 14 48  1  0
 15 49  1  0
 15 50  1  0
 16 51  1  0
 17 16  1  0
 17 29  2  0
 17 18  1  0
 18 19  1  0
 18 20  1  0
 20 21  2  0
 20 52  1  0
 21 22  1  0
 21 29  1  0
 22 28  1  0
 22 23  2  0
 23 24  1  0
 23 53  1  0
 24 25  2  0
 24 54  1  0
 25 26  1  0
 25 27  1  0
 26 55  1  0
 26 56  1  0
 27 28  2  0
 27 57  1  0
 28 58  1  0
 29 30  1  0
 31 32  1  0
 31 59  1  0
 32 60  1  0
M  CHG  1  29   1
M  END
>  <DOCK_score>  (1) 
-56.741947

>  <SMILES>  (1) 
Cc1ccc([C@H](CSCC2CCCC2)Nc2[nH]cc(-c3ccc(N)cc3)[nH+]2)cc1

$$$$
