Cc1cc(N)c(SC=CCl)cc1Nc1[nH]cc(-c2cccnc2)[nH+]1
     RDKit          3D

 41 43  0  0  1  0  0  0  0  0999 V2000
  127.4153  135.1583  158.1773 C   0  0  0  0  0  0  0  0  0  0  0  0
  127.8997  135.6103  159.5307 C   0  0  0  0  0  0  0  0  0  0  0  0
  126.9897  136.0219  160.4873 C   0  0  0  0  0  0  0  0  0  0  0  0
  127.4322  136.4431  161.7313 C   0  0  0  0  0  0  0  0  0  0  0  0
  126.5089  136.8648  162.6988 N   0  0  0  0  0  0  0  0  0  0  0  0
  128.7975  136.4468  162.0204 C   0  0  0  0  0  0  0  0  0  0  0  0
  129.3636  136.9811  163.6010 S   0  0  0  0  0  0  0  0  0  0  0  0
  128.5765  135.8560  164.7052 C   0  0  0  0  0  0  0  0  0  0  0  0
  128.2623  136.2424  165.9294 C   0  0  0  0  0  0  0  0  0  0  0  0
  127.4867  135.1339  167.0174 Cl  0  0  0  0  0  0  0  0  0  0  0  0
  129.7078  136.0286  161.0613 C   0  0  0  0  0  0  0  0  0  0  0  0
  129.2583  135.6076  159.8168 C   0  0  0  0  0  0  0  0  0  0  0  0
  130.1767  135.1856  158.8474 N   0  0  0  0  0  0  0  0  0  0  0  0
  130.1040  133.8996  158.3381 C   0  0  0  0  0  0  0  0  0  0  0  0
  129.6445  132.8066  159.0069 N   0  0  0  0  0  0  0  0  0  0  0  0
  129.3121  132.7883  159.9179 H   0  0  0  0  0  0  0  0  0  0  0  0
  129.7445  131.7335  158.1556 C   0  0  0  0  0  0  0  0  0  0  0  0
  130.2564  132.2018  156.9902 C   0  0  0  0  0  0  0  0  0  0  0  0
  130.5405  131.3981  155.7761 C   0  0  0  0  0  0  0  0  0  0  0  0
  129.9045  131.6902  154.5660 C   0  0  0  0  0  0  0  0  0  0  0  0
  130.2085  130.9144  153.4608 C   0  0  0  0  0  0  0  0  0  0  0  0
  131.1144  129.8773  153.5907 C   0  0  0  0  0  0  0  0  0  0  0  0
  131.6947  129.6221  154.7472 N   0  0  0  0  0  0  0  0  0  0  0  0
  131.4413  130.3362  155.8249 C   0  0  0  0  0  0  0  0  0  0  0  0
  130.4633  133.5348  157.1313 N   0  0  0  0  0  0  0  0  0  0  0  0
  130.8236  134.1234  156.4496 H   0  0  0  0  0  0  0  0  0  0  0  0
  127.2232  134.0855  158.1996 H   0  0  0  0  0  0  0  0  0  0  0  0
  126.4960  135.6869  157.9252 H   0  0  0  0  0  0  0  0  0  0  0  0
  128.1765  135.3756  157.4279 H   0  0  0  0  0  0  0  0  0  0  0  0
  125.9332  136.0192  160.2632 H   0  0  0  0  0  0  0  0  0  0  0  0
  126.8191  137.1593  163.5694 H   0  0  0  0  0  0  0  0  0  0  0  0
  125.5600  136.8620  162.4974 H   0  0  0  0  0  0  0  0  0  0  0  0
  128.3508  134.8507  164.3816 H   0  0  0  0  0  0  0  0  0  0  0  0
  128.4879  137.2477  166.2531 H   0  0  0  0  0  0  0  0  0  0  0  0
  130.7650  136.0307  161.2822 H   0  0  0  0  0  0  0  0  0  0  0  0
  130.8636  135.7937  158.5327 H   0  0  0  0  0  0  0  0  0  0  0  0
  129.4686  130.7122  158.3727 H   0  0  0  0  0  0  0  0  0  0  0  0
  129.1972  132.5033  154.4943 H   0  0  0  0  0  0  0  0  0  0  0  0
  129.7399  131.1140  152.5084 H   0  0  0  0  0  0  0  0  0  0  0  0
  131.3504  129.2671  152.7314 H   0  0  0  0  0  0  0  0  0  0  0  0
  131.9364  130.0966  156.7543 H   0  0  0  0  0  0  0  0  0  0  0  0
  1  2  1  0
  1 27  1  0
  1 28  1  0
  1 29  1  0
  2 12  2  0
  2  3  1  0
  3  4  2  0
  3 30  1  0
  4  5  1  0
  4  6  1  0
  5 31  1  0
  5 32  1  0
  6  7  1  0
  6 11  2  0
  7  8  1  0
  8  9  2  0
  8 33  1  0
  9 10  1  0
  9 34  1  0
 11 12  1  0
 11 35  1  0
 12 13  1  0
 13 36  1  0
 14 13  1  0
 14 25  2  0
 14 15  1  0
 15 16  1  0
 15 17  1  0
 17 18  2  0
 17 37  1  0
 18 19  1  0
 18 25  1  0
 19 24  1  0
 19 20  2  0
 20 21  1  0
 20 38  1  0
 21 22  2  0
 21 39  1  0
 22 23  1  0
 22 40  1  0
 23 24  2  0
 24 41  1  0
 25 26  1  0
M  CHG  1  25   1
M  END
>  <DOCK_score>  (1) 
-52.680004

>  <SMILES>  (1) 
Cc1cc(N)c(SC=CCl)cc1Nc1[nH]cc(-c2cccnc2)[nH+]1

$$$$
