
     RDKit          2D

 32 35  0  0  0  0  0  0  0  0999 V2000
    0.7500   -3.8971    0.0000 C   0  0  0  0  0  0  0  0  0  0  0  0
    1.5000   -2.5981    0.0000 C   0  0  0  0  0  0  0  0  0  0  0  0
    0.7500   -1.2990    0.0000 C   0  0  0  0  0  0  0  0  0  0  0  0
    1.5000    0.0000    0.0000 C   0  0  0  0  0  0  0  0  0  0  0  0
    0.7500    1.2990    0.0000 C   0  0  0  0  0  0  0  0  0  0  0  0
   -0.7500    1.2990    0.0000 C   0  0  0  0  0  0  0  0  0  0  0  0
   -1.5000    0.0000    0.0000 C   0  0  0  0  0  0  0  0  0  0  0  0
   -0.7500   -1.2990    0.0000 C   0  0  0  0  0  0  0  0  0  0  0  0
    3.0000   -2.5981    0.0000 C   0  0  0  0  0  0  0  0  0  0  0  0
    2.7395   -1.1209    0.0000 O   0  0  0  0  0  0  0  0  0  0  0  0
    2.7395   -4.0753    0.0000 C   0  0  0  0  0  0  0  0  0  0  0  0
    3.8886   -5.0395    0.0000 C   0  0  0  0  0  0  0  0  0  0  0  0
    3.6281   -6.5167    0.0000 N   0  0  0  0  0  0  0  0  0  0  0  0
    2.2186   -7.0297    0.0000 C   0  0  0  0  0  0  0  0  0  0  0  0
    1.9581   -8.5069    0.0000 C   0  0  0  0  0  0  0  0  0  0  0  0
    3.1072   -9.4711    0.0000 C   0  0  0  0  0  0  0  0  0  0  0  0
    4.5167   -8.9581    0.0000 C   0  0  0  0  0  0  0  0  0  0  0  0
    5.6658   -9.9223    0.0000 C   0  0  0  0  0  0  0  0  0  0  0  0
    5.4053  -11.3995    0.0000 C   0  0  0  0  0  0  0  0  0  0  0  0
    3.9958  -11.9125    0.0000 C   0  0  0  0  0  0  0  0  0  0  0  0
    2.8467  -10.9483    0.0000 C   0  0  0  0  0  0  0  0  0  0  0  0
    1.0695   -6.0655    0.0000 C   0  0  0  0  0  0  0  0  0  0  0  0
   -0.3400   -6.5786    0.0000 C   0  0  0  0  0  0  0  0  0  0  0  0
   -0.6005   -8.0558    0.0000 C   0  0  0  0  0  0  0  0  0  0  0  0
   -2.0100   -8.5688    0.0000 C   0  0  0  0  0  0  0  0  0  0  0  0
   -3.1591   -7.6046    0.0000 C   0  0  0  0  0  0  0  0  0  0  0  0
   -2.8986   -6.1274    0.0000 C   0  0  0  0  0  0  0  0  0  0  0  0
   -1.4891   -5.6144    0.0000 C   0  0  0  0  0  0  0  0  0  0  0  0
   -1.2286   -4.1372    0.0000 F   0  0  0  0  0  0  0  0  0  0  0  0
    5.2981   -4.5264    0.0000 C   0  0  0  0  0  0  0  0  0  0  0  0
    5.5586   -3.0492    0.0000 C   0  0  0  0  0  0  0  0  0  0  0  0
    4.4095   -2.0850    0.0000 C   0  0  0  0  0  0  0  0  0  0  0  0
  1  2  1  0
  2  3  1  0
  3  4  2  0
  4  5  1  0
  5  6  2  0
  6  7  1  0
  7  8  2  0
  2  9  1  0
  9 10  1  0
  9 11  1  0
 11 12  2  0
 12 13  1  0
 13 14  1  0
 14 15  1  0
 15 16  1  0
 16 17  2  0
 17 18  1  0
 18 19  2  0
 19 20  1  0
 20 21  2  0
 14 22  1  0
 22 23  1  0
 23 24  2  0
 24 25  1  0
 25 26  2  0
 26 27  1  0
 27 28  2  0
 28 29  1  0
 12 30  1  0
 30 31  1  0
 31 32  1  0
  8  3  1  0
 32  9  1  0
 21 16  1  0
 28 23  1  0
M  END
$$$$
