C[C@@H](NC(NC1CC=CC1)=[NH+][C@H](C)c1cnn(C2CC2)c1)c1ccc2c(c1)CCCC2
     RDKit          3D

 67 71  0  0  1  0  0  0  0  0999 V2000
  133.0972  134.9009  160.6803 C   0  0  0  0  0  0  0  0  0  0  0  0
  132.4499  136.2871  160.6601 C   0  0  1  0  0  0  0  0  0  0  0  0
  132.3878  136.6441  159.6321 H   0  0  0  0  0  0  0  0  0  0  0  0
  131.1030  136.2055  161.2307 N   0  0  0  0  0  0  0  0  0  0  0  0
  130.1596  135.3899  160.6522 C   0  0  0  0  0  0  0  0  0  0  0  0
  130.1988  135.1450  159.2999 N   0  0  0  0  0  0  0  0  0  0  0  0
  129.1934  134.2759  158.6834 C   0  0  0  0  0  0  0  0  0  0  0  0
  129.3657  132.8112  159.1480 C   0  0  0  0  0  0  0  0  0  0  0  0
  129.0520  131.9809  157.9251 C   0  0  0  0  0  0  0  0  0  0  0  0
  129.0882  132.7078  156.8416 C   0  0  0  0  0  0  0  0  0  0  0  0
  129.4319  134.1441  157.1612 C   0  0  0  0  0  0  0  0  0  0  0  0
  129.2278  134.8489  161.3856 N   0  0  0  0  0  0  0  0  0  0  0  0
  128.5621  134.2736  160.9775 H   0  0  0  0  0  0  0  0  0  0  0  0
  129.1823  135.1147  162.8257 C   0  0  2  0  0  0  0  0  0  0  0  0
  130.1924  135.2937  163.1941 H   0  0  0  0  0  0  0  0  0  0  0  0
  128.5825  133.9069  163.5485 C   0  0  0  0  0  0  0  0  0  0  0  0
  128.3299  136.3299  163.0856 C   0  0  0  0  0  0  0  0  0  0  0  0
  126.9790  136.4739  162.7529 C   0  0  0  0  0  0  0  0  0  0  0  0
  126.5873  137.6609  163.1395 N   0  0  0  0  0  0  0  0  0  0  0  0
  127.6809  138.3146  163.7220 N   0  0  0  0  0  0  0  0  0  0  0  0
  127.6774  139.6683  164.2820 C   0  0  0  0  0  0  0  0  0  0  0  0
  127.1265  140.7942  163.4047 C   0  0  0  0  0  0  0  0  0  0  0  0
  128.6311  140.6916  163.6623 C   0  0  0  0  0  0  0  0  0  0  0  0
  128.7378  137.4767  163.6767 C   0  0  0  0  0  0  0  0  0  0  0  0
  133.2834  137.2427  161.4743 C   0  0  0  0  0  0  0  0  0  0  0  0
  133.5054  136.9990  162.8170 C   0  0  0  0  0  0  0  0  0  0  0  0
  134.2674  137.8797  163.5563 C   0  0  0  0  0  0  0  0  0  0  0  0
  134.8135  139.0107  162.9630 C   0  0  0  0  0  0  0  0  0  0  0  0
  134.5966  139.2507  161.6250 C   0  0  0  0  0  0  0  0  0  0  0  0
  133.8323  138.3605  160.8814 C   0  0  0  0  0  0  0  0  0  0  0  0
  135.1658  140.4505  160.9139 C   0  0  0  0  0  0  0  0  0  0  0  0
  135.5903  141.5190  161.9193 C   0  0  0  0  0  0  0  0  0  0  0  0
  136.4859  140.8608  162.9752 C   0  0  0  0  0  0  0  0  0  0  0  0
  135.6224  139.9375  163.8323 C   0  0  0  0  0  0  0  0  0  0  0  0
  132.3380  134.1425  160.4885 H   0  0  0  0  0  0  0  0  0  0  0  0
  133.8664  134.8478  159.9098 H   0  0  0  0  0  0  0  0  0  0  0  0
  133.5483  134.7247  161.6568 H   0  0  0  0  0  0  0  0  0  0  0  0
  130.8771  136.7269  162.0169 H   0  0  0  0  0  0  0  0  0  0  0  0
  130.8922  135.5477  158.7541 H   0  0  0  0  0  0  0  0  0  0  0  0
  128.1863  134.6373  158.8918 H   0  0  0  0  0  0  0  0  0  0  0  0
  130.3906  132.6344  159.4744 H   0  0  0  0  0  0  0  0  0  0  0  0
  128.6656  132.5829  159.9518 H   0  0  0  0  0  0  0  0  0  0  0  0
  128.8272  130.9247  157.9451 H   0  0  0  0  0  0  0  0  0  0  0  0
  128.8971  132.3320  155.8473 H   0  0  0  0  0  0  0  0  0  0  0  0
  128.7768  134.8220  156.6141 H   0  0  0  0  0  0  0  0  0  0  0  0
  130.4752  134.3491  156.9212 H   0  0  0  0  0  0  0  0  0  0  0  0
  129.2449  133.0489  163.4338 H   0  0  0  0  0  0  0  0  0  0  0  0
  128.4671  134.1377  164.6074 H   0  0  0  0  0  0  0  0  0  0  0  0
  127.6081  133.6736  163.1192 H   0  0  0  0  0  0  0  0  0  0  0  0
  126.3646  135.7322  162.2644 H   0  0  0  0  0  0  0  0  0  0  0  0
  127.4983  139.7327  165.3553 H   0  0  0  0  0  0  0  0  0  0  0  0
  126.7666  140.5278  162.4109 H   0  0  0  0  0  0  0  0  0  0  0  0
  126.5847  141.5995  163.9007 H   0  0  0  0  0  0  0  0  0  0  0  0
  129.0792  141.4294  164.3278 H   0  0  0  0  0  0  0  0  0  0  0  0
  129.2615  140.3575  162.8382 H   0  0  0  0  0  0  0  0  0  0  0  0
  129.7310  137.6842  164.0464 H   0  0  0  0  0  0  0  0  0  0  0  0
  133.0839  136.1217  163.2854 H   0  0  0  0  0  0  0  0  0  0  0  0
  134.4404  137.6883  164.6050 H   0  0  0  0  0  0  0  0  0  0  0  0
  133.6628  138.5475  159.8312 H   0  0  0  0  0  0  0  0  0  0  0  0
  136.0325  140.1434  160.3283 H   0  0  0  0  0  0  0  0  0  0  0  0
  134.4102  140.8647  160.2464 H   0  0  0  0  0  0  0  0  0  0  0  0
  136.1439  142.3059  161.4070 H   0  0  0  0  0  0  0  0  0  0  0  0
  134.7080  141.9429  162.3988 H   0  0  0  0  0  0  0  0  0  0  0  0
  137.2675  140.2811  162.4839 H   0  0  0  0  0  0  0  0  0  0  0  0
  136.9382  141.6285  163.6030 H   0  0  0  0  0  0  0  0  0  0  0  0
  134.9479  140.5393  164.4413 H   0  0  0  0  0  0  0  0  0  0  0  0
  136.2657  139.3477  164.4853 H   0  0  0  0  0  0  0  0  0  0  0  0
  1  2  1  0
  1 35  1  0
  1 36  1  0
  1 37  1  0
  2  3  1  6
  2  4  1  0
  2 25  1  0
  4 38  1  0
  5  4  1  0
  5  6  1  0
  5 12  2  0
  6  7  1  0
  6 39  1  0
  7 11  1  0
  7  8  1  0
  7 40  1  0
  8  9  1  0
  8 41  1  0
  8 42  1  0
  9 10  2  0
  9 43  1  0
 10 11  1  0
 10 44  1  0
 11 45  1  0
 11 46  1  0
 12 13  1  0
 12 14  1  0
 14 15  1  1
 14 16  1  0
 14 17  1  0
 16 47  1  0
 16 48  1  0
 16 49  1  0
 17 24  2  0
 17 18  1  0
 18 19  2  0
 18 50  1  0
 19 20  1  0
 20 21  1  0
 20 24  1  0
 21 23  1  0
 21 22  1  0
 21 51  1  0
 22 23  1  0
 22 52  1  0
 22 53  1  0
 23 54  1  0
 23 55  1  0
 24 56  1  0
 25 30  1  0
 25 26  2  0
 26 27  1  0
 26 57  1  0
 27 28  2  0
 27 58  1  0
 28 34  1  0
 28 29  1  0
 29 30  2  0
 29 31  1  0
 30 59  1  0
 31 32  1  0
 31 60  1  0
 31 61  1  0
 32 33  1  0
 32 62  1  0
 32 63  1  0
 33 34  1  0
 33 64  1  0
 33 65  1  0
 34 66  1  0
 34 67  1  0
M  CHG  1  12   1
M  END
>  <DOCK_score>  (1) 
-42.512379

>  <SMILES>  (1) 
C[C@@H](NC(NC1CC=CC1)=[NH+][C@H](C)c1cnn(C2CC2)c1)c1ccc2c(c1)CCCC2

$$$$
