Cc1c[nH]c(Nc2cc(C3(O)C=CC(=O)C=C3)ccc2Sc2ccc(F)cc2)[nH+]1
     RDKit          3D

 48 51  0  0  1  0  0  0  0  0999 V2000
  131.0163  131.7565  156.6127 C   0  0  0  0  0  0  0  0  0  0  0  0
  130.8588  132.6326  157.8287 C   0  0  0  0  0  0  0  0  0  0  0  0
  130.5871  132.2080  159.0746 C   0  0  0  0  0  0  0  0  0  0  0  0
  130.5289  133.3257  159.8757 N   0  0  0  0  0  0  0  0  0  0  0  0
  130.3500  133.3435  160.8289 H   0  0  0  0  0  0  0  0  0  0  0  0
  130.7703  134.4006  159.0773 C   0  0  0  0  0  0  0  0  0  0  0  0
  130.8034  135.7236  159.4875 N   0  0  0  0  0  0  0  0  0  0  0  0
  130.5757  136.0459  160.8308 C   0  0  0  0  0  0  0  0  0  0  0  0
  129.2878  136.3040  161.2756 C   0  0  0  0  0  0  0  0  0  0  0  0
  129.0654  136.6219  162.6027 C   0  0  0  0  0  0  0  0  0  0  0  0
  127.6649  136.9025  163.0833 C   0  0  0  0  0  0  0  0  0  0  0  0
  126.7713  136.8126  161.9717 O   0  0  0  0  0  0  0  0  0  0  0  0
  127.2849  135.8647  164.0918 C   0  0  0  0  0  0  0  0  0  0  0  0
  127.2548  136.0982  165.3954 C   0  0  0  0  0  0  0  0  0  0  0  0
  127.5911  137.4438  165.8970 C   0  0  0  0  0  0  0  0  0  0  0  0
  127.8635  137.6284  167.0685 O   0  0  0  0  0  0  0  0  0  0  0  0
  127.5853  138.5581  164.9309 C   0  0  0  0  0  0  0  0  0  0  0  0
  127.6135  138.2936  163.6313 C   0  0  0  0  0  0  0  0  0  0  0  0
  130.1247  136.6885  163.4893 C   0  0  0  0  0  0  0  0  0  0  0  0
  131.4112  136.4276  163.0564 C   0  0  0  0  0  0  0  0  0  0  0  0
  131.6441  136.1079  161.7264 C   0  0  0  0  0  0  0  0  0  0  0  0
  133.2837  135.7808  161.1701 S   0  0  0  0  0  0  0  0  0  0  0  0
  133.8611  137.3720  160.6808 C   0  0  0  0  0  0  0  0  0  0  0  0
  133.9202  138.4060  161.6070 C   0  0  0  0  0  0  0  0  0  0  0  0
  134.3771  139.6509  161.2219 C   0  0  0  0  0  0  0  0  0  0  0  0
  134.7670  139.8720  159.9116 C   0  0  0  0  0  0  0  0  0  0  0  0
  135.2093  141.0921  159.5363 F   0  0  0  0  0  0  0  0  0  0  0  0
  134.7042  138.8445  158.9854 C   0  0  0  0  0  0  0  0  0  0  0  0
  134.2526  137.5964  159.3665 C   0  0  0  0  0  0  0  0  0  0  0  0
  130.9608  133.9721  157.8517 N   0  0  0  0  0  0  0  0  0  0  0  0
  131.1479  134.5339  157.0835 H   0  0  0  0  0  0  0  0  0  0  0  0
  130.0480  131.6296  156.1284 H   0  0  0  0  0  0  0  0  0  0  0  0
  131.7124  132.2236  155.9162 H   0  0  0  0  0  0  0  0  0  0  0  0
  131.4022  130.7827  156.9140 H   0  0  0  0  0  0  0  0  0  0  0  0
  130.4425  131.1846  159.3877 H   0  0  0  0  0  0  0  0  0  0  0  0
  130.9843  136.4265  158.8440 H   0  0  0  0  0  0  0  0  0  0  0  0
  128.4586  136.2574  160.5852 H   0  0  0  0  0  0  0  0  0  0  0  0
  125.8460  136.9805  162.1964 H   0  0  0  0  0  0  0  0  0  0  0  0
  127.0241  134.8768  163.7413 H   0  0  0  0  0  0  0  0  0  0  0  0
  126.9847  135.3117  166.0844 H   0  0  0  0  0  0  0  0  0  0  0  0
  127.5578  139.5803  165.2782 H   0  0  0  0  0  0  0  0  0  0  0  0
  127.5984  139.1206  162.9369 H   0  0  0  0  0  0  0  0  0  0  0  0
  129.9456  136.9412  164.5240 H   0  0  0  0  0  0  0  0  0  0  0  0
  132.2356  136.4765  163.7524 H   0  0  0  0  0  0  0  0  0  0  0  0
  133.6125  138.2352  162.6280 H   0  0  0  0  0  0  0  0  0  0  0  0
  134.4264  140.4541  161.9423 H   0  0  0  0  0  0  0  0  0  0  0  0
  135.0083  139.0193  157.9639 H   0  0  0  0  0  0  0  0  0  0  0  0
  134.2032  136.7954  158.6437 H   0  0  0  0  0  0  0  0  0  0  0  0
  1  2  1  0
  1 32  1  0
  1 33  1  0
  1 34  1  0
  2 30  1  0
  2  3  2  0
  3  4  1  0
  3 35  1  0
  4  5  1  0
  4  6  1  0
  6  7  1  0
  6 30  2  0
  7  8  1  0
  7 36  1  0
  8 21  1  0
  8  9  2  0
  9 10  1  0
  9 37  1  0
 10 11  1  0
 10 19  2  0
 11 18  1  0
 11 12  1  0
 11 13  1  0
 12 38  1  0
 13 14  2  0
 13 39  1  0
 14 15  1  0
 14 40  1  0
 15 16  2  0
 15 17  1  0
 17 18  2  0
 17 41  1  0
 18 42  1  0
 19 20  1  0
 19 43  1  0
 20 21  2  0
 20 44  1  0
 21 22  1  0
 22 23  1  0
 23 29  1  0
 23 24  2  0
 24 25  1  0
 24 45  1  0
 25 26  2  0
 25 46  1  0
 26 27  1  0
 26 28  1  0
 28 29  2  0
 28 47  1  0
 29 48  1  0
 30 31  1  0
M  CHG  1  30   1
M  END
>  <DOCK_score>  (1) 
-48.792583

>  <SMILES>  (1) 
Cc1c[nH]c(Nc2cc(C3(O)C=CC(=O)C=C3)ccc2Sc2ccc(F)cc2)[nH+]1

$$$$
