OC[C@H](Cc1c[nH]c2ccc(O)cc12)[NH2+][C@@H]1CC=CCC1
     RDKit          3D

 44 46  0  0  1  0  0  0  0  0999 V2000
  130.1466  135.2169  159.0229 O   0  0  0  0  0  0  0  0  0  0  0  0
  130.5380  135.2686  160.3963 C   0  0  0  0  0  0  0  0  0  0  0  0
  131.1540  136.6359  160.6999 C   0  0  2  0  0  0  0  0  0  0  0  0
  131.4525  136.6753  161.7476 H   0  0  0  0  0  0  0  0  0  0  0  0
  130.1241  137.7325  160.4214 C   0  0  0  0  0  0  0  0  0  0  0  0
  128.9156  137.5206  161.2965 C   0  0  0  0  0  0  0  0  0  0  0  0
  127.8284  136.7937  160.9936 C   0  0  0  0  0  0  0  0  0  0  0  0
  126.9382  136.8313  162.0318 N   0  0  0  0  0  0  0  0  0  0  0  0
  126.0790  136.3813  162.0459 H   0  0  0  0  0  0  0  0  0  0  0  0
  127.4448  137.6041  163.0553 C   0  0  0  0  0  0  0  0  0  0  0  0
  126.9620  137.9641  164.3092 C   0  0  0  0  0  0  0  0  0  0  0  0
  127.7165  138.7698  165.1320 C   0  0  0  0  0  0  0  0  0  0  0  0
  128.9648  139.2316  164.7222 C   0  0  0  0  0  0  0  0  0  0  0  0
  129.6972  140.0265  165.5473 O   0  0  0  0  0  0  0  0  0  0  0  0
  129.4614  138.8859  163.4814 C   0  0  0  0  0  0  0  0  0  0  0  0
  128.7050  138.0687  162.6386 C   0  0  0  0  0  0  0  0  0  0  0  0
  132.3321  136.8424  159.8470 N   0  0  0  0  0  0  0  0  0  0  0  0
  132.8518  135.9804  159.7768 H   0  0  0  0  0  0  0  0  0  0  0  0
  132.0349  137.1319  158.9272 H   0  0  0  0  0  0  0  0  0  0  0  0
  133.1863  137.8827  160.4353 C   0  0  2  0  0  0  0  0  0  0  0  0
  132.5649  138.6829  160.8374 H   0  0  0  0  0  0  0  0  0  0  0  0
  134.1216  138.4470  159.3638 C   0  0  0  0  0  0  0  0  0  0  0  0
  135.1717  139.3119  159.9976 C   0  0  0  0  0  0  0  0  0  0  0  0
  135.4631  139.2922  161.2587 C   0  0  0  0  0  0  0  0  0  0  0  0
  134.7844  138.4096  162.2649 C   0  0  0  0  0  0  0  0  0  0  0  0
  134.0413  137.2758  161.5549 C   0  0  0  0  0  0  0  0  0  0  0  0
  130.8759  135.3459  158.4010 H   0  0  0  0  0  0  0  0  0  0  0  0
  131.2718  134.4874  160.5947 H   0  0  0  0  0  0  0  0  0  0  0  0
  129.6639  135.1153  161.0292 H   0  0  0  0  0  0  0  0  0  0  0  0
  129.8257  137.6931  159.3739 H   0  0  0  0  0  0  0  0  0  0  0  0
  130.5629  138.7065  160.6378 H   0  0  0  0  0  0  0  0  0  0  0  0
  127.6803  136.2553  160.0692 H   0  0  0  0  0  0  0  0  0  0  0  0
  125.9954  137.6115  164.6373 H   0  0  0  0  0  0  0  0  0  0  0  0
  127.3369  139.0461  166.1047 H   0  0  0  0  0  0  0  0  0  0  0  0
  129.2694  140.2153  166.3936 H   0  0  0  0  0  0  0  0  0  0  0  0
  130.4294  139.2452  163.1644 H   0  0  0  0  0  0  0  0  0  0  0  0
  134.6024  137.6245  158.8343 H   0  0  0  0  0  0  0  0  0  0  0  0
  133.5439  139.0430  158.6572 H   0  0  0  0  0  0  0  0  0  0  0  0
  135.7178  139.9931  159.3622 H   0  0  0  0  0  0  0  0  0  0  0  0
  136.2429  139.9524  161.6085 H   0  0  0  0  0  0  0  0  0  0  0  0
  135.5314  137.9868  162.9366 H   0  0  0  0  0  0  0  0  0  0  0  0
  134.0728  139.0001  162.8417 H   0  0  0  0  0  0  0  0  0  0  0  0
  133.3988  136.7570  162.2663 H   0  0  0  0  0  0  0  0  0  0  0  0
  134.7605  136.5764  161.1285 H   0  0  0  0  0  0  0  0  0  0  0  0
  1  2  1  0
  1 27  1  0
  2  3  1  0
  2 28  1  0
  2 29  1  0
  3  4  1  1
  3  5  1  0
  3 17  1  0
  5  6  1  0
  5 30  1  0
  5 31  1  0
  6 16  1  0
  6  7  2  0
  7  8  1  0
  7 32  1  0
  8  9  1  0
  8 10  1  0
 10 16  2  0
 10 11  1  0
 11 12  2  0
 11 33  1  0
 12 13  1  0
 12 34  1  0
 13 14  1  0
 13 15  2  0
 14 35  1  0
 15 16  1  0
 15 36  1  0
 17 18  1  0
 17 19  1  0
 17 20  1  0
 20 21  1  1
 20 26  1  0
 20 22  1  0
 22 23  1  0
 22 37  1  0
 22 38  1  0
 23 24  2  0
 23 39  1  0
 24 25  1  0
 24 40  1  0
 25 26  1  0
 25 41  1  0
 25 42  1  0
 26 43  1  0
 26 44  1  0
M  CHG  1  17   1
M  END
>  <DOCK_score>  (1) 
-42.277332

>  <SMILES>  (1) 
OC[C@H](Cc1c[nH]c2ccc(O)cc12)[NH2+][C@@H]1CC=CCC1

$$$$
