CC(c1ccnn1C)[C@H](Nc1[nH]cc(-c2ccc(N)cc2)[nH+]1)c1ccnn1C
     RDKit          3D

 53 56  0  0  1  0  0  0  0  0999 V2000
  128.6777  137.4463  161.4034 C   0  0  0  0  0  0  0  0  0  0  0  0
  129.6631  137.0330  160.3085 C   0  0  1  0  0  0  0  0  0  0  0  0
  131.0654  137.0552  160.8602 C   0  0  0  0  0  0  0  0  0  0  0  0
  131.5253  136.3211  161.8997 C   0  0  0  0  0  0  0  0  0  0  0  0
  132.8747  136.6382  162.0868 C   0  0  0  0  0  0  0  0  0  0  0  0
  133.2127  137.5307  161.1918 N   0  0  0  0  0  0  0  0  0  0  0  0
  132.0887  137.8064  160.4025 N   0  0  0  0  0  0  0  0  0  0  0  0
  132.0332  138.7465  159.2802 C   0  0  0  0  0  0  0  0  0  0  0  0
  129.3270  135.6204  159.8265 C   0  0  2  0  0  0  0  0  0  0  0  0
  129.3997  134.9245  160.6623 H   0  0  0  0  0  0  0  0  0  0  0  0
  130.2706  135.2247  158.7781 N   0  0  0  0  0  0  0  0  0  0  0  0
  130.1640  133.9781  158.1854 C   0  0  0  0  0  0  0  0  0  0  0  0
  129.6864  132.8538  158.7848 N   0  0  0  0  0  0  0  0  0  0  0  0
  129.3620  132.7821  159.6962 H   0  0  0  0  0  0  0  0  0  0  0  0
  129.7490  131.8382  157.8602 C   0  0  0  0  0  0  0  0  0  0  0  0
  130.2572  132.3731  156.7226 C   0  0  0  0  0  0  0  0  0  0  0  0
  130.5004  131.6495  155.4506 C   0  0  0  0  0  0  0  0  0  0  0  0
  129.8521  132.0515  154.2838 C   0  0  0  0  0  0  0  0  0  0  0  0
  130.0840  131.3810  153.1014 C   0  0  0  0  0  0  0  0  0  0  0  0
  130.9543  130.2981  153.0744 C   0  0  0  0  0  0  0  0  0  0  0  0
  131.1830  129.6169  151.8766 N   0  0  0  0  0  0  0  0  0  0  0  0
  131.5978  129.8919  154.2379 C   0  0  0  0  0  0  0  0  0  0  0  0
  131.3732  130.5629  155.4214 C   0  0  0  0  0  0  0  0  0  0  0  0
  130.5072  133.6861  156.9545 N   0  0  0  0  0  0  0  0  0  0  0  0
  130.8772  134.3103  156.3107 H   0  0  0  0  0  0  0  0  0  0  0  0
  127.9248  135.5982  159.2749 C   0  0  0  0  0  0  0  0  0  0  0  0
  127.5688  135.8331  157.9908 C   0  0  0  0  0  0  0  0  0  0  0  0
  126.1781  135.7141  157.9009 C   0  0  0  0  0  0  0  0  0  0  0  0
  125.7157  135.4184  159.0886 N   0  0  0  0  0  0  0  0  0  0  0  0
  126.7997  135.3348  159.9720 N   0  0  0  0  0  0  0  0  0  0  0  0
  126.7249  135.0201  161.4008 C   0  0  0  0  0  0  0  0  0  0  0  0
  128.7504  136.7505  162.2392 H   0  0  0  0  0  0  0  0  0  0  0  0
  128.9172  138.4528  161.7467 H   0  0  0  0  0  0  0  0  0  0  0  0
  127.6636  137.4304  161.0043 H   0  0  0  0  0  0  0  0  0  0  0  0
  129.5905  137.7290  159.4726 H   0  0  0  0  0  0  0  0  0  0  0  0
  130.9520  135.6149  162.4818 H   0  0  0  0  0  0  0  0  0  0  0  0
  133.5254  136.2186  162.8397 H   0  0  0  0  0  0  0  0  0  0  0  0
  131.7542  139.7341  159.6471 H   0  0  0  0  0  0  0  0  0  0  0  0
  133.0112  138.7994  158.8019 H   0  0  0  0  0  0  0  0  0  0  0  0
  131.2929  138.4052  158.5566 H   0  0  0  0  0  0  0  0  0  0  0  0
  130.9699  135.8362  158.4990 H   0  0  0  0  0  0  0  0  0  0  0  0
  129.4468  130.8122  158.0099 H   0  0  0  0  0  0  0  0  0  0  0  0
  129.1717  132.8900  154.3051 H   0  0  0  0  0  0  0  0  0  0  0  0
  129.5855  131.6950  152.1963 H   0  0  0  0  0  0  0  0  0  0  0  0
  131.7906  128.8602  151.8576 H   0  0  0  0  0  0  0  0  0  0  0  0
  130.7344  129.8988  151.0648 H   0  0  0  0  0  0  0  0  0  0  0  0
  132.2740  129.0500  154.2148 H   0  0  0  0  0  0  0  0  0  0  0  0
  131.8734  130.2472  156.3250 H   0  0  0  0  0  0  0  0  0  0  0  0
  128.2400  136.0708  157.1787 H   0  0  0  0  0  0  0  0  0  0  0  0
  125.5878  135.8444  157.0060 H   0  0  0  0  0  0  0  0  0  0  0  0
  126.6857  135.9456  161.9752 H   0  0  0  0  0  0  0  0  0  0  0  0
  125.8279  134.4325  161.5970 H   0  0  0  0  0  0  0  0  0  0  0  0
  127.6053  134.4478  161.6934 H   0  0  0  0  0  0  0  0  0  0  0  0
  1  2  1  0
  1 32  1  0
  1 33  1  0
  1 34  1  0
  2  3  1  0
  2  9  1  0
  2 35  1  6
  3  7  1  0
  3  4  2  0
  4  5  1  0
  4 36  1  0
  5  6  2  0
  5 37  1  0
  6  7  1  0
  7  8  1  0
  8 38  1  0
  8 39  1  0
  8 40  1  0
  9 10  1  1
  9 11  1  0
  9 26  1  0
 11 41  1  0
 12 11  1  0
 12 24  2  0
 12 13  1  0
 13 14  1  0
 13 15  1  0
 15 16  2  0
 15 42  1  0
 16 17  1  0
 16 24  1  0
 17 23  1  0
 17 18  2  0
 18 19  1  0
 18 43  1  0
 19 20  2  0
 19 44  1  0
 20 21  1  0
 20 22  1  0
 21 45  1  0
 21 46  1  0
 22 23  2  0
 22 47  1  0
 23 48  1  0
 24 25  1  0
 26 30  1  0
 26 27  2  0
 27 28  1  0
 27 49  1  0
 28 29  2  0
 28 50  1  0
 29 30  1  0
 30 31  1  0
 31 51  1  0
 31 52  1  0
 31 53  1  0
M  CHG  1  24   1
M  END
>  <DOCK_score>  (1) 
-60.604229

>  <SMILES>  (1) 
CC(c1ccnn1C)[C@H](Nc1[nH]cc(-c2ccc(N)cc2)[nH+]1)c1ccnn1C

$$$$
