Cc1c[nH]c(Nc2ccc(NC3=CCCC=CCC3)cc2)[nH+]1
     RDKit          3D

 45 47  0  0  1  0  0  0  0  0999 V2000
  129.7535  131.8403  154.7930 C   0  0  0  0  0  0  0  0  0  0  0  0
  129.6616  132.6180  156.0806 C   0  0  0  0  0  0  0  0  0  0  0  0
  129.3474  132.1115  157.2851 C   0  0  0  0  0  0  0  0  0  0  0  0
  129.3802  133.1560  158.1807 N   0  0  0  0  0  0  0  0  0  0  0  0
  129.1997  133.1059  159.1324 H   0  0  0  0  0  0  0  0  0  0  0  0
  129.7081  134.2735  157.4769 C   0  0  0  0  0  0  0  0  0  0  0  0
  129.8432  135.5496  157.9993 N   0  0  0  0  0  0  0  0  0  0  0  0
  129.0859  135.9342  159.1124 C   0  0  0  0  0  0  0  0  0  0  0  0
  129.5919  136.8680  160.0075 C   0  0  0  0  0  0  0  0  0  0  0  0
  128.8429  137.2514  161.1020 C   0  0  0  0  0  0  0  0  0  0  0  0
  127.5879  136.6953  161.3139 C   0  0  0  0  0  0  0  0  0  0  0  0
  126.8305  137.0806  162.4260 N   0  0  0  0  0  0  0  0  0  0  0  0
  126.9552  136.3872  163.6274 C   0  0  0  0  0  0  0  0  0  0  0  0
  125.8856  136.3199  164.4110 C   0  0  0  0  0  0  0  0  0  0  0  0
  125.9595  135.6027  165.7241 C   0  0  0  0  0  0  0  0  0  0  0  0
  126.5111  136.4540  166.8441 C   0  0  0  0  0  0  0  0  0  0  0  0
  127.2448  137.6604  166.3778 C   0  0  0  0  0  0  0  0  0  0  0  0
  128.3129  137.5502  165.6294 C   0  0  0  0  0  0  0  0  0  0  0  0
  128.8582  136.1980  165.2628 C   0  0  0  0  0  0  0  0  0  0  0  0
  128.2669  135.7621  163.9328 C   0  0  0  0  0  0  0  0  0  0  0  0
  127.0842  135.7574  160.4218 C   0  0  0  0  0  0  0  0  0  0  0  0
  127.8310  135.3778  159.3245 C   0  0  0  0  0  0  0  0  0  0  0  0
  129.8741  133.9373  156.2194 N   0  0  0  0  0  0  0  0  0  0  0  0
  130.1125  134.5459  155.5026 H   0  0  0  0  0  0  0  0  0  0  0  0
  130.7716  131.4735  154.6620 H   0  0  0  0  0  0  0  0  0  0  0  0
  129.0649  130.9961  154.8285 H   0  0  0  0  0  0  0  0  0  0  0  0
  129.4906  132.4887  153.9573 H   0  0  0  0  0  0  0  0  0  0  0  0
  129.1155  131.0805  157.5083 H   0  0  0  0  0  0  0  0  0  0  0  0
  130.4625  136.1765  157.5939 H   0  0  0  0  0  0  0  0  0  0  0  0
  130.5697  137.2969  159.8451 H   0  0  0  0  0  0  0  0  0  0  0  0
  129.2346  137.9808  161.7956 H   0  0  0  0  0  0  0  0  0  0  0  0
  126.2188  137.8304  162.3602 H   0  0  0  0  0  0  0  0  0  0  0  0
  124.9586  136.7844  164.1024 H   0  0  0  0  0  0  0  0  0  0  0  0
  126.5921  134.7249  165.6096 H   0  0  0  0  0  0  0  0  0  0  0  0
  124.9572  135.2775  166.0003 H   0  0  0  0  0  0  0  0  0  0  0  0
  127.1837  135.8458  167.4449 H   0  0  0  0  0  0  0  0  0  0  0  0
  125.6799  136.7776  167.4701 H   0  0  0  0  0  0  0  0  0  0  0  0
  126.8809  138.6411  166.6464 H   0  0  0  0  0  0  0  0  0  0  0  0
  128.8080  138.4430  165.2724 H   0  0  0  0  0  0  0  0  0  0  0  0
  128.6075  135.4721  166.0369 H   0  0  0  0  0  0  0  0  0  0  0  0
  129.9469  136.2578  165.1746 H   0  0  0  0  0  0  0  0  0  0  0  0
  128.1441  134.6762  163.9413 H   0  0  0  0  0  0  0  0  0  0  0  0
  128.9697  136.0171  163.1353 H   0  0  0  0  0  0  0  0  0  0  0  0
  126.1082  135.3252  160.5863 H   0  0  0  0  0  0  0  0  0  0  0  0
  127.4395  134.6485  158.6310 H   0  0  0  0  0  0  0  0  0  0  0  0
  1  2  1  0
  1 25  1  0
  1 26  1  0
  1 27  1  0
  2 23  1  0
  2  3  2  0
  3  4  1  0
  3 28  1  0
  4  5  1  0
  4  6  1  0
  6  7  1  0
  6 23  2  0
  7  8  1  0
  7 29  1  0
  8 22  1  0
  8  9  2  0
  9 10  1  0
  9 30  1  0
 10 11  2  0
 10 31  1  0
 11 12  1  0
 11 21  1  0
 12 13  1  0
 12 32  1  0
 13 20  1  0
 13 14  2  0
 14 15  1  0
 14 33  1  0
 15 16  1  0
 15 34  1  0
 15 35  1  0
 16 17  1  0
 16 36  1  0
 16 37  1  0
 17 18  2  0
 17 38  1  0
 18 19  1  0
 18 39  1  0
 19 20  1  0
 19 40  1  0
 19 41  1  0
 20 42  1  0
 20 43  1  0
 21 22  2  0
 21 44  1  0
 22 45  1  0
 23 24  1  0
M  CHG  1  23   1
M  END
>  <DOCK_score>  (1) 
-40.929985

>  <SMILES>  (1) 
Cc1c[nH]c(Nc2ccc(NC3=CCCC=CCC3)cc2)[nH+]1

$$$$
