NC1=C[C@H](Nc2ccc(O)cc2Nc2[nH]cc(-c3ccc(Br)cc3)[nH+]2)CC1
     RDKit          3D

 48 51  0  0  1  0  0  0  0  0999 V2000
  133.8209  139.2890  158.9741 N   0  0  0  0  0  0  0  0  0  0  0  0
  132.6358  139.0928  159.6719 C   0  0  0  0  0  0  0  0  0  0  0  0
  132.5647  138.7009  160.9259 C   0  0  0  0  0  0  0  0  0  0  0  0
  131.1266  138.5880  161.3755 C   0  0  2  0  0  0  0  0  0  0  0  0
  131.0016  139.0321  162.3631 H   0  0  0  0  0  0  0  0  0  0  0  0
  130.7059  137.1847  161.3914 N   0  0  0  0  0  0  0  0  0  0  0  0
  129.3649  136.8520  161.1519 C   0  0  0  0  0  0  0  0  0  0  0  0
  128.3694  137.3405  161.9839 C   0  0  0  0  0  0  0  0  0  0  0  0
  127.0470  137.0130  161.7479 C   0  0  0  0  0  0  0  0  0  0  0  0
  126.7123  136.1958  160.6783 C   0  0  0  0  0  0  0  0  0  0  0  0
  125.4103  135.8764  160.4491 O   0  0  0  0  0  0  0  0  0  0  0  0
  127.7037  135.6994  159.8459 C   0  0  0  0  0  0  0  0  0  0  0  0
  129.0308  136.0299  160.0764 C   0  0  0  0  0  0  0  0  0  0  0  0
  130.0338  135.5347  159.2336 N   0  0  0  0  0  0  0  0  0  0  0  0
  129.8684  134.3122  158.6044 C   0  0  0  0  0  0  0  0  0  0  0  0
  129.1568  133.2591  159.0920 N   0  0  0  0  0  0  0  0  0  0  0  0
  128.6783  133.2302  159.9353 H   0  0  0  0  0  0  0  0  0  0  0  0
  129.2388  132.2463  158.1680 C   0  0  0  0  0  0  0  0  0  0  0  0
  130.0044  132.7057  157.1471 C   0  0  0  0  0  0  0  0  0  0  0  0
  130.3701  131.9524  155.9225 C   0  0  0  0  0  0  0  0  0  0  0  0
  129.9955  132.4318  154.6687 C   0  0  0  0  0  0  0  0  0  0  0  0
  130.3428  131.7300  153.5324 C   0  0  0  0  0  0  0  0  0  0  0  0
  131.0524  130.5466  153.6367 C   0  0  0  0  0  0  0  0  0  0  0  0
  131.5174  129.5852  152.0762 Br  0  0  0  0  0  0  0  0  0  0  0  0
  131.4221  130.0630  154.8802 C   0  0  0  0  0  0  0  0  0  0  0  0
  131.0844  130.7598  156.0224 C   0  0  0  0  0  0  0  0  0  0  0  0
  130.3760  133.9761  157.4433 N   0  0  0  0  0  0  0  0  0  0  0  0
  130.9285  134.5452  156.8851 H   0  0  0  0  0  0  0  0  0  0  0  0
  130.3200  139.3798  160.3206 C   0  0  0  0  0  0  0  0  0  0  0  0
  131.2560  139.3012  159.0924 C   0  0  0  0  0  0  0  0  0  0  0  0
  134.6726  139.1351  159.4119 H   0  0  0  0  0  0  0  0  0  0  0  0
  133.7966  139.5799  158.0491 H   0  0  0  0  0  0  0  0  0  0  0  0
  133.4199  138.4883  161.5503 H   0  0  0  0  0  0  0  0  0  0  0  0
  131.3549  136.4858  161.5676 H   0  0  0  0  0  0  0  0  0  0  0  0
  128.6269  137.9776  162.8172 H   0  0  0  0  0  0  0  0  0  0  0  0
  126.2730  137.3946  162.3973 H   0  0  0  0  0  0  0  0  0  0  0  0
  124.7925  136.2651  161.0833 H   0  0  0  0  0  0  0  0  0  0  0  0
  127.4424  135.0596  159.0159 H   0  0  0  0  0  0  0  0  0  0  0  0
  130.8444  136.0480  159.0907 H   0  0  0  0  0  0  0  0  0  0  0  0
  128.7845  131.2692  158.2422 H   0  0  0  0  0  0  0  0  0  0  0  0
  129.4378  133.3530  154.5862 H   0  0  0  0  0  0  0  0  0  0  0  0
  130.0563  132.1026  152.5600 H   0  0  0  0  0  0  0  0  0  0  0  0
  131.9757  129.1386  154.9566 H   0  0  0  0  0  0  0  0  0  0  0  0
  131.3729  130.3816  156.9921 H   0  0  0  0  0  0  0  0  0  0  0  0
  129.3648  138.8965  160.1155 H   0  0  0  0  0  0  0  0  0  0  0  0
  130.1740  140.4131  160.6351 H   0  0  0  0  0  0  0  0  0  0  0  0
  131.2186  140.2321  158.5266 H   0  0  0  0  0  0  0  0  0  0  0  0
  130.9796  138.4591  158.4580 H   0  0  0  0  0  0  0  0  0  0  0  0
  1  2  1  0
  1 31  1  0
  1 32  1  0
  2 30  1  0
  2  3  2  0
  3  4  1  0
  3 33  1  0
  4  5  1  1
  4  6  1  0
  4 29  1  0
  6  7  1  0
  6 34  1  0
  7 13  1  0
  7  8  2  0
  8  9  1  0
  8 35  1  0
  9 10  2  0
  9 36  1  0
 10 11  1  0
 10 12  1  0
 11 37  1  0
 12 13  2  0
 12 38  1  0
 13 14  1  0
 14 39  1  0
 15 14  1  0
 15 27  2  0
 15 16  1  0
 16 17  1  0
 16 18  1  0
 18 19  2  0
 18 40  1  0
 19 20  1  0
 19 27  1  0
 20 26  1  0
 20 21  2  0
 21 22  1  0
 21 41  1  0
 22 23  2  0
 22 42  1  0
 23 24  1  0
 23 25  1  0
 25 26  2  0
 25 43  1  0
 26 44  1  0
 27 28  1  0
 29 30  1  0
 29 45  1  0
 29 46  1  0
 30 47  1  0
 30 48  1  0
M  CHG  1  27   1
M  END
>  <DOCK_score>  (1) 
-56.601456

>  <SMILES>  (1) 
NC1=C[C@H](Nc2ccc(O)cc2Nc2[nH]cc(-c3ccc(Br)cc3)[nH+]2)CC1

$$$$
