Nc1ccc(-c2c[nH]c(N[C@@H](C3=CCCCCC3)C(c3ccccc3)c3ccccc3)[nH+]2)cc1
     RDKit          3D

 67 71  0  0  1  0  0  0  0  0999 V2000
  136.2487  141.5296  159.0731 N   0  0  0  0  0  0  0  0  0  0  0  0
  135.6115  140.3626  159.5017 C   0  0  0  0  0  0  0  0  0  0  0  0
  134.3936  139.9922  158.9439 C   0  0  0  0  0  0  0  0  0  0  0  0
  133.7627  138.8409  159.3653 C   0  0  0  0  0  0  0  0  0  0  0  0
  134.3475  138.0480  160.3515 C   0  0  0  0  0  0  0  0  0  0  0  0
  133.6708  136.8087  160.8066 C   0  0  0  0  0  0  0  0  0  0  0  0
  133.7575  136.2604  162.0436 C   0  0  0  0  0  0  0  0  0  0  0  0
  132.9788  135.1274  162.0329 N   0  0  0  0  0  0  0  0  0  0  0  0
  132.8395  134.5190  162.7755 H   0  0  0  0  0  0  0  0  0  0  0  0
  132.4393  135.0177  160.7886 C   0  0  0  0  0  0  0  0  0  0  0  0
  131.5912  134.0094  160.3636 N   0  0  0  0  0  0  0  0  0  0  0  0
  130.5882  134.2824  159.3312 C   0  0  1  0  0  0  0  0  0  0  0  0
  131.0203  134.9279  158.5665 H   0  0  0  0  0  0  0  0  0  0  0  0
  130.1478  132.9850  158.7033 C   0  0  0  0  0  0  0  0  0  0  0  0
  130.3160  132.7945  157.4333 C   0  0  0  0  0  0  0  0  0  0  0  0
  129.8823  131.4943  156.7906 C   0  0  0  0  0  0  0  0  0  0  0  0
  130.8363  130.3829  157.2338 C   0  0  0  0  0  0  0  0  0  0  0  0
  130.3938  129.7912  158.5603 C   0  0  0  0  0  0  0  0  0  0  0  0
  130.4975  130.7608  159.7244 C   0  0  0  0  0  0  0  0  0  0  0  0
  129.5056  131.9143  159.5592 C   0  0  0  0  0  0  0  0  0  0  0  0
  129.3814  134.9783  159.9637 C   0  0  0  0  0  0  0  0  0  0  0  0
  129.8218  136.2756  160.5917 C   0  0  0  0  0  0  0  0  0  0  0  0
  130.2346  136.3000  161.9107 C   0  0  0  0  0  0  0  0  0  0  0  0
  130.6381  137.4901  162.4868 C   0  0  0  0  0  0  0  0  0  0  0  0
  130.6298  138.6554  161.7435 C   0  0  0  0  0  0  0  0  0  0  0  0
  130.2123  138.6319  160.4259 C   0  0  0  0  0  0  0  0  0  0  0  0
  129.8125  137.4412  159.8487 C   0  0  0  0  0  0  0  0  0  0  0  0
  128.3498  135.2590  158.9017 C   0  0  0  0  0  0  0  0  0  0  0  0
  127.0074  135.2816  159.2309 C   0  0  0  0  0  0  0  0  0  0  0  0
  126.0614  135.5437  158.2577 C   0  0  0  0  0  0  0  0  0  0  0  0
  126.4569  135.7731  156.9533 C   0  0  0  0  0  0  0  0  0  0  0  0
  127.7990  135.7454  156.6230 C   0  0  0  0  0  0  0  0  0  0  0  0
  128.7454  135.4884  157.5972 C   0  0  0  0  0  0  0  0  0  0  0  0
  132.8595  136.0209  160.0570 N   0  0  0  0  0  0  0  0  0  0  0  0
  132.6258  136.1765  159.1286 H   0  0  0  0  0  0  0  0  0  0  0  0
  135.5664  138.4244  160.9136 C   0  0  0  0  0  0  0  0  0  0  0  0
  136.1966  139.5735  160.4847 C   0  0  0  0  0  0  0  0  0  0  0  0
  135.8411  142.0807  158.3869 H   0  0  0  0  0  0  0  0  0  0  0  0
  137.0988  141.7888  159.4619 H   0  0  0  0  0  0  0  0  0  0  0  0
  133.9406  140.6071  158.1801 H   0  0  0  0  0  0  0  0  0  0  0  0
  132.8165  138.5532  158.9314 H   0  0  0  0  0  0  0  0  0  0  0  0
  134.3292  136.6405  162.8773 H   0  0  0  0  0  0  0  0  0  0  0  0
  131.6610  133.1221  160.7493 H   0  0  0  0  0  0  0  0  0  0  0  0
  130.7710  133.5662  156.8300 H   0  0  0  0  0  0  0  0  0  0  0  0
  129.9157  131.5943  155.7057 H   0  0  0  0  0  0  0  0  0  0  0  0
  128.8675  131.2534  157.1073 H   0  0  0  0  0  0  0  0  0  0  0  0
  131.8403  130.7936  157.3411 H   0  0  0  0  0  0  0  0  0  0  0  0
  130.8486  129.5985  156.4772 H   0  0  0  0  0  0  0  0  0  0  0  0
  131.0115  128.9196  158.7766 H   0  0  0  0  0  0  0  0  0  0  0  0
  129.3575  129.4662  158.4686 H   0  0  0  0  0  0  0  0  0  0  0  0
  131.5101  131.1617  159.7682 H   0  0  0  0  0  0  0  0  0  0  0  0
  130.2812  130.2316  160.6525 H   0  0  0  0  0  0  0  0  0  0  0  0
  129.2584  132.3272  160.5372 H   0  0  0  0  0  0  0  0  0  0  0  0
  128.5984  131.5537  159.0744 H   0  0  0  0  0  0  0  0  0  0  0  0
  128.9493  134.3328  160.7285 H   0  0  0  0  0  0  0  0  0  0  0  0
  130.2415  135.3892  162.4913 H   0  0  0  0  0  0  0  0  0  0  0  0
  130.9603  137.5091  163.5174 H   0  0  0  0  0  0  0  0  0  0  0  0
  130.9453  139.5853  162.1933 H   0  0  0  0  0  0  0  0  0  0  0  0
  130.2015  139.5434  159.8465 H   0  0  0  0  0  0  0  0  0  0  0  0
  129.4896  137.4224  158.8182 H   0  0  0  0  0  0  0  0  0  0  0  0
  126.6980  135.0980  160.2493 H   0  0  0  0  0  0  0  0  0  0  0  0
  125.0128  135.5650  158.5158 H   0  0  0  0  0  0  0  0  0  0  0  0
  125.7176  135.9735  156.1920 H   0  0  0  0  0  0  0  0  0  0  0  0
  128.1082  135.9242  155.6037 H   0  0  0  0  0  0  0  0  0  0  0  0
  129.7939  135.4664  157.3391 H   0  0  0  0  0  0  0  0  0  0  0  0
  136.0191  137.8140  161.6811 H   0  0  0  0  0  0  0  0  0  0  0  0
  137.1431  139.8632  160.9167 H   0  0  0  0  0  0  0  0  0  0  0  0
  1  2  1  0
  1 38  1  0
  1 39  1  0
  2 37  2  0
  2  3  1  0
  3  4  2  0
  3 40  1  0
  4  5  1  0
  4 41  1  0
  5  6  1  0
  5 36  2  0
  6 34  1  0
  6  7  2  0
  7  8  1  0
  7 42  1  0
  8  9  1  0
  8 10  1  0
 10 11  1  0
 10 34  2  0
 11 12  1  0
 11 43  1  0
 12 13  1  6
 12 14  1  0
 12 21  1  0
 14 20  1  0
 14 15  2  0
 15 16  1  0
 15 44  1  0
 16 17  1  0
 16 45  1  0
 16 46  1  0
 17 18  1  0
 17 47  1  0
 17 48  1  0
 18 19  1  0
 18 49  1  0
 18 50  1  0
 19 20  1  0
 19 51  1  0
 19 52  1  0
 20 53  1  0
 20 54  1  0
 21 22  1  0
 21 28  1  0
 21 55  1  0
 22 27  1  0
 22 23  2  0
 23 24  1  0
 23 56  1  0
 24 25  2  0
 24 57  1  0
 25 26  1  0
 25 58  1  0
 26 27  2  0
 26 59  1  0
 27 60  1  0
 28 33  1  0
 28 29  2  0
 29 30  1  0
 29 61  1  0
 30 31  2  0
 30 62  1  0
 31 32  1  0
 31 63  1  0
 32 33  2  0
 32 64  1  0
 33 65  1  0
 34 35  1  0
 36 37  1  0
 36 66  1  0
 37 67  1  0
M  CHG  1  34   1
M  END
>  <DOCK_score>  (1) 
-61.393692

>  <SMILES>  (1) 
Nc1ccc(-c2c[nH]c(N[C@@H](C3=CCCCCC3)C(c3ccccc3)c3ccccc3)[nH+]2)cc1

$$$$
