Oc1ccc(-c2ccc(Cl)cc2Cl)c(Nc2[nH]c3ccccc3[nH+]2)c1
     RDKit          3D

 39 42  0  0  0  0  0  0  0  0999 V2000
  127.1759  137.0539  162.6699 O   0  0  0  0  0  0  0  0  0  0  0  0
  127.6620  136.3088  161.6429 C   0  0  0  0  0  0  0  0  0  0  0  0
  126.8383  135.3914  161.0025 C   0  0  0  0  0  0  0  0  0  0  0  0
  127.3232  134.6358  159.9556 C   0  0  0  0  0  0  0  0  0  0  0  0
  128.6459  134.7837  159.5438 C   0  0  0  0  0  0  0  0  0  0  0  0
  129.1711  133.9689  158.4219 C   0  0  0  0  0  0  0  0  0  0  0  0
  129.7521  132.7265  158.6717 C   0  0  0  0  0  0  0  0  0  0  0  0
  130.2448  131.9749  157.6248 C   0  0  0  0  0  0  0  0  0  0  0  0
  130.1526  132.4468  156.3263 C   0  0  0  0  0  0  0  0  0  0  0  0
  130.7678  131.4919  155.0135 Cl  0  0  0  0  0  0  0  0  0  0  0  0
  129.5714  133.6766  156.0712 C   0  0  0  0  0  0  0  0  0  0  0  0
  129.0804  134.4401  157.1122 C   0  0  0  0  0  0  0  0  0  0  0  0
  128.3516  135.9827  156.7913 Cl  0  0  0  0  0  0  0  0  0  0  0  0
  129.4760  135.7082  160.1890 C   0  0  0  0  0  0  0  0  0  0  0  0
  130.8017  135.8653  159.7785 N   0  0  0  0  0  0  0  0  0  0  0  0
  131.7638  136.2420  160.6880 C   0  0  0  0  0  0  0  0  0  0  0  0
  132.8566  136.9436  160.3954 N   0  0  0  0  0  0  0  0  0  0  0  0
  133.1027  137.2695  159.5155 H   0  0  0  0  0  0  0  0  0  0  0  0
  133.5732  137.1304  161.5478 C   0  0  0  0  0  0  0  0  0  0  0  0
  134.7703  137.7762  161.8434 C   0  0  0  0  0  0  0  0  0  0  0  0
  135.2442  137.7817  163.1375 C   0  0  0  0  0  0  0  0  0  0  0  0
  134.5360  137.1486  164.1485 C   0  0  0  0  0  0  0  0  0  0  0  0
  133.3492  136.5051  163.8733 C   0  0  0  0  0  0  0  0  0  0  0  0
  132.8562  136.4895  162.5716 C   0  0  0  0  0  0  0  0  0  0  0  0
  131.7397  135.9526  161.9873 N   0  0  0  0  0  0  0  0  0  0  0  0
  131.0487  135.4469  162.4430 H   0  0  0  0  0  0  0  0  0  0  0  0
  128.9780  136.4670  161.2369 C   0  0  0  0  0  0  0  0  0  0  0  0
  127.8206  137.6644  163.0527 H   0  0  0  0  0  0  0  0  0  0  0  0
  125.8138  135.2723  161.3230 H   0  0  0  0  0  0  0  0  0  0  0  0
  126.6786  133.9269  159.4575 H   0  0  0  0  0  0  0  0  0  0  0  0
  129.8203  132.3550  159.6835 H   0  0  0  0  0  0  0  0  0  0  0  0
  130.6993  131.0144  157.8183 H   0  0  0  0  0  0  0  0  0  0  0  0
  129.5020  134.0401  155.0566 H   0  0  0  0  0  0  0  0  0  0  0  0
  131.0445  135.7090  158.8525 H   0  0  0  0  0  0  0  0  0  0  0  0
  135.3262  138.2716  161.0611 H   0  0  0  0  0  0  0  0  0  0  0  0
  136.1733  138.2826  163.3661 H   0  0  0  0  0  0  0  0  0  0  0  0
  134.9177  137.1606  165.1589 H   0  0  0  0  0  0  0  0  0  0  0  0
  132.8027  136.0145  164.6652 H   0  0  0  0  0  0  0  0  0  0  0  0
  129.6155  137.1810  161.7374 H   0  0  0  0  0  0  0  0  0  0  0  0
  1  2  1  0
  1 28  1  0
  2 27  2  0
  2  3  1  0
  3  4  2  0
  3 29  1  0
  4  5  1  0
  4 30  1  0
  5  6  1  0
  5 14  2  0
  6 12  1  0
  6  7  2  0
  7  8  1  0
  7 31  1  0
  8  9  2  0
  8 32  1  0
  9 10  1  0
  9 11  1  0
 11 12  2  0
 11 33  1  0
 12 13  1  0
 14 15  1  0
 14 27  1  0
 15 16  1  0
 15 34  1  0
 16 25  1  0
 16 17  2  0
 17 18  1  0
 17 19  1  0
 19 24  2  0
 19 20  1  0
 20 21  2  0
 20 35  1  0
 21 22  1  0
 21 36  1  0
 22 23  2  0
 22 37  1  0
 23 24  1  0
 23 38  1  0
 24 25  1  0
 25 26  1  0
 27 39  1  0
M  CHG  1  17   1
M  END
>  <DOCK_score>  (1) 
-45.673466

>  <SMILES>  (1) 
Oc1ccc(-c2ccc(Cl)cc2Cl)c(Nc2[nH]c3ccccc3[nH+]2)c1

$$$$
