O=[N+]([O-])c1cc(F)cc(-c2coc(C[NH2+][C@H]3CCCCC3O)c2)c1NCC1CC=CC1
     RDKit          3D

 60 63  0  0  1  0  0  0  0  0999 V2000
  124.0803  133.6616  162.2661 O   0  0  0  0  0  0  0  0  0  0  0  0
  124.3564  132.7455  161.5125 N   0  0  0  0  0  0  0  0  0  0  0  0
  123.6140  131.7838  161.4252 O   0  0  0  0  0  0  0  0  0  0  0  0
  125.5943  132.8007  160.7027 C   0  0  0  0  0  0  0  0  0  0  0  0
  125.9072  131.7602  159.8480 C   0  0  0  0  0  0  0  0  0  0  0  0
  127.0639  131.8051  159.0872 C   0  0  0  0  0  0  0  0  0  0  0  0
  127.3617  130.7842  158.2540 F   0  0  0  0  0  0  0  0  0  0  0  0
  127.9144  132.8916  159.1772 C   0  0  0  0  0  0  0  0  0  0  0  0
  127.6052  133.9466  160.0311 C   0  0  0  0  0  0  0  0  0  0  0  0
  128.5116  135.1179  160.1270 C   0  0  0  0  0  0  0  0  0  0  0  0
  128.2073  136.4135  159.8572 C   0  0  0  0  0  0  0  0  0  0  0  0
  129.3023  137.1595  160.0672 O   0  0  0  0  0  0  0  0  0  0  0  0
  130.3282  136.3945  160.4696 C   0  0  0  0  0  0  0  0  0  0  0  0
  131.7130  136.8897  160.7982 C   0  0  0  0  0  0  0  0  0  0  0  0
  132.1533  137.8351  159.7636 N   0  0  0  0  0  0  0  0  0  0  0  0
  132.1656  137.3714  158.8676 H   0  0  0  0  0  0  0  0  0  0  0  0
  131.5160  138.6166  159.7291 H   0  0  0  0  0  0  0  0  0  0  0  0
  133.5032  138.3179  160.0838 C   0  0  1  0  0  0  0  0  0  0  0  0
  134.1032  137.4920  160.4665 H   0  0  0  0  0  0  0  0  0  0  0  0
  134.1570  138.8803  158.8201 C   0  0  0  0  0  0  0  0  0  0  0  0
  135.5630  139.3831  159.1537 C   0  0  0  0  0  0  0  0  0  0  0  0
  135.4733  140.4825  160.2140 C   0  0  0  0  0  0  0  0  0  0  0  0
  134.8195  139.9199  161.4778 C   0  0  0  0  0  0  0  0  0  0  0  0
  133.4135  139.4172  161.1442 C   0  0  1  0  0  0  0  0  0  0  0  0
  132.6271  140.4998  160.6426 O   0  0  0  0  0  0  0  0  0  0  0  0
  129.9197  135.1160  160.5387 C   0  0  0  0  0  0  0  0  0  0  0  0
  126.4389  133.8957  160.8027 C   0  0  0  0  0  0  0  0  0  0  0  0
  126.1236  134.9477  161.6669 N   0  0  0  0  0  0  0  0  0  0  0  0
  126.6930  134.7210  163.0020 C   0  0  0  0  0  0  0  0  0  0  0  0
  127.0050  136.0672  163.6586 C   0  0  0  0  0  0  0  0  0  0  0  0
  127.8729  135.8793  164.9246 C   0  0  0  0  0  0  0  0  0  0  0  0
  127.3581  136.9121  165.8999 C   0  0  0  0  0  0  0  0  0  0  0  0
  126.1883  137.3616  165.5347 C   0  0  0  0  0  0  0  0  0  0  0  0
  125.7280  136.7033  164.2549 C   0  0  0  0  0  0  0  0  0  0  0  0
  125.2472  130.9087  159.7732 H   0  0  0  0  0  0  0  0  0  0  0  0
  128.8156  132.9236  158.5827 H   0  0  0  0  0  0  0  0  0  0  0  0
  127.2463  136.7811  159.5293 H   0  0  0  0  0  0  0  0  0  0  0  0
  131.6996  137.3907  161.7662 H   0  0  0  0  0  0  0  0  0  0  0  0
  132.4016  136.0455  160.8356 H   0  0  0  0  0  0  0  0  0  0  0  0
  134.2209  138.0972  158.0647 H   0  0  0  0  0  0  0  0  0  0  0  0
  133.5571  139.7061  158.4375 H   0  0  0  0  0  0  0  0  0  0  0  0
  136.1628  138.5574  159.5363 H   0  0  0  0  0  0  0  0  0  0  0  0
  136.0287  139.7838  158.2534 H   0  0  0  0  0  0  0  0  0  0  0  0
  136.4749  140.8406  160.4516 H   0  0  0  0  0  0  0  0  0  0  0  0
  134.8734  141.3082  159.8314 H   0  0  0  0  0  0  0  0  0  0  0  0
  135.4194  139.0941  161.8604 H   0  0  0  0  0  0  0  0  0  0  0  0
  134.7556  140.7031  162.2332 H   0  0  0  0  0  0  0  0  0  0  0  0
  132.9478  139.0164  162.0446 H   0  0  0  0  0  0  0  0  0  0  0  0
  132.5276  141.2344  161.2635 H   0  0  0  0  0  0  0  0  0  0  0  0
  130.5090  134.2608  160.8345 H   0  0  0  0  0  0  0  0  0  0  0  0
  125.1256  135.0868  161.7182 H   0  0  0  0  0  0  0  0  0  0  0  0
  125.9756  134.1754  163.6149 H   0  0  0  0  0  0  0  0  0  0  0  0
  127.6104  134.1393  162.9117 H   0  0  0  0  0  0  0  0  0  0  0  0
  127.4852  136.7432  162.9511 H   0  0  0  0  0  0  0  0  0  0  0  0
  127.7416  134.8759  165.3296 H   0  0  0  0  0  0  0  0  0  0  0  0
  128.9227  136.0630  164.6960 H   0  0  0  0  0  0  0  0  0  0  0  0
  127.8885  137.2364  166.7831 H   0  0  0  0  0  0  0  0  0  0  0  0
  125.6237  138.1064  166.0760 H   0  0  0  0  0  0  0  0  0  0  0  0
  125.3194  137.4472  163.5709 H   0  0  0  0  0  0  0  0  0  0  0  0
  124.9854  135.9347  164.4690 H   0  0  0  0  0  0  0  0  0  0  0  0
  1  2  2  0
  2  3  1  0
  2  4  1  0
  4 27  2  0
  4  5  1  0
  5  6  2  0
  5 35  1  0
  6  7  1  0
  6  8  1  0
  8  9  2  0
  8 36  1  0
  9 10  1  0
  9 27  1  0
 10 26  1  0
 10 11  2  0
 11 12  1  0
 11 37  1  0
 12 13  1  0
 13 14  1  0
 13 26  2  0
 14 15  1  0
 14 38  1  0
 14 39  1  0
 15 16  1  0
 15 17  1  0
 15 18  1  0
 18 19  1  1
 18 24  1  0
 18 20  1  0
 20 21  1  0
 20 40  1  0
 20 41  1  0
 21 22  1  0
 21 42  1  0
 21 43  1  0
 22 23  1  0
 22 44  1  0
 22 45  1  0
 23 24  1  0
 23 46  1  0
 23 47  1  0
 24 25  1  0
 24 48  1  1
 25 49  1  0
 26 50  1  0
 27 28  1  0
 28 29  1  0
 28 51  1  0
 29 30  1  0
 29 52  1  0
 29 53  1  0
 30 34  1  0
 30 31  1  0
 30 54  1  0
 31 32  1  0
 31 55  1  0
 31 56  1  0
 32 33  2  0
 32 57  1  0
 33 34  1  0
 33 58  1  0
 34 59  1  0
 34 60  1  0
M  CHG  3   2   1   3  -1  15   1
M  END
>  <DOCK_score>  (1) 
-41.348679

>  <SMILES>  (1) 
O=[N+]([O-])c1cc(F)cc(-c2coc(C[NH2+][C@H]3CCCCC3O)c2)c1NCC1CC=CC1

$$$$
