[NH3+][C@@H](C(=O)Nc1cccc(O)c1)c1cnn(Cc2ccccc2)c1
     RDKit          3D

 43 45  0  0  1  0  0  0  0  0999 V2000
  130.6926  133.5964  156.9550 N   0  0  0  0  0  0  0  0  0  0  0  0
  130.7915  132.6044  157.1110 H   0  0  0  0  0  0  0  0  0  0  0  0
  130.0580  133.7545  156.1868 H   0  0  0  0  0  0  0  0  0  0  0  0
  131.5936  133.9935  156.7343 H   0  0  0  0  0  0  0  0  0  0  0  0
  130.1611  134.2321  158.1680 C   0  0  1  0  0  0  0  0  0  0  0  0
  130.0543  135.3037  157.9996 H   0  0  0  0  0  0  0  0  0  0  0  0
  128.8157  133.6389  158.4978 C   0  0  0  0  0  0  0  0  0  0  0  0
  128.3457  132.7718  157.7919 O   0  0  0  0  0  0  0  0  0  0  0  0
  128.1346  134.0719  159.5771 N   0  0  0  0  0  0  0  0  0  0  0  0
  126.8853  133.5210  159.8835 C   0  0  0  0  0  0  0  0  0  0  0  0
  126.6009  132.2061  159.5365 C   0  0  0  0  0  0  0  0  0  0  0  0
  125.3698  131.6607  159.8442 C   0  0  0  0  0  0  0  0  0  0  0  0
  124.4140  132.4243  160.4873 C   0  0  0  0  0  0  0  0  0  0  0  0
  124.6904  133.7400  160.8311 C   0  0  0  0  0  0  0  0  0  0  0  0
  123.7495  134.4897  161.4630 O   0  0  0  0  0  0  0  0  0  0  0  0
  125.9269  134.2892  160.5291 C   0  0  0  0  0  0  0  0  0  0  0  0
  131.1091  133.9961  159.3155 C   0  0  0  0  0  0  0  0  0  0  0  0
  131.4927  132.7504  159.8231 C   0  0  0  0  0  0  0  0  0  0  0  0
  132.3237  132.9509  160.8135 N   0  0  0  0  0  0  0  0  0  0  0  0
  132.4953  134.3326  160.9679 N   0  0  0  0  0  0  0  0  0  0  0  0
  133.3455  134.9896  161.9637 C   0  0  0  0  0  0  0  0  0  0  0  0
  132.5457  135.2489  163.2144 C   0  0  0  0  0  0  0  0  0  0  0  0
  133.1419  135.8593  164.3021 C   0  0  0  0  0  0  0  0  0  0  0  0
  132.4071  136.1014  165.4475 C   0  0  0  0  0  0  0  0  0  0  0  0
  131.0787  135.7237  165.5092 C   0  0  0  0  0  0  0  0  0  0  0  0
  130.4839  135.1087  164.4235 C   0  0  0  0  0  0  0  0  0  0  0  0
  131.2174  134.8712  163.2761 C   0  0  0  0  0  0  0  0  0  0  0  0
  131.7396  134.9516  160.0369 C   0  0  0  0  0  0  0  0  0  0  0  0
  128.5104  134.7652  160.1418 H   0  0  0  0  0  0  0  0  0  0  0  0
  127.3445  131.6088  159.0300 H   0  0  0  0  0  0  0  0  0  0  0  0
  125.1520  130.6371  159.5775 H   0  0  0  0  0  0  0  0  0  0  0  0
  123.4508  131.9963  160.7229 H   0  0  0  0  0  0  0  0  0  0  0  0
  124.0338  135.3924  161.6613 H   0  0  0  0  0  0  0  0  0  0  0  0
  126.1440  135.3129  160.7962 H   0  0  0  0  0  0  0  0  0  0  0  0
  131.1604  131.7891  159.4600 H   0  0  0  0  0  0  0  0  0  0  0  0
  134.1920  134.3452  162.2008 H   0  0  0  0  0  0  0  0  0  0  0  0
  133.7100  135.9355  161.5631 H   0  0  0  0  0  0  0  0  0  0  0  0
  134.1809  136.1503  164.2555 H   0  0  0  0  0  0  0  0  0  0  0  0
  132.8719  136.5817  166.2959 H   0  0  0  0  0  0  0  0  0  0  0  0
  130.5057  135.9089  166.4058 H   0  0  0  0  0  0  0  0  0  0  0  0
  129.4462  134.8133  164.4718 H   0  0  0  0  0  0  0  0  0  0  0  0
  130.7528  134.3903  162.4281 H   0  0  0  0  0  0  0  0  0  0  0  0
  131.6533  136.0185  159.8933 H   0  0  0  0  0  0  0  0  0  0  0  0
  1  2  1  0
  1  3  1  0
  1  4  1  0
  1  5  1  0
  5  6  1  6
  5  7  1  0
  5 17  1  0
  7  8  2  0
  7  9  1  0
  9 10  1  0
  9 29  1  0
 10 16  1  0
 10 11  2  0
 11 12  1  0
 11 30  1  0
 12 13  2  0
 12 31  1  0
 13 14  1  0
 13 32  1  0
 14 15  1  0
 14 16  2  0
 15 33  1  0
 16 34  1  0
 17 28  2  0
 17 18  1  0
 18 19  2  0
 18 35  1  0
 19 20  1  0
 20 21  1  0
 20 28  1  0
 21 22  1  0
 21 36  1  0
 21 37  1  0
 22 27  1  0
 22 23  2  0
 23 24  1  0
 23 38  1  0
 24 25  2  0
 24 39  1  0
 25 26  1  0
 25 40  1  0
 26 27  2  0
 26 41  1  0
 27 42  1  0
 28 43  1  0
M  CHG  1   1   1
M  END
>  <DOCK_score>  (1) 
-42.93779

>  <SMILES>  (1) 
[NH3+][C@@H](C(=O)Nc1cccc(O)c1)c1cnn(Cc2ccccc2)c1

$$$$
