F[C@@H]1C[C@H]([NH2+]Cc2c[nH]nc2-c2ccc(N[C@H]3C[C@H](c4ccccc4)C3)o2)C[C@@H]1F
     RDKit          3D

 57 61  0  0  1  0  0  0  0  0999 V2000
  133.8561  140.5472  159.6046 F   0  0  0  0  0  0  0  0  0  0  0  0
  133.4073  139.5939  160.5250 C   0  0  2  0  0  0  0  0  0  0  0  0
  133.8678  139.7567  161.4995 H   0  0  0  0  0  0  0  0  0  0  0  0
  133.7123  138.1615  160.0166 C   0  0  0  0  0  0  0  0  0  0  0  0
  132.6678  137.3029  160.7719 C   0  0  2  0  0  0  0  0  0  0  0  0
  133.0075  137.0936  161.7863 H   0  0  0  0  0  0  0  0  0  0  0  0
  132.4116  136.0504  160.0482 N   0  0  0  0  0  0  0  0  0  0  0  0
  133.2703  135.5267  159.9681 H   0  0  0  0  0  0  0  0  0  0  0  0
  132.0587  136.2605  159.1266 H   0  0  0  0  0  0  0  0  0  0  0  0
  131.4193  135.2545  160.7829 C   0  0  0  0  0  0  0  0  0  0  0  0
  131.1566  133.9695  160.0405 C   0  0  0  0  0  0  0  0  0  0  0  0
  132.0906  133.1591  159.4985 C   0  0  0  0  0  0  0  0  0  0  0  0
  131.4554  132.1153  158.9228 N   0  0  0  0  0  0  0  0  0  0  0  0
  131.8799  131.3776  158.4575 H   0  0  0  0  0  0  0  0  0  0  0  0
  130.0783  132.2795  159.1184 N   0  0  0  0  0  0  0  0  0  0  0  0
  129.8908  133.4000  159.7876 C   0  0  0  0  0  0  0  0  0  0  0  0
  128.5872  133.9570  160.2041 C   0  0  0  0  0  0  0  0  0  0  0  0
  127.3701  133.4043  159.9580 C   0  0  0  0  0  0  0  0  0  0  0  0
  126.4097  134.2592  160.5341 C   0  0  0  0  0  0  0  0  0  0  0  0
  127.0857  135.2928  161.0950 C   0  0  0  0  0  0  0  0  0  0  0  0
  126.5147  136.3660  161.7691 N   0  0  0  0  0  0  0  0  0  0  0  0
  127.2525  137.0309  162.8460 C   0  0  1  0  0  0  0  0  0  0  0  0
  127.8687  137.8565  162.4900 H   0  0  0  0  0  0  0  0  0  0  0  0
  126.3812  137.3917  164.0608 C   0  0  0  0  0  0  0  0  0  0  0  0
  126.7188  135.9985  164.6176 C   0  0  2  0  0  0  0  0  0  0  0  0
  126.0235  135.2206  164.3025 H   0  0  0  0  0  0  0  0  0  0  0  0
  126.9750  135.9879  166.1026 C   0  0  0  0  0  0  0  0  0  0  0  0
  127.8498  135.0659  166.6466 C   0  0  0  0  0  0  0  0  0  0  0  0
  128.0803  135.0525  168.0094 C   0  0  0  0  0  0  0  0  0  0  0  0
  127.4446  135.9681  168.8271 C   0  0  0  0  0  0  0  0  0  0  0  0
  126.5742  136.8936  168.2824 C   0  0  0  0  0  0  0  0  0  0  0  0
  126.3397  136.9037  166.9201 C   0  0  0  0  0  0  0  0  0  0  0  0
  128.0016  136.0576  163.7716 C   0  0  0  0  0  0  0  0  0  0  0  0
  128.4007  135.1017  160.8943 O   0  0  0  0  0  0  0  0  0  0  0  0
  131.3993  138.1805  160.7976 C   0  0  0  0  0  0  0  0  0  0  0  0
  131.8696  139.6373  160.6406 C   0  0  2  0  0  0  0  0  0  0  0  0
  131.5771  140.2202  161.5140 H   0  0  0  0  0  0  0  0  0  0  0  0
  131.3167  140.1973  159.4839 F   0  0  0  0  0  0  0  0  0  0  0  0
  134.7253  137.8617  160.2846 H   0  0  0  0  0  0  0  0  0  0  0  0
  133.5609  138.0947  158.9391 H   0  0  0  0  0  0  0  0  0  0  0  0
  130.4917  135.8203  160.8694 H   0  0  0  0  0  0  0  0  0  0  0  0
  131.8006  135.0275  161.7784 H   0  0  0  0  0  0  0  0  0  0  0  0
  133.1586  133.3176  159.5213 H   0  0  0  0  0  0  0  0  0  0  0  0
  127.1766  132.4843  159.4265 H   0  0  0  0  0  0  0  0  0  0  0  0
  125.3389  134.1194  160.5281 H   0  0  0  0  0  0  0  0  0  0  0  0
  125.6276  136.6745  161.5266 H   0  0  0  0  0  0  0  0  0  0  0  0
  125.3264  137.5211  163.8185 H   0  0  0  0  0  0  0  0  0  0  0  0
  126.7828  138.2098  164.6585 H   0  0  0  0  0  0  0  0  0  0  0  0
  128.3499  134.3535  166.0072 H   0  0  0  0  0  0  0  0  0  0  0  0
  128.7606  134.3296  168.4349 H   0  0  0  0  0  0  0  0  0  0  0  0
  127.6282  135.9603  169.8914 H   0  0  0  0  0  0  0  0  0  0  0  0
  126.0778  137.6091  168.9212 H   0  0  0  0  0  0  0  0  0  0  0  0
  125.6597  137.6268  166.4948 H   0  0  0  0  0  0  0  0  0  0  0  0
  128.8462  136.5112  164.2903 H   0  0  0  0  0  0  0  0  0  0  0  0
  128.2551  135.1103  163.2959 H   0  0  0  0  0  0  0  0  0  0  0  0
  130.7410  137.9097  159.9721 H   0  0  0  0  0  0  0  0  0  0  0  0
  130.8782  138.0559  161.7468 H   0  0  0  0  0  0  0  0  0  0  0  0
  1  2  1  0
  2  3  1  1
  2 36  1  0
  2  4  1  0
  4  5  1  0
  4 39  1  0
  4 40  1  0
  5  6  1  1
  5  7  1  0
  5 35  1  0
  7  8  1  0
  7  9  1  0
  7 10  1  0
 10 11  1  0
 10 41  1  0
 10 42  1  0
 11 16  1  0
 11 12  2  0
 12 13  1  0
 12 43  1  0
 13 14  1  0
 13 15  1  0
 15 16  2  0
 16 17  1  0
 17 34  1  0
 17 18  2  0
 18 19  1  0
 18 44  1  0
 19 20  2  0
 19 45  1  0
 20 21  1  0
 20 34  1  0
 21 22  1  0
 21 46  1  0
 22 23  1  6
 22 33  1  0
 22 24  1  0
 24 25  1  0
 24 47  1  0
 24 48  1  0
 25 26  1  6
 25 27  1  0
 25 33  1  0
 27 32  1  0
 27 28  2  0
 28 29  1  0
 28 49  1  0
 29 30  2  0
 29 50  1  0
 30 31  1  0
 30 51  1  0
 31 32  2  0
 31 52  1  0
 32 53  1  0
 33 54  1  0
 33 55  1  0
 35 36  1  0
 35 56  1  0
 35 57  1  0
 36 37  1  1
 36 38  1  0
M  CHG  1   7   1
M  END
>  <DOCK_score>  (1) 
-43.552116

>  <SMILES>  (1) 
F[C@@H]1C[C@H]([NH2+]Cc2c[nH]nc2-c2ccc(N[C@H]3C[C@H](c4ccccc4)C3)o2)C[C@@H]1F

$$$$
