Cc1cccc(Nc2ccccc2[C@H](O)c2ccccc2Nc2[nH]c(C)c(C)[nH+]2)c1
     RDKit          3D

 57 60  0  0  1  0  0  0  0  0999 V2000
  135.6527  139.4819  161.7027 C   0  0  0  0  0  0  0  0  0  0  0  0
  134.7338  139.4639  160.5086 C   0  0  0  0  0  0  0  0  0  0  0  0
  135.1716  139.9562  159.2925 C   0  0  0  0  0  0  0  0  0  0  0  0
  134.3318  139.9411  158.1940 C   0  0  0  0  0  0  0  0  0  0  0  0
  133.0539  139.4291  158.3067 C   0  0  0  0  0  0  0  0  0  0  0  0
  132.6092  138.9387  159.5279 C   0  0  0  0  0  0  0  0  0  0  0  0
  131.3156  138.4246  159.6466 N   0  0  0  0  0  0  0  0  0  0  0  0
  130.4138  139.0021  160.5438 C   0  0  0  0  0  0  0  0  0  0  0  0
  130.5046  140.3548  160.8487 C   0  0  0  0  0  0  0  0  0  0  0  0
  129.6086  140.9233  161.7321 C   0  0  0  0  0  0  0  0  0  0  0  0
  128.6282  140.1459  162.3214 C   0  0  0  0  0  0  0  0  0  0  0  0
  128.5382  138.7985  162.0243 C   0  0  0  0  0  0  0  0  0  0  0  0
  129.4279  138.2243  161.1375 C   0  0  0  0  0  0  0  0  0  0  0  0
  129.3289  136.7558  160.8139 C   0  0  2  0  0  0  0  0  0  0  0  0
  129.6822  136.5830  159.7974 H   0  0  0  0  0  0  0  0  0  0  0  0
  127.9677  136.3348  160.9230 O   0  0  0  0  0  0  0  0  0  0  0  0
  130.1767  135.9701  161.7809 C   0  0  0  0  0  0  0  0  0  0  0  0
  129.9165  136.0309  163.1360 C   0  0  0  0  0  0  0  0  0  0  0  0
  130.6911  135.3056  164.0234 C   0  0  0  0  0  0  0  0  0  0  0  0
  131.7342  134.5262  163.5585 C   0  0  0  0  0  0  0  0  0  0  0  0
  132.0031  134.4655  162.2055 C   0  0  0  0  0  0  0  0  0  0  0  0
  131.2240  135.1882  161.3109 C   0  0  0  0  0  0  0  0  0  0  0  0
  131.4939  135.1293  159.9404 N   0  0  0  0  0  0  0  0  0  0  0  0
  130.8834  134.1674  159.1561 C   0  0  0  0  0  0  0  0  0  0  0  0
  131.0529  134.0130  157.8459 N   0  0  0  0  0  0  0  0  0  0  0  0
  131.6243  134.5539  157.2786 H   0  0  0  0  0  0  0  0  0  0  0  0
  130.2887  132.9637  157.4396 C   0  0  0  0  0  0  0  0  0  0  0  0
  130.1774  132.4338  156.0332 C   0  0  0  0  0  0  0  0  0  0  0  0
  129.6468  132.4891  158.5213 C   0  0  0  0  0  0  0  0  0  0  0  0
  128.6841  131.3300  158.5493 C   0  0  0  0  0  0  0  0  0  0  0  0
  130.0250  133.2468  159.5857 N   0  0  0  0  0  0  0  0  0  0  0  0
  129.7213  133.1349  160.5001 H   0  0  0  0  0  0  0  0  0  0  0  0
  133.4558  138.9555  160.6297 C   0  0  0  0  0  0  0  0  0  0  0  0
  136.2841  138.5934  161.6889 H   0  0  0  0  0  0  0  0  0  0  0  0
  136.2790  140.3733  161.6658 H   0  0  0  0  0  0  0  0  0  0  0  0
  135.0600  139.4921  162.6174 H   0  0  0  0  0  0  0  0  0  0  0  0
  136.1717  140.3536  159.2007 H   0  0  0  0  0  0  0  0  0  0  0  0
  134.6769  140.3263  157.2459 H   0  0  0  0  0  0  0  0  0  0  0  0
  132.4001  139.4138  157.4474 H   0  0  0  0  0  0  0  0  0  0  0  0
  131.0436  137.6664  159.1060 H   0  0  0  0  0  0  0  0  0  0  0  0
  131.2727  140.9614  160.3922 H   0  0  0  0  0  0  0  0  0  0  0  0
  129.6763  141.9753  161.9667 H   0  0  0  0  0  0  0  0  0  0  0  0
  127.9310  140.5923  163.0150 H   0  0  0  0  0  0  0  0  0  0  0  0
  127.7717  138.1942  162.4867 H   0  0  0  0  0  0  0  0  0  0  0  0
  127.8288  135.3979  160.7280 H   0  0  0  0  0  0  0  0  0  0  0  0
  129.1053  136.6424  163.5027 H   0  0  0  0  0  0  0  0  0  0  0  0
  130.4830  135.3513  165.0822 H   0  0  0  0  0  0  0  0  0  0  0  0
  132.3394  133.9646  164.2546 H   0  0  0  0  0  0  0  0  0  0  0  0
  132.8185  133.8569  161.8433 H   0  0  0  0  0  0  0  0  0  0  0  0
  132.1092  135.7630  159.5395 H   0  0  0  0  0  0  0  0  0  0  0  0
  129.3700  132.9497  155.5134 H   0  0  0  0  0  0  0  0  0  0  0  0
  131.1160  132.6036  155.5056 H   0  0  0  0  0  0  0  0  0  0  0  0
  129.9657  131.3650  156.0633 H   0  0  0  0  0  0  0  0  0  0  0  0
  127.6878  131.6785  158.2772 H   0  0  0  0  0  0  0  0  0  0  0  0
  129.0098  130.5700  157.8390 H   0  0  0  0  0  0  0  0  0  0  0  0
  128.6585  130.9031  159.5519 H   0  0  0  0  0  0  0  0  0  0  0  0
  133.1144  138.5715  161.5796 H   0  0  0  0  0  0  0  0  0  0  0  0
  1  2  1  0
  1 34  1  0
  1 35  1  0
  1 36  1  0
  2 33  2  0
  2  3  1  0
  3  4  2  0
  3 37  1  0
  4  5  1  0
  4 38  1  0
  5  6  2  0
  5 39  1  0
  6  7  1  0
  6 33  1  0
  7  8  1  0
  7 40  1  0
  8 13  1  0
  8  9  2  0
  9 10  1  0
  9 41  1  0
 10 11  2  0
 10 42  1  0
 11 12  1  0
 11 43  1  0
 12 13  2  0
 12 44  1  0
 13 14  1  0
 14 15  1  6
 14 16  1  0
 14 17  1  0
 16 45  1  0
 17 22  1  0
 17 18  2  0
 18 19  1  0
 18 46  1  0
 19 20  2  0
 19 47  1  0
 20 21  1  0
 20 48  1  0
 21 22  2  0
 21 49  1  0
 22 23  1  0
 23 50  1  0
 24 23  1  0
 24 31  1  0
 24 25  2  0
 25 26  1  0
 25 27  1  0
 27 28  1  0
 27 29  2  0
 28 51  1  0
 28 52  1  0
 28 53  1  0
 29 30  1  0
 29 31  1  0
 30 54  1  0
 30 55  1  0
 30 56  1  0
 31 32  1  0
 33 57  1  0
M  CHG  1  25   1
M  END
>  <DOCK_score>  (1) 
-60.964096

>  <SMILES>  (1) 
Cc1cccc(Nc2ccccc2[C@H](O)c2ccccc2Nc2[nH]c(C)c(C)[nH+]2)c1

$$$$
