C[C@H](Nc1[nH]cc(-c2ccc(N)cc2Cl)[nH+]1)c1ccccc1
     RDKit          3D

 40 42  0  0  1  0  0  0  0  0999 V2000
  130.4108  136.7289  160.8126 C   0  0  0  0  0  0  0  0  0  0  0  0
  129.9544  135.3689  160.2807 C   0  0  2  0  0  0  0  0  0  0  0  0
  130.3177  134.5805  160.9399 H   0  0  0  0  0  0  0  0  0  0  0  0
  130.4930  135.1658  158.9335 N   0  0  0  0  0  0  0  0  0  0  0  0
  130.2123  133.9981  158.2447 C   0  0  0  0  0  0  0  0  0  0  0  0
  129.4523  132.9685  158.7069 N   0  0  0  0  0  0  0  0  0  0  0  0
  129.0134  132.9208  159.5706 H   0  0  0  0  0  0  0  0  0  0  0  0
  129.4165  132.0107  157.7209 C   0  0  0  0  0  0  0  0  0  0  0  0
  130.1620  132.4798  156.6900 C   0  0  0  0  0  0  0  0  0  0  0  0
  130.4116  131.7820  155.4048 C   0  0  0  0  0  0  0  0  0  0  0  0
  130.0164  132.3687  154.2037 C   0  0  0  0  0  0  0  0  0  0  0  0
  130.2497  131.7187  153.0103 C   0  0  0  0  0  0  0  0  0  0  0  0
  130.8778  130.4791  153.0034 C   0  0  0  0  0  0  0  0  0  0  0  0
  131.1140  129.8231  151.7930 N   0  0  0  0  0  0  0  0  0  0  0  0
  131.2738  129.8914  154.1990 C   0  0  0  0  0  0  0  0  0  0  0  0
  131.0426  130.5380  155.3963 C   0  0  0  0  0  0  0  0  0  0  0  0
  131.5358  129.8036  156.8900 Cl  0  0  0  0  0  0  0  0  0  0  0  0
  130.6345  133.7024  157.0394 N   0  0  0  0  0  0  0  0  0  0  0  0
  131.1954  134.2678  156.4856 H   0  0  0  0  0  0  0  0  0  0  0  0
  128.4488  135.3284  160.2312 C   0  0  0  0  0  0  0  0  0  0  0  0
  127.7332  134.8757  161.3239 C   0  0  0  0  0  0  0  0  0  0  0  0
  126.3519  134.8427  161.2801 C   0  0  0  0  0  0  0  0  0  0  0  0
  125.6866  135.2535  160.1403 C   0  0  0  0  0  0  0  0  0  0  0  0
  126.4023  135.7013  159.0456 C   0  0  0  0  0  0  0  0  0  0  0  0
  127.7834  135.7384  159.0910 C   0  0  0  0  0  0  0  0  0  0  0  0
  130.0476  137.5174  160.1535 H   0  0  0  0  0  0  0  0  0  0  0  0
  130.0101  136.8801  161.8150 H   0  0  0  0  0  0  0  0  0  0  0  0
  131.4998  136.7583  160.8485 H   0  0  0  0  0  0  0  0  0  0  0  0
  131.0462  135.8494  158.5242 H   0  0  0  0  0  0  0  0  0  0  0  0
  128.8959  131.0653  157.7607 H   0  0  0  0  0  0  0  0  0  0  0  0
  129.5281  133.3320  154.2079 H   0  0  0  0  0  0  0  0  0  0  0  0
  129.9475  132.1752  152.0793 H   0  0  0  0  0  0  0  0  0  0  0  0
  130.8386  130.2327  150.9579 H   0  0  0  0  0  0  0  0  0  0  0  0
  131.5528  128.9580  151.7873 H   0  0  0  0  0  0  0  0  0  0  0  0
  131.7619  128.9280  154.1914 H   0  0  0  0  0  0  0  0  0  0  0  0
  128.2533  134.5511  162.2131 H   0  0  0  0  0  0  0  0  0  0  0  0
  125.7928  134.4931  162.1355 H   0  0  0  0  0  0  0  0  0  0  0  0
  124.6075  135.2251  160.1050 H   0  0  0  0  0  0  0  0  0  0  0  0
  125.8824  136.0222  158.1550 H   0  0  0  0  0  0  0  0  0  0  0  0
  128.3426  136.0882  158.2357 H   0  0  0  0  0  0  0  0  0  0  0  0
  1  2  1  0
  1 26  1  0
  1 27  1  0
  1 28  1  0
  2  3  1  1
  2  4  1  0
  2 20  1  0
  4 29  1  0
  5  4  1  0
  5 18  2  0
  5  6  1  0
  6  7  1  0
  6  8  1  0
  8  9  2  0
  8 30  1  0
  9 10  1  0
  9 18  1  0
 10 16  1  0
 10 11  2  0
 11 12  1  0
 11 31  1  0
 12 13  2  0
 12 32  1  0
 13 14  1  0
 13 15  1  0
 14 33  1  0
 14 34  1  0
 15 16  2  0
 15 35  1  0
 16 17  1  0
 18 19  1  0
 20 25  1  0
 20 21  2  0
 21 22  1  0
 21 36  1  0
 22 23  2  0
 22 37  1  0
 23 24  1  0
 23 38  1  0
 24 25  2  0
 24 39  1  0
 25 40  1  0
M  CHG  1  18   1
M  END
>  <DOCK_score>  (1) 
-58.532429

>  <SMILES>  (1) 
C[C@H](Nc1[nH]cc(-c2ccc(N)cc2Cl)[nH+]1)c1ccccc1

$$$$
