F[C@@H]1C[C@H]([NH2+]Cc2c[nH]nc2-c2ccc(Nc3cccc4c3CCCC4)o2)C[C@@H]1F
     RDKit          3D

 57 61  0  0  1  0  0  0  0  0999 V2000
  135.6825  138.7872  162.6531 F   0  0  0  0  0  0  0  0  0  0  0  0
  134.3943  138.8866  162.1164 C   0  0  2  0  0  0  0  0  0  0  0  0
  133.7396  139.4358  162.7928 H   0  0  0  0  0  0  0  0  0  0  0  0
  133.8148  137.4776  161.8299 C   0  0  0  0  0  0  0  0  0  0  0  0
  132.7517  137.7623  160.7400 C   0  0  2  0  0  0  0  0  0  0  0  0
  131.8303  138.1293  161.1924 H   0  0  0  0  0  0  0  0  0  0  0  0
  132.4885  136.5522  159.9499 N   0  0  0  0  0  0  0  0  0  0  0  0
  133.3564  136.0667  159.7794 H   0  0  0  0  0  0  0  0  0  0  0  0
  132.0689  136.8102  159.0692 H   0  0  0  0  0  0  0  0  0  0  0  0
  131.5729  135.6736  160.6898 C   0  0  0  0  0  0  0  0  0  0  0  0
  131.3030  134.4323  159.8793 C   0  0  0  0  0  0  0  0  0  0  0  0
  132.2254  133.6903  159.2298 C   0  0  0  0  0  0  0  0  0  0  0  0
  131.5868  132.6678  158.6211 N   0  0  0  0  0  0  0  0  0  0  0  0
  132.0031  131.9781  158.0808 H   0  0  0  0  0  0  0  0  0  0  0  0
  130.2202  132.7718  158.9097 N   0  0  0  0  0  0  0  0  0  0  0  0
  130.0421  133.8351  159.6689 C   0  0  0  0  0  0  0  0  0  0  0  0
  128.7517  134.3154  160.2046 C   0  0  0  0  0  0  0  0  0  0  0  0
  127.5385  133.7398  159.9942 C   0  0  0  0  0  0  0  0  0  0  0  0
  126.5914  134.5188  160.6871 C   0  0  0  0  0  0  0  0  0  0  0  0
  127.2699  135.5340  161.2780 C   0  0  0  0  0  0  0  0  0  0  0  0
  126.7103  136.5389  162.0590 N   0  0  0  0  0  0  0  0  0  0  0  0
  127.5254  137.5298  162.6113 C   0  0  0  0  0  0  0  0  0  0  0  0
  128.2701  138.3528  161.7797 C   0  0  0  0  0  0  0  0  0  0  0  0
  129.0745  139.3317  162.3285 C   0  0  0  0  0  0  0  0  0  0  0  0
  129.1347  139.4832  163.6992 C   0  0  0  0  0  0  0  0  0  0  0  0
  128.3934  138.6593  164.5374 C   0  0  0  0  0  0  0  0  0  0  0  0
  127.5813  137.6896  163.9966 C   0  0  0  0  0  0  0  0  0  0  0  0
  126.7340  136.7762  164.8431 C   0  0  0  0  0  0  0  0  0  0  0  0
  127.2256  136.7749  166.2892 C   0  0  0  0  0  0  0  0  0  0  0  0
  127.3450  138.2291  166.7605 C   0  0  0  0  0  0  0  0  0  0  0  0
  128.5216  138.8733  166.0230 C   0  0  0  0  0  0  0  0  0  0  0  0
  128.5747  135.4043  160.9819 O   0  0  0  0  0  0  0  0  0  0  0  0
  133.3924  138.8541  159.8584 C   0  0  0  0  0  0  0  0  0  0  0  0
  134.4368  139.5690  160.7336 C   0  0  2  0  0  0  0  0  0  0  0  0
  134.1833  140.6247  160.8302 H   0  0  0  0  0  0  0  0  0  0  0  0
  135.7095  139.4317  160.1692 F   0  0  0  0  0  0  0  0  0  0  0  0
  133.3499  137.0598  162.7231 H   0  0  0  0  0  0  0  0  0  0  0  0
  134.5897  136.8123  161.4492 H   0  0  0  0  0  0  0  0  0  0  0  0
  130.6355  136.1983  160.8740 H   0  0  0  0  0  0  0  0  0  0  0  0
  132.0263  135.3950  161.6411 H   0  0  0  0  0  0  0  0  0  0  0  0
  133.2878  133.8826  159.2001 H   0  0  0  0  0  0  0  0  0  0  0  0
  127.3392  132.8536  159.4099 H   0  0  0  0  0  0  0  0  0  0  0  0
  125.5267  134.3439  160.7349 H   0  0  0  0  0  0  0  0  0  0  0  0
  125.7540  136.5520  162.2201 H   0  0  0  0  0  0  0  0  0  0  0  0
  128.2214  138.2283  160.7081 H   0  0  0  0  0  0  0  0  0  0  0  0
  129.6556  139.9773  161.6868 H   0  0  0  0  0  0  0  0  0  0  0  0
  129.7649  140.2500  164.1247 H   0  0  0  0  0  0  0  0  0  0  0  0
  125.6992  137.1179  164.8155 H   0  0  0  0  0  0  0  0  0  0  0  0
  126.7882  135.7634  164.4441 H   0  0  0  0  0  0  0  0  0  0  0  0
  126.5129  136.2424  166.9187 H   0  0  0  0  0  0  0  0  0  0  0  0
  128.2000  136.2896  166.3452 H   0  0  0  0  0  0  0  0  0  0  0  0
  126.4231  138.7650  166.5345 H   0  0  0  0  0  0  0  0  0  0  0  0
  127.5303  138.2528  167.8342 H   0  0  0  0  0  0  0  0  0  0  0  0
  129.4588  138.4375  166.3693 H   0  0  0  0  0  0  0  0  0  0  0  0
  128.5239  139.9427  166.2332 H   0  0  0  0  0  0  0  0  0  0  0  0
  133.8772  138.3996  158.9945 H   0  0  0  0  0  0  0  0  0  0  0  0
  132.6320  139.5630  159.5303 H   0  0  0  0  0  0  0  0  0  0  0  0
  1  2  1  0
  2  3  1  1
  2 34  1  0
  2  4  1  0
  4  5  1  0
  4 37  1  0
  4 38  1  0
  5  6  1  1
  5  7  1  0
  5 33  1  0
  7  8  1  0
  7  9  1  0
  7 10  1  0
 10 11  1  0
 10 39  1  0
 10 40  1  0
 11 16  1  0
 11 12  2  0
 12 13  1  0
 12 41  1  0
 13 14  1  0
 13 15  1  0
 15 16  2  0
 16 17  1  0
 17 32  1  0
 17 18  2  0
 18 19  1  0
 18 42  1  0
 19 20  2  0
 19 43  1  0
 20 21  1  0
 20 32  1  0
 21 22  1  0
 21 44  1  0
 22 27  1  0
 22 23  2  0
 23 24  1  0
 23 45  1  0
 24 25  2  0
 24 46  1  0
 25 26  1  0
 25 47  1  0
 26 31  1  0
 26 27  2  0
 27 28  1  0
 28 29  1  0
 28 48  1  0
 28 49  1  0
 29 30  1  0
 29 50  1  0
 29 51  1  0
 30 31  1  0
 30 52  1  0
 30 53  1  0
 31 54  1  0
 31 55  1  0
 33 34  1  0
 33 56  1  0
 33 57  1  0
 34 35  1  1
 34 36  1  0
M  CHG  1   7   1
M  END
>  <DOCK_score>  (1) 
-43.664444

>  <SMILES>  (1) 
F[C@@H]1C[C@H]([NH2+]Cc2c[nH]nc2-c2ccc(Nc3cccc4c3CCCC4)o2)C[C@@H]1F

$$$$
