Cc1cccc(-c2ccc(C[NH+]=C(NCc3cccc(O)c3)N[C@@H]3CCC(=O)NC3)cc2)c1
     RDKit          3D

 64 67  0  0  1  0  0  0  0  0999 V2000
  136.1657  141.7683  166.3723 C   0  0  0  0  0  0  0  0  0  0  0  0
  136.1726  141.5833  164.8766 C   0  0  0  0  0  0  0  0  0  0  0  0
  136.8911  142.4539  164.0768 C   0  0  0  0  0  0  0  0  0  0  0  0
  136.9064  142.2865  162.7039 C   0  0  0  0  0  0  0  0  0  0  0  0
  136.1950  141.2557  162.1237 C   0  0  0  0  0  0  0  0  0  0  0  0
  135.4653  140.3795  162.9240 C   0  0  0  0  0  0  0  0  0  0  0  0
  134.6977  139.2700  162.3062 C   0  0  0  0  0  0  0  0  0  0  0  0
  134.5044  138.0798  163.0044 C   0  0  0  0  0  0  0  0  0  0  0  0
  133.7857  137.0528  162.4269 C   0  0  0  0  0  0  0  0  0  0  0  0
  133.2676  137.1991  161.1527 C   0  0  0  0  0  0  0  0  0  0  0  0
  132.4890  136.0719  160.5249 C   0  0  0  0  0  0  0  0  0  0  0  0
  131.0689  136.2163  160.8548 N   0  0  0  0  0  0  0  0  0  0  0  0
  130.7714  136.9598  161.4020 H   0  0  0  0  0  0  0  0  0  0  0  0
  130.2054  135.3456  160.4129 C   0  0  0  0  0  0  0  0  0  0  0  0
  130.6271  134.2919  159.6373 N   0  0  0  0  0  0  0  0  0  0  0  0
  129.6564  133.3133  159.1407 C   0  0  0  0  0  0  0  0  0  0  0  0
  130.3704  132.2681  158.3229 C   0  0  0  0  0  0  0  0  0  0  0  0
  130.8545  131.1254  158.9329 C   0  0  0  0  0  0  0  0  0  0  0  0
  131.5091  130.1642  158.1852 C   0  0  0  0  0  0  0  0  0  0  0  0
  131.6811  130.3434  156.8260 C   0  0  0  0  0  0  0  0  0  0  0  0
  131.1968  131.4889  156.2119 C   0  0  0  0  0  0  0  0  0  0  0  0
  131.3645  131.6673  154.8751 O   0  0  0  0  0  0  0  0  0  0  0  0
  130.5356  132.4497  156.9637 C   0  0  0  0  0  0  0  0  0  0  0  0
  128.8727  135.4813  160.7225 N   0  0  0  0  0  0  0  0  0  0  0  0
  128.4742  136.1135  161.9826 C   0  0  2  0  0  0  0  0  0  0  0  0
  128.8559  137.1338  162.0165 H   0  0  0  0  0  0  0  0  0  0  0  0
  129.0367  135.3104  163.1616 C   0  0  0  0  0  0  0  0  0  0  0  0
  128.7631  136.0888  164.4511 C   0  0  0  0  0  0  0  0  0  0  0  0
  127.3244  136.5169  164.4939 C   0  0  0  0  0  0  0  0  0  0  0  0
  126.8565  136.8513  165.5618 O   0  0  0  0  0  0  0  0  0  0  0  0
  126.5337  136.5496  163.4205 N   0  0  0  0  0  0  0  0  0  0  0  0
  126.9487  136.1329  162.0869 C   0  0  0  0  0  0  0  0  0  0  0  0
  133.4619  138.3761  160.4525 C   0  0  0  0  0  0  0  0  0  0  0  0
  134.1741  139.4117  161.0227 C   0  0  0  0  0  0  0  0  0  0  0  0
  135.4579  140.5494  164.3073 C   0  0  0  0  0  0  0  0  0  0  0  0
  136.9857  141.2010  166.8124 H   0  0  0  0  0  0  0  0  0  0  0  0
  136.2874  142.8254  166.6082 H   0  0  0  0  0  0  0  0  0  0  0  0
  135.2188  141.4121  166.7781 H   0  0  0  0  0  0  0  0  0  0  0  0
  137.4452  143.2646  164.5262 H   0  0  0  0  0  0  0  0  0  0  0  0
  137.4722  142.9666  162.0844 H   0  0  0  0  0  0  0  0  0  0  0  0
  136.2045  141.1284  161.0512 H   0  0  0  0  0  0  0  0  0  0  0  0
  134.9124  137.9627  163.9976 H   0  0  0  0  0  0  0  0  0  0  0  0
  133.6310  136.1317  162.9691 H   0  0  0  0  0  0  0  0  0  0  0  0
  132.6154  136.1015  159.4427 H   0  0  0  0  0  0  0  0  0  0  0  0
  132.8560  135.1196  160.9076 H   0  0  0  0  0  0  0  0  0  0  0  0
  131.5673  134.1963  159.4188 H   0  0  0  0  0  0  0  0  0  0  0  0
  129.1575  132.8363  159.9842 H   0  0  0  0  0  0  0  0  0  0  0  0
  128.9169  133.8183  158.5193 H   0  0  0  0  0  0  0  0  0  0  0  0
  130.7207  130.9833  159.9950 H   0  0  0  0  0  0  0  0  0  0  0  0
  131.8859  129.2724  158.6639 H   0  0  0  0  0  0  0  0  0  0  0  0
  132.1919  129.5919  156.2422 H   0  0  0  0  0  0  0  0  0  0  0  0
  130.9935  132.4947  154.5392 H   0  0  0  0  0  0  0  0  0  0  0  0
  130.1534  133.3402  156.4869 H   0  0  0  0  0  0  0  0  0  0  0  0
  128.1964  135.1584  160.1068 H   0  0  0  0  0  0  0  0  0  0  0  0
  128.5480  134.3373  163.2092 H   0  0  0  0  0  0  0  0  0  0  0  0
  130.1111  135.1763  163.0349 H   0  0  0  0  0  0  0  0  0  0  0  0
  129.4043  136.9696  164.4854 H   0  0  0  0  0  0  0  0  0  0  0  0
  128.9770  135.4517  165.3094 H   0  0  0  0  0  0  0  0  0  0  0  0
  125.6256  136.8710  163.5344 H   0  0  0  0  0  0  0  0  0  0  0  0
  126.5460  136.8283  161.3506 H   0  0  0  0  0  0  0  0  0  0  0  0
  126.5612  135.1336  161.8881 H   0  0  0  0  0  0  0  0  0  0  0  0
  133.0552  138.4851  159.4580 H   0  0  0  0  0  0  0  0  0  0  0  0
  134.3252  140.3302  160.4752 H   0  0  0  0  0  0  0  0  0  0  0  0
  134.8942  139.8727  164.9324 H   0  0  0  0  0  0  0  0  0  0  0  0
  1  2  1  0
  1 36  1  0
  1 37  1  0
  1 38  1  0
  2 35  2  0
  2  3  1  0
  3  4  2  0
  3 39  1  0
  4  5  1  0
  4 40  1  0
  5  6  2  0
  5 41  1  0
  6  7  1  0
  6 35  1  0
  7 34  1  0
  7  8  2  0
  8  9  1  0
  8 42  1  0
  9 10  2  0
  9 43  1  0
 10 11  1  0
 10 33  1  0
 11 12  1  0
 11 44  1  0
 11 45  1  0
 12 13  1  0
 14 12  2  0
 14 15  1  0
 14 24  1  0
 15 16  1  0
 15 46  1  0
 16 17  1  0
 16 47  1  0
 16 48  1  0
 17 23  1  0
 17 18  2  0
 18 19  1  0
 18 49  1  0
 19 20  2  0
 19 50  1  0
 20 21  1  0
 20 51  1  0
 21 22  1  0
 21 23  2  0
 22 52  1  0
 23 53  1  0
 24 25  1  0
 24 54  1  0
 25 26  1  6
 25 32  1  0
 25 27  1  0
 27 28  1  0
 27 55  1  0
 27 56  1  0
 28 29  1  0
 28 57  1  0
 28 58  1  0
 29 30  2  0
 29 31  1  0
 31 32  1  0
 31 59  1  0
 32 60  1  0
 32 61  1  0
 33 34  2  0
 33 62  1  0
 34 63  1  0
 35 64  1  0
M  CHG  1  12   1
M  END
>  <DOCK_score>  (1) 
-43.295139

>  <SMILES>  (1) 
Cc1cccc(-c2ccc(C[NH+]=C(NCc3cccc(O)c3)N[C@@H]3CCC(=O)NC3)cc2)c1

$$$$
