COc1ccc([C@@H](Nc2[nH]cc(-c3ccc(N)cc3)[nH+]2)c2ccc(C)cc2)cc1
     RDKit          3D

 54 57  0  0  1  0  0  0  0  0999 V2000
  129.8571  130.8527  152.4042 C   0  0  0  0  0  0  0  0  0  0  0  0
  130.5254  130.1235  153.4356 O   0  0  0  0  0  0  0  0  0  0  0  0
  130.5578  130.6904  154.6703 C   0  0  0  0  0  0  0  0  0  0  0  0
  131.1903  130.0375  155.7182 C   0  0  0  0  0  0  0  0  0  0  0  0
  131.2222  130.6160  156.9722 C   0  0  0  0  0  0  0  0  0  0  0  0
  130.6246  131.8448  157.1833 C   0  0  0  0  0  0  0  0  0  0  0  0
  130.6610  132.4738  158.5524 C   0  0  1  0  0  0  0  0  0  0  0  0
  131.1967  131.8185  159.2392 H   0  0  0  0  0  0  0  0  0  0  0  0
  131.3451  133.7671  158.4777 N   0  0  0  0  0  0  0  0  0  0  0  0
  132.0469  134.2431  159.5720 C   0  0  0  0  0  0  0  0  0  0  0  0
  132.1809  133.6051  160.7663 N   0  0  0  0  0  0  0  0  0  0  0  0
  131.8049  132.7426  161.0025 H   0  0  0  0  0  0  0  0  0  0  0  0
  132.9475  134.4088  161.5765 C   0  0  0  0  0  0  0  0  0  0  0  0
  133.2589  135.5129  160.8538 C   0  0  0  0  0  0  0  0  0  0  0  0
  134.0753  136.6603  161.3207 C   0  0  0  0  0  0  0  0  0  0  0  0
  134.3237  137.7337  160.4667 C   0  0  0  0  0  0  0  0  0  0  0  0
  135.0779  138.8017  160.9046 C   0  0  0  0  0  0  0  0  0  0  0  0
  135.6003  138.8031  162.1926 C   0  0  0  0  0  0  0  0  0  0  0  0
  136.3689  139.8837  162.6319 N   0  0  0  0  0  0  0  0  0  0  0  0
  135.3587  137.7314  163.0439 C   0  0  0  0  0  0  0  0  0  0  0  0
  134.6001  136.6640  162.6122 C   0  0  0  0  0  0  0  0  0  0  0  0
  132.6966  135.3803  159.6263 N   0  0  0  0  0  0  0  0  0  0  0  0
  132.7631  136.0251  158.9048 H   0  0  0  0  0  0  0  0  0  0  0  0
  129.2529  132.6783  159.0488 C   0  0  0  0  0  0  0  0  0  0  0  0
  128.2470  131.8190  158.6480 C   0  0  0  0  0  0  0  0  0  0  0  0
  126.9562  132.0038  159.1072 C   0  0  0  0  0  0  0  0  0  0  0  0
  126.6694  133.0541  159.9589 C   0  0  0  0  0  0  0  0  0  0  0  0
  125.2611  133.2592  160.4546 C   0  0  0  0  0  0  0  0  0  0  0  0
  127.6743  133.9165  160.3557 C   0  0  0  0  0  0  0  0  0  0  0  0
  128.9660  133.7286  159.9006 C   0  0  0  0  0  0  0  0  0  0  0  0
  129.9935  132.4975  156.1406 C   0  0  0  0  0  0  0  0  0  0  0  0
  129.9588  131.9232  154.8846 C   0  0  0  0  0  0  0  0  0  0  0  0
  130.3424  131.8195  152.2698 H   0  0  0  0  0  0  0  0  0  0  0  0
  129.9045  130.2898  151.4720 H   0  0  0  0  0  0  0  0  0  0  0  0
  128.8147  131.0052  152.6840 H   0  0  0  0  0  0  0  0  0  0  0  0
  131.6570  129.0775  155.5538 H   0  0  0  0  0  0  0  0  0  0  0  0
  131.7106  130.1060  157.7894 H   0  0  0  0  0  0  0  0  0  0  0  0
  131.3063  134.2897  157.6615 H   0  0  0  0  0  0  0  0  0  0  0  0
  133.2448  134.2005  162.5938 H   0  0  0  0  0  0  0  0  0  0  0  0
  133.9220  137.7307  159.4640 H   0  0  0  0  0  0  0  0  0  0  0  0
  135.2665  139.6357  160.2449 H   0  0  0  0  0  0  0  0  0  0  0  0
  136.7331  139.8858  163.5313 H   0  0  0  0  0  0  0  0  0  0  0  0
  136.5376  140.6322  162.0388 H   0  0  0  0  0  0  0  0  0  0  0  0
  135.7657  137.7346  164.0443 H   0  0  0  0  0  0  0  0  0  0  0  0
  134.4124  135.8315  163.2741 H   0  0  0  0  0  0  0  0  0  0  0  0
  128.4702  131.0011  157.9790 H   0  0  0  0  0  0  0  0  0  0  0  0
  126.1711  131.3303  158.7969 H   0  0  0  0  0  0  0  0  0  0  0  0
  124.7244  133.9106  159.7650 H   0  0  0  0  0  0  0  0  0  0  0  0
  124.7533  132.2965  160.5149 H   0  0  0  0  0  0  0  0  0  0  0  0
  125.2870  133.7187  161.4427 H   0  0  0  0  0  0  0  0  0  0  0  0
  127.4501  134.7373  161.0209 H   0  0  0  0  0  0  0  0  0  0  0  0
  129.7510  134.4026  160.2103 H   0  0  0  0  0  0  0  0  0  0  0  0
  129.5276  133.4575  156.3078 H   0  0  0  0  0  0  0  0  0  0  0  0
  129.4661  132.4337  154.0704 H   0  0  0  0  0  0  0  0  0  0  0  0
  1  2  1  0
  1 33  1  0
  1 34  1  0
  1 35  1  0
  2  3  1  0
  3 32  2  0
  3  4  1  0
  4  5  2  0
  4 36  1  0
  5  6  1  0
  5 37  1  0
  6  7  1  0
  6 31  2  0
  7  8  1  1
  7  9  1  0
  7 24  1  0
  9 38  1  0
 10  9  1  0
 10 22  2  0
 10 11  1  0
 11 12  1  0
 11 13  1  0
 13 14  2  0
 13 39  1  0
 14 15  1  0
 14 22  1  0
 15 21  1  0
 15 16  2  0
 16 17  1  0
 16 40  1  0
 17 18  2  0
 17 41  1  0
 18 19  1  0
 18 20  1  0
 19 42  1  0
 19 43  1  0
 20 21  2  0
 20 44  1  0
 21 45  1  0
 22 23  1  0
 24 30  1  0
 24 25  2  0
 25 26  1  0
 25 46  1  0
 26 27  2  0
 26 47  1  0
 27 28  1  0
 27 29  1  0
 28 48  1  0
 28 49  1  0
 28 50  1  0
 29 30  2  0
 29 51  1  0
 30 52  1  0
 31 32  1  0
 31 53  1  0
 32 54  1  0
M  CHG  1  22   1
M  END
>  <DOCK_score>  (1) 
-58.957592

>  <SMILES>  (1) 
COc1ccc([C@@H](Nc2[nH]cc(-c3ccc(N)cc3)[nH+]2)c2ccc(C)cc2)cc1

$$$$
