CCc1ccc(-c2c[nH]c(N[C@@H](c3cccnc3)c3cccc4ccccc34)[nH+]2)cc1
     RDKit          3D

 56 60  0  0  1  0  0  0  0  0999 V2000
  129.9642  129.0764  151.2105 C   0  0  0  0  0  0  0  0  0  0  0  0
  131.2687  129.6731  151.7415 C   0  0  0  0  0  0  0  0  0  0  0  0
  131.0085  130.3578  153.0585 C   0  0  0  0  0  0  0  0  0  0  0  0
  131.1232  129.6472  154.2391 C   0  0  0  0  0  0  0  0  0  0  0  0
  130.8908  130.2704  155.4483 C   0  0  0  0  0  0  0  0  0  0  0  0
  130.5295  131.6161  155.4777 C   0  0  0  0  0  0  0  0  0  0  0  0
  130.2732  132.2901  156.7740 C   0  0  0  0  0  0  0  0  0  0  0  0
  129.8014  131.7005  157.9004 C   0  0  0  0  0  0  0  0  0  0  0  0
  129.7155  132.6817  158.8579 N   0  0  0  0  0  0  0  0  0  0  0  0
  129.4100  132.5677  159.7715 H   0  0  0  0  0  0  0  0  0  0  0  0
  130.1376  133.8433  158.2881 C   0  0  0  0  0  0  0  0  0  0  0  0
  130.2043  135.0735  158.9194 N   0  0  0  0  0  0  0  0  0  0  0  0
  129.7990  135.2002  160.3216 C   0  0  1  0  0  0  0  0  0  0  0  0
  130.1478  134.3316  160.8804 H   0  0  0  0  0  0  0  0  0  0  0  0
  130.4025  136.4504  160.9078 C   0  0  0  0  0  0  0  0  0  0  0  0
  131.6482  136.4101  161.5160 C   0  0  0  0  0  0  0  0  0  0  0  0
  132.1641  137.5847  162.0414 C   0  0  0  0  0  0  0  0  0  0  0  0
  131.4250  138.7486  161.9425 C   0  0  0  0  0  0  0  0  0  0  0  0
  130.2434  138.7495  161.3572 N   0  0  0  0  0  0  0  0  0  0  0  0
  129.7242  137.6523  160.8412 C   0  0  0  0  0  0  0  0  0  0  0  0
  128.2964  135.2809  160.4049 C   0  0  0  0  0  0  0  0  0  0  0  0
  127.5447  135.2320  159.2712 C   0  0  0  0  0  0  0  0  0  0  0  0
  126.1544  135.3047  159.3286 C   0  0  0  0  0  0  0  0  0  0  0  0
  125.5076  135.4268  160.5200 C   0  0  0  0  0  0  0  0  0  0  0  0
  126.2499  135.4807  161.7117 C   0  0  0  0  0  0  0  0  0  0  0  0
  125.6175  135.6060  162.9605 C   0  0  0  0  0  0  0  0  0  0  0  0
  126.3684  135.6382  164.0952 C   0  0  0  0  0  0  0  0  0  0  0  0
  127.7592  135.5657  164.0379 C   0  0  0  0  0  0  0  0  0  0  0  0
  128.4062  135.4492  162.8463 C   0  0  0  0  0  0  0  0  0  0  0  0
  127.6640  135.4013  161.6537 C   0  0  0  0  0  0  0  0  0  0  0  0
  130.4749  133.6042  157.0443 N   0  0  0  0  0  0  0  0  0  0  0  0
  130.8128  134.2622  156.4168 H   0  0  0  0  0  0  0  0  0  0  0  0
  130.4103  132.3265  154.2844 C   0  0  0  0  0  0  0  0  0  0  0  0
  130.6503  131.6945  153.0813 C   0  0  0  0  0  0  0  0  0  0  0  0
  129.2321  129.8714  151.0681 H   0  0  0  0  0  0  0  0  0  0  0  0
  130.1525  128.5812  150.2578 H   0  0  0  0  0  0  0  0  0  0  0  0
  129.5787  128.3513  151.9269 H   0  0  0  0  0  0  0  0  0  0  0  0
  132.0011  128.8789  151.8835 H   0  0  0  0  0  0  0  0  0  0  0  0
  131.6546  130.3991  151.0247 H   0  0  0  0  0  0  0  0  0  0  0  0
  131.3989  128.6032  154.2149 H   0  0  0  0  0  0  0  0  0  0  0  0
  130.9849  129.7152  156.3700 H   0  0  0  0  0  0  0  0  0  0  0  0
  129.5425  130.6590  158.0214 H   0  0  0  0  0  0  0  0  0  0  0  0
  130.5192  135.8516  158.4334 H   0  0  0  0  0  0  0  0  0  0  0  0
  132.2034  135.4859  161.5782 H   0  0  0  0  0  0  0  0  0  0  0  0
  133.1314  137.5905  162.5215 H   0  0  0  0  0  0  0  0  0  0  0  0
  131.8196  139.6677  162.3496 H   0  0  0  0  0  0  0  0  0  0  0  0
  128.7557  137.6930  160.3652 H   0  0  0  0  0  0  0  0  0  0  0  0
  128.0332  135.1355  158.3128 H   0  0  0  0  0  0  0  0  0  0  0  0
  125.5815  135.2639  158.4140 H   0  0  0  0  0  0  0  0  0  0  0  0
  124.4293  135.4818  160.5492 H   0  0  0  0  0  0  0  0  0  0  0  0
  124.5407  135.6640  163.0205 H   0  0  0  0  0  0  0  0  0  0  0  0
  125.8798  135.7300  165.0540 H   0  0  0  0  0  0  0  0  0  0  0  0
  128.3319  135.6023  164.9527 H   0  0  0  0  0  0  0  0  0  0  0  0
  129.4845  135.3941  162.8172 H   0  0  0  0  0  0  0  0  0  0  0  0
  130.1304  133.3694  154.3013 H   0  0  0  0  0  0  0  0  0  0  0  0
  130.5587  132.2440  152.1560 H   0  0  0  0  0  0  0  0  0  0  0  0
  1  2  1  0
  1 35  1  0
  1 36  1  0
  1 37  1  0
  2  3  1  0
  2 38  1  0
  2 39  1  0
  3 34  2  0
  3  4  1  0
  4  5  2  0
  4 40  1  0
  5  6  1  0
  5 41  1  0
  6  7  1  0
  6 33  2  0
  7 31  1  0
  7  8  2  0
  8  9  1  0
  8 42  1  0
  9 10  1  0
  9 11  1  0
 11 12  1  0
 11 31  2  0
 12 13  1  0
 12 43  1  0
 13 14  1  1
 13 15  1  0
 13 21  1  0
 15 20  1  0
 15 16  2  0
 16 17  1  0
 16 44  1  0
 17 18  2  0
 17 45  1  0
 18 19  1  0
 18 46  1  0
 19 20  2  0
 20 47  1  0
 21 30  1  0
 21 22  2  0
 22 23  1  0
 22 48  1  0
 23 24  2  0
 23 49  1  0
 24 25  1  0
 24 50  1  0
 25 30  2  0
 25 26  1  0
 26 27  2  0
 26 51  1  0
 27 28  1  0
 27 52  1  0
 28 29  2  0
 28 53  1  0
 29 30  1  0
 29 54  1  0
 31 32  1  0
 33 34  1  0
 33 55  1  0
 34 56  1  0
M  CHG  1  31   1
M  END
>  <DOCK_score>  (1) 
-58.595615

>  <SMILES>  (1) 
CCc1ccc(-c2c[nH]c(N[C@@H](c3cccnc3)c3cccc4ccccc34)[nH+]2)cc1

$$$$
