Cc1cccc(N2CC[NH+]([C@@H](C3=CCCC3)c3cc(NCC(O)C(F)(F)F)ccc3N)CC2)c1C
     RDKit          3D

 71 74  0  0  1  0  0  0  0  0999 V2000
  136.4663  138.7959  163.4796 C   0  0  0  0  0  0  0  0  0  0  0  0
  135.2615  137.8974  163.5892 C   0  0  0  0  0  0  0  0  0  0  0  0
  134.8520  137.4392  164.8284 C   0  0  0  0  0  0  0  0  0  0  0  0
  133.7475  136.6143  164.9334 C   0  0  0  0  0  0  0  0  0  0  0  0
  133.0487  136.2454  163.8004 C   0  0  0  0  0  0  0  0  0  0  0  0
  133.4571  136.7038  162.5546 C   0  0  0  0  0  0  0  0  0  0  0  0
  132.7531  136.3323  161.4068 N   0  0  0  0  0  0  0  0  0  0  0  0
  132.8281  134.8806  161.1897 C   0  0  0  0  0  0  0  0  0  0  0  0
  132.0969  134.5233  159.8939 C   0  0  0  0  0  0  0  0  0  0  0  0
  130.6945  134.9497  159.9893 N   0  0  0  0  0  0  0  0  0  0  0  0
  130.2558  134.4890  160.7725 H   0  0  0  0  0  0  0  0  0  0  0  0
  129.9885  134.5902  158.7523 C   0  0  1  0  0  0  0  0  0  0  0  0
  130.4625  135.0870  157.9059 H   0  0  0  0  0  0  0  0  0  0  0  0
  130.0475  133.0972  158.5558 C   0  0  0  0  0  0  0  0  0  0  0  0
  130.5878  132.5092  157.5234 C   0  0  0  0  0  0  0  0  0  0  0  0
  130.4803  131.0062  157.6353 C   0  0  0  0  0  0  0  0  0  0  0  0
  129.4043  130.7689  158.7202 C   0  0  0  0  0  0  0  0  0  0  0  0
  129.4946  132.0843  159.5313 C   0  0  0  0  0  0  0  0  0  0  0  0
  128.5496  135.0275  158.8500 C   0  0  0  0  0  0  0  0  0  0  0  0
  127.9238  135.0732  160.0803 C   0  0  0  0  0  0  0  0  0  0  0  0
  126.5998  135.4816  160.1709 C   0  0  0  0  0  0  0  0  0  0  0  0
  125.9672  135.5335  161.4189 N   0  0  0  0  0  0  0  0  0  0  0  0
  126.5077  134.7703  162.5464 C   0  0  0  0  0  0  0  0  0  0  0  0
  127.5169  135.6316  163.3083 C   0  0  1  0  0  0  0  0  0  0  0  0
  126.8191  136.5315  164.1717 O   0  0  0  0  0  0  0  0  0  0  0  0
  128.4302  134.7302  164.1417 C   0  0  0  0  0  0  0  0  0  0  0  0
  129.1133  133.8493  163.2966 F   0  0  0  0  0  0  0  0  0  0  0  0
  129.3529  135.5179  164.8383 F   0  0  0  0  0  0  0  0  0  0  0  0
  127.6593  133.9996  165.0523 F   0  0  0  0  0  0  0  0  0  0  0  0
  125.9016  135.8336  159.0232 C   0  0  0  0  0  0  0  0  0  0  0  0
  126.5256  135.7824  157.7926 C   0  0  0  0  0  0  0  0  0  0  0  0
  127.8514  135.3790  157.7025 C   0  0  0  0  0  0  0  0  0  0  0  0
  128.4841  135.3271  156.4547 N   0  0  0  0  0  0  0  0  0  0  0  0
  130.6353  136.4047  160.1814 C   0  0  0  0  0  0  0  0  0  0  0  0
  131.3544  136.7777  161.4797 C   0  0  0  0  0  0  0  0  0  0  0  0
  134.5709  137.5279  162.4521 C   0  0  0  0  0  0  0  0  0  0  0  0
  135.0215  138.0226  161.1017 C   0  0  0  0  0  0  0  0  0  0  0  0
  137.3619  138.1884  163.3484 H   0  0  0  0  0  0  0  0  0  0  0  0
  136.3483  139.4590  162.6226 H   0  0  0  0  0  0  0  0  0  0  0  0
  136.5604  139.3901  164.3885 H   0  0  0  0  0  0  0  0  0  0  0  0
  135.3965  137.7261  165.7158 H   0  0  0  0  0  0  0  0  0  0  0  0
  133.4304  136.2583  165.9025 H   0  0  0  0  0  0  0  0  0  0  0  0
  132.1859  135.6011  163.8832 H   0  0  0  0  0  0  0  0  0  0  0  0
  132.3593  134.3630  162.0265 H   0  0  0  0  0  0  0  0  0  0  0  0
  133.8725  134.5779  161.1133 H   0  0  0  0  0  0  0  0  0  0  0  0
  132.1391  133.4452  159.7382 H   0  0  0  0  0  0  0  0  0  0  0  0
  132.5744  135.0303  159.0554 H   0  0  0  0  0  0  0  0  0  0  0  0
  131.0508  133.0288  156.6974 H   0  0  0  0  0  0  0  0  0  0  0  0
  130.1628  130.5764  156.6853 H   0  0  0  0  0  0  0  0  0  0  0  0
  131.4338  130.5793  157.9464 H   0  0  0  0  0  0  0  0  0  0  0  0
  128.4177  130.6475  158.2730 H   0  0  0  0  0  0  0  0  0  0  0  0
  129.6583  129.9104  159.3422 H   0  0  0  0  0  0  0  0  0  0  0  0
  130.1699  131.9653  160.3786 H   0  0  0  0  0  0  0  0  0  0  0  0
  128.5049  132.3871  159.8730 H   0  0  0  0  0  0  0  0  0  0  0  0
  128.4655  134.7956  160.9724 H   0  0  0  0  0  0  0  0  0  0  0  0
  125.1710  136.0749  161.5369 H   0  0  0  0  0  0  0  0  0  0  0  0
  125.6953  134.4852  163.2149 H   0  0  0  0  0  0  0  0  0  0  0  0
  127.0033  133.8737  162.1741 H   0  0  0  0  0  0  0  0  0  0  0  0
  128.1174  136.2010  162.5988 H   0  0  0  0  0  0  0  0  0  0  0  0
  127.3976  137.1100  164.6873 H   0  0  0  0  0  0  0  0  0  0  0  0
  124.8705  136.1470  159.0932 H   0  0  0  0  0  0  0  0  0  0  0  0
  125.9825  136.0558  156.9000 H   0  0  0  0  0  0  0  0  0  0  0  0
  129.4101  135.0455  156.3918 H   0  0  0  0  0  0  0  0  0  0  0  0
  127.9962  135.5726  155.6531 H   0  0  0  0  0  0  0  0  0  0  0  0
  131.1202  136.9021  159.3416 H   0  0  0  0  0  0  0  0  0  0  0  0
  129.5939  136.7214  160.2391 H   0  0  0  0  0  0  0  0  0  0  0  0
  130.8613  136.2912  162.3214 H   0  0  0  0  0  0  0  0  0  0  0  0
  131.3235  137.8588  161.6149 H   0  0  0  0  0  0  0  0  0  0  0  0
  134.5280  138.9684  160.8782 H   0  0  0  0  0  0  0  0  0  0  0  0
  136.1015  138.1695  161.1104 H   0  0  0  0  0  0  0  0  0  0  0  0
  134.7609  137.2877  160.3400 H   0  0  0  0  0  0  0  0  0  0  0  0
  1  2  1  0
  1 38  1  0
  1 39  1  0
  1 40  1  0
  2 36  2  0
  2  3  1  0
  3  4  2  0
  3 41  1  0
  4  5  1  0
  4 42  1  0
  5  6  2  0
  5 43  1  0
  6  7  1  0
  6 36  1  0
  7 35  1  0
  7  8  1  0
  8  9  1  0
  8 44  1  0
  8 45  1  0
  9 10  1  0
  9 46  1  0
  9 47  1  0
 10 11  1  0
 10 12  1  0
 10 34  1  0
 12 13  1  6
 12 14  1  0
 12 19  1  0
 14 18  1  0
 14 15  2  0
 15 16  1  0
 15 48  1  0
 16 17  1  0
 16 49  1  0
 16 50  1  0
 17 18  1  0
 17 51  1  0
 17 52  1  0
 18 53  1  0
 18 54  1  0
 19 32  1  0
 19 20  2  0
 20 21  1  0
 20 55  1  0
 21 22  1  0
 21 30  2  0
 22 23  1  0
 22 56  1  0
 23 24  1  0
 23 57  1  0
 23 58  1  0
 24 25  1  0
 24 26  1  0
 24 59  1  6
 25 60  1  0
 26 27  1  0
 26 28  1  0
 26 29  1  0
 30 31  1  0
 30 61  1  0
 31 32  2  0
 31 62  1  0
 32 33  1  0
 33 63  1  0
 33 64  1  0
 34 35  1  0
 34 65  1  0
 34 66  1  0
 35 67  1  0
 35 68  1  0
 36 37  1  0
 37 69  1  0
 37 70  1  0
 37 71  1  0
M  CHG  1  10   1
M  END
>  <DOCK_score>  (1) 
-51.139671

>  <SMILES>  (1) 
Cc1cccc(N2CC[NH+]([C@@H](C3=CCCC3)c3cc(NCC(O)C(F)(F)F)ccc3N)CC2)c1C

$$$$
