Nc1cccc([C@H](c2ccccc2)[NH+]2CCN(c3ccccc3F)CC2)c1
     RDKit          3D

 52 55  0  0  1  0  0  0  0  0999 V2000
  131.4306  132.1266  155.2782 N   0  0  0  0  0  0  0  0  0  0  0  0
  131.0831  131.9261  156.6161 C   0  0  0  0  0  0  0  0  0  0  0  0
  131.1778  130.6589  157.1776 C   0  0  0  0  0  0  0  0  0  0  0  0
  130.8336  130.4642  158.5006 C   0  0  0  0  0  0  0  0  0  0  0  0
  130.3948  131.5288  159.2666 C   0  0  0  0  0  0  0  0  0  0  0  0
  130.2990  132.7912  158.7108 C   0  0  0  0  0  0  0  0  0  0  0  0
  129.8201  133.9483  159.5491 C   0  0  2  0  0  0  0  0  0  0  0  0
  129.5985  133.5992  160.5576 H   0  0  0  0  0  0  0  0  0  0  0  0
  128.5741  134.5321  158.9346 C   0  0  0  0  0  0  0  0  0  0  0  0
  127.3316  134.0474  159.2984 C   0  0  0  0  0  0  0  0  0  0  0  0
  126.1889  134.5780  158.7295 C   0  0  0  0  0  0  0  0  0  0  0  0
  126.2886  135.5947  157.7981 C   0  0  0  0  0  0  0  0  0  0  0  0
  127.5310  136.0801  157.4350 C   0  0  0  0  0  0  0  0  0  0  0  0
  128.6737  135.5484  158.0029 C   0  0  0  0  0  0  0  0  0  0  0  0
  130.8665  134.9778  159.6062 N   0  0  0  0  0  0  0  0  0  0  0  0
  131.0714  135.3009  158.6724 H   0  0  0  0  0  0  0  0  0  0  0  0
  132.0811  134.4084  160.2044 C   0  0  0  0  0  0  0  0  0  0  0  0
  133.1775  135.4750  160.2466 C   0  0  0  0  0  0  0  0  0  0  0  0
  132.7114  136.6213  161.0396 N   0  0  0  0  0  0  0  0  0  0  0  0
  133.7087  137.5958  161.1461 C   0  0  0  0  0  0  0  0  0  0  0  0
  134.2207  138.1953  160.0033 C   0  0  0  0  0  0  0  0  0  0  0  0
  135.2058  139.1576  160.1117 C   0  0  0  0  0  0  0  0  0  0  0  0
  135.6829  139.5248  161.3574 C   0  0  0  0  0  0  0  0  0  0  0  0
  135.1767  138.9304  162.4977 C   0  0  0  0  0  0  0  0  0  0  0  0
  134.1860  137.9707  162.3973 C   0  0  0  0  0  0  0  0  0  0  0  0
  133.6866  137.3945  163.5126 F   0  0  0  0  0  0  0  0  0  0  0  0
  131.4815  137.1867  160.4668 C   0  0  0  0  0  0  0  0  0  0  0  0
  130.3992  136.1058  160.4226 C   0  0  0  0  0  0  0  0  0  0  0  0
  130.6364  132.9920  157.3865 C   0  0  0  0  0  0  0  0  0  0  0  0
  131.7384  131.3807  154.7399 H   0  0  0  0  0  0  0  0  0  0  0  0
  131.3640  133.0119  154.8872 H   0  0  0  0  0  0  0  0  0  0  0  0
  131.5199  129.8269  156.5799 H   0  0  0  0  0  0  0  0  0  0  0  0
  130.9065  129.4792  158.9375 H   0  0  0  0  0  0  0  0  0  0  0  0
  130.1263  131.3738  160.3010 H   0  0  0  0  0  0  0  0  0  0  0  0
  127.2537  133.2533  160.0263 H   0  0  0  0  0  0  0  0  0  0  0  0
  125.2183  134.1993  159.0137 H   0  0  0  0  0  0  0  0  0  0  0  0
  125.3959  136.0102  157.3545 H   0  0  0  0  0  0  0  0  0  0  0  0
  127.6089  136.8744  156.7075 H   0  0  0  0  0  0  0  0  0  0  0  0
  129.6444  135.9274  157.7191 H   0  0  0  0  0  0  0  0  0  0  0  0
  131.8631  134.0710  161.2178 H   0  0  0  0  0  0  0  0  0  0  0  0
  132.4194  133.5632  159.6051 H   0  0  0  0  0  0  0  0  0  0  0  0
  133.4052  135.8030  159.2323 H   0  0  0  0  0  0  0  0  0  0  0  0
  134.0745  135.0573  160.7037 H   0  0  0  0  0  0  0  0  0  0  0  0
  133.8487  137.9099  159.0304 H   0  0  0  0  0  0  0  0  0  0  0  0
  135.6043  139.6238  159.2227 H   0  0  0  0  0  0  0  0  0  0  0  0
  136.4532  140.2776  161.4376 H   0  0  0  0  0  0  0  0  0  0  0  0
  135.5517  139.2192  163.4685 H   0  0  0  0  0  0  0  0  0  0  0  0
  131.6813  137.5428  159.4562 H   0  0  0  0  0  0  0  0  0  0  0  0
  131.1410  138.0174  161.0849 H   0  0  0  0  0  0  0  0  0  0  0  0
  129.4905  136.5193  159.9850 H   0  0  0  0  0  0  0  0  0  0  0  0
  130.1900  135.7596  161.4348 H   0  0  0  0  0  0  0  0  0  0  0  0
  130.5571  133.9774  156.9518 H   0  0  0  0  0  0  0  0  0  0  0  0
  1  2  1  0
  1 30  1  0
  1 31  1  0
  2 29  2  0
  2  3  1  0
  3  4  2  0
  3 32  1  0
  4  5  1  0
  4 33  1  0
  5  6  2  0
  5 34  1  0
  6  7  1  0
  6 29  1  0
  7  8  1  1
  7  9  1  0
  7 15  1  0
  9 14  1  0
  9 10  2  0
 10 11  1  0
 10 35  1  0
 11 12  2  0
 11 36  1  0
 12 13  1  0
 12 37  1  0
 13 14  2  0
 13 38  1  0
 14 39  1  0
 15 16  1  0
 15 28  1  0
 15 17  1  0
 17 18  1  0
 17 40  1  0
 17 41  1  0
 18 19  1  0
 18 42  1  0
 18 43  1  0
 19 20  1  0
 19 27  1  0
 20 25  1  0
 20 21  2  0
 21 22  1  0
 21 44  1  0
 22 23  2  0
 22 45  1  0
 23 24  1  0
 23 46  1  0
 24 25  2  0
 24 47  1  0
 25 26  1  0
 27 28  1  0
 27 48  1  0
 27 49  1  0
 28 50  1  0
 28 51  1  0
 29 52  1  0
M  CHG  1  15   1
M  END
>  <DOCK_score>  (1) 
-56.367798

>  <SMILES>  (1) 
Nc1cccc([C@H](c2ccccc2)[NH+]2CCN(c3ccccc3F)CC2)c1

$$$$
