CC1=CCCN(c2ccc(C)c(CN3CC[NH+]([C@@H](c4ccccc4)c4ccc(Cl)cc4)CC3)c2)C1
     RDKit          3D

 72 76  0  0  1  0  0  0  0  0999 V2000
  139.3372  136.3398  165.4321 C   0  0  0  0  0  0  0  0  0  0  0  0
  138.0215  135.9924  164.7845 C   0  0  0  0  0  0  0  0  0  0  0  0
  138.0382  135.2924  163.6913 C   0  0  0  0  0  0  0  0  0  0  0  0
  136.7882  134.8959  162.9568 C   0  0  0  0  0  0  0  0  0  0  0  0
  135.5748  135.0670  163.8745 C   0  0  0  0  0  0  0  0  0  0  0  0
  135.6378  136.4025  164.4885 N   0  0  0  0  0  0  0  0  0  0  0  0
  135.7445  137.3968  163.5134 C   0  0  0  0  0  0  0  0  0  0  0  0
  136.8456  138.2439  163.5005 C   0  0  0  0  0  0  0  0  0  0  0  0
  136.9505  139.2225  162.5321 C   0  0  0  0  0  0  0  0  0  0  0  0
  135.9557  139.3671  161.5821 C   0  0  0  0  0  0  0  0  0  0  0  0
  136.0706  140.4403  160.5304 C   0  0  0  0  0  0  0  0  0  0  0  0
  134.8556  138.5295  161.5955 C   0  0  0  0  0  0  0  0  0  0  0  0
  133.7742  138.6908  160.5586 C   0  0  0  0  0  0  0  0  0  0  0  0
  132.7239  137.6893  160.7866 N   0  0  0  0  0  0  0  0  0  0  0  0
  133.1523  136.3619  160.3235 C   0  0  0  0  0  0  0  0  0  0  0  0
  132.0570  135.3390  160.6325 C   0  0  0  0  0  0  0  0  0  0  0  0
  130.8135  135.7341  159.9579 N   0  0  0  0  0  0  0  0  0  0  0  0
  130.9716  135.7817  158.9625 H   0  0  0  0  0  0  0  0  0  0  0  0
  129.7672  134.7424  160.2400 C   0  0  1  0  0  0  0  0  0  0  0  0
  129.5965  134.6902  161.3153 H   0  0  0  0  0  0  0  0  0  0  0  0
  128.4913  135.1476  159.5480 C   0  0  0  0  0  0  0  0  0  0  0  0
  127.2692  134.7985  160.0917 C   0  0  0  0  0  0  0  0  0  0  0  0
  126.0988  135.1740  159.4593 C   0  0  0  0  0  0  0  0  0  0  0  0
  126.1504  135.8907  158.2785 C   0  0  0  0  0  0  0  0  0  0  0  0
  127.3726  136.2352  157.7318 C   0  0  0  0  0  0  0  0  0  0  0  0
  128.5429  135.8634  158.3665 C   0  0  0  0  0  0  0  0  0  0  0  0
  130.2057  133.3921  159.7349 C   0  0  0  0  0  0  0  0  0  0  0  0
  129.7741  132.2430  160.3708 C   0  0  0  0  0  0  0  0  0  0  0  0
  130.1714  131.0039  159.9046 C   0  0  0  0  0  0  0  0  0  0  0  0
  131.0101  130.9142  158.8080 C   0  0  0  0  0  0  0  0  0  0  0  0
  131.5148  129.3585  158.2257 Cl  0  0  0  0  0  0  0  0  0  0  0  0
  131.4463  132.0646  158.1754 C   0  0  0  0  0  0  0  0  0  0  0  0
  131.0438  133.3030  158.6391 C   0  0  0  0  0  0  0  0  0  0  0  0
  130.3850  137.0506  160.4487 C   0  0  0  0  0  0  0  0  0  0  0  0
  131.4666  138.0877  160.1382 C   0  0  0  0  0  0  0  0  0  0  0  0
  134.7473  137.5448  162.5582 C   0  0  0  0  0  0  0  0  0  0  0  0
  136.7570  136.4725  165.4363 C   0  0  0  0  0  0  0  0  0  0  0  0
  140.1537  135.9218  164.8431 H   0  0  0  0  0  0  0  0  0  0  0  0
  139.4428  137.4235  165.4817 H   0  0  0  0  0  0  0  0  0  0  0  0
  139.3669  135.9253  166.4397 H   0  0  0  0  0  0  0  0  0  0  0  0
  138.9922  134.9817  163.2916 H   0  0  0  0  0  0  0  0  0  0  0  0
  136.6691  135.5276  162.0765 H   0  0  0  0  0  0  0  0  0  0  0  0
  136.8647  133.8535  162.6474 H   0  0  0  0  0  0  0  0  0  0  0  0
  134.6586  134.9761  163.2911 H   0  0  0  0  0  0  0  0  0  0  0  0
  135.5941  134.3045  164.6531 H   0  0  0  0  0  0  0  0  0  0  0  0
  137.6208  138.1344  164.2447 H   0  0  0  0  0  0  0  0  0  0  0  0
  137.8086  139.8782  162.5185 H   0  0  0  0  0  0  0  0  0  0  0  0
  135.6805  141.3785  160.9248 H   0  0  0  0  0  0  0  0  0  0  0  0
  137.1174  140.5690  160.2555 H   0  0  0  0  0  0  0  0  0  0  0  0
  135.4971  140.1495  159.6505 H   0  0  0  0  0  0  0  0  0  0  0  0
  133.3456  139.6902  160.6330 H   0  0  0  0  0  0  0  0  0  0  0  0
  134.1998  138.5512  159.5649 H   0  0  0  0  0  0  0  0  0  0  0  0
  133.3295  136.3915  159.2484 H   0  0  0  0  0  0  0  0  0  0  0  0
  134.0712  136.0770  160.8361 H   0  0  0  0  0  0  0  0  0  0  0  0
  131.8897  135.2999  161.7089 H   0  0  0  0  0  0  0  0  0  0  0  0
  132.3668  134.3564  160.2770 H   0  0  0  0  0  0  0  0  0  0  0  0
  127.2289  134.2354  161.0124 H   0  0  0  0  0  0  0  0  0  0  0  0
  125.1439  134.9051  159.8863 H   0  0  0  0  0  0  0  0  0  0  0  0
  125.2363  136.1816  157.7823 H   0  0  0  0  0  0  0  0  0  0  0  0
  127.4131  136.7950  156.8091 H   0  0  0  0  0  0  0  0  0  0  0  0
  129.4978  136.1326  157.9396 H   0  0  0  0  0  0  0  0  0  0  0  0
  129.1229  132.3133  161.2296 H   0  0  0  0  0  0  0  0  0  0  0  0
  129.8306  130.1061  160.3988 H   0  0  0  0  0  0  0  0  0  0  0  0
  132.1014  131.9954  157.3196 H   0  0  0  0  0  0  0  0  0  0  0  0
  131.3839  134.2012  158.1452 H   0  0  0  0  0  0  0  0  0  0  0  0
  130.2263  137.0026  161.5260 H   0  0  0  0  0  0  0  0  0  0  0  0
  129.4554  137.3367  159.9568 H   0  0  0  0  0  0  0  0  0  0  0  0
  131.1554  139.0618  160.5155 H   0  0  0  0  0  0  0  0  0  0  0  0
  131.6159  138.1457  159.0600 H   0  0  0  0  0  0  0  0  0  0  0  0
  133.8882  136.8904  162.5676 H   0  0  0  0  0  0  0  0  0  0  0  0
  136.5371  135.8472  166.3016 H   0  0  0  0  0  0  0  0  0  0  0  0
  136.8890  137.5038  165.7636 H   0  0  0  0  0  0  0  0  0  0  0  0
  1  2  1  0
  1 38  1  0
  1 39  1  0
  1 40  1  0
  2 37  1  0
  2  3  2  0
  3  4  1  0
  3 41  1  0
  4  5  1  0
  4 42  1  0
  4 43  1  0
  5  6  1  0
  5 44  1  0
  5 45  1  0
  6  7  1  0
  6 37  1  0
  7 36  1  0
  7  8  2  0
  8  9  1  0
  8 46  1  0
  9 10  2  0
  9 47  1  0
 10 11  1  0
 10 12  1  0
 11 48  1  0
 11 49  1  0
 11 50  1  0
 12 13  1  0
 12 36  2  0
 13 14  1  0
 13 51  1  0
 13 52  1  0
 14 35  1  0
 14 15  1  0
 15 16  1  0
 15 53  1  0
 15 54  1  0
 16 17  1  0
 16 55  1  0
 16 56  1  0
 17 18  1  0
 17 19  1  0
 17 34  1  0
 19 20  1  1
 19 21  1  0
 19 27  1  0
 21 26  1  0
 21 22  2  0
 22 23  1  0
 22 57  1  0
 23 24  2  0
 23 58  1  0
 24 25  1  0
 24 59  1  0
 25 26  2  0
 25 60  1  0
 26 61  1  0
 27 33  1  0
 27 28  2  0
 28 29  1  0
 28 62  1  0
 29 30  2  0
 29 63  1  0
 30 31  1  0
 30 32  1  0
 32 33  2  0
 32 64  1  0
 33 65  1  0
 34 35  1  0
 34 66  1  0
 34 67  1  0
 35 68  1  0
 35 69  1  0
 36 70  1  0
 37 71  1  0
 37 72  1  0
M  CHG  1  17   1
M  END
>  <DOCK_score>  (1) 
-57.751915

>  <SMILES>  (1) 
CC1=CCCN(c2ccc(C)c(CN3CC[NH+]([C@@H](c4ccccc4)c4ccc(Cl)cc4)CC3)c2)C1

$$$$
