Oc1ccc2c(c1)CC[C@@H](Nc1ccc(-c3n[nH]cc3C[NH2+]CC=CCl)o1)C2
     RDKit          3D

 52 55  0  0  1  0  0  0  0  0999 V2000
  129.3983  141.2352  167.1223 O   0  0  0  0  0  0  0  0  0  0  0  0
  128.8174  140.5242  166.1203 C   0  0  0  0  0  0  0  0  0  0  0  0
  128.5582  141.1262  164.8973 C   0  0  0  0  0  0  0  0  0  0  0  0
  127.9669  140.3968  163.8885 C   0  0  0  0  0  0  0  0  0  0  0  0
  127.6270  139.0637  164.0844 C   0  0  0  0  0  0  0  0  0  0  0  0
  127.8876  138.4626  165.2958 C   0  0  0  0  0  0  0  0  0  0  0  0
  128.4816  139.1953  166.3144 C   0  0  0  0  0  0  0  0  0  0  0  0
  127.5538  137.0201  165.5736 C   0  0  0  0  0  0  0  0  0  0  0  0
  126.5417  136.4974  164.5562 C   0  0  0  0  0  0  0  0  0  0  0  0
  127.0582  136.8223  163.1497 C   0  0  1  0  0  0  0  0  0  0  0  0
  128.0942  136.4970  163.0547 H   0  0  0  0  0  0  0  0  0  0  0  0
  126.2329  136.1386  162.1508 N   0  0  0  0  0  0  0  0  0  0  0  0
  126.8121  135.2237  161.2791 C   0  0  0  0  0  0  0  0  0  0  0  0
  126.1934  134.1456  160.7362 C   0  0  0  0  0  0  0  0  0  0  0  0
  127.1401  133.4969  159.9189 C   0  0  0  0  0  0  0  0  0  0  0  0
  128.2914  134.2139  160.0047 C   0  0  0  0  0  0  0  0  0  0  0  0
  129.5584  133.9030  159.3111 C   0  0  0  0  0  0  0  0  0  0  0  0
  129.7706  132.8841  158.5014 N   0  0  0  0  0  0  0  0  0  0  0  0
  131.0970  132.9515  158.0564 N   0  0  0  0  0  0  0  0  0  0  0  0
  131.5258  132.3276  157.4500 H   0  0  0  0  0  0  0  0  0  0  0  0
  131.6757  134.0350  158.6180 C   0  0  0  0  0  0  0  0  0  0  0  0
  130.7560  134.6439  159.3969 C   0  0  0  0  0  0  0  0  0  0  0  0
  130.9708  135.8924  160.2129 C   0  0  0  0  0  0  0  0  0  0  0  0
  132.3515  136.3618  160.0357 N   0  0  0  0  0  0  0  0  0  0  0  0
  132.9923  135.6452  160.3424 H   0  0  0  0  0  0  0  0  0  0  0  0
  132.5152  136.5648  159.0611 H   0  0  0  0  0  0  0  0  0  0  0  0
  132.5607  137.5788  160.8314 C   0  0  0  0  0  0  0  0  0  0  0  0
  131.6035  138.6490  160.3735 C   0  0  0  0  0  0  0  0  0  0  0  0
  130.7365  139.1575  161.2161 C   0  0  0  0  0  0  0  0  0  0  0  0
  129.6338  140.3904  160.6887 Cl  0  0  0  0  0  0  0  0  0  0  0  0
  128.0807  135.2554  160.8369 O   0  0  0  0  0  0  0  0  0  0  0  0
  126.9715  138.3329  162.9417 C   0  0  0  0  0  0  0  0  0  0  0  0
  129.5381  140.7289  167.9342 H   0  0  0  0  0  0  0  0  0  0  0  0
  128.8184  142.1622  164.7367 H   0  0  0  0  0  0  0  0  0  0  0  0
  127.7656  140.8656  162.9366 H   0  0  0  0  0  0  0  0  0  0  0  0
  128.6835  138.7250  167.2654 H   0  0  0  0  0  0  0  0  0  0  0  0
  127.1329  136.9352  166.5755 H   0  0  0  0  0  0  0  0  0  0  0  0
  128.4640  136.4233  165.5144 H   0  0  0  0  0  0  0  0  0  0  0  0
  125.5782  136.9819  164.7145 H   0  0  0  0  0  0  0  0  0  0  0  0
  126.4326  135.4186  164.6671 H   0  0  0  0  0  0  0  0  0  0  0  0
  125.2823  136.3244  162.0977 H   0  0  0  0  0  0  0  0  0  0  0  0
  125.1699  133.8421  160.8996 H   0  0  0  0  0  0  0  0  0  0  0  0
  126.9813  132.6015  159.3361 H   0  0  0  0  0  0  0  0  0  0  0  0
  132.6955  134.3580  158.4698 H   0  0  0  0  0  0  0  0  0  0  0  0
  130.2785  136.6665  159.8819 H   0  0  0  0  0  0  0  0  0  0  0  0
  130.7939  135.6732  161.2660 H   0  0  0  0  0  0  0  0  0  0  0  0
  132.3837  137.3594  161.8842 H   0  0  0  0  0  0  0  0  0  0  0  0
  133.5851  137.9272  160.6999 H   0  0  0  0  0  0  0  0  0  0  0  0
  131.6315  138.9973  159.3516 H   0  0  0  0  0  0  0  0  0  0  0  0
  130.7085  138.8092  162.2381 H   0  0  0  0  0  0  0  0  0  0  0  0
  127.4734  138.5970  162.0109 H   0  0  0  0  0  0  0  0  0  0  0  0
  125.9239  138.6277  162.8806 H   0  0  0  0  0  0  0  0  0  0  0  0
  1  2  1  0
  1 33  1  0
  2  7  2  0
  2  3  1  0
  3  4  2  0
  3 34  1  0
  4  5  1  0
  4 35  1  0
  5 32  1  0
  5  6  2  0
  6  7  1  0
  6  8  1  0
  7 36  1  0
  8  9  1  0
  8 37  1  0
  8 38  1  0
  9 10  1  0
  9 39  1  0
  9 40  1  0
 10 11  1  1
 10 12  1  0
 10 32  1  0
 12 13  1  0
 12 41  1  0
 13 31  1  0
 13 14  2  0
 14 15  1  0
 14 42  1  0
 15 16  2  0
 15 43  1  0
 16 17  1  0
 16 31  1  0
 17 22  1  0
 17 18  2  0
 18 19  1  0
 19 20  1  0
 19 21  1  0
 21 22  2  0
 21 44  1  0
 22 23  1  0
 23 24  1  0
 23 45  1  0
 23 46  1  0
 24 25  1  0
 24 26  1  0
 24 27  1  0
 27 28  1  0
 27 47  1  0
 27 48  1  0
 28 29  2  0
 28 49  1  0
 29 30  1  0
 29 50  1  0
 32 51  1  0
 32 52  1  0
M  CHG  1  24   1
M  END
>  <DOCK_score>  (1) 
-44.158489

>  <SMILES>  (1) 
Oc1ccc2c(c1)CC[C@@H](Nc1ccc(-c3n[nH]cc3C[NH2+]CC=CCl)o1)C2

$$$$
