O=C1SCCC1[NH+]=C(NC1CC=CC1)N[C@@H]1CC=C(CC2CC=CC2)C1
     RDKit          3D

 56 59  0  0  1  0  0  0  0  0999 V2000
  126.7285  135.7970  161.4308 O   0  0  0  0  0  0  0  0  0  0  0  0
  126.6850  134.7357  160.8444 C   0  0  0  0  0  0  0  0  0  0  0  0
  125.5609  133.4729  161.1411 S   0  0  0  0  0  0  0  0  0  0  0  0
  126.1957  132.2903  159.9130 C   0  0  0  0  0  0  0  0  0  0  0  0
  127.6241  132.7813  159.6115 C   0  0  0  0  0  0  0  0  0  0  0  0
  127.6061  134.3058  159.7353 C   0  0  2  0  0  0  0  0  0  0  0  0
  128.9614  134.7833  160.0205 N   0  0  0  0  0  0  0  0  0  0  0  0
  129.1367  135.2913  160.8281 H   0  0  0  0  0  0  0  0  0  0  0  0
  129.9316  134.5258  159.1891 C   0  0  0  0  0  0  0  0  0  0  0  0
  129.6832  133.8058  158.0445 N   0  0  0  0  0  0  0  0  0  0  0  0
  130.7339  132.9654  157.4652 C   0  0  0  0  0  0  0  0  0  0  0  0
  130.1796  132.1024  156.3079 C   0  0  0  0  0  0  0  0  0  0  0  0
  130.8971  130.7784  156.4393 C   0  0  0  0  0  0  0  0  0  0  0  0
  131.4488  130.6570  157.6160 C   0  0  0  0  0  0  0  0  0  0  0  0
  131.1909  131.8791  158.4663 C   0  0  0  0  0  0  0  0  0  0  0  0
  131.2035  134.9739  159.4569 N   0  0  0  0  0  0  0  0  0  0  0  0
  131.4682  135.7409  160.6766 C   0  0  2  0  0  0  0  0  0  0  0  0
  131.2204  135.1587  161.5641 H   0  0  0  0  0  0  0  0  0  0  0  0
  130.7043  137.0853  160.6637 C   0  0  0  0  0  0  0  0  0  0  0  0
  131.6860  138.0797  160.0889 C   0  0  0  0  0  0  0  0  0  0  0  0
  132.9035  137.6101  160.1208 C   0  0  0  0  0  0  0  0  0  0  0  0
  134.1170  138.3528  159.6236 C   0  0  0  0  0  0  0  0  0  0  0  0
  134.7142  139.1765  160.7661 C   0  0  0  0  0  0  0  0  0  0  0  0
  133.7690  140.3316  161.1706 C   0  0  0  0  0  0  0  0  0  0  0  0
  134.6893  141.4854  161.4944 C   0  0  0  0  0  0  0  0  0  0  0  0
  135.8865  141.2801  161.0166 C   0  0  0  0  0  0  0  0  0  0  0  0
  135.9643  139.9550  160.2946 C   0  0  0  0  0  0  0  0  0  0  0  0
  132.9364  136.2241  160.7219 C   0  0  0  0  0  0  0  0  0  0  0  0
  125.5858  132.3150  159.0099 H   0  0  0  0  0  0  0  0  0  0  0  0
  126.2190  131.2829  160.3283 H   0  0  0  0  0  0  0  0  0  0  0  0
  127.9111  132.4932  158.6002 H   0  0  0  0  0  0  0  0  0  0  0  0
  128.3239  132.3575  160.3318 H   0  0  0  0  0  0  0  0  0  0  0  0
  127.2633  134.7386  158.7954 H   0  0  0  0  0  0  0  0  0  0  0  0
  128.8121  133.8547  157.6204 H   0  0  0  0  0  0  0  0  0  0  0  0
  131.5773  133.5707  157.1327 H   0  0  0  0  0  0  0  0  0  0  0  0
  129.1042  131.9640  156.4190 H   0  0  0  0  0  0  0  0  0  0  0  0
  130.4066  132.5645  155.3472 H   0  0  0  0  0  0  0  0  0  0  0  0
  130.9471  130.0311  155.6611 H   0  0  0  0  0  0  0  0  0  0  0  0
  132.0155  129.7964  157.9392 H   0  0  0  0  0  0  0  0  0  0  0  0
  132.1051  132.1894  158.9724 H   0  0  0  0  0  0  0  0  0  0  0  0
  130.4037  131.6769  159.1928 H   0  0  0  0  0  0  0  0  0  0  0  0
  131.9256  134.7821  158.8382 H   0  0  0  0  0  0  0  0  0  0  0  0
  129.8208  137.0139  160.0290 H   0  0  0  0  0  0  0  0  0  0  0  0
  130.4210  137.3709  161.6767 H   0  0  0  0  0  0  0  0  0  0  0  0
  131.4160  139.0513  159.7023 H   0  0  0  0  0  0  0  0  0  0  0  0
  134.8581  137.6386  159.2645 H   0  0  0  0  0  0  0  0  0  0  0  0
  133.8280  139.0169  158.8091 H   0  0  0  0  0  0  0  0  0  0  0  0
  134.9474  138.5431  161.6219 H   0  0  0  0  0  0  0  0  0  0  0  0
  133.1111  140.5919  160.3414 H   0  0  0  0  0  0  0  0  0  0  0  0
  133.1845  140.0544  162.0478 H   0  0  0  0  0  0  0  0  0  0  0  0
  134.3952  142.3645  162.0487 H   0  0  0  0  0  0  0  0  0  0  0  0
  136.7132  141.9669  161.1238 H   0  0  0  0  0  0  0  0  0  0  0  0
  136.8723  139.4219  160.5762 H   0  0  0  0  0  0  0  0  0  0  0  0
  135.9328  140.1063  159.2157 H   0  0  0  0  0  0  0  0  0  0  0  0
  133.2911  136.2653  161.7518 H   0  0  0  0  0  0  0  0  0  0  0  0
  133.5709  135.5672  160.1269 H   0  0  0  0  0  0  0  0  0  0  0  0
  1  2  2  0
  2  6  1  0
  2  3  1  0
  3  4  1  0
  4  5  1  0
  4 29  1  0
  4 30  1  0
  5  6  1  0
  5 31  1  0
  5 32  1  0
  6  7  1  0
  6 33  1  6
  7  8  1  0
  9  7  2  0
  9 10  1  0
  9 16  1  0
 10 11  1  0
 10 34  1  0
 11 15  1  0
 11 12  1  0
 11 35  1  0
 12 13  1  0
 12 36  1  0
 12 37  1  0
 13 14  2  0
 13 38  1  0
 14 15  1  0
 14 39  1  0
 15 40  1  0
 15 41  1  0
 16 17  1  0
 16 42  1  0
 17 18  1  1
 17 28  1  0
 17 19  1  0
 19 20  1  0
 19 43  1  0
 19 44  1  0
 20 21  2  0
 20 45  1  0
 21 22  1  0
 21 28  1  0
 22 23  1  0
 22 46  1  0
 22 47  1  0
 23 27  1  0
 23 24  1  0
 23 48  1  0
 24 25  1  0
 24 49  1  0
 24 50  1  0
 25 26  2  0
 25 51  1  0
 26 27  1  0
 26 52  1  0
 27 53  1  0
 27 54  1  0
 28 55  1  0
 28 56  1  0
M  CHG  1   7   1
M  END
>  <DOCK_score>  (1) 
-46.878036

>  <SMILES>  (1) 
O=C1SCCC1[NH+]=C(NC1CC=CC1)N[C@@H]1CC=C(CC2CC=CC2)C1

$$$$
