O=C1CC[C@H](NC(NC2CC(F)C2)=[NH+]Cc2ncccc2Br)CN1
     RDKit          3D

 46 48  0  0  1  0  0  0  0  0999 V2000
  123.7663  133.8749  161.7296 O   0  0  0  0  0  0  0  0  0  0  0  0
  124.9468  133.8876  161.4518 C   0  0  0  0  0  0  0  0  0  0  0  0
  125.7418  132.6322  161.6693 C   0  0  0  0  0  0  0  0  0  0  0  0
  127.2370  132.9587  161.6852 C   0  0  0  0  0  0  0  0  0  0  0  0
  127.5566  133.8279  160.4628 C   0  0  2  0  0  0  0  0  0  0  0  0
  127.1817  133.3457  159.5601 H   0  0  0  0  0  0  0  0  0  0  0  0
  129.0061  134.0118  160.3560 N   0  0  0  0  0  0  0  0  0  0  0  0
  129.5882  134.1836  159.1223 C   0  0  0  0  0  0  0  0  0  0  0  0
  130.9485  134.3561  159.0223 N   0  0  0  0  0  0  0  0  0  0  0  0
  131.7776  134.3569  160.2299 C   0  0  2  0  0  0  0  0  0  0  0  0
  131.8094  135.7130  160.9545 C   0  0  0  0  0  0  0  0  0  0  0  0
  133.3069  135.4603  161.1956 C   0  0  2  0  0  0  0  0  0  0  0  0
  134.1013  136.6019  161.0435 F   0  0  0  0  0  0  0  0  0  0  0  0
  133.2757  134.5611  159.9485 C   0  0  0  0  0  0  0  0  0  0  0  0
  128.8504  134.1828  158.0479 N   0  0  0  0  0  0  0  0  0  0  0  0
  127.9322  134.4929  158.0897 H   0  0  0  0  0  0  0  0  0  0  0  0
  129.4080  133.7137  156.7769 C   0  0  0  0  0  0  0  0  0  0  0  0
  129.8452  132.2785  156.9195 C   0  0  0  0  0  0  0  0  0  0  0  0
  129.6841  131.6595  158.0727 N   0  0  0  0  0  0  0  0  0  0  0  0
  130.0511  130.4047  158.2436 C   0  0  0  0  0  0  0  0  0  0  0  0
  130.6231  129.6877  157.2093 C   0  0  0  0  0  0  0  0  0  0  0  0
  130.8088  130.3041  155.9818 C   0  0  0  0  0  0  0  0  0  0  0  0
  130.4054  131.6240  155.8380 C   0  0  0  0  0  0  0  0  0  0  0  0
  130.6255  132.5182  154.1864 Br  0  0  0  0  0  0  0  0  0  0  0  0
  126.8785  135.1873  160.6380 C   0  0  0  0  0  0  0  0  0  0  0  0
  125.4695  135.0157  160.9693 N   0  0  0  0  0  0  0  0  0  0  0  0
  125.4587  132.1850  162.6222 H   0  0  0  0  0  0  0  0  0  0  0  0
  125.5334  131.9277  160.8641 H   0  0  0  0  0  0  0  0  0  0  0  0
  127.8148  132.0355  161.6401 H   0  0  0  0  0  0  0  0  0  0  0  0
  127.4840  133.5025  162.5970 H   0  0  0  0  0  0  0  0  0  0  0  0
  129.5552  134.0124  161.1556 H   0  0  0  0  0  0  0  0  0  0  0  0
  131.3590  134.4775  158.1519 H   0  0  0  0  0  0  0  0  0  0  0  0
  131.5679  133.5135  160.8879 H   0  0  0  0  0  0  0  0  0  0  0  0
  131.6095  136.5621  160.3008 H   0  0  0  0  0  0  0  0  0  0  0  0
  131.2171  135.7332  161.8694 H   0  0  0  0  0  0  0  0  0  0  0  0
  133.5155  134.9195  162.1187 H   0  0  0  0  0  0  0  0  0  0  0  0
  133.8671  133.6513  160.0512 H   0  0  0  0  0  0  0  0  0  0  0  0
  133.4766  135.0952  159.0199 H   0  0  0  0  0  0  0  0  0  0  0  0
  130.2657  134.3297  156.5070 H   0  0  0  0  0  0  0  0  0  0  0  0
  128.6489  133.7865  155.9982 H   0  0  0  0  0  0  0  0  0  0  0  0
  129.9028  129.9312  159.2029 H   0  0  0  0  0  0  0  0  0  0  0  0
  130.9218  128.6603  157.3559 H   0  0  0  0  0  0  0  0  0  0  0  0
  131.2531  129.7687  155.1557 H   0  0  0  0  0  0  0  0  0  0  0  0
  127.3728  135.7359  161.4397 H   0  0  0  0  0  0  0  0  0  0  0  0
  126.9641  135.7547  159.7113 H   0  0  0  0  0  0  0  0  0  0  0  0
  124.8747  135.7691  160.8304 H   0  0  0  0  0  0  0  0  0  0  0  0
  1  2  2  0
  2 26  1  0
  2  3  1  0
  3  4  1  0
  3 27  1  0
  3 28  1  0
  4  5  1  0
  4 29  1  0
  4 30  1  0
  5  6  1  6
  5  7  1  0
  5 25  1  0
  7 31  1  0
  8  7  1  0
  8  9  1  0
  8 15  2  0
  9 10  1  0
  9 32  1  0
 10 14  1  0
 10 11  1  0
 10 33  1  1
 11 12  1  0
 11 34  1  0
 11 35  1  0
 12 13  1  0
 12 14  1  0
 12 36  1  1
 14 37  1  0
 14 38  1  0
 15 16  1  0
 15 17  1  0
 17 18  1  0
 17 39  1  0
 17 40  1  0
 18 23  1  0
 18 19  2  0
 19 20  1  0
 20 21  2  0
 20 41  1  0
 21 22  1  0
 21 42  1  0
 22 23  2  0
 22 43  1  0
 23 24  1  0
 25 26  1  0
 25 44  1  0
 25 45  1  0
 26 46  1  0
M  CHG  1  15   1
M  END
>  <DOCK_score>  (1) 
-49.963352

>  <SMILES>  (1) 
O=C1CC[C@H](NC(NC2CC(F)C2)=[NH+]Cc2ncccc2Br)CN1

$$$$
