C[C@H]1C(SCc2c(N)cccc2N2CC[NH+](C(c3ccccc3)c3ccccc3)CC2)[C@@H]1C
     RDKit          3D

 69 73  0  0  1  0  0  0  0  0999 V2000
  131.5118  142.1345  164.4346 C   0  0  0  0  0  0  0  0  0  0  0  0
  131.6774  140.7498  165.0639 C   0  0  1  0  0  0  0  0  0  0  0  0
  130.8356  140.4016  165.6622 H   0  0  0  0  0  0  0  0  0  0  0  0
  132.4615  139.7025  164.2705 C   0  0  0  0  0  0  0  0  0  0  0  0
  131.9191  137.9761  164.3981 S   0  0  0  0  0  0  0  0  0  0  0  0
  133.3843  137.0479  163.8670 C   0  0  0  0  0  0  0  0  0  0  0  0
  134.0320  137.7541  162.7038 C   0  0  0  0  0  0  0  0  0  0  0  0
  135.0137  138.7091  162.9290 C   0  0  0  0  0  0  0  0  0  0  0  0
  135.4028  139.0173  164.2346 N   0  0  0  0  0  0  0  0  0  0  0  0
  135.6040  139.3631  161.8546 C   0  0  0  0  0  0  0  0  0  0  0  0
  135.2200  139.0585  160.5628 C   0  0  0  0  0  0  0  0  0  0  0  0
  134.2482  138.1036  160.3347 C   0  0  0  0  0  0  0  0  0  0  0  0
  133.6530  137.4463  161.4051 C   0  0  0  0  0  0  0  0  0  0  0  0
  132.6703  136.4811  161.1736 N   0  0  0  0  0  0  0  0  0  0  0  0
  131.4884  137.0757  160.5337 C   0  0  0  0  0  0  0  0  0  0  0  0
  130.4149  136.0003  160.3524 C   0  0  0  0  0  0  0  0  0  0  0  0
  130.9474  134.9120  159.5217 N   0  0  0  0  0  0  0  0  0  0  0  0
  131.2244  135.2794  158.6237 H   0  0  0  0  0  0  0  0  0  0  0  0
  129.9108  133.8885  159.3328 C   0  0  0  0  0  0  0  0  0  0  0  0
  128.7161  134.5033  158.6503 C   0  0  0  0  0  0  0  0  0  0  0  0
  127.4499  134.0038  158.8909 C   0  0  0  0  0  0  0  0  0  0  0  0
  126.3534  134.5709  158.2685 C   0  0  0  0  0  0  0  0  0  0  0  0
  126.5245  135.6305  157.3973 C   0  0  0  0  0  0  0  0  0  0  0  0
  127.7914  136.1264  157.1526 C   0  0  0  0  0  0  0  0  0  0  0  0
  128.8872  135.5628  157.7790 C   0  0  0  0  0  0  0  0  0  0  0  0
  130.4567  132.7720  158.4805 C   0  0  0  0  0  0  0  0  0  0  0  0
  130.3227  132.8231  157.1056 C   0  0  0  0  0  0  0  0  0  0  0  0
  130.8278  131.8013  156.3234 C   0  0  0  0  0  0  0  0  0  0  0  0
  131.4576  130.7233  156.9169 C   0  0  0  0  0  0  0  0  0  0  0  0
  131.5870  130.6696  158.2921 C   0  0  0  0  0  0  0  0  0  0  0  0
  131.0865  131.6940  159.0740 C   0  0  0  0  0  0  0  0  0  0  0  0
  132.1123  134.3121  160.1854 C   0  0  0  0  0  0  0  0  0  0  0  0
  133.1998  135.3736  160.3654 C   0  0  0  0  0  0  0  0  0  0  0  0
  133.0815  140.3421  165.5145 C   0  0  2  0  0  0  0  0  0  0  0  0
  133.8873  141.0602  165.3627 H   0  0  0  0  0  0  0  0  0  0  0  0
  133.1969  139.4765  166.7709 C   0  0  0  0  0  0  0  0  0  0  0  0
  130.4672  142.2881  164.1641 H   0  0  0  0  0  0  0  0  0  0  0  0
  131.8178  142.8978  165.1500 H   0  0  0  0  0  0  0  0  0  0  0  0
  132.1324  142.2041  163.5412 H   0  0  0  0  0  0  0  0  0  0  0  0
  132.8589  139.9999  163.3001 H   0  0  0  0  0  0  0  0  0  0  0  0
  133.0880  136.0440  163.5630 H   0  0  0  0  0  0  0  0  0  0  0  0
  134.0926  136.9832  164.6928 H   0  0  0  0  0  0  0  0  0  0  0  0
  136.0856  139.6881  164.3915 H   0  0  0  0  0  0  0  0  0  0  0  0
  134.9903  138.5603  164.9843 H   0  0  0  0  0  0  0  0  0  0  0  0
  136.3643  140.1100  162.0294 H   0  0  0  0  0  0  0  0  0  0  0  0
  135.6807  139.5681  159.7293 H   0  0  0  0  0  0  0  0  0  0  0  0
  133.9505  137.8676  159.3237 H   0  0  0  0  0  0  0  0  0  0  0  0
  131.7663  137.4798  159.5604 H   0  0  0  0  0  0  0  0  0  0  0  0
  131.0984  137.8762  161.1625 H   0  0  0  0  0  0  0  0  0  0  0  0
  129.5427  136.4359  159.8650 H   0  0  0  0  0  0  0  0  0  0  0  0
  130.1274  135.6059  161.3270 H   0  0  0  0  0  0  0  0  0  0  0  0
  129.6109  133.4918  160.3028 H   0  0  0  0  0  0  0  0  0  0  0  0
  127.3165  133.1732  159.5682 H   0  0  0  0  0  0  0  0  0  0  0  0
  125.3636  134.1832  158.4593 H   0  0  0  0  0  0  0  0  0  0  0  0
  125.6685  136.0706  156.9075 H   0  0  0  0  0  0  0  0  0  0  0  0
  127.9252  136.9540  156.4717 H   0  0  0  0  0  0  0  0  0  0  0  0
  129.8772  135.9501  157.5877 H   0  0  0  0  0  0  0  0  0  0  0  0
  129.8267  133.6632  156.6422 H   0  0  0  0  0  0  0  0  0  0  0  0
  130.7264  131.8430  155.2490 H   0  0  0  0  0  0  0  0  0  0  0  0
  131.8483  129.9228  156.3061 H   0  0  0  0  0  0  0  0  0  0  0  0
  132.0787  129.8273  158.7558 H   0  0  0  0  0  0  0  0  0  0  0  0
  131.1873  131.6519  160.1484 H   0  0  0  0  0  0  0  0  0  0  0  0
  131.8160  133.9264  161.1609 H   0  0  0  0  0  0  0  0  0  0  0  0
  132.4985  133.4964  159.5743 H   0  0  0  0  0  0  0  0  0  0  0  0
  134.0585  134.9323  160.8713 H   0  0  0  0  0  0  0  0  0  0  0  0
  133.5063  135.7494  159.3894 H   0  0  0  0  0  0  0  0  0  0  0  0
  134.2471  139.2649  166.9714 H   0  0  0  0  0  0  0  0  0  0  0  0
  132.7649  140.0078  167.6189 H   0  0  0  0  0  0  0  0  0  0  0  0
  132.6604  138.5401  166.6176 H   0  0  0  0  0  0  0  0  0  0  0  0
  1  2  1  0
  1 37  1  0
  1 38  1  0
  1 39  1  0
  2  3  1  1
  2 34  1  0
  2  4  1  0
  4  5  1  0
  4 34  1  0
  4 40  1  0
  5  6  1  0
  6  7  1  0
  6 41  1  0
  6 42  1  0
  7 13  1  0
  7  8  2  0
  8  9  1  0
  8 10  1  0
  9 43  1  0
  9 44  1  0
 10 11  2  0
 10 45  1  0
 11 12  1  0
 11 46  1  0
 12 13  2  0
 12 47  1  0
 13 14  1  0
 14 33  1  0
 14 15  1  0
 15 16  1  0
 15 48  1  0
 15 49  1  0
 16 17  1  0
 16 50  1  0
 16 51  1  0
 17 18  1  0
 17 19  1  0
 17 32  1  0
 19 20  1  0
 19 26  1  0
 19 52  1  0
 20 25  1  0
 20 21  2  0
 21 22  1  0
 21 53  1  0
 22 23  2  0
 22 54  1  0
 23 24  1  0
 23 55  1  0
 24 25  2  0
 24 56  1  0
 25 57  1  0
 26 31  1  0
 26 27  2  0
 27 28  1  0
 27 58  1  0
 28 29  2  0
 28 59  1  0
 29 30  1  0
 29 60  1  0
 30 31  2  0
 30 61  1  0
 31 62  1  0
 32 33  1  0
 32 63  1  0
 32 64  1  0
 33 65  1  0
 33 66  1  0
 34 35  1  6
 34 36  1  0
 36 67  1  0
 36 68  1  0
 36 69  1  0
M  CHG  1  17   1
M  END
>  <DOCK_score>  (1) 
-56.092064

>  <SMILES>  (1) 
C[C@H]1C(SCc2c(N)cccc2N2CC[NH+](C(c3ccccc3)c3ccccc3)CC2)[C@@H]1C

$$$$
