CCC(NC=C1NCCC[NH2+]1)[C@H](C)Nc1cccc(-c2cncnc2)c1
     RDKit          3D

 55 57  0  0  1  0  0  0  0  0999 V2000
  132.1380  135.8639  163.1858 C   0  0  0  0  0  0  0  0  0  0  0  0
  132.6230  137.0880  162.4065 C   0  0  0  0  0  0  0  0  0  0  0  0
  131.5782  137.4710  161.3566 C   0  0  2  0  0  0  0  0  0  0  0  0
  131.3805  136.3512  160.4331 N   0  0  0  0  0  0  0  0  0  0  0  0
  130.5632  135.2738  160.8024 C   0  0  0  0  0  0  0  0  0  0  0  0
  130.3846  134.2617  159.9678 C   0  0  0  0  0  0  0  0  0  0  0  0
  131.0062  134.2442  158.7005 N   0  0  0  0  0  0  0  0  0  0  0  0
  131.6766  132.9962  158.2958 C   0  0  0  0  0  0  0  0  0  0  0  0
  130.7401  131.8271  158.6277 C   0  0  0  0  0  0  0  0  0  0  0  0
  130.3179  131.9253  160.0960 C   0  0  0  0  0  0  0  0  0  0  0  0
  129.5761  133.1695  160.3168 N   0  0  0  0  0  0  0  0  0  0  0  0
  129.3175  133.2384  161.2896 H   0  0  0  0  0  0  0  0  0  0  0  0
  128.7447  133.1691  159.7451 H   0  0  0  0  0  0  0  0  0  0  0  0
  132.0631  138.6953  160.5775 C   0  0  2  0  0  0  0  0  0  0  0  0
  132.2102  139.5285  161.2648 H   0  0  0  0  0  0  0  0  0  0  0  0
  131.0183  139.0784  159.5276 C   0  0  0  0  0  0  0  0  0  0  0  0
  133.3304  138.3808  159.9132 N   0  0  0  0  0  0  0  0  0  0  0  0
  134.4776  139.1199  160.2115 C   0  0  0  0  0  0  0  0  0  0  0  0
  135.4608  139.2982  159.2452 C   0  0  0  0  0  0  0  0  0  0  0  0
  136.5965  140.0291  159.5366 C   0  0  0  0  0  0  0  0  0  0  0  0
  136.7613  140.5865  160.7892 C   0  0  0  0  0  0  0  0  0  0  0  0
  135.7809  140.4130  161.7643 C   0  0  0  0  0  0  0  0  0  0  0  0
  135.9568  141.0116  163.1108 C   0  0  0  0  0  0  0  0  0  0  0  0
  135.4007  140.4094  164.2421 C   0  0  0  0  0  0  0  0  0  0  0  0
  135.5817  140.9758  165.4228 N   0  0  0  0  0  0  0  0  0  0  0  0
  136.2739  142.0908  165.5408 C   0  0  0  0  0  0  0  0  0  0  0  0
  136.8116  142.6941  164.4985 N   0  0  0  0  0  0  0  0  0  0  0  0
  136.6832  142.1925  163.2821 C   0  0  0  0  0  0  0  0  0  0  0  0
  134.6387  139.6718  161.4737 C   0  0  0  0  0  0  0  0  0  0  0  0
  131.1951  136.0979  163.6800 H   0  0  0  0  0  0  0  0  0  0  0  0
  131.9910  135.0305  162.4985 H   0  0  0  0  0  0  0  0  0  0  0  0
  132.8824  135.5909  163.9337 H   0  0  0  0  0  0  0  0  0  0  0  0
  133.5659  136.8540  161.9123 H   0  0  0  0  0  0  0  0  0  0  0  0
  132.7700  137.9212  163.0938 H   0  0  0  0  0  0  0  0  0  0  0  0
  130.6352  137.7051  161.8509 H   0  0  0  0  0  0  0  0  0  0  0  0
  131.8152  136.3552  159.5659 H   0  0  0  0  0  0  0  0  0  0  0  0
  130.0792  135.2693  161.7679 H   0  0  0  0  0  0  0  0  0  0  0  0
  130.9929  135.0216  158.1205 H   0  0  0  0  0  0  0  0  0  0  0  0
  131.8763  133.0157  157.2244 H   0  0  0  0  0  0  0  0  0  0  0  0
  132.6123  132.8859  158.8439 H   0  0  0  0  0  0  0  0  0  0  0  0
  129.8570  131.8754  157.9906 H   0  0  0  0  0  0  0  0  0  0  0  0
  131.2607  130.8843  158.4603 H   0  0  0  0  0  0  0  0  0  0  0  0
  129.6849  131.0748  160.3489 H   0  0  0  0  0  0  0  0  0  0  0  0
  131.2047  131.9178  160.7296 H   0  0  0  0  0  0  0  0  0  0  0  0
  130.0754  139.3124  160.0219 H   0  0  0  0  0  0  0  0  0  0  0  0
  131.3636  139.9505  158.9726 H   0  0  0  0  0  0  0  0  0  0  0  0
  130.8712  138.2452  158.8404 H   0  0  0  0  0  0  0  0  0  0  0  0
  133.3729  137.6594  159.2662 H   0  0  0  0  0  0  0  0  0  0  0  0
  135.3368  138.8640  158.2641 H   0  0  0  0  0  0  0  0  0  0  0  0
  137.3578  140.1646  158.7826 H   0  0  0  0  0  0  0  0  0  0  0  0
  137.6503  141.1575  161.0133 H   0  0  0  0  0  0  0  0  0  0  0  0
  134.8322  139.4955  164.1535 H   0  0  0  0  0  0  0  0  0  0  0  0
  136.4017  142.5265  166.5207 H   0  0  0  0  0  0  0  0  0  0  0  0
  137.1295  142.6899  162.4337 H   0  0  0  0  0  0  0  0  0  0  0  0
  133.8783  139.5306  162.2276 H   0  0  0  0  0  0  0  0  0  0  0  0
  1  2  1  0
  1 30  1  0
  1 31  1  0
  1 32  1  0
  2  3  1  0
  2 33  1  0
  2 34  1  0
  3  4  1  0
  3 14  1  0
  3 35  1  1
  4  5  1  0
  4 36  1  0
  5  6  2  0
  5 37  1  0
  6 11  1  0
  6  7  1  0
  7  8  1  0
  7 38  1  0
  8  9  1  0
  8 39  1  0
  8 40  1  0
  9 10  1  0
  9 41  1  0
  9 42  1  0
 10 11  1  0
 10 43  1  0
 10 44  1  0
 11 12  1  0
 11 13  1  0
 14 15  1  1
 14 16  1  0
 14 17  1  0
 16 45  1  0
 16 46  1  0
 16 47  1  0
 17 18  1  0
 17 48  1  0
 18 29  1  0
 18 19  2  0
 19 20  1  0
 19 49  1  0
 20 21  2  0
 20 50  1  0
 21 22  1  0
 21 51  1  0
 22 23  1  0
 22 29  2  0
 23 28  1  0
 23 24  2  0
 24 25  1  0
 24 52  1  0
 25 26  2  0
 26 27  1  0
 26 53  1  0
 27 28  2  0
 28 54  1  0
 29 55  1  0
M  CHG  1  11   1
M  END
>  <DOCK_score>  (1) 
-57.199413

>  <SMILES>  (1) 
CCC(NC=C1NCCC[NH2+]1)[C@H](C)Nc1cccc(-c2cncnc2)c1

$$$$
