Oc1ccc(Nc2ccc(-c3n[nH]cc3C[NH2+]CC=CC3CC3)o2)cc1
     RDKit          3D

 49 52  0  0  0  0  0  0  0  0999 V2000
  129.0306  138.8911  165.9599 O   0  0  0  0  0  0  0  0  0  0  0  0
  128.3403  138.2480  164.9804 C   0  0  0  0  0  0  0  0  0  0  0  0
  128.7075  136.9649  164.6019 C   0  0  0  0  0  0  0  0  0  0  0  0
  128.0044  136.3092  163.6107 C   0  0  0  0  0  0  0  0  0  0  0  0
  126.9361  136.9390  162.9849 C   0  0  0  0  0  0  0  0  0  0  0  0
  126.2263  136.2775  161.9768 N   0  0  0  0  0  0  0  0  0  0  0  0
  126.8694  135.3443  161.1717 C   0  0  0  0  0  0  0  0  0  0  0  0
  126.2906  134.2594  160.5986 C   0  0  0  0  0  0  0  0  0  0  0  0
  127.2964  133.5931  159.8715 C   0  0  0  0  0  0  0  0  0  0  0  0
  128.4430  134.3025  160.0444 C   0  0  0  0  0  0  0  0  0  0  0  0
  129.7617  133.9701  159.4669 C   0  0  0  0  0  0  0  0  0  0  0  0
  130.0316  132.9391  158.6904 N   0  0  0  0  0  0  0  0  0  0  0  0
  131.3921  132.9876  158.3611 N   0  0  0  0  0  0  0  0  0  0  0  0
  131.8647  132.3524  157.8007 H   0  0  0  0  0  0  0  0  0  0  0  0
  131.9322  134.0720  158.9583 C   0  0  0  0  0  0  0  0  0  0  0  0
  130.9545  134.7027  159.6432 C   0  0  0  0  0  0  0  0  0  0  0  0
  131.1099  135.9633  160.4542 C   0  0  0  0  0  0  0  0  0  0  0  0
  130.8607  137.1305  159.5977 N   0  0  0  0  0  0  0  0  0  0  0  0
  131.5228  137.1365  158.8364 H   0  0  0  0  0  0  0  0  0  0  0  0
  129.9232  137.0821  159.2278 H   0  0  0  0  0  0  0  0  0  0  0  0
  131.0123  138.3593  160.3883 C   0  0  0  0  0  0  0  0  0  0  0  0
  132.4124  138.4316  160.9408 C   0  0  0  0  0  0  0  0  0  0  0  0
  133.3591  139.0191  160.2517 C   0  0  0  0  0  0  0  0  0  0  0  0
  134.7592  139.0914  160.8043 C   0  0  0  0  0  0  0  0  0  0  0  0
  135.2859  140.4674  161.2166 C   0  0  0  0  0  0  0  0  0  0  0  0
  135.8200  139.7905  159.9518 C   0  0  0  0  0  0  0  0  0  0  0  0
  128.1705  135.3618  160.8348 O   0  0  0  0  0  0  0  0  0  0  0  0
  126.5726  138.2257  163.3611 C   0  0  0  0  0  0  0  0  0  0  0  0
  127.2734  138.8776  164.3565 C   0  0  0  0  0  0  0  0  0  0  0  0
  129.7560  138.3731  166.3348 H   0  0  0  0  0  0  0  0  0  0  0  0
  129.5411  136.4773  165.0851 H   0  0  0  0  0  0  0  0  0  0  0  0
  128.2878  135.3088  163.3189 H   0  0  0  0  0  0  0  0  0  0  0  0
  125.2856  136.4700  161.8396 H   0  0  0  0  0  0  0  0  0  0  0  0
  125.2553  133.9637  160.6824 H   0  0  0  0  0  0  0  0  0  0  0  0
  127.1797  132.6898  159.2911 H   0  0  0  0  0  0  0  0  0  0  0  0
  132.9645  134.3829  158.8951 H   0  0  0  0  0  0  0  0  0  0  0  0
  130.3946  135.9568  161.2767 H   0  0  0  0  0  0  0  0  0  0  0  0
  132.1227  136.0157  160.8539 H   0  0  0  0  0  0  0  0  0  0  0  0
  130.8274  139.2255  159.7527 H   0  0  0  0  0  0  0  0  0  0  0  0
  130.2970  138.3528  161.2106 H   0  0  0  0  0  0  0  0  0  0  0  0
  132.6355  137.9990  161.9049 H   0  0  0  0  0  0  0  0  0  0  0  0
  133.1360  139.4518  159.2876 H   0  0  0  0  0  0  0  0  0  0  0  0
  135.0756  138.2332  161.3972 H   0  0  0  0  0  0  0  0  0  0  0  0
  134.6198  141.3205  161.0881 H   0  0  0  0  0  0  0  0  0  0  0  0
  135.9489  140.5145  162.0805 H   0  0  0  0  0  0  0  0  0  0  0  0
  136.8342  139.3925  159.9840 H   0  0  0  0  0  0  0  0  0  0  0  0
  135.5053  140.1979  158.9910 H   0  0  0  0  0  0  0  0  0  0  0  0
  125.7419  138.7161  162.8753 H   0  0  0  0  0  0  0  0  0  0  0  0
  126.9910  139.8782  164.6489 H   0  0  0  0  0  0  0  0  0  0  0  0
  1  2  1  0
  1 30  1  0
  2 29  2  0
  2  3  1  0
  3  4  2  0
  3 31  1  0
  4  5  1  0
  4 32  1  0
  5  6  1  0
  5 28  2  0
  6  7  1  0
  6 33  1  0
  7 27  1  0
  7  8  2  0
  8  9  1  0
  8 34  1  0
  9 10  2  0
  9 35  1  0
 10 11  1  0
 10 27  1  0
 11 16  1  0
 11 12  2  0
 12 13  1  0
 13 14  1  0
 13 15  1  0
 15 16  2  0
 15 36  1  0
 16 17  1  0
 17 18  1  0
 17 37  1  0
 17 38  1  0
 18 19  1  0
 18 20  1  0
 18 21  1  0
 21 22  1  0
 21 39  1  0
 21 40  1  0
 22 23  2  0
 22 41  1  0
 23 24  1  0
 23 42  1  0
 24 26  1  0
 24 25  1  0
 24 43  1  0
 25 26  1  0
 25 44  1  0
 25 45  1  0
 26 46  1  0
 26 47  1  0
 28 29  1  0
 28 48  1  0
 29 49  1  0
M  CHG  1  18   1
M  END
>  <DOCK_score>  (1) 
-43.385967

>  <SMILES>  (1) 
Oc1ccc(Nc2ccc(-c3n[nH]cc3C[NH2+]CC=CC3CC3)o2)cc1

$$$$
