CCC=Cc1cc(Nc2[nH]cc(-c3ccc([N+](=O)[O-])cc3)[nH+]2)ccc1N
     RDKit          3D

 46 48  0  0  1  0  0  0  0  0999 V2000
  131.0097  139.3719  165.1324 C   0  0  0  0  0  0  0  0  0  0  0  0
  129.6019  138.7902  165.2752 C   0  0  0  0  0  0  0  0  0  0  0  0
  129.0948  138.3637  163.9217 C   0  0  0  0  0  0  0  0  0  0  0  0
  129.3199  137.1307  163.4874 C   0  0  0  0  0  0  0  0  0  0  0  0
  128.8229  136.7127  162.1609 C   0  0  0  0  0  0  0  0  0  0  0  0
  129.7173  136.2772  161.1836 C   0  0  0  0  0  0  0  0  0  0  0  0
  129.2440  135.8810  159.9427 C   0  0  0  0  0  0  0  0  0  0  0  0
  130.1404  135.4439  158.9603 N   0  0  0  0  0  0  0  0  0  0  0  0
  130.0321  134.1642  158.4445 C   0  0  0  0  0  0  0  0  0  0  0  0
  129.5526  133.0777  159.1114 N   0  0  0  0  0  0  0  0  0  0  0  0
  129.2289  133.0605  160.0256 H   0  0  0  0  0  0  0  0  0  0  0  0
  129.6134  132.0114  158.2490 C   0  0  0  0  0  0  0  0  0  0  0  0
  130.1278  132.4778  157.0824 C   0  0  0  0  0  0  0  0  0  0  0  0
  130.3761  131.6789  155.8578 C   0  0  0  0  0  0  0  0  0  0  0  0
  129.7340  132.0086  154.6652 C   0  0  0  0  0  0  0  0  0  0  0  0
  129.9722  131.2642  153.5278 C   0  0  0  0  0  0  0  0  0  0  0  0
  130.8382  130.1871  153.5717 C   0  0  0  0  0  0  0  0  0  0  0  0
  131.0876  129.3831  152.3412 N   0  0  0  0  0  0  0  0  0  0  0  0
  130.5288  129.6760  151.2993 O   0  0  0  0  0  0  0  0  0  0  0  0
  131.8498  128.4337  152.3776 O   0  0  0  0  0  0  0  0  0  0  0  0
  131.4748  129.8518  154.7540 C   0  0  0  0  0  0  0  0  0  0  0  0
  131.2480  130.5919  155.8965 C   0  0  0  0  0  0  0  0  0  0  0  0
  130.3687  133.7981  157.2312 N   0  0  0  0  0  0  0  0  0  0  0  0
  130.7347  134.3828  156.5493 H   0  0  0  0  0  0  0  0  0  0  0  0
  127.8805  135.9171  159.6711 C   0  0  0  0  0  0  0  0  0  0  0  0
  126.9896  136.3468  160.6344 C   0  0  0  0  0  0  0  0  0  0  0  0
  127.4500  136.7468  161.8807 C   0  0  0  0  0  0  0  0  0  0  0  0
  126.5478  137.1811  162.8538 N   0  0  0  0  0  0  0  0  0  0  0  0
  131.3764  139.6803  166.1114 H   0  0  0  0  0  0  0  0  0  0  0  0
  131.6751  138.6149  164.7171 H   0  0  0  0  0  0  0  0  0  0  0  0
  130.9806  140.2346  164.4669 H   0  0  0  0  0  0  0  0  0  0  0  0
  128.9364  139.5470  165.6905 H   0  0  0  0  0  0  0  0  0  0  0  0
  129.6309  137.9274  165.9406 H   0  0  0  0  0  0  0  0  0  0  0  0
  128.5482  139.0620  163.3053 H   0  0  0  0  0  0  0  0  0  0  0  0
  129.8665  136.4324  164.1038 H   0  0  0  0  0  0  0  0  0  0  0  0
  130.7764  136.2489  161.3929 H   0  0  0  0  0  0  0  0  0  0  0  0
  130.8376  136.0379  158.6410 H   0  0  0  0  0  0  0  0  0  0  0  0
  129.3101  130.9962  158.4584 H   0  0  0  0  0  0  0  0  0  0  0  0
  129.0543  132.8472  154.6306 H   0  0  0  0  0  0  0  0  0  0  0  0
  129.4784  131.5212  152.6023 H   0  0  0  0  0  0  0  0  0  0  0  0
  132.1500  129.0094  154.7827 H   0  0  0  0  0  0  0  0  0  0  0  0
  131.7452  130.3297  156.8186 H   0  0  0  0  0  0  0  0  0  0  0  0
  127.5169  135.6073  158.7024 H   0  0  0  0  0  0  0  0  0  0  0  0
  125.9318  136.3723  160.4171 H   0  0  0  0  0  0  0  0  0  0  0  0
  126.8710  137.4597  163.7249 H   0  0  0  0  0  0  0  0  0  0  0  0
  125.5979  137.2042  162.6587 H   0  0  0  0  0  0  0  0  0  0  0  0
  1  2  1  0
  1 29  1  0
  1 30  1  0
  1 31  1  0
  2  3  1  0
  2 32  1  0
  2 33  1  0
  3  4  2  0
  3 34  1  0
  4  5  1  0
  4 35  1  0
  5 27  2  0
  5  6  1  0
  6  7  2  0
  6 36  1  0
  7  8  1  0
  7 25  1  0
  8 37  1  0
  9  8  1  0
  9 23  2  0
  9 10  1  0
 10 11  1  0
 10 12  1  0
 12 13  2  0
 12 38  1  0
 13 14  1  0
 13 23  1  0
 14 22  1  0
 14 15  2  0
 15 16  1  0
 15 39  1  0
 16 17  2  0
 16 40  1  0
 17 18  1  0
 17 21  1  0
 18 19  2  0
 18 20  1  0
 21 22  2  0
 21 41  1  0
 22 42  1  0
 23 24  1  0
 25 26  2  0
 25 43  1  0
 26 27  1  0
 26 44  1  0
 27 28  1  0
 28 45  1  0
 28 46  1  0
M  CHG  3  18   1  20  -1  23   1
M  END
>  <DOCK_score>  (1) 
-46.190849

>  <SMILES>  (1) 
CCC=Cc1cc(Nc2[nH]cc(-c3ccc([N+](=O)[O-])cc3)[nH+]2)ccc1N

$$$$
