CC(F)(F)c1ccc(Nc2ccc(Nc3[nH]cc(-c4cccnc4)[nH+]3)cc2)cc1
     RDKit          3D

 49 52  0  0  1  0  0  0  0  0999 V2000
  128.5545  136.3587  167.9118 C   0  0  0  0  0  0  0  0  0  0  0  0
  127.3524  135.4907  167.5345 C   0  0  0  0  0  0  0  0  0  0  0  0
  126.2557  135.8424  168.3289 F   0  0  0  0  0  0  0  0  0  0  0  0
  127.6662  134.1434  167.7429 F   0  0  0  0  0  0  0  0  0  0  0  0
  127.0115  135.7083  166.0829 C   0  0  0  0  0  0  0  0  0  0  0  0
  127.5955  134.9165  165.1109 C   0  0  0  0  0  0  0  0  0  0  0  0
  127.2860  135.1134  163.7796 C   0  0  0  0  0  0  0  0  0  0  0  0
  126.3861  136.1081  163.4172 C   0  0  0  0  0  0  0  0  0  0  0  0
  126.0709  136.3103  162.0714 N   0  0  0  0  0  0  0  0  0  0  0  0
  127.0181  136.0272  161.0805 C   0  0  0  0  0  0  0  0  0  0  0  0
  126.7365  135.0850  160.0996 C   0  0  0  0  0  0  0  0  0  0  0  0
  127.6726  134.8023  159.1251 C   0  0  0  0  0  0  0  0  0  0  0  0
  128.8920  135.4672  159.1197 C   0  0  0  0  0  0  0  0  0  0  0  0
  129.8396  135.1838  158.1283 N   0  0  0  0  0  0  0  0  0  0  0  0
  129.8961  133.9195  157.5657 C   0  0  0  0  0  0  0  0  0  0  0  0
  129.5573  132.7580  158.1895 N   0  0  0  0  0  0  0  0  0  0  0  0
  129.2362  132.6675  159.1003 H   0  0  0  0  0  0  0  0  0  0  0  0
  129.7543  131.7380  157.2912 C   0  0  0  0  0  0  0  0  0  0  0  0
  130.2075  132.3045  156.1453 C   0  0  0  0  0  0  0  0  0  0  0  0
  130.5582  131.5861  154.8958 C   0  0  0  0  0  0  0  0  0  0  0  0
  130.4057  132.2071  153.6526 C   0  0  0  0  0  0  0  0  0  0  0  0
  130.7522  131.4960  152.5168 C   0  0  0  0  0  0  0  0  0  0  0  0
  131.2231  130.2020  152.6461 C   0  0  0  0  0  0  0  0  0  0  0  0
  131.3513  129.6403  153.8326 N   0  0  0  0  0  0  0  0  0  0  0  0
  131.0396  130.2793  154.9417 C   0  0  0  0  0  0  0  0  0  0  0  0
  130.2796  133.6445  156.3427 N   0  0  0  0  0  0  0  0  0  0  0  0
  130.5703  134.2950  155.6846 H   0  0  0  0  0  0  0  0  0  0  0  0
  129.1717  136.4128  160.0977 C   0  0  0  0  0  0  0  0  0  0  0  0
  128.2375  136.6923  161.0751 C   0  0  0  0  0  0  0  0  0  0  0  0
  125.8049  136.9048  164.3958 C   0  0  0  0  0  0  0  0  0  0  0  0
  126.1157  136.6994  165.7256 C   0  0  0  0  0  0  0  0  0  0  0  0
  128.3099  137.4085  167.7493 H   0  0  0  0  0  0  0  0  0  0  0  0
  128.8010  136.2013  168.9618 H   0  0  0  0  0  0  0  0  0  0  0  0
  129.4089  136.0847  167.2930 H   0  0  0  0  0  0  0  0  0  0  0  0
  128.2950  134.1436  165.3933 H   0  0  0  0  0  0  0  0  0  0  0  0
  127.7430  134.4954  163.0211 H   0  0  0  0  0  0  0  0  0  0  0  0
  125.1957  136.6473  161.8237 H   0  0  0  0  0  0  0  0  0  0  0  0
  125.7865  134.5711  160.1012 H   0  0  0  0  0  0  0  0  0  0  0  0
  127.4550  134.0672  158.3643 H   0  0  0  0  0  0  0  0  0  0  0  0
  130.4564  135.8730  157.8358 H   0  0  0  0  0  0  0  0  0  0  0  0
  129.5811  130.6861  157.4642 H   0  0  0  0  0  0  0  0  0  0  0  0
  130.0310  133.2175  153.5806 H   0  0  0  0  0  0  0  0  0  0  0  0
  130.6516  131.9454  151.5399 H   0  0  0  0  0  0  0  0  0  0  0  0
  131.4906  129.6428  151.7618 H   0  0  0  0  0  0  0  0  0  0  0  0
  131.1584  129.7859  155.8950 H   0  0  0  0  0  0  0  0  0  0  0  0
  130.1199  136.9299  160.0933 H   0  0  0  0  0  0  0  0  0  0  0  0
  128.4550  137.4275  161.8355 H   0  0  0  0  0  0  0  0  0  0  0  0
  125.1082  137.6815  164.1171 H   0  0  0  0  0  0  0  0  0  0  0  0
  125.6620  137.3164  166.4870 H   0  0  0  0  0  0  0  0  0  0  0  0
  1  2  1  0
  1 32  1  0
  1 33  1  0
  1 34  1  0
  2  3  1  0
  2  4  1  0
  2  5  1  0
  5 31  2  0
  5  6  1  0
  6  7  2  0
  6 35  1  0
  7  8  1  0
  7 36  1  0
  8  9  1  0
  8 30  2  0
  9 10  1  0
  9 37  1  0
 10 29  1  0
 10 11  2  0
 11 12  1  0
 11 38  1  0
 12 13  2  0
 12 39  1  0
 13 14  1  0
 13 28  1  0
 14 40  1  0
 15 14  1  0
 15 26  2  0
 15 16  1  0
 16 17  1  0
 16 18  1  0
 18 19  2  0
 18 41  1  0
 19 20  1  0
 19 26  1  0
 20 25  1  0
 20 21  2  0
 21 22  1  0
 21 42  1  0
 22 23  2  0
 22 43  1  0
 23 24  1  0
 23 44  1  0
 24 25  2  0
 25 45  1  0
 26 27  1  0
 28 29  2  0
 28 46  1  0
 29 47  1  0
 30 31  1  0
 30 48  1  0
 31 49  1  0
M  CHG  1  26   1
M  END
>  <DOCK_score>  (1) 
-56.82843

>  <SMILES>  (1) 
CC(F)(F)c1ccc(Nc2ccc(Nc3[nH]cc(-c4cccnc4)[nH+]3)cc2)cc1

$$$$
