O=C1CC[C@H](NC(NC2CC2)=[NH+]C2COc3cc(N4CC[C@H]4c4ccccc4)ccc3C2)CN1
     RDKit          3D

 68 73  0  0  1  0  0  0  0  0999 V2000
  123.4470  134.1006  161.4397 O   0  0  0  0  0  0  0  0  0  0  0  0
  124.6447  134.1823  161.2677 C   0  0  0  0  0  0  0  0  0  0  0  0
  125.3113  133.1481  160.4067 C   0  0  0  0  0  0  0  0  0  0  0  0
  126.8208  133.1534  160.6606 C   0  0  0  0  0  0  0  0  0  0  0  0
  127.3194  134.6016  160.5879 C   0  0  2  0  0  0  0  0  0  0  0  0
  126.9893  135.0555  159.6535 H   0  0  0  0  0  0  0  0  0  0  0  0
  128.7828  134.6215  160.6539 N   0  0  0  0  0  0  0  0  0  0  0  0
  129.5241  134.5524  159.4982 C   0  0  0  0  0  0  0  0  0  0  0  0
  129.0327  133.8779  158.4057 N   0  0  0  0  0  0  0  0  0  0  0  0
  129.8227  133.8044  157.1740 C   0  0  0  0  0  0  0  0  0  0  0  0
  129.5015  132.6730  156.1953 C   0  0  0  0  0  0  0  0  0  0  0  0
  130.7875  132.6265  157.0229 C   0  0  0  0  0  0  0  0  0  0  0  0
  130.6928  135.1266  159.4381 N   0  0  0  0  0  0  0  0  0  0  0  0
  131.2159  135.0778  158.6227 H   0  0  0  0  0  0  0  0  0  0  0  0
  131.2164  135.8453  160.6024 C   0  0  2  0  0  0  0  0  0  0  0  0
  132.1504  136.9704  160.1385 C   0  0  0  0  0  0  0  0  0  0  0  0
  132.5609  137.7162  161.2852 O   0  0  0  0  0  0  0  0  0  0  0  0
  133.0289  137.0261  162.3577 C   0  0  0  0  0  0  0  0  0  0  0  0
  133.7554  137.7148  163.3222 C   0  0  0  0  0  0  0  0  0  0  0  0
  134.2468  137.0469  164.4333 C   0  0  0  0  0  0  0  0  0  0  0  0
  134.9766  137.7403  165.4014 N   0  0  0  0  0  0  0  0  0  0  0  0
  136.1090  138.4629  164.7928 C   0  0  0  0  0  0  0  0  0  0  0  0
  136.9623  138.0207  165.9898 C   0  0  0  0  0  0  0  0  0  0  0  0
  135.9623  136.8577  166.0528 C   0  0  1  0  0  0  0  0  0  0  0  0
  136.2511  136.0031  165.4411 H   0  0  0  0  0  0  0  0  0  0  0  0
  135.5827  136.4678  167.4582 C   0  0  0  0  0  0  0  0  0  0  0  0
  135.9832  135.2475  167.9692 C   0  0  0  0  0  0  0  0  0  0  0  0
  135.6391  134.8920  169.2599 C   0  0  0  0  0  0  0  0  0  0  0  0
  134.8860  135.7529  170.0363 C   0  0  0  0  0  0  0  0  0  0  0  0
  134.4807  136.9710  169.5235 C   0  0  0  0  0  0  0  0  0  0  0  0
  134.8293  137.3285  168.2345 C   0  0  0  0  0  0  0  0  0  0  0  0
  134.0104  135.6854  164.5808 C   0  0  0  0  0  0  0  0  0  0  0  0
  133.2901  135.0043  163.6215 C   0  0  0  0  0  0  0  0  0  0  0  0
  132.7995  135.6690  162.5089 C   0  0  0  0  0  0  0  0  0  0  0  0
  132.0209  134.8854  161.4825 C   0  0  0  0  0  0  0  0  0  0  0  0
  126.7419  135.3818  161.7695 C   0  0  0  0  0  0  0  0  0  0  0  0
  125.2995  135.1856  161.8535 N   0  0  0  0  0  0  0  0  0  0  0  0
  125.1198  133.3724  159.3573 H   0  0  0  0  0  0  0  0  0  0  0  0
  124.9075  132.1640  160.6447 H   0  0  0  0  0  0  0  0  0  0  0  0
  127.3227  132.5537  159.9012 H   0  0  0  0  0  0  0  0  0  0  0  0
  127.0281  132.7430  161.6490 H   0  0  0  0  0  0  0  0  0  0  0  0
  129.2287  134.6834  161.5132 H   0  0  0  0  0  0  0  0  0  0  0  0
  128.1631  133.4507  158.4502 H   0  0  0  0  0  0  0  0  0  0  0  0
  130.1283  134.7624  156.7536 H   0  0  0  0  0  0  0  0  0  0  0  0
  128.7025  131.9836  156.4676 H   0  0  0  0  0  0  0  0  0  0  0  0
  129.5957  132.8868  155.1306 H   0  0  0  0  0  0  0  0  0  0  0  0
  131.7277  132.8096  156.5028 H   0  0  0  0  0  0  0  0  0  0  0  0
  130.8344  131.9064  157.8398 H   0  0  0  0  0  0  0  0  0  0  0  0
  130.3912  136.2662  161.1768 H   0  0  0  0  0  0  0  0  0  0  0  0
  131.6215  137.6242  159.4452 H   0  0  0  0  0  0  0  0  0  0  0  0
  133.0242  136.5427  159.6465 H   0  0  0  0  0  0  0  0  0  0  0  0
  133.9377  138.7730  163.2057 H   0  0  0  0  0  0  0  0  0  0  0  0
  136.4369  138.0365  163.8446 H   0  0  0  0  0  0  0  0  0  0  0  0
  135.9588  139.5412  164.7413 H   0  0  0  0  0  0  0  0  0  0  0  0
  136.9162  138.6958  166.8444 H   0  0  0  0  0  0  0  0  0  0  0  0
  137.9776  137.7226  165.7282 H   0  0  0  0  0  0  0  0  0  0  0  0
  136.5681  134.5732  167.3611 H   0  0  0  0  0  0  0  0  0  0  0  0
  135.9554  133.9403  169.6606 H   0  0  0  0  0  0  0  0  0  0  0  0
  134.6140  135.4737  171.0436 H   0  0  0  0  0  0  0  0  0  0  0  0
  133.8921  137.6434  170.1299 H   0  0  0  0  0  0  0  0  0  0  0  0
  134.5126  138.2802  167.8337 H   0  0  0  0  0  0  0  0  0  0  0  0
  134.3898  135.1613  165.4457 H   0  0  0  0  0  0  0  0  0  0  0  0
  133.1080  133.9462  163.7379 H   0  0  0  0  0  0  0  0  0  0  0  0
  131.3403  134.2007  161.9886 H   0  0  0  0  0  0  0  0  0  0  0  0
  132.7121  134.3162  160.8608 H   0  0  0  0  0  0  0  0  0  0  0  0
  127.2051  135.0329  162.6925 H   0  0  0  0  0  0  0  0  0  0  0  0
  126.9572  136.4426  161.6405 H   0  0  0  0  0  0  0  0  0  0  0  0
  124.7834  135.8273  162.3661 H   0  0  0  0  0  0  0  0  0  0  0  0
  1  2  2  0
  2 37  1  0
  2  3  1  0
  3  4  1  0
  3 38  1  0
  3 39  1  0
  4  5  1  0
  4 40  1  0
  4 41  1  0
  5  6  1  6
  5  7  1  0
  5 36  1  0
  7 42  1  0
  8  7  1  0
  8  9  1  0
  8 13  2  0
  9 10  1  0
  9 43  1  0
 10 12  1  0
 10 11  1  0
 10 44  1  0
 11 12  1  0
 11 45  1  0
 11 46  1  0
 12 47  1  0
 12 48  1  0
 13 14  1  0
 13 15  1  0
 15 35  1  0
 15 16  1  0
 15 49  1  1
 16 17  1  0
 16 50  1  0
 16 51  1  0
 17 18  1  0
 18 34  2  0
 18 19  1  0
 19 20  2  0
 19 52  1  0
 20 21  1  0
 20 32  1  0
 21 24  1  0
 21 22  1  0
 22 23  1  0
 22 53  1  0
 22 54  1  0
 23 24  1  0
 23 55  1  0
 23 56  1  0
 24 25  1  6
 24 26  1  0
 26 31  1  0
 26 27  2  0
 27 28  1  0
 27 57  1  0
 28 29  2  0
 28 58  1  0
 29 30  1  0
 29 59  1  0
 30 31  2  0
 30 60  1  0
 31 61  1  0
 32 33  2  0
 32 62  1  0
 33 34  1  0
 33 63  1  0
 34 35  1  0
 35 64  1  0
 35 65  1  0
 36 37  1  0
 36 66  1  0
 36 67  1  0
 37 68  1  0
M  CHG  1  13   1
M  END
>  <DOCK_score>  (1) 
-46.641155

>  <SMILES>  (1) 
O=C1CC[C@H](NC(NC2CC2)=[NH+]C2COc3cc(N4CC[C@H]4c4ccccc4)ccc3C2)CN1

$$$$
