C=CCCNc1ccc(-c2c[nH]c(N[C@H](CCBr)c3ccc(F)cc3)[nH+]2)cc1
     RDKit          3D

 53 55  0  0  1  0  0  0  0  0999 V2000
  129.8188  127.3382  151.6259 C   0  0  0  0  0  0  0  0  0  0  0  0
  129.4587  128.5883  151.4715 C   0  0  0  0  0  0  0  0  0  0  0  0
  130.5012  129.6474  151.2220 C   0  0  0  0  0  0  0  0  0  0  0  0
  130.4456  130.6912  152.3393 C   0  0  0  0  0  0  0  0  0  0  0  0
  130.7069  130.0427  153.6267 N   0  0  0  0  0  0  0  0  0  0  0  0
  130.7085  130.7984  154.8017 C   0  0  0  0  0  0  0  0  0  0  0  0
  130.9562  130.1821  156.0226 C   0  0  0  0  0  0  0  0  0  0  0  0
  130.9580  130.9258  157.1837 C   0  0  0  0  0  0  0  0  0  0  0  0
  130.7111  132.2968  157.1323 C   0  0  0  0  0  0  0  0  0  0  0  0
  130.7119  133.0991  158.3803 C   0  0  0  0  0  0  0  0  0  0  0  0
  130.3703  132.6545  159.6149 C   0  0  0  0  0  0  0  0  0  0  0  0
  130.5120  133.7178  160.4748 N   0  0  0  0  0  0  0  0  0  0  0  0
  130.3411  133.7113  161.4296 H   0  0  0  0  0  0  0  0  0  0  0  0
  130.9363  134.7808  159.7390 C   0  0  0  0  0  0  0  0  0  0  0  0
  131.1997  136.0479  160.2305 N   0  0  0  0  0  0  0  0  0  0  0  0
  131.0255  136.3311  161.6572 C   0  0  2  0  0  0  0  0  0  0  0  0
  130.1277  135.8307  162.0199 H   0  0  0  0  0  0  0  0  0  0  0  0
  130.8869  137.8407  161.8643 C   0  0  0  0  0  0  0  0  0  0  0  0
  129.4560  138.2712  161.5362 C   0  0  0  0  0  0  0  0  0  0  0  0
  129.2779  140.2111  161.8025 Br  0  0  0  0  0  0  0  0  0  0  0  0
  132.2240  135.8274  162.4194 C   0  0  0  0  0  0  0  0  0  0  0  0
  132.0828  135.4070  163.7288 C   0  0  0  0  0  0  0  0  0  0  0  0
  133.1803  134.9405  164.4274 C   0  0  0  0  0  0  0  0  0  0  0  0
  134.4233  134.9040  163.8186 C   0  0  0  0  0  0  0  0  0  0  0  0
  135.4977  134.4524  164.5021 F   0  0  0  0  0  0  0  0  0  0  0  0
  134.5643  135.3302  162.5089 C   0  0  0  0  0  0  0  0  0  0  0  0
  133.4645  135.7914  161.8105 C   0  0  0  0  0  0  0  0  0  0  0  0
  131.0546  134.4072  158.4881 N   0  0  0  0  0  0  0  0  0  0  0  0
  131.3418  134.9754  157.7563 H   0  0  0  0  0  0  0  0  0  0  0  0
  130.4577  132.9119  155.9072 C   0  0  0  0  0  0  0  0  0  0  0  0
  130.4622  132.1651  154.7481 C   0  0  0  0  0  0  0  0  0  0  0  0
  130.8629  127.0668  151.5744 H   0  0  0  0  0  0  0  0  0  0  0  0
  129.0717  126.5792  151.8048 H   0  0  0  0  0  0  0  0  0  0  0  0
  128.4146  128.8598  151.5231 H   0  0  0  0  0  0  0  0  0  0  0  0
  130.3069  130.1299  150.2641 H   0  0  0  0  0  0  0  0  0  0  0  0
  131.4893  129.1875  151.2032 H   0  0  0  0  0  0  0  0  0  0  0  0
  129.4576  131.1513  152.3579 H   0  0  0  0  0  0  0  0  0  0  0  0
  131.1998  131.4572  152.1586 H   0  0  0  0  0  0  0  0  0  0  0  0
  130.8786  129.0888  153.6632 H   0  0  0  0  0  0  0  0  0  0  0  0
  131.1472  129.1198  156.0619 H   0  0  0  0  0  0  0  0  0  0  0  0
  131.1508  130.4466  158.1321 H   0  0  0  0  0  0  0  0  0  0  0  0
  130.0522  131.6554  159.8738 H   0  0  0  0  0  0  0  0  0  0  0  0
  131.4996  136.7484  159.6301 H   0  0  0  0  0  0  0  0  0  0  0  0
  131.1116  138.0872  162.9020 H   0  0  0  0  0  0  0  0  0  0  0  0
  131.5830  138.3628  161.2079 H   0  0  0  0  0  0  0  0  0  0  0  0
  129.2312  138.0249  160.4985 H   0  0  0  0  0  0  0  0  0  0  0  0
  128.7598  137.7491  162.1926 H   0  0  0  0  0  0  0  0  0  0  0  0
  131.1139  135.4395  164.2048 H   0  0  0  0  0  0  0  0  0  0  0  0
  133.0691  134.6083  165.4489 H   0  0  0  0  0  0  0  0  0  0  0  0
  135.5337  135.3024  162.0332 H   0  0  0  0  0  0  0  0  0  0  0  0
  133.5742  136.1236  160.7889 H   0  0  0  0  0  0  0  0  0  0  0  0
  130.2618  133.9732  155.8657 H   0  0  0  0  0  0  0  0  0  0  0  0
  130.2696  132.6418  153.7984 H   0  0  0  0  0  0  0  0  0  0  0  0
  1  2  2  0
  1 32  1  0
  1 33  1  0
  2  3  1  0
  2 34  1  0
  3  4  1  0
  3 35  1  0
  3 36  1  0
  4  5  1  0
  4 37  1  0
  4 38  1  0
  5  6  1  0
  5 39  1  0
  6 31  2  0
  6  7  1  0
  7  8  2  0
  7 40  1  0
  8  9  1  0
  8 41  1  0
  9 10  1  0
  9 30  2  0
 10 28  1  0
 10 11  2  0
 11 12  1  0
 11 42  1  0
 12 13  1  0
 12 14  1  0
 14 15  1  0
 14 28  2  0
 15 16  1  0
 15 43  1  0
 16 17  1  1
 16 18  1  0
 16 21  1  0
 18 19  1  0
 18 44  1  0
 18 45  1  0
 19 20  1  0
 19 46  1  0
 19 47  1  0
 21 27  1  0
 21 22  2  0
 22 23  1  0
 22 48  1  0
 23 24  2  0
 23 49  1  0
 24 25  1  0
 24 26  1  0
 26 27  2  0
 26 50  1  0
 27 51  1  0
 28 29  1  0
 30 31  1  0
 30 52  1  0
 31 53  1  0
M  CHG  1  28   1
M  END
>  <DOCK_score>  (1) 
-56.913208

>  <SMILES>  (1) 
C=CCCNc1ccc(-c2c[nH]c(N[C@H](CCBr)c3ccc(F)cc3)[nH+]2)cc1

$$$$
