O[C@H]1C[C@@H]([NH+]=C(NCc2cccs2)NC[C@H]2C=CCC=C2Cc2ccccc2)C1
     RDKit          3D

 59 62  0  0  1  0  0  0  0  0999 V2000
  124.3380  134.9610  161.5878 O   0  0  0  0  0  0  0  0  0  0  0  0
  125.5505  134.2146  161.4657 C   0  0  1  0  0  0  0  0  0  0  0  0
  125.3886  133.1368  161.4820 H   0  0  0  0  0  0  0  0  0  0  0  0
  126.4500  134.6850  160.3105 C   0  0  0  0  0  0  0  0  0  0  0  0
  127.6436  134.4664  161.2552 C   0  0  1  0  0  0  0  0  0  0  0  0
  128.0551  133.4579  161.2147 H   0  0  0  0  0  0  0  0  0  0  0  0
  128.6717  135.5049  161.1517 N   0  0  0  0  0  0  0  0  0  0  0  0
  128.6221  136.2941  161.7133 H   0  0  0  0  0  0  0  0  0  0  0  0
  129.6531  135.3683  160.3047 C   0  0  0  0  0  0  0  0  0  0  0  0
  129.7233  134.2497  159.5086 N   0  0  0  0  0  0  0  0  0  0  0  0
  130.8262  134.0961  158.5566 C   0  0  0  0  0  0  0  0  0  0  0  0
  130.6705  132.7945  157.8132 C   0  0  0  0  0  0  0  0  0  0  0  0
  130.0070  132.6386  156.6667 C   0  0  0  0  0  0  0  0  0  0  0  0
  129.9990  131.3471  156.1684 C   0  0  0  0  0  0  0  0  0  0  0  0
  130.6562  130.4545  156.9103 C   0  0  0  0  0  0  0  0  0  0  0  0
  131.3425  131.2504  158.3206 S   0  0  0  0  0  0  0  0  0  0  0  0
  130.6178  136.3430  160.2076 N   0  0  0  0  0  0  0  0  0  0  0  0
  130.9648  137.1497  161.3802 C   0  0  0  0  0  0  0  0  0  0  0  0
  132.0572  138.1527  161.0042 C   0  0  1  0  0  0  0  0  0  0  0  0
  132.3108  138.7497  161.8801 H   0  0  0  0  0  0  0  0  0  0  0  0
  133.2744  137.4046  160.5502 C   0  0  0  0  0  0  0  0  0  0  0  0
  134.0022  137.7882  159.5474 C   0  0  0  0  0  0  0  0  0  0  0  0
  133.6999  139.0179  158.7450 C   0  0  0  0  0  0  0  0  0  0  0  0
  132.2728  139.4415  158.9219 C   0  0  0  0  0  0  0  0  0  0  0  0
  131.5434  139.0575  159.9248 C   0  0  0  0  0  0  0  0  0  0  0  0
  130.1187  139.5414  160.0075 C   0  0  0  0  0  0  0  0  0  0  0  0
  129.9255  140.3190  161.2839 C   0  0  0  0  0  0  0  0  0  0  0  0
  128.6881  140.3403  161.8995 C   0  0  0  0  0  0  0  0  0  0  0  0
  128.5119  141.0495  163.0730 C   0  0  0  0  0  0  0  0  0  0  0  0
  129.5708  141.7457  163.6253 C   0  0  0  0  0  0  0  0  0  0  0  0
  130.8068  141.7290  163.0065 C   0  0  0  0  0  0  0  0  0  0  0  0
  130.9843  141.0155  161.8359 C   0  0  0  0  0  0  0  0  0  0  0  0
  126.6621  134.6850  162.4185 C   0  0  0  0  0  0  0  0  0  0  0  0
  124.4374  135.9052  161.4046 H   0  0  0  0  0  0  0  0  0  0  0  0
  126.2967  135.7284  160.0349 H   0  0  0  0  0  0  0  0  0  0  0  0
  126.4443  134.0140  159.4516 H   0  0  0  0  0  0  0  0  0  0  0  0
  129.0425  133.5621  159.5772 H   0  0  0  0  0  0  0  0  0  0  0  0
  130.8119  134.9237  157.8474 H   0  0  0  0  0  0  0  0  0  0  0  0
  131.7738  134.0957  159.0954 H   0  0  0  0  0  0  0  0  0  0  0  0
  129.5129  133.4577  156.1652 H   0  0  0  0  0  0  0  0  0  0  0  0
  129.4989  131.0826  155.2484 H   0  0  0  0  0  0  0  0  0  0  0  0
  130.7559  129.4044  156.6779 H   0  0  0  0  0  0  0  0  0  0  0  0
  131.0690  136.4964  159.3627 H   0  0  0  0  0  0  0  0  0  0  0  0
  131.3277  136.4982  162.1751 H   0  0  0  0  0  0  0  0  0  0  0  0
  130.0816  137.6870  161.7257 H   0  0  0  0  0  0  0  0  0  0  0  0
  133.5567  136.5069  161.0803 H   0  0  0  0  0  0  0  0  0  0  0  0
  134.8644  137.1955  159.2793 H   0  0  0  0  0  0  0  0  0  0  0  0
  133.8831  138.8108  157.6908 H   0  0  0  0  0  0  0  0  0  0  0  0
  134.3552  139.8263  159.0694 H   0  0  0  0  0  0  0  0  0  0  0  0
  131.8322  140.0943  158.1827 H   0  0  0  0  0  0  0  0  0  0  0  0
  129.9034  140.1846  159.1541 H   0  0  0  0  0  0  0  0  0  0  0  0
  129.4432  138.6860  159.9973 H   0  0  0  0  0  0  0  0  0  0  0  0
  127.8596  139.7996  161.4659 H   0  0  0  0  0  0  0  0  0  0  0  0
  127.5462  141.0628  163.5562 H   0  0  0  0  0  0  0  0  0  0  0  0
  129.4324  142.3028  164.5400 H   0  0  0  0  0  0  0  0  0  0  0  0
  131.6340  142.2733  163.4378 H   0  0  0  0  0  0  0  0  0  0  0  0
  131.9499  141.0026  161.3525 H   0  0  0  0  0  0  0  0  0  0  0  0
  126.8276  134.0141  163.2615 H   0  0  0  0  0  0  0  0  0  0  0  0
  126.5668  135.7284  162.7192 H   0  0  0  0  0  0  0  0  0  0  0  0
  1  2  1  0
  1 34  1  0
  2  3  1  6
  2 33  1  0
  2  4  1  0
  4  5  1  0
  4 35  1  0
  4 36  1  0
  5  6  1  1
  5  7  1  0
  5 33  1  0
  7  8  1  0
  9  7  2  0
  9 10  1  0
  9 17  1  0
 10 11  1  0
 10 37  1  0
 11 12  1  0
 11 38  1  0
 11 39  1  0
 12 16  1  0
 12 13  2  0
 13 14  1  0
 13 40  1  0
 14 15  2  0
 14 41  1  0
 15 16  1  0
 15 42  1  0
 17 18  1  0
 17 43  1  0
 18 19  1  0
 18 44  1  0
 18 45  1  0
 19 20  1  1
 19 25  1  0
 19 21  1  0
 21 22  2  0
 21 46  1  0
 22 23  1  0
 22 47  1  0
 23 24  1  0
 23 48  1  0
 23 49  1  0
 24 25  2  0
 24 50  1  0
 25 26  1  0
 26 27  1  0
 26 51  1  0
 26 52  1  0
 27 32  1  0
 27 28  2  0
 28 29  1  0
 28 53  1  0
 29 30  2  0
 29 54  1  0
 30 31  1  0
 30 55  1  0
 31 32  2  0
 31 56  1  0
 32 57  1  0
 33 58  1  0
 33 59  1  0
M  CHG  1   7   1
M  END
>  <DOCK_score>  (1) 
-53.911896

>  <SMILES>  (1) 
O[C@H]1C[C@@H]([NH+]=C(NCc2cccs2)NC[C@H]2C=CCC=C2Cc2ccccc2)C1

$$$$
