Clc1ccc2c(c1)C=C(C[N@H+]1CC=C(c3cccc(-c4ccccc4)c3)CC1)CO2
     RDKit          3D

 55 59  0  0  1  0  0  0  0  0999 V2000
  130.7942  131.6331  152.9060 Cl  0  0  0  0  0  0  0  0  0  0  0  0
  130.8590  131.5638  154.6393 C   0  0  0  0  0  0  0  0  0  0  0  0
  131.2431  130.3912  155.2687 C   0  0  0  0  0  0  0  0  0  0  0  0
  131.2942  130.3194  156.6491 C   0  0  0  0  0  0  0  0  0  0  0  0
  130.9584  131.4251  157.4083 C   0  0  0  0  0  0  0  0  0  0  0  0
  130.5799  132.6158  156.7739 C   0  0  0  0  0  0  0  0  0  0  0  0
  130.5267  132.6790  155.3857 C   0  0  0  0  0  0  0  0  0  0  0  0
  130.2457  133.7868  157.6118 C   0  0  0  0  0  0  0  0  0  0  0  0
  130.5883  133.7606  158.8962 C   0  0  0  0  0  0  0  0  0  0  0  0
  130.2319  134.9183  159.7927 C   0  0  0  0  0  0  0  0  0  0  0  0
  131.3207  135.9044  159.7751 N   0  0  1  0  0  0  0  0  0  0  0  0
  131.6797  135.9942  158.8363 H   0  0  0  0  0  0  0  0  0  0  0  0
  130.8145  137.2032  160.2338 C   0  0  0  0  0  0  0  0  0  0  0  0
  131.9451  138.1777  160.3973 C   0  0  0  0  0  0  0  0  0  0  0  0
  133.2033  137.8049  160.4904 C   0  0  0  0  0  0  0  0  0  0  0  0
  134.2440  138.8425  160.6496 C   0  0  0  0  0  0  0  0  0  0  0  0
  134.8432  139.4111  159.5239 C   0  0  0  0  0  0  0  0  0  0  0  0
  135.8151  140.3800  159.6720 C   0  0  0  0  0  0  0  0  0  0  0  0
  136.2003  140.7931  160.9327 C   0  0  0  0  0  0  0  0  0  0  0  0
  135.6092  140.2332  162.0643 C   0  0  0  0  0  0  0  0  0  0  0  0
  136.0244  140.6792  163.4174 C   0  0  0  0  0  0  0  0  0  0  0  0
  135.9592  139.7980  164.4947 C   0  0  0  0  0  0  0  0  0  0  0  0
  136.3513  140.2166  165.7501 C   0  0  0  0  0  0  0  0  0  0  0  0
  136.7990  141.5113  165.9417 C   0  0  0  0  0  0  0  0  0  0  0  0
  136.8602  142.3920  164.8770 C   0  0  0  0  0  0  0  0  0  0  0  0
  136.4756  141.9824  163.6163 C   0  0  0  0  0  0  0  0  0  0  0  0
  134.6255  139.2597  161.9230 C   0  0  0  0  0  0  0  0  0  0  0  0
  133.6202  136.3605  160.4460 C   0  0  0  0  0  0  0  0  0  0  0  0
  132.3993  135.4659  160.6749 C   0  0  0  0  0  0  0  0  0  0  0  0
  131.3368  132.5801  159.4565 C   0  0  0  0  0  0  0  0  0  0  0  0
  130.9777  131.3807  158.7655 O   0  0  0  0  0  0  0  0  0  0  0  0
  131.5050  129.5265  154.6772 H   0  0  0  0  0  0  0  0  0  0  0  0
  131.5957  129.4020  157.1327 H   0  0  0  0  0  0  0  0  0  0  0  0
  130.2278  133.5930  154.8941 H   0  0  0  0  0  0  0  0  0  0  0  0
  129.7362  134.6414  157.1916 H   0  0  0  0  0  0  0  0  0  0  0  0
  130.0846  134.5578  160.8107 H   0  0  0  0  0  0  0  0  0  0  0  0
  129.3136  135.3847  159.4360 H   0  0  0  0  0  0  0  0  0  0  0  0
  130.3078  137.0753  161.1903 H   0  0  0  0  0  0  0  0  0  0  0  0
  130.1076  137.5910  159.5003 H   0  0  0  0  0  0  0  0  0  0  0  0
  131.7155  139.2323  160.4357 H   0  0  0  0  0  0  0  0  0  0  0  0
  134.5460  139.0920  158.5359 H   0  0  0  0  0  0  0  0  0  0  0  0
  136.2761  140.8173  158.7986 H   0  0  0  0  0  0  0  0  0  0  0  0
  136.9609  141.5519  161.0419 H   0  0  0  0  0  0  0  0  0  0  0  0
  135.6065  138.7880  164.3468 H   0  0  0  0  0  0  0  0  0  0  0  0
  136.3053  139.5329  166.5850 H   0  0  0  0  0  0  0  0  0  0  0  0
  137.1013  141.8357  166.9264 H   0  0  0  0  0  0  0  0  0  0  0  0
  137.2101  143.4018  165.0323 H   0  0  0  0  0  0  0  0  0  0  0  0
  136.5239  142.6708  162.7856 H   0  0  0  0  0  0  0  0  0  0  0  0
  134.1620  138.8263  162.7969 H   0  0  0  0  0  0  0  0  0  0  0  0
  134.3607  136.1700  161.2228 H   0  0  0  0  0  0  0  0  0  0  0  0
  134.0531  136.1412  159.4700 H   0  0  0  0  0  0  0  0  0  0  0  0
  132.0703  135.5536  161.7103 H   0  0  0  0  0  0  0  0  0  0  0  0
  132.6567  134.4289  160.4593 H   0  0  0  0  0  0  0  0  0  0  0  0
  132.4079  132.7522  159.3514 H   0  0  0  0  0  0  0  0  0  0  0  0
  131.0940  132.4704  160.5134 H   0  0  0  0  0  0  0  0  0  0  0  0
  1  2  1  0
  2  7  2  0
  2  3  1  0
  3  4  2  0
  3 32  1  0
  4  5  1  0
  4 33  1  0
  5 31  1  0
  5  6  2  0
  6  7  1  0
  6  8  1  0
  7 34  1  0
  8  9  2  0
  8 35  1  0
  9 10  1  0
  9 30  1  0
 10 11  1  0
 10 36  1  0
 10 37  1  0
 11 12  1  6
 11 29  1  0
 11 13  1  0
 13 14  1  0
 13 38  1  0
 13 39  1  0
 14 15  2  0
 14 40  1  0
 15 16  1  0
 15 28  1  0
 16 27  1  0
 16 17  2  0
 17 18  1  0
 17 41  1  0
 18 19  2  0
 18 42  1  0
 19 20  1  0
 19 43  1  0
 20 21  1  0
 20 27  2  0
 21 26  1  0
 21 22  2  0
 22 23  1  0
 22 44  1  0
 23 24  2  0
 23 45  1  0
 24 25  1  0
 24 46  1  0
 25 26  2  0
 25 47  1  0
 26 48  1  0
 27 49  1  0
 28 29  1  0
 28 50  1  0
 28 51  1  0
 29 52  1  0
 29 53  1  0
 30 31  1  0
 30 54  1  0
 30 55  1  0
M  CHG  1  11   1
M  END
>  <DOCK_score>  (1) 
-60.553959

>  <SMILES>  (1) 
Clc1ccc2c(c1)C=C(C[N@H+]1CC=C(c3cccc(-c4ccccc4)c3)CC1)CO2

$$$$
