Nc1ccc(-c2c[nH]c(Nc3cc(N[C@H]4C=CC(=O)C4)ccc3O)[nH+]2)cc1
     RDKit          3D

 47 50  0  0  1  0  0  0  0  0999 V2000
  130.4961  130.1031  150.3737 N   0  0  0  0  0  0  0  0  0  0  0  0
  130.5990  130.5032  151.7083 C   0  0  0  0  0  0  0  0  0  0  0  0
  130.1626  131.7665  152.0895 C   0  0  0  0  0  0  0  0  0  0  0  0
  130.2635  132.1635  153.4064 C   0  0  0  0  0  0  0  0  0  0  0  0
  130.8032  131.2966  154.3552 C   0  0  0  0  0  0  0  0  0  0  0  0
  130.9128  131.7216  155.7724 C   0  0  0  0  0  0  0  0  0  0  0  0
  130.8570  130.9082  156.8560 C   0  0  0  0  0  0  0  0  0  0  0  0
  131.0059  131.7085  157.9634 N   0  0  0  0  0  0  0  0  0  0  0  0
  131.0122  131.4151  158.8879 H   0  0  0  0  0  0  0  0  0  0  0  0
  131.1405  132.9893  157.5230 C   0  0  0  0  0  0  0  0  0  0  0  0
  131.3113  134.1048  158.3260 N   0  0  0  0  0  0  0  0  0  0  0  0
  130.7616  134.1315  159.6134 C   0  0  0  0  0  0  0  0  0  0  0  0
  129.5992  133.4260  159.8871 C   0  0  0  0  0  0  0  0  0  0  0  0
  129.0565  133.4549  161.1641 C   0  0  0  0  0  0  0  0  0  0  0  0
  127.8839  132.7439  161.4422 N   0  0  0  0  0  0  0  0  0  0  0  0
  126.6511  133.0501  160.7123 C   0  0  1  0  0  0  0  0  0  0  0  0
  126.8726  133.2391  159.6620 H   0  0  0  0  0  0  0  0  0  0  0  0
  125.6717  131.9105  160.8419 C   0  0  0  0  0  0  0  0  0  0  0  0
  124.5588  132.3196  161.4339 C   0  0  0  0  0  0  0  0  0  0  0  0
  124.6061  133.7352  161.7828 C   0  0  0  0  0  0  0  0  0  0  0  0
  123.7283  134.3686  162.3308 O   0  0  0  0  0  0  0  0  0  0  0  0
  125.9501  134.2697  161.3364 C   0  0  0  0  0  0  0  0  0  0  0  0
  129.6740  134.1940  162.1648 C   0  0  0  0  0  0  0  0  0  0  0  0
  130.8358  134.8928  161.8941 C   0  0  0  0  0  0  0  0  0  0  0  0
  131.3810  134.8670  160.6215 C   0  0  0  0  0  0  0  0  0  0  0  0
  132.5214  135.5604  160.3553 O   0  0  0  0  0  0  0  0  0  0  0  0
  131.0872  132.9923  156.2131 N   0  0  0  0  0  0  0  0  0  0  0  0
  131.1609  133.7780  155.6491 H   0  0  0  0  0  0  0  0  0  0  0  0
  131.2451  130.0321  153.9695 C   0  0  0  0  0  0  0  0  0  0  0  0
  131.1370  129.6371  152.6528 C   0  0  0  0  0  0  0  0  0  0  0  0
  130.1204  130.7070  149.7141 H   0  0  0  0  0  0  0  0  0  0  0  0
  130.8004  129.2217  150.1068 H   0  0  0  0  0  0  0  0  0  0  0  0
  129.7444  132.4377  151.3541 H   0  0  0  0  0  0  0  0  0  0  0  0
  129.9242  133.1453  153.7022 H   0  0  0  0  0  0  0  0  0  0  0  0
  130.7247  129.8363  156.8499 H   0  0  0  0  0  0  0  0  0  0  0  0
  131.8119  134.8675  157.9965 H   0  0  0  0  0  0  0  0  0  0  0  0
  129.1172  132.8547  159.1075 H   0  0  0  0  0  0  0  0  0  0  0  0
  127.8873  132.0482  162.1181 H   0  0  0  0  0  0  0  0  0  0  0  0
  125.8523  130.9019  160.5005 H   0  0  0  0  0  0  0  0  0  0  0  0
  123.7133  131.6783  161.6346 H   0  0  0  0  0  0  0  0  0  0  0  0
  126.5167  134.6397  162.1909 H   0  0  0  0  0  0  0  0  0  0  0  0
  125.8204  135.0568  160.5935 H   0  0  0  0  0  0  0  0  0  0  0  0
  129.2484  134.2193  163.1570 H   0  0  0  0  0  0  0  0  0  0  0  0
  131.3163  135.4631  162.6753 H   0  0  0  0  0  0  0  0  0  0  0  0
  132.8248  135.4821  159.4405 H   0  0  0  0  0  0  0  0  0  0  0  0
  131.6681  129.3607  154.7021 H   0  0  0  0  0  0  0  0  0  0  0  0
  131.4751  128.6558  152.3542 H   0  0  0  0  0  0  0  0  0  0  0  0
  1  2  1  0
  1 31  1  0
  1 32  1  0
  2 30  2  0
  2  3  1  0
  3  4  2  0
  3 33  1  0
  4  5  1  0
  4 34  1  0
  5  6  1  0
  5 29  2  0
  6 27  1  0
  6  7  2  0
  7  8  1  0
  7 35  1  0
  8  9  1  0
  8 10  1  0
 10 11  1  0
 10 27  2  0
 11 12  1  0
 11 36  1  0
 12 25  1  0
 12 13  2  0
 13 14  1  0
 13 37  1  0
 14 15  1  0
 14 23  2  0
 15 16  1  0
 15 38  1  0
 16 17  1  6
 16 22  1  0
 16 18  1  0
 18 19  2  0
 18 39  1  0
 19 20  1  0
 19 40  1  0
 20 21  2  0
 20 22  1  0
 22 41  1  0
 22 42  1  0
 23 24  1  0
 23 43  1  0
 24 25  2  0
 24 44  1  0
 25 26  1  0
 26 45  1  0
 27 28  1  0
 29 30  1  0
 29 46  1  0
 30 47  1  0
M  CHG  1  27   1
M  END
>  <DOCK_score>  (1) 
-64.642181

>  <SMILES>  (1) 
Nc1ccc(-c2c[nH]c(Nc3cc(N[C@H]4C=CC(=O)C4)ccc3O)[nH+]2)cc1

$$$$
