C1=C\CC/C(CCCc2ccccc2N2CC[NH+](C(c3ccccc3)c3ccccc3)CC2)=C\CC/1
     RDKit          3D

 77 81  0  0  1  0  0  0  0  0999 V2000
  137.9801  136.6237  165.6100 C   0  0  0  0  0  0  0  0  0  0  0  0
  137.2974  136.1257  164.6103 C   0  0  0  0  0  0  0  0  0  0  0  0
  136.3733  134.9590  164.8229 C   0  0  0  0  0  0  0  0  0  0  0  0
  134.9688  135.4742  165.0841 C   0  0  0  0  0  0  0  0  0  0  0  0
  134.9277  136.8052  165.7414 C   0  0  0  0  0  0  0  0  0  0  0  0
  134.0700  137.8723  165.1001 C   0  0  0  0  0  0  0  0  0  0  0  0
  134.5658  138.1381  163.6774 C   0  0  0  0  0  0  0  0  0  0  0  0
  133.6978  139.2180  163.0283 C   0  0  0  0  0  0  0  0  0  0  0  0
  134.1861  139.4799  161.6268 C   0  0  0  0  0  0  0  0  0  0  0  0
  135.1488  140.4438  161.3988 C   0  0  0  0  0  0  0  0  0  0  0  0
  135.5966  140.6853  160.1132 C   0  0  0  0  0  0  0  0  0  0  0  0
  135.0831  139.9628  159.0515 C   0  0  0  0  0  0  0  0  0  0  0  0
  134.1246  138.9937  159.2731 C   0  0  0  0  0  0  0  0  0  0  0  0
  133.6682  138.7525  160.5630 C   0  0  0  0  0  0  0  0  0  0  0  0
  132.6950  137.7769  160.7900 N   0  0  0  0  0  0  0  0  0  0  0  0
  131.4297  138.1317  160.1317 C   0  0  0  0  0  0  0  0  0  0  0  0
  130.3755  137.0702  160.4535 C   0  0  0  0  0  0  0  0  0  0  0  0
  130.8412  135.7590  159.9828 N   0  0  0  0  0  0  0  0  0  0  0  0
  131.0016  135.7968  158.9873 H   0  0  0  0  0  0  0  0  0  0  0  0
  129.8212  134.7433  160.2760 C   0  0  0  0  0  0  0  0  0  0  0  0
  128.5377  135.1027  159.5729 C   0  0  0  0  0  0  0  0  0  0  0  0
  127.3233  134.7286  160.1171 C   0  0  0  0  0  0  0  0  0  0  0  0
  126.1458  135.0624  159.4747 C   0  0  0  0  0  0  0  0  0  0  0  0
  126.1825  135.7615  158.2833 C   0  0  0  0  0  0  0  0  0  0  0  0
  127.3976  136.1310  157.7357 C   0  0  0  0  0  0  0  0  0  0  0  0
  128.5749  135.8018  158.3809 C   0  0  0  0  0  0  0  0  0  0  0  0
  130.2988  133.3979  159.7933 C   0  0  0  0  0  0  0  0  0  0  0  0
  129.8964  132.2471  160.4449 C   0  0  0  0  0  0  0  0  0  0  0  0
  130.3306  131.0127  159.9992 C   0  0  0  0  0  0  0  0  0  0  0  0
  131.1755  130.9298  158.9082 C   0  0  0  0  0  0  0  0  0  0  0  0
  131.5820  132.0809  158.2599 C   0  0  0  0  0  0  0  0  0  0  0  0
  131.1437  133.3149  158.7023 C   0  0  0  0  0  0  0  0  0  0  0  0
  132.0925  135.4074  160.6671 C   0  0  0  0  0  0  0  0  0  0  0  0
  133.1609  136.4552  160.3472 C   0  0  0  0  0  0  0  0  0  0  0  0
  135.5650  137.1246  166.8448 C   0  0  0  0  0  0  0  0  0  0  0  0
  136.4506  136.1481  167.5468 C   0  0  0  0  0  0  0  0  0  0  0  0
  137.8444  136.0553  166.9778 C   0  0  0  0  0  0  0  0  0  0  0  0
  138.6483  137.4542  165.4412 H   0  0  0  0  0  0  0  0  0  0  0  0
  137.4000  136.5584  163.6251 H   0  0  0  0  0  0  0  0  0  0  0  0
  136.3707  134.3308  163.9272 H   0  0  0  0  0  0  0  0  0  0  0  0
  136.7143  134.3615  165.6689 H   0  0  0  0  0  0  0  0  0  0  0  0
  134.4416  134.7551  165.7161 H   0  0  0  0  0  0  0  0  0  0  0  0
  134.4365  135.5393  164.1310 H   0  0  0  0  0  0  0  0  0  0  0  0
  134.1344  138.7899  165.6847 H   0  0  0  0  0  0  0  0  0  0  0  0
  133.0343  137.5345  165.0668 H   0  0  0  0  0  0  0  0  0  0  0  0
  134.5015  137.2203  163.0928 H   0  0  0  0  0  0  0  0  0  0  0  0
  135.6016  138.4758  163.7106 H   0  0  0  0  0  0  0  0  0  0  0  0
  133.7623  140.1358  163.6129 H   0  0  0  0  0  0  0  0  0  0  0  0
  132.6620  138.8803  162.9950 H   0  0  0  0  0  0  0  0  0  0  0  0
  135.5519  141.0097  162.2257 H   0  0  0  0  0  0  0  0  0  0  0  0
  136.3490  141.4400  159.9376 H   0  0  0  0  0  0  0  0  0  0  0  0
  135.4353  140.1538  158.0485 H   0  0  0  0  0  0  0  0  0  0  0  0
  133.7272  138.4271  158.4441 H   0  0  0  0  0  0  0  0  0  0  0  0
  131.5813  138.1786  159.0533 H   0  0  0  0  0  0  0  0  0  0  0  0
  131.0909  139.1022  160.4942 H   0  0  0  0  0  0  0  0  0  0  0  0
  129.4402  137.3241  159.9546 H   0  0  0  0  0  0  0  0  0  0  0  0
  130.2142  137.0332  161.5309 H   0  0  0  0  0  0  0  0  0  0  0  0
  129.6474  134.7027  161.3513 H   0  0  0  0  0  0  0  0  0  0  0  0
  127.2944  134.1785  161.0461 H   0  0  0  0  0  0  0  0  0  0  0  0
  125.1969  134.7733  159.9016 H   0  0  0  0  0  0  0  0  0  0  0  0
  125.2632  136.0184  157.7783 H   0  0  0  0  0  0  0  0  0  0  0  0
  127.4267  136.6769  156.8042 H   0  0  0  0  0  0  0  0  0  0  0  0
  129.5239  136.0903  157.9536 H   0  0  0  0  0  0  0  0  0  0  0  0
  129.2399  132.3121  161.3000 H   0  0  0  0  0  0  0  0  0  0  0  0
  130.0132  130.1133  160.5060 H   0  0  0  0  0  0  0  0  0  0  0  0
  131.5182  129.9657  158.5628 H   0  0  0  0  0  0  0  0  0  0  0  0
  132.2424  132.0162  157.4078 H   0  0  0  0  0  0  0  0  0  0  0  0
  131.4616  134.2144  158.1960 H   0  0  0  0  0  0  0  0  0  0  0  0
  131.9223  135.3788  161.7434 H   0  0  0  0  0  0  0  0  0  0  0  0
  132.4301  134.4285  160.3266 H   0  0  0  0  0  0  0  0  0  0  0  0
  134.0852  136.2024  160.8668 H   0  0  0  0  0  0  0  0  0  0  0  0
  133.3414  136.4740  159.2724 H   0  0  0  0  0  0  0  0  0  0  0  0
  135.4446  138.1235  167.2555 H   0  0  0  0  0  0  0  0  0  0  0  0
  136.5271  136.4397  168.5961 H   0  0  0  0  0  0  0  0  0  0  0  0
  135.9911  135.1605  167.5029 H   0  0  0  0  0  0  0  0  0  0  0  0
  138.5237  136.5914  167.6407 H   0  0  0  0  0  0  0  0  0  0  0  0
  138.1425  135.0090  166.9509 H   0  0  0  0  0  0  0  0  0  0  0  0
  1 37  1  0
  1  2  2  0
  1 38  1  0
  2  3  1  0
  2 39  1  0
  3  4  1  0
  3 40  1  0
  3 41  1  0
  4  5  1  0
  4 42  1  0
  4 43  1  0
  5  6  1  0
  5 35  2  0
  6  7  1  0
  6 44  1  0
  6 45  1  0
  7  8  1  0
  7 46  1  0
  7 47  1  0
  8  9  1  0
  8 48  1  0
  8 49  1  0
  9 14  1  0
  9 10  2  0
 10 11  1  0
 10 50  1  0
 11 12  2  0
 11 51  1  0
 12 13  1  0
 12 52  1  0
 13 14  2  0
 13 53  1  0
 14 15  1  0
 15 34  1  0
 15 16  1  0
 16 17  1  0
 16 54  1  0
 16 55  1  0
 17 18  1  0
 17 56  1  0
 17 57  1  0
 18 19  1  0
 18 20  1  0
 18 33  1  0
 20 21  1  0
 20 27  1  0
 20 58  1  0
 21 26  1  0
 21 22  2  0
 22 23  1  0
 22 59  1  0
 23 24  2  0
 23 60  1  0
 24 25  1  0
 24 61  1  0
 25 26  2  0
 25 62  1  0
 26 63  1  0
 27 32  1  0
 27 28  2  0
 28 29  1  0
 28 64  1  0
 29 30  2  0
 29 65  1  0
 30 31  1  0
 30 66  1  0
 31 32  2  0
 31 67  1  0
 32 68  1  0
 33 34  1  0
 33 69  1  0
 33 70  1  0
 34 71  1  0
 34 72  1  0
 35 36  1  0
 35 73  1  0
 36 37  1  0
 36 74  1  0
 36 75  1  0
 37 76  1  0
 37 77  1  0
M  CHG  1  18   1
M  END
>  <DOCK_score>  (1) 
-57.322411

>  <SMILES>  (1) 
C1=C\CC/C(CCCc2ccccc2N2CC[NH+](C(c3ccccc3)c3ccccc3)CC2)=C\CC/1

$$$$
