ClCc1ccccc1CSc1cccc(C2=CC[N@H+](Cc3ccc(-c4ccccc4)[nH]3)CC2)c1
     RDKit          3D

 64 68  0  0  1  0  0  0  0  0999 V2000
  134.3614  137.9051  166.8943 Cl  0  0  0  0  0  0  0  0  0  0  0  0
  135.9409  138.6402  166.4300 C   0  0  0  0  0  0  0  0  0  0  0  0
  137.0137  137.5821  166.4532 C   0  0  0  0  0  0  0  0  0  0  0  0
  137.7240  137.3428  167.6148 C   0  0  0  0  0  0  0  0  0  0  0  0
  138.7113  136.3759  167.6344 C   0  0  0  0  0  0  0  0  0  0  0  0
  138.9859  135.6451  166.4935 C   0  0  0  0  0  0  0  0  0  0  0  0
  138.2720  135.8802  165.3337 C   0  0  0  0  0  0  0  0  0  0  0  0
  137.2839  136.8471  165.3140 C   0  0  0  0  0  0  0  0  0  0  0  0
  136.5058  137.1039  164.0494 C   0  0  0  0  0  0  0  0  0  0  0  0
  137.3520  138.3711  163.0654 S   0  0  0  0  0  0  0  0  0  0  0  0
  136.3134  138.5342  161.6514 C   0  0  0  0  0  0  0  0  0  0  0  0
  136.6441  139.4360  160.6456 C   0  0  0  0  0  0  0  0  0  0  0  0
  135.8329  139.5669  159.5349 C   0  0  0  0  0  0  0  0  0  0  0  0
  134.6891  138.8031  159.4158 C   0  0  0  0  0  0  0  0  0  0  0  0
  134.3511  137.8912  160.4169 C   0  0  0  0  0  0  0  0  0  0  0  0
  133.1298  137.0684  160.2886 C   0  0  0  0  0  0  0  0  0  0  0  0
  131.9645  137.6724  160.1996 C   0  0  0  0  0  0  0  0  0  0  0  0
  130.6669  136.9286  160.0672 C   0  0  0  0  0  0  0  0  0  0  0  0
  130.9090  135.5470  159.6356 N   0  0  2  0  0  0  0  0  0  0  0  0
  131.2645  135.5456  158.6913 H   0  0  0  0  0  0  0  0  0  0  0  0
  129.6538  134.7859  159.6896 C   0  0  0  0  0  0  0  0  0  0  0  0
  129.7690  133.5644  158.8146 C   0  0  0  0  0  0  0  0  0  0  0  0
  129.3726  132.3164  159.1454 C   0  0  0  0  0  0  0  0  0  0  0  0
  129.6561  131.4760  158.0565 C   0  0  0  0  0  0  0  0  0  0  0  0
  130.2224  132.2462  157.0860 C   0  0  0  0  0  0  0  0  0  0  0  0
  130.6820  131.7779  155.7608 C   0  0  0  0  0  0  0  0  0  0  0  0
  130.6490  132.6390  154.6631 C   0  0  0  0  0  0  0  0  0  0  0  0
  131.0842  132.1975  153.4306 C   0  0  0  0  0  0  0  0  0  0  0  0
  131.5428  130.9009  153.2793 C   0  0  0  0  0  0  0  0  0  0  0  0
  131.5729  130.0405  154.3624 C   0  0  0  0  0  0  0  0  0  0  0  0
  131.1455  130.4712  155.6014 C   0  0  0  0  0  0  0  0  0  0  0  0
  130.2855  133.5338  157.5536 N   0  0  0  0  0  0  0  0  0  0  0  0
  130.6406  134.2953  157.0688 H   0  0  0  0  0  0  0  0  0  0  0  0
  131.8977  134.9308  160.5347 C   0  0  0  0  0  0  0  0  0  0  0  0
  133.2633  135.5704  160.2708 C   0  0  0  0  0  0  0  0  0  0  0  0
  135.1659  137.7627  161.5408 C   0  0  0  0  0  0  0  0  0  0  0  0
  136.1952  139.4308  167.1360 H   0  0  0  0  0  0  0  0  0  0  0  0
  135.8657  139.0595  165.4267 H   0  0  0  0  0  0  0  0  0  0  0  0
  137.5096  137.9138  168.5061 H   0  0  0  0  0  0  0  0  0  0  0  0
  139.2693  136.1922  168.5408 H   0  0  0  0  0  0  0  0  0  0  0  0
  139.7578  134.8898  166.5088 H   0  0  0  0  0  0  0  0  0  0  0  0
  138.4861  135.3090  164.4424 H   0  0  0  0  0  0  0  0  0  0  0  0
  135.5038  137.4498  164.3031 H   0  0  0  0  0  0  0  0  0  0  0  0
  136.4363  136.1819  163.4720 H   0  0  0  0  0  0  0  0  0  0  0  0
  137.5381  140.0359  160.7330 H   0  0  0  0  0  0  0  0  0  0  0  0
  136.0947  140.2689  158.7570 H   0  0  0  0  0  0  0  0  0  0  0  0
  134.0577  138.9084  158.5458 H   0  0  0  0  0  0  0  0  0  0  0  0
  131.9405  138.7519  160.2185 H   0  0  0  0  0  0  0  0  0  0  0  0
  130.0346  137.4296  159.3343 H   0  0  0  0  0  0  0  0  0  0  0  0
  130.1595  136.9213  161.0319 H   0  0  0  0  0  0  0  0  0  0  0  0
  129.4586  134.4796  160.7174 H   0  0  0  0  0  0  0  0  0  0  0  0
  128.8343  135.4110  159.3349 H   0  0  0  0  0  0  0  0  0  0  0  0
  128.9195  132.0182  160.0793 H   0  0  0  0  0  0  0  0  0  0  0  0
  129.4614  130.4152  157.9993 H   0  0  0  0  0  0  0  0  0  0  0  0
  130.2870  133.6499  154.7789 H   0  0  0  0  0  0  0  0  0  0  0  0
  131.0629  132.8641  152.5811 H   0  0  0  0  0  0  0  0  0  0  0  0
  131.8785  130.5589  152.3115 H   0  0  0  0  0  0  0  0  0  0  0  0
  131.9319  129.0296  154.2375 H   0  0  0  0  0  0  0  0  0  0  0  0
  131.1690  129.7984  156.4460 H   0  0  0  0  0  0  0  0  0  0  0  0
  131.9515  133.8597  160.3401 H   0  0  0  0  0  0  0  0  0  0  0  0
  131.6071  135.1029  161.5711 H   0  0  0  0  0  0  0  0  0  0  0  0
  133.6318  135.2503  159.2963 H   0  0  0  0  0  0  0  0  0  0  0  0
  133.9654  135.2592  161.0443 H   0  0  0  0  0  0  0  0  0  0  0  0
  134.9071  137.0616  162.3205 H   0  0  0  0  0  0  0  0  0  0  0  0
  1  2  1  0
  2  3  1  0
  2 37  1  0
  2 38  1  0
  3  8  2  0
  3  4  1  0
  4  5  2  0
  4 39  1  0
  5  6  1  0
  5 40  1  0
  6  7  2  0
  6 41  1  0
  7  8  1  0
  7 42  1  0
  8  9  1  0
  9 10  1  0
  9 43  1  0
  9 44  1  0
 10 11  1  0
 11 36  1  0
 11 12  2  0
 12 13  1  0
 12 45  1  0
 13 14  2  0
 13 46  1  0
 14 15  1  0
 14 47  1  0
 15 16  1  0
 15 36  2  0
 16 35  1  0
 16 17  2  0
 17 18  1  0
 17 48  1  0
 18 19  1  0
 18 49  1  0
 18 50  1  0
 19 20  1  6
 19 21  1  0
 19 34  1  0
 21 22  1  0
 21 51  1  0
 21 52  1  0
 22 32  1  0
 22 23  2  0
 23 24  1  0
 23 53  1  0
 24 25  2  0
 24 54  1  0
 25 26  1  0
 25 32  1  0
 26 31  1  0
 26 27  2  0
 27 28  1  0
 27 55  1  0
 28 29  2  0
 28 56  1  0
 29 30  1  0
 29 57  1  0
 30 31  2  0
 30 58  1  0
 31 59  1  0
 32 33  1  0
 34 35  1  0
 34 60  1  0
 34 61  1  0
 35 62  1  0
 35 63  1  0
 36 64  1  0
M  CHG  1  19   1
M  END
>  <DOCK_score>  (1) 
-65.165993

>  <SMILES>  (1) 
ClCc1ccccc1CSc1cccc(C2=CC[N@H+](Cc3ccc(-c4ccccc4)[nH]3)CC2)c1

$$$$
