C#C[C@H]1CCC[C@@H](Nc2ccc(-c3n[nH]cc3C[NH2+]Cc3cccc(C)c3)o2)C1
     RDKit          3D

 58 61  0  0  1  0  0  0  0  0999 V2000
  129.4047  140.9313  163.0298 C   0  0  0  0  0  0  0  0  0  0  0  0
  128.9068  139.9240  163.3699 C   0  0  0  0  0  0  0  0  0  0  0  0
  128.2825  138.6610  163.7963 C   0  0  1  0  0  0  0  0  0  0  0  0
  129.0575  137.9558  164.0967 H   0  0  0  0  0  0  0  0  0  0  0  0
  127.3491  138.9272  164.9790 C   0  0  0  0  0  0  0  0  0  0  0  0
  126.7002  137.6144  165.4221 C   0  0  0  0  0  0  0  0  0  0  0  0
  125.8969  137.0252  164.2609 C   0  0  0  0  0  0  0  0  0  0  0  0
  126.8303  136.7589  163.0783 C   0  0  1  0  0  0  0  0  0  0  0  0
  127.6053  136.0538  163.3786 H   0  0  0  0  0  0  0  0  0  0  0  0
  126.0611  136.1947  161.9664 N   0  0  0  0  0  0  0  0  0  0  0  0
  126.6700  135.3218  161.0723 C   0  0  0  0  0  0  0  0  0  0  0  0
  126.0526  134.3199  160.3980 C   0  0  0  0  0  0  0  0  0  0  0  0
  127.0330  133.6943  159.6028 C   0  0  0  0  0  0  0  0  0  0  0  0
  128.2042  134.3421  159.8397 C   0  0  0  0  0  0  0  0  0  0  0  0
  129.5090  134.0244  159.2235 C   0  0  0  0  0  0  0  0  0  0  0  0
  129.7419  133.0647  158.3499 N   0  0  0  0  0  0  0  0  0  0  0  0
  131.1023  133.0997  158.0182 N   0  0  0  0  0  0  0  0  0  0  0  0
  131.5517  132.5059  157.3966 H   0  0  0  0  0  0  0  0  0  0  0  0
  131.6792  134.1064  158.7097 C   0  0  0  0  0  0  0  0  0  0  0  0
  130.7271  134.6935  159.4660 C   0  0  0  0  0  0  0  0  0  0  0  0
  130.9286  135.8603  160.3983 C   0  0  0  0  0  0  0  0  0  0  0  0
  130.7193  137.1154  159.6643 N   0  0  0  0  0  0  0  0  0  0  0  0
  131.3799  137.1746  158.9038 H   0  0  0  0  0  0  0  0  0  0  0  0
  129.7800  137.1373  159.2963 H   0  0  0  0  0  0  0  0  0  0  0  0
  130.9157  138.2527  160.5732 C   0  0  0  0  0  0  0  0  0  0  0  0
  132.3186  138.2201  161.1226 C   0  0  0  0  0  0  0  0  0  0  0  0
  133.3857  137.9713  160.2796 C   0  0  0  0  0  0  0  0  0  0  0  0
  134.6727  137.9457  160.7828 C   0  0  0  0  0  0  0  0  0  0  0  0
  134.8924  138.1595  162.1304 C   0  0  0  0  0  0  0  0  0  0  0  0
  133.8249  138.4035  162.9747 C   0  0  0  0  0  0  0  0  0  0  0  0
  134.0640  138.6366  164.4443 C   0  0  0  0  0  0  0  0  0  0  0  0
  132.5379  138.4334  162.4705 C   0  0  0  0  0  0  0  0  0  0  0  0
  127.9696  135.3289  160.7300 O   0  0  0  0  0  0  0  0  0  0  0  0
  127.4792  138.0717  162.6351 C   0  0  0  0  0  0  0  0  0  0  0  0
  129.8501  141.8322  162.7256 H   0  0  0  0  0  0  0  0  0  0  0  0
  127.9213  139.3471  165.8062 H   0  0  0  0  0  0  0  0  0  0  0  0
  126.5741  139.6324  164.6784 H   0  0  0  0  0  0  0  0  0  0  0  0
  127.4752  136.9093  165.7226 H   0  0  0  0  0  0  0  0  0  0  0  0
  126.0351  137.8042  166.2646 H   0  0  0  0  0  0  0  0  0  0  0  0
  125.1218  137.7303  163.9605 H   0  0  0  0  0  0  0  0  0  0  0  0
  125.4345  136.0900  164.5767 H   0  0  0  0  0  0  0  0  0  0  0  0
  125.1268  136.4302  161.8541 H   0  0  0  0  0  0  0  0  0  0  0  0
  125.0072  134.0552  160.4560 H   0  0  0  0  0  0  0  0  0  0  0  0
  126.8832  132.8590  158.9348 H   0  0  0  0  0  0  0  0  0  0  0  0
  132.7202  134.3905  158.6668 H   0  0  0  0  0  0  0  0  0  0  0  0
  130.2150  135.7965  161.2198 H   0  0  0  0  0  0  0  0  0  0  0  0
  131.9432  135.8367  160.7959 H   0  0  0  0  0  0  0  0  0  0  0  0
  130.7604  139.1840  160.0285 H   0  0  0  0  0  0  0  0  0  0  0  0
  130.2022  138.1889  161.3947 H   0  0  0  0  0  0  0  0  0  0  0  0
  133.2138  137.8002  159.2270 H   0  0  0  0  0  0  0  0  0  0  0  0
  135.5066  137.7553  160.1236 H   0  0  0  0  0  0  0  0  0  0  0  0
  135.8976  138.1362  162.5244 H   0  0  0  0  0  0  0  0  0  0  0  0
  134.0298  137.6843  164.9734 H   0  0  0  0  0  0  0  0  0  0  0  0
  135.0428  139.0954  164.5848 H   0  0  0  0  0  0  0  0  0  0  0  0
  133.2925  139.2988  164.8374 H   0  0  0  0  0  0  0  0  0  0  0  0
  131.7040  138.6239  163.1298 H   0  0  0  0  0  0  0  0  0  0  0  0
  128.1441  137.8820  161.7925 H   0  0  0  0  0  0  0  0  0  0  0  0
  126.7042  138.7768  162.3347 H   0  0  0  0  0  0  0  0  0  0  0  0
  1  2  3  0
  1 35  1  0
  2  3  1  0
  3  4  1  1
  3 34  1  0
  3  5  1  0
  5  6  1  0
  5 36  1  0
  5 37  1  0
  6  7  1  0
  6 38  1  0
  6 39  1  0
  7  8  1  0
  7 40  1  0
  7 41  1  0
  8  9  1  1
  8 10  1  0
  8 34  1  0
 10 11  1  0
 10 42  1  0
 11 33  1  0
 11 12  2  0
 12 13  1  0
 12 43  1  0
 13 14  2  0
 13 44  1  0
 14 15  1  0
 14 33  1  0
 15 20  1  0
 15 16  2  0
 16 17  1  0
 17 18  1  0
 17 19  1  0
 19 20  2  0
 19 45  1  0
 20 21  1  0
 21 22  1  0
 21 46  1  0
 21 47  1  0
 22 23  1  0
 22 24  1  0
 22 25  1  0
 25 26  1  0
 25 48  1  0
 25 49  1  0
 26 32  1  0
 26 27  2  0
 27 28  1  0
 27 50  1  0
 28 29  2  0
 28 51  1  0
 29 30  1  0
 29 52  1  0
 30 31  1  0
 30 32  2  0
 31 53  1  0
 31 54  1  0
 31 55  1  0
 32 56  1  0
 34 57  1  0
 34 58  1  0
M  CHG  1  22   1
M  END
>  <DOCK_score>  (1) 
-44.07037

>  <SMILES>  (1) 
C#C[C@H]1CCC[C@@H](Nc2ccc(-c3n[nH]cc3C[NH2+]Cc3cccc(C)c3)o2)C1

$$$$
