OCCN1CC[NH+]=C1NCc1ccc(Nc2cccc(Oc3ccccc3)c2)cc1
     RDKit          3D

 57 60  0  0  1  0  0  0  0  0999 V2000
  131.8430  131.8740  159.1169 O   0  0  0  0  0  0  0  0  0  0  0  0
  131.6661  130.4975  158.7768 C   0  0  0  0  0  0  0  0  0  0  0  0
  130.4092  130.3417  157.9184 C   0  0  0  0  0  0  0  0  0  0  0  0
  130.5532  131.1327  156.6937 N   0  0  0  0  0  0  0  0  0  0  0  0
  131.1294  130.6583  155.4243 C   0  0  0  0  0  0  0  0  0  0  0  0
  131.0260  131.8921  154.5058 C   0  0  0  0  0  0  0  0  0  0  0  0
  130.4064  132.9178  155.3564 N   0  0  0  0  0  0  0  0  0  0  0  0
  130.2005  133.8230  155.0749 H   0  0  0  0  0  0  0  0  0  0  0  0
  130.1753  132.4376  156.5346 C   0  0  0  0  0  0  0  0  0  0  0  0
  129.5941  133.1740  157.5396 N   0  0  0  0  0  0  0  0  0  0  0  0
  129.2137  134.5683  157.3001 C   0  0  0  0  0  0  0  0  0  0  0  0
  128.6028  135.1443  158.5514 C   0  0  0  0  0  0  0  0  0  0  0  0
  128.9819  136.4001  158.9893 C   0  0  0  0  0  0  0  0  0  0  0  0
  128.4199  136.9334  160.1323 C   0  0  0  0  0  0  0  0  0  0  0  0
  127.4809  136.2021  160.8491 C   0  0  0  0  0  0  0  0  0  0  0  0
  126.9144  136.7357  162.0093 N   0  0  0  0  0  0  0  0  0  0  0  0
  127.0684  136.0756  163.2301 C   0  0  0  0  0  0  0  0  0  0  0  0
  128.2071  135.3161  163.4716 C   0  0  0  0  0  0  0  0  0  0  0  0
  128.3597  134.6632  164.6790 C   0  0  0  0  0  0  0  0  0  0  0  0
  127.3812  134.7628  165.6501 C   0  0  0  0  0  0  0  0  0  0  0  0
  126.2414  135.5189  165.4145 C   0  0  0  0  0  0  0  0  0  0  0  0
  125.2799  135.6151  166.3700 O   0  0  0  0  0  0  0  0  0  0  0  0
  125.6735  135.8447  167.6502 C   0  0  0  0  0  0  0  0  0  0  0  0
  125.1095  135.1210  168.6910 C   0  0  0  0  0  0  0  0  0  0  0  0
  125.5150  135.3527  169.9910 C   0  0  0  0  0  0  0  0  0  0  0  0
  126.4743  136.3125  170.2566 C   0  0  0  0  0  0  0  0  0  0  0  0
  127.0338  137.0391  169.2217 C   0  0  0  0  0  0  0  0  0  0  0  0
  126.6359  136.8073  167.9193 C   0  0  0  0  0  0  0  0  0  0  0  0
  126.0871  136.1810  164.2062 C   0  0  0  0  0  0  0  0  0  0  0  0
  127.1065  134.9385  160.4095 C   0  0  0  0  0  0  0  0  0  0  0  0
  127.6684  134.4137  159.2624 C   0  0  0  0  0  0  0  0  0  0  0  0
  131.9451  132.4579  158.3531 H   0  0  0  0  0  0  0  0  0  0  0  0
  131.5588  129.9089  159.6879 H   0  0  0  0  0  0  0  0  0  0  0  0
  132.5337  130.1469  158.2177 H   0  0  0  0  0  0  0  0  0  0  0  0
  129.5416  130.6921  158.4774 H   0  0  0  0  0  0  0  0  0  0  0  0
  130.2742  129.2916  157.6588 H   0  0  0  0  0  0  0  0  0  0  0  0
  132.1706  130.3661  155.5601 H   0  0  0  0  0  0  0  0  0  0  0  0
  130.5473  129.8280  155.0244 H   0  0  0  0  0  0  0  0  0  0  0  0
  132.0165  132.2115  154.1821 H   0  0  0  0  0  0  0  0  0  0  0  0
  130.3949  131.6751  153.6440 H   0  0  0  0  0  0  0  0  0  0  0  0
  129.4359  132.7703  158.4073 H   0  0  0  0  0  0  0  0  0  0  0  0
  130.0983  135.1448  157.0291 H   0  0  0  0  0  0  0  0  0  0  0  0
  128.4882  134.6127  156.4877 H   0  0  0  0  0  0  0  0  0  0  0  0
  129.7155  136.9661  158.4342 H   0  0  0  0  0  0  0  0  0  0  0  0
  128.7134  137.9160  160.4715 H   0  0  0  0  0  0  0  0  0  0  0  0
  126.4135  137.5661  161.9663 H   0  0  0  0  0  0  0  0  0  0  0  0
  128.9734  135.2369  162.7146 H   0  0  0  0  0  0  0  0  0  0  0  0
  129.2455  134.0740  164.8649 H   0  0  0  0  0  0  0  0  0  0  0  0
  127.5037  134.2514  166.5934 H   0  0  0  0  0  0  0  0  0  0  0  0
  124.3572  134.3741  168.4846 H   0  0  0  0  0  0  0  0  0  0  0  0
  125.0793  134.7868  170.8011 H   0  0  0  0  0  0  0  0  0  0  0  0
  126.7869  136.4953  171.2741 H   0  0  0  0  0  0  0  0  0  0  0  0
  127.7830  137.7882  169.4317 H   0  0  0  0  0  0  0  0  0  0  0  0
  127.0733  137.3751  167.1114 H   0  0  0  0  0  0  0  0  0  0  0  0
  125.2032  136.7740  164.0231 H   0  0  0  0  0  0  0  0  0  0  0  0
  126.3765  134.3675  160.9640 H   0  0  0  0  0  0  0  0  0  0  0  0
  127.3781  133.4313  158.9203 H   0  0  0  0  0  0  0  0  0  0  0  0
  1  2  1  0
  1 32  1  0
  2  3  1  0
  2 33  1  0
  2 34  1  0
  3  4  1  0
  3 35  1  0
  3 36  1  0
  4  9  1  0
  4  5  1  0
  5  6  1  0
  5 37  1  0
  5 38  1  0
  6  7  1  0
  6 39  1  0
  6 40  1  0
  7  8  1  0
  7  9  2  0
  9 10  1  0
 10 11  1  0
 10 41  1  0
 11 12  1  0
 11 42  1  0
 11 43  1  0
 12 31  1  0
 12 13  2  0
 13 14  1  0
 13 44  1  0
 14 15  2  0
 14 45  1  0
 15 16  1  0
 15 30  1  0
 16 17  1  0
 16 46  1  0
 17 29  1  0
 17 18  2  0
 18 19  1  0
 18 47  1  0
 19 20  2  0
 19 48  1  0
 20 21  1  0
 20 49  1  0
 21 22  1  0
 21 29  2  0
 22 23  1  0
 23 28  1  0
 23 24  2  0
 24 25  1  0
 24 50  1  0
 25 26  2  0
 25 51  1  0
 26 27  1  0
 26 52  1  0
 27 28  2  0
 27 53  1  0
 28 54  1  0
 29 55  1  0
 30 31  2  0
 30 56  1  0
 31 57  1  0
M  CHG  1   7   1
M  END
>  <DOCK_score>  (1) 
-49.768265

>  <SMILES>  (1) 
OCCN1CC[NH+]=C1NCc1ccc(Nc2cccc(Oc3ccccc3)c2)cc1

$$$$
