O=C(Cc1nc2ccccc2[nH]1)c1cccc(CNC(=O)c2n[nH]cc2[C@H]2CCC[NH2+]C2)c1
     RDKit          3D

 60 64  0  0  1  0  0  0  0  0999 V2000
  133.0048  141.6668  165.5631 O   0  0  0  0  0  0  0  0  0  0  0  0
  132.4066  140.8322  164.9184 C   0  0  0  0  0  0  0  0  0  0  0  0
  133.0778  139.5304  164.5635 C   0  0  0  0  0  0  0  0  0  0  0  0
  133.7893  139.6758  163.2431 C   0  0  0  0  0  0  0  0  0  0  0  0
  133.7434  138.8103  162.2727 N   0  0  0  0  0  0  0  0  0  0  0  0
  134.4948  139.2518  161.2313 C   0  0  0  0  0  0  0  0  0  0  0  0
  134.7903  138.7332  159.9678 C   0  0  0  0  0  0  0  0  0  0  0  0
  135.6008  139.4312  159.1181 C   0  0  0  0  0  0  0  0  0  0  0  0
  136.1361  140.6547  159.4955 C   0  0  0  0  0  0  0  0  0  0  0  0
  135.8577  141.1858  160.7368 C   0  0  0  0  0  0  0  0  0  0  0  0
  135.0369  140.4903  161.6141 C   0  0  0  0  0  0  0  0  0  0  0  0
  134.5683  140.7334  162.8897 N   0  0  0  0  0  0  0  0  0  0  0  0
  134.7602  141.5133  163.4338 H   0  0  0  0  0  0  0  0  0  0  0  0
  131.0250  141.0904  164.4823 C   0  0  0  0  0  0  0  0  0  0  0  0
  130.1845  141.9010  165.2524 C   0  0  0  0  0  0  0  0  0  0  0  0
  128.8926  142.1414  164.8350 C   0  0  0  0  0  0  0  0  0  0  0  0
  128.4238  141.5752  163.6621 C   0  0  0  0  0  0  0  0  0  0  0  0
  129.2476  140.7683  162.8971 C   0  0  0  0  0  0  0  0  0  0  0  0
  128.7268  140.1567  161.6221 C   0  0  0  0  0  0  0  0  0  0  0  0
  128.1293  138.8516  161.9150 N   0  0  0  0  0  0  0  0  0  0  0  0
  128.6199  137.7398  161.3320 C   0  0  0  0  0  0  0  0  0  0  0  0
  129.5582  137.8200  160.5632 O   0  0  0  0  0  0  0  0  0  0  0  0
  128.0175  136.4238  161.6273 C   0  0  0  0  0  0  0  0  0  0  0  0
  127.0066  136.1884  162.4398 N   0  0  0  0  0  0  0  0  0  0  0  0
  126.7388  134.9321  162.4581 N   0  0  0  0  0  0  0  0  0  0  0  0
  126.0324  134.5230  162.9819 H   0  0  0  0  0  0  0  0  0  0  0  0
  127.5861  134.2623  161.6476 C   0  0  0  0  0  0  0  0  0  0  0  0
  128.4198  135.1754  161.0965 C   0  0  0  0  0  0  0  0  0  0  0  0
  129.5405  134.9167  160.1227 C   0  0  1  0  0  0  0  0  0  0  0  0
  130.3229  135.6628  160.2616 H   0  0  0  0  0  0  0  0  0  0  0  0
  130.1174  133.5192  160.3667 C   0  0  0  0  0  0  0  0  0  0  0  0
  131.2015  133.2360  159.3227 C   0  0  0  0  0  0  0  0  0  0  0  0
  130.6030  133.3799  157.9219 C   0  0  0  0  0  0  0  0  0  0  0  0
  130.0926  134.7443  157.7416 N   0  0  0  0  0  0  0  0  0  0  0  0
  130.8382  135.4050  157.9017 H   0  0  0  0  0  0  0  0  0  0  0  0
  129.7462  134.8511  156.8000 H   0  0  0  0  0  0  0  0  0  0  0  0
  129.0035  134.9983  158.6922 C   0  0  0  0  0  0  0  0  0  0  0  0
  130.5437  140.5219  163.2988 C   0  0  0  0  0  0  0  0  0  0  0  0
  133.7993  139.2706  165.3383 H   0  0  0  0  0  0  0  0  0  0  0  0
  132.3275  138.7436  164.4874 H   0  0  0  0  0  0  0  0  0  0  0  0
  134.3785  137.7822  159.6636 H   0  0  0  0  0  0  0  0  0  0  0  0
  135.8268  139.0270  158.1425 H   0  0  0  0  0  0  0  0  0  0  0  0
  136.7748  141.1944  158.8120 H   0  0  0  0  0  0  0  0  0  0  0  0
  136.2766  142.1386  161.0254 H   0  0  0  0  0  0  0  0  0  0  0  0
  130.5478  142.3404  166.1697 H   0  0  0  0  0  0  0  0  0  0  0  0
  128.2436  142.7698  165.4269 H   0  0  0  0  0  0  0  0  0  0  0  0
  127.4097  141.7642  163.3424 H   0  0  0  0  0  0  0  0  0  0  0  0
  127.9726  140.8120  161.1862 H   0  0  0  0  0  0  0  0  0  0  0  0
  129.5490  140.0301  160.9175 H   0  0  0  0  0  0  0  0  0  0  0  0
  127.3807  138.7875  162.5284 H   0  0  0  0  0  0  0  0  0  0  0  0
  127.5969  133.1968  161.4720 H   0  0  0  0  0  0  0  0  0  0  0  0
  130.5522  133.4736  161.3652 H   0  0  0  0  0  0  0  0  0  0  0  0
  129.3242  132.7769  160.2790 H   0  0  0  0  0  0  0  0  0  0  0  0
  132.0186  133.9472  159.4442 H   0  0  0  0  0  0  0  0  0  0  0  0
  131.5783  132.2218  159.4552 H   0  0  0  0  0  0  0  0  0  0  0  0
  131.3721  133.1787  157.1762 H   0  0  0  0  0  0  0  0  0  0  0  0
  129.7859  132.6685  157.8015 H   0  0  0  0  0  0  0  0  0  0  0  0
  128.2209  134.2520  158.5553 H   0  0  0  0  0  0  0  0  0  0  0  0
  128.5917  135.9919  158.5154 H   0  0  0  0  0  0  0  0  0  0  0  0
  131.1854  139.8920  162.7008 H   0  0  0  0  0  0  0  0  0  0  0  0
  1  2  2  0
  2  3  1  0
  2 14  1  0
  3  4  1  0
  3 39  1  0
  3 40  1  0
  4 12  1  0
  4  5  2  0
  5  6  1  0
  6 11  2  0
  6  7  1  0
  7  8  2  0
  7 41  1  0
  8  9  1  0
  8 42  1  0
  9 10  2  0
  9 43  1  0
 10 11  1  0
 10 44  1  0
 11 12  1  0
 12 13  1  0
 14 38  1  0
 14 15  2  0
 15 16  1  0
 15 45  1  0
 16 17  2  0
 16 46  1  0
 17 18  1  0
 17 47  1  0
 18 19  1  0
 18 38  2  0
 19 20  1  0
 19 48  1  0
 19 49  1  0
 20 21  1  0
 20 50  1  0
 21 22  2  0
 21 23  1  0
 23 28  1  0
 23 24  2  0
 24 25  1  0
 25 26  1  0
 25 27  1  0
 27 28  2  0
 27 51  1  0
 28 29  1  0
 29 30  1  6
 29 37  1  0
 29 31  1  0
 31 32  1  0
 31 52  1  0
 31 53  1  0
 32 33  1  0
 32 54  1  0
 32 55  1  0
 33 34  1  0
 33 56  1  0
 33 57  1  0
 34 35  1  0
 34 36  1  0
 34 37  1  0
 37 58  1  0
 37 59  1  0
 38 60  1  0
M  CHG  1  34   1
M  END
>  <DOCK_score>  (1) 
-42.516357

>  <SMILES>  (1) 
O=C(Cc1nc2ccccc2[nH]1)c1cccc(CNC(=O)c2n[nH]cc2[C@H]2CCC[NH2+]C2)c1

$$$$
