CCc1ccc(-c2c[nH]c(NCc3ccc(-c4cccc5ccccc45)cc3)[nH+]2)cc1
     RDKit          3D

 57 61  0  0  1  0  0  0  0  0999 V2000
  130.2633  128.6663  151.3871 C   0  0  0  0  0  0  0  0  0  0  0  0
  131.4279  129.5942  151.7383 C   0  0  0  0  0  0  0  0  0  0  0  0
  131.1234  130.3177  153.0248 C   0  0  0  0  0  0  0  0  0  0  0  0
  131.5018  129.7637  154.2338 C   0  0  0  0  0  0  0  0  0  0  0  0
  131.2295  130.4246  155.4143 C   0  0  0  0  0  0  0  0  0  0  0  0
  130.5626  131.6481  155.3871 C   0  0  0  0  0  0  0  0  0  0  0  0
  130.2630  132.3611  156.6528 C   0  0  0  0  0  0  0  0  0  0  0  0
  129.5033  131.8911  157.6730 C   0  0  0  0  0  0  0  0  0  0  0  0
  129.4898  132.8652  158.6416 N   0  0  0  0  0  0  0  0  0  0  0  0
  129.0310  132.8204  159.4950 H   0  0  0  0  0  0  0  0  0  0  0  0
  130.2353  133.9064  158.1808 C   0  0  0  0  0  0  0  0  0  0  0  0
  130.4684  135.0923  158.8560 N   0  0  0  0  0  0  0  0  0  0  0  0
  129.8897  135.3044  160.1851 C   0  0  0  0  0  0  0  0  0  0  0  0
  130.9951  135.5297  161.1841 C   0  0  0  0  0  0  0  0  0  0  0  0
  130.9578  134.8881  162.4092 C   0  0  0  0  0  0  0  0  0  0  0  0
  131.9699  135.0860  163.3260 C   0  0  0  0  0  0  0  0  0  0  0  0
  133.0264  135.9437  163.0199 C   0  0  0  0  0  0  0  0  0  0  0  0
  134.1127  136.1653  164.0023 C   0  0  0  0  0  0  0  0  0  0  0  0
  134.0146  137.1821  164.9357 C   0  0  0  0  0  0  0  0  0  0  0  0
  135.0300  137.3965  165.8607 C   0  0  0  0  0  0  0  0  0  0  0  0
  136.1462  136.6157  165.8752 C   0  0  0  0  0  0  0  0  0  0  0  0
  136.2867  135.5712  164.9455 C   0  0  0  0  0  0  0  0  0  0  0  0
  137.4283  134.7507  164.9397 C   0  0  0  0  0  0  0  0  0  0  0  0
  137.5253  133.7382  164.0352 C   0  0  0  0  0  0  0  0  0  0  0  0
  136.5161  133.5119  163.1017 C   0  0  0  0  0  0  0  0  0  0  0  0
  135.3989  134.2905  163.0753 C   0  0  0  0  0  0  0  0  0  0  0  0
  135.2593  135.3361  163.9994 C   0  0  0  0  0  0  0  0  0  0  0  0
  133.0554  136.5920  161.7855 C   0  0  0  0  0  0  0  0  0  0  0  0
  132.0403  136.3817  160.8748 C   0  0  0  0  0  0  0  0  0  0  0  0
  130.6957  133.6014  156.9922 N   0  0  0  0  0  0  0  0  0  0  0  0
  131.2564  134.1715  156.4429 H   0  0  0  0  0  0  0  0  0  0  0  0
  130.1786  132.1996  154.1659 C   0  0  0  0  0  0  0  0  0  0  0  0
  130.4604  131.5321  152.9913 C   0  0  0  0  0  0  0  0  0  0  0  0
  130.1226  127.9405  152.1881 H   0  0  0  0  0  0  0  0  0  0  0  0
  129.3538  129.2546  151.2660 H   0  0  0  0  0  0  0  0  0  0  0  0
  130.4838  128.1425  150.4569 H   0  0  0  0  0  0  0  0  0  0  0  0
  132.3376  129.0058  151.8594 H   0  0  0  0  0  0  0  0  0  0  0  0
  131.5687  130.3199  150.9374 H   0  0  0  0  0  0  0  0  0  0  0  0
  132.0152  128.8139  154.2539 H   0  0  0  0  0  0  0  0  0  0  0  0
  131.5296  129.9929  156.3577 H   0  0  0  0  0  0  0  0  0  0  0  0
  129.0061  130.9334  157.7167 H   0  0  0  0  0  0  0  0  0  0  0  0
  131.0148  135.7828  158.4490 H   0  0  0  0  0  0  0  0  0  0  0  0
  129.2372  136.1773  160.1621 H   0  0  0  0  0  0  0  0  0  0  0  0
  129.3120  134.4266  160.4742 H   0  0  0  0  0  0  0  0  0  0  0  0
  130.1369  134.2278  162.6470 H   0  0  0  0  0  0  0  0  0  0  0  0
  131.9420  134.5812  164.2803 H   0  0  0  0  0  0  0  0  0  0  0  0
  133.1402  137.8159  164.9455 H   0  0  0  0  0  0  0  0  0  0  0  0
  134.9324  138.1960  166.5800 H   0  0  0  0  0  0  0  0  0  0  0  0
  136.9236  136.7993  166.6021 H   0  0  0  0  0  0  0  0  0  0  0  0
  138.2189  134.9155  165.6567 H   0  0  0  0  0  0  0  0  0  0  0  0
  138.4012  133.1064  164.0355 H   0  0  0  0  0  0  0  0  0  0  0  0
  136.6211  132.7074  162.3887 H   0  0  0  0  0  0  0  0  0  0  0  0
  134.6244  134.1039  162.3460 H   0  0  0  0  0  0  0  0  0  0  0  0
  133.8706  137.2577  161.5430 H   0  0  0  0  0  0  0  0  0  0  0  0
  132.0616  136.8836  159.9186 H   0  0  0  0  0  0  0  0  0  0  0  0
  129.6613  133.1472  154.1389 H   0  0  0  0  0  0  0  0  0  0  0  0
  130.1635  131.9584  152.0446 H   0  0  0  0  0  0  0  0  0  0  0  0
  1  2  1  0
  1 34  1  0
  1 35  1  0
  1 36  1  0
  2  3  1  0
  2 37  1  0
  2 38  1  0
  3 33  2  0
  3  4  1  0
  4  5  2  0
  4 39  1  0
  5  6  1  0
  5 40  1  0
  6  7  1  0
  6 32  2  0
  7 30  1  0
  7  8  2  0
  8  9  1  0
  8 41  1  0
  9 10  1  0
  9 11  1  0
 11 12  1  0
 11 30  2  0
 12 13  1  0
 12 42  1  0
 13 14  1  0
 13 43  1  0
 13 44  1  0
 14 29  1  0
 14 15  2  0
 15 16  1  0
 15 45  1  0
 16 17  2  0
 16 46  1  0
 17 18  1  0
 17 28  1  0
 18 27  1  0
 18 19  2  0
 19 20  1  0
 19 47  1  0
 20 21  2  0
 20 48  1  0
 21 22  1  0
 21 49  1  0
 22 27  2  0
 22 23  1  0
 23 24  2  0
 23 50  1  0
 24 25  1  0
 24 51  1  0
 25 26  2  0
 25 52  1  0
 26 27  1  0
 26 53  1  0
 28 29  2  0
 28 54  1  0
 29 55  1  0
 30 31  1  0
 32 33  1  0
 32 56  1  0
 33 57  1  0
M  CHG  1  30   1
M  END
>  <DOCK_score>  (1) 
-61.700409

>  <SMILES>  (1) 
CCc1ccc(-c2c[nH]c(NCc3ccc(-c4cccc5ccccc45)cc3)[nH+]2)cc1

$$$$
