CCc1ccc(-c2c[nH]c(N[C@H](Cc3nc(C(F)(F)F)c[nH]3)c3ccnn3C)[nH+]2)cc1
     RDKit          3D

 54 57  0  0  1  0  0  0  0  0999 V2000
  130.3153  128.6336  151.5488 C   0  0  0  0  0  0  0  0  0  0  0  0
  131.4423  129.5999  151.9191 C   0  0  0  0  0  0  0  0  0  0  0  0
  131.0901  130.3164  153.1973 C   0  0  0  0  0  0  0  0  0  0  0  0
  131.4647  129.7777  154.4145 C   0  0  0  0  0  0  0  0  0  0  0  0
  131.1499  130.4322  155.5881 C   0  0  0  0  0  0  0  0  0  0  0  0
  130.4431  131.6326  155.5453 C   0  0  0  0  0  0  0  0  0  0  0  0
  130.0970  132.3379  156.8035 C   0  0  0  0  0  0  0  0  0  0  0  0
  129.3450  131.8405  157.8164 C   0  0  0  0  0  0  0  0  0  0  0  0
  129.2753  132.8184  158.7786 N   0  0  0  0  0  0  0  0  0  0  0  0
  128.8050  132.7592  159.6249 H   0  0  0  0  0  0  0  0  0  0  0  0
  129.9875  133.8858  158.3252 C   0  0  0  0  0  0  0  0  0  0  0  0
  130.1654  135.0816  158.9996 N   0  0  0  0  0  0  0  0  0  0  0  0
  129.5596  135.2755  160.3193 C   0  0  2  0  0  0  0  0  0  0  0  0
  128.5602  134.8405  160.3277 H   0  0  0  0  0  0  0  0  0  0  0  0
  129.4669  136.7723  160.6229 C   0  0  0  0  0  0  0  0  0  0  0  0
  128.8435  136.9718  161.9804 C   0  0  0  0  0  0  0  0  0  0  0  0
  127.7908  136.3474  162.4331 N   0  0  0  0  0  0  0  0  0  0  0  0
  127.5220  136.7766  163.6750 C   0  0  0  0  0  0  0  0  0  0  0  0
  126.3877  136.3061  164.5486 C   0  0  0  0  0  0  0  0  0  0  0  0
  125.6424  135.3396  163.8647 F   0  0  0  0  0  0  0  0  0  0  0  0
  126.9039  135.7509  165.7244 F   0  0  0  0  0  0  0  0  0  0  0  0
  125.5637  137.3907  164.8676 F   0  0  0  0  0  0  0  0  0  0  0  0
  128.4431  137.7022  164.0045 C   0  0  0  0  0  0  0  0  0  0  0  0
  129.2850  137.8222  162.9320 N   0  0  0  0  0  0  0  0  0  0  0  0
  130.0539  138.4100  162.8666 H   0  0  0  0  0  0  0  0  0  0  0  0
  130.4094  134.6024  161.3660 C   0  0  0  0  0  0  0  0  0  0  0  0
  131.7043  134.8813  161.6427 C   0  0  0  0  0  0  0  0  0  0  0  0
  132.1149  134.0353  162.6781 C   0  0  0  0  0  0  0  0  0  0  0  0
  131.1054  133.2704  163.0057 N   0  0  0  0  0  0  0  0  0  0  0  0
  130.0171  133.6094  162.1914 N   0  0  0  0  0  0  0  0  0  0  0  0
  128.6880  132.9944  162.2289 C   0  0  0  0  0  0  0  0  0  0  0  0
  130.4818  133.5927  157.1472 N   0  0  0  0  0  0  0  0  0  0  0  0
  131.0327  134.1801  156.6065 H   0  0  0  0  0  0  0  0  0  0  0  0
  130.0631  132.1682  154.3160 C   0  0  0  0  0  0  0  0  0  0  0  0
  130.3883  131.5079  153.1485 C   0  0  0  0  0  0  0  0  0  0  0  0
  129.3891  129.1912  151.4096 H   0  0  0  0  0  0  0  0  0  0  0  0
  130.5700  128.1156  150.6243 H   0  0  0  0  0  0  0  0  0  0  0  0
  130.1842  127.9054  152.3491 H   0  0  0  0  0  0  0  0  0  0  0  0
  132.3682  129.0429  152.0578 H   0  0  0  0  0  0  0  0  0  0  0  0
  131.5731  130.3287  151.1183 H   0  0  0  0  0  0  0  0  0  0  0  0
  132.0082  128.8450  154.4466 H   0  0  0  0  0  0  0  0  0  0  0  0
  131.4471  130.0129  156.5380 H   0  0  0  0  0  0  0  0  0  0  0  0
  128.8880  130.8629  157.8584 H   0  0  0  0  0  0  0  0  0  0  0  0
  130.6914  135.7911  158.5984 H   0  0  0  0  0  0  0  0  0  0  0  0
  130.4663  137.2072  160.6146 H   0  0  0  0  0  0  0  0  0  0  0  0
  128.8523  137.2592  159.8658 H   0  0  0  0  0  0  0  0  0  0  0  0
  128.5079  138.2424  164.9374 H   0  0  0  0  0  0  0  0  0  0  0  0
  132.3124  135.6271  161.1523 H   0  0  0  0  0  0  0  0  0  0  0  0
  133.0971  134.0144  163.1269 H   0  0  0  0  0  0  0  0  0  0  0  0
  128.6608  132.1461  161.5449 H   0  0  0  0  0  0  0  0  0  0  0  0
  128.4746  132.6517  163.2414 H   0  0  0  0  0  0  0  0  0  0  0  0
  127.9397  133.7277  161.9281 H   0  0  0  0  0  0  0  0  0  0  0  0
  129.5151  133.0981  154.2770 H   0  0  0  0  0  0  0  0  0  0  0  0
  130.0941  131.9219  152.1953 H   0  0  0  0  0  0  0  0  0  0  0  0
  1  2  1  0
  1 36  1  0
  1 37  1  0
  1 38  1  0
  2  3  1  0
  2 39  1  0
  2 40  1  0
  3 35  2  0
  3  4  1  0
  4  5  2  0
  4 41  1  0
  5  6  1  0
  5 42  1  0
  6  7  1  0
  6 34  2  0
  7 32  1  0
  7  8  2  0
  8  9  1  0
  8 43  1  0
  9 10  1  0
  9 11  1  0
 11 12  1  0
 11 32  2  0
 12 13  1  0
 12 44  1  0
 13 14  1  6
 13 15  1  0
 13 26  1  0
 15 16  1  0
 15 45  1  0
 15 46  1  0
 16 24  1  0
 16 17  2  0
 17 18  1  0
 18 19  1  0
 18 23  2  0
 19 20  1  0
 19 21  1  0
 19 22  1  0
 23 24  1  0
 23 47  1  0
 24 25  1  0
 26 30  1  0
 26 27  2  0
 27 28  1  0
 27 48  1  0
 28 29  2  0
 28 49  1  0
 29 30  1  0
 30 31  1  0
 31 50  1  0
 31 51  1  0
 31 52  1  0
 32 33  1  0
 34 35  1  0
 34 53  1  0
 35 54  1  0
M  CHG  1  32   1
M  END
>  <DOCK_score>  (1) 
-58.098907

>  <SMILES>  (1) 
CCc1ccc(-c2c[nH]c(N[C@H](Cc3nc(C(F)(F)F)c[nH]3)c3ccnn3C)[nH+]2)cc1

$$$$
