O=C1CC[C@H](NC(NC2COc3ccccc3C2)=[NH+]Cc2ncccc2Cl)CN1
     RDKit          3D

 54 57  0  0  1  0  0  0  0  0999 V2000
  123.7776  133.8376  161.7552 O   0  0  0  0  0  0  0  0  0  0  0  0
  124.9565  133.8553  161.4707 C   0  0  0  0  0  0  0  0  0  0  0  0
  125.7442  132.5861  161.6258 C   0  0  0  0  0  0  0  0  0  0  0  0
  127.2419  132.9021  161.6477 C   0  0  0  0  0  0  0  0  0  0  0  0
  127.5597  133.8238  160.4640 C   0  0  2  0  0  0  0  0  0  0  0  0
  127.1759  133.3856  159.5428 H   0  0  0  0  0  0  0  0  0  0  0  0
  129.0096  134.0030  160.3562 N   0  0  0  0  0  0  0  0  0  0  0  0
  129.5852  134.2269  159.1278 C   0  0  0  0  0  0  0  0  0  0  0  0
  130.9460  134.3951  159.0266 N   0  0  0  0  0  0  0  0  0  0  0  0
  131.7828  134.3357  160.2277 C   0  0  1  0  0  0  0  0  0  0  0  0
  133.1851  133.8364  159.8568 C   0  0  0  0  0  0  0  0  0  0  0  0
  133.9436  133.6908  161.0583 O   0  0  0  0  0  0  0  0  0  0  0  0
  133.9488  134.7279  161.9354 C   0  0  0  0  0  0  0  0  0  0  0  0
  134.9399  134.7673  162.9114 C   0  0  0  0  0  0  0  0  0  0  0  0
  134.9761  135.8023  163.8229 C   0  0  0  0  0  0  0  0  0  0  0  0
  134.0249  136.8046  163.7678 C   0  0  0  0  0  0  0  0  0  0  0  0
  133.0407  136.7696  162.7996 C   0  0  0  0  0  0  0  0  0  0  0  0
  133.0002  135.7338  161.8811 C   0  0  0  0  0  0  0  0  0  0  0  0
  131.9155  135.7349  160.8337 C   0  0  0  0  0  0  0  0  0  0  0  0
  128.8408  134.2798  158.0593 N   0  0  0  0  0  0  0  0  0  0  0  0
  127.9250  134.5937  158.1212 H   0  0  0  0  0  0  0  0  0  0  0  0
  129.3889  133.8710  156.7637 C   0  0  0  0  0  0  0  0  0  0  0  0
  129.8229  132.4296  156.8341 C   0  0  0  0  0  0  0  0  0  0  0  0
  129.6675  131.7560  157.9572 N   0  0  0  0  0  0  0  0  0  0  0  0
  130.0321  130.4935  158.0649 C   0  0  0  0  0  0  0  0  0  0  0  0
  130.5950  129.8256  156.9936 C   0  0  0  0  0  0  0  0  0  0  0  0
  130.7747  130.4997  155.7959 C   0  0  0  0  0  0  0  0  0  0  0  0
  130.3746  131.8263  155.7185 C   0  0  0  0  0  0  0  0  0  0  0  0
  130.5688  132.7186  154.2420 Cl  0  0  0  0  0  0  0  0  0  0  0  0
  126.8919  135.1782  160.7049 C   0  0  0  0  0  0  0  0  0  0  0  0
  125.4840  135.0008  161.0372 N   0  0  0  0  0  0  0  0  0  0  0  0
  125.4636  132.0975  162.5588 H   0  0  0  0  0  0  0  0  0  0  0  0
  125.5279  131.9213  160.7895 H   0  0  0  0  0  0  0  0  0  0  0  0
  127.8131  131.9783  161.5570 H   0  0  0  0  0  0  0  0  0  0  0  0
  127.4981  133.4025  162.5815 H   0  0  0  0  0  0  0  0  0  0  0  0
  129.5638  133.9638  161.1515 H   0  0  0  0  0  0  0  0  0  0  0  0
  131.3520  134.5529  158.1600 H   0  0  0  0  0  0  0  0  0  0  0  0
  131.3331  133.6604  160.9557 H   0  0  0  0  0  0  0  0  0  0  0  0
  133.1102  132.8738  159.3508 H   0  0  0  0  0  0  0  0  0  0  0  0
  133.6706  134.5591  159.2009 H   0  0  0  0  0  0  0  0  0  0  0  0
  135.6831  133.9850  162.9557 H   0  0  0  0  0  0  0  0  0  0  0  0
  135.7470  135.8299  164.5789 H   0  0  0  0  0  0  0  0  0  0  0  0
  134.0518  137.6147  164.4816 H   0  0  0  0  0  0  0  0  0  0  0  0
  132.2988  137.5534  162.7590 H   0  0  0  0  0  0  0  0  0  0  0  0
  132.1699  136.4474  160.0490 H   0  0  0  0  0  0  0  0  0  0  0  0
  130.9694  136.0232  161.2917 H   0  0  0  0  0  0  0  0  0  0  0  0
  128.6252  133.9834  155.9942 H   0  0  0  0  0  0  0  0  0  0  0  0
  130.2467  134.4972  156.5183 H   0  0  0  0  0  0  0  0  0  0  0  0
  129.8889  129.9749  159.0014 H   0  0  0  0  0  0  0  0  0  0  0  0
  130.8906  128.7912  157.0884 H   0  0  0  0  0  0  0  0  0  0  0  0
  131.2115  130.0032  154.9420 H   0  0  0  0  0  0  0  0  0  0  0  0
  127.3950  135.6867  161.5275 H   0  0  0  0  0  0  0  0  0  0  0  0
  126.9725  135.7851  159.8030 H   0  0  0  0  0  0  0  0  0  0  0  0
  124.8935  135.7637  160.9364 H   0  0  0  0  0  0  0  0  0  0  0  0
  1  2  2  0
  2 31  1  0
  2  3  1  0
  3  4  1  0
  3 32  1  0
  3 33  1  0
  4  5  1  0
  4 34  1  0
  4 35  1  0
  5  6  1  6
  5  7  1  0
  5 30  1  0
  7 36  1  0
  8  7  1  0
  8  9  1  0
  8 20  2  0
  9 10  1  0
  9 37  1  0
 10 19  1  0
 10 11  1  0
 10 38  1  1
 11 12  1  0
 11 39  1  0
 11 40  1  0
 12 13  1  0
 13 18  2  0
 13 14  1  0
 14 15  2  0
 14 41  1  0
 15 16  1  0
 15 42  1  0
 16 17  2  0
 16 43  1  0
 17 18  1  0
 17 44  1  0
 18 19  1  0
 19 45  1  0
 19 46  1  0
 20 21  1  0
 20 22  1  0
 22 23  1  0
 22 47  1  0
 22 48  1  0
 23 28  1  0
 23 24  2  0
 24 25  1  0
 25 26  2  0
 25 49  1  0
 26 27  1  0
 26 50  1  0
 27 28  2  0
 27 51  1  0
 28 29  1  0
 30 31  1  0
 30 52  1  0
 30 53  1  0
 31 54  1  0
M  CHG  1  20   1
M  END
>  <DOCK_score>  (1) 
-53.504398

>  <SMILES>  (1) 
O=C1CC[C@H](NC(NC2COc3ccccc3C2)=[NH+]Cc2ncccc2Cl)CN1

$$$$
