CCc1cccc([C@@H](Nc2[nH]cc(-c3ccc(Br)cc3)[nH+]2)c2ccc3c(c2C)CCC3)c1
     RDKit          3D

 61 65  0  0  1  0  0  0  0  0999 V2000
  125.2960  131.8196  161.2987 C   0  0  0  0  0  0  0  0  0  0  0  0
  125.3358  133.1332  162.0821 C   0  0  0  0  0  0  0  0  0  0  0  0
  126.0290  134.1881  161.2588 C   0  0  0  0  0  0  0  0  0  0  0  0
  125.2960  134.9892  160.4028 C   0  0  0  0  0  0  0  0  0  0  0  0
  125.9322  135.9538  159.6445 C   0  0  0  0  0  0  0  0  0  0  0  0
  127.3002  136.1243  159.7491 C   0  0  0  0  0  0  0  0  0  0  0  0
  128.0324  135.3261  160.6077 C   0  0  0  0  0  0  0  0  0  0  0  0
  129.5236  135.5115  160.7215 C   0  0  1  0  0  0  0  0  0  0  0  0
  129.9247  134.7980  161.4412 H   0  0  0  0  0  0  0  0  0  0  0  0
  130.1447  135.2872  159.4137 N   0  0  0  0  0  0  0  0  0  0  0  0
  130.0070  134.0625  158.7829 C   0  0  0  0  0  0  0  0  0  0  0  0
  129.3180  132.9939  159.2682 N   0  0  0  0  0  0  0  0  0  0  0  0
  128.8397  132.9534  160.1111 H   0  0  0  0  0  0  0  0  0  0  0  0
  129.4257  131.9828  158.3443 C   0  0  0  0  0  0  0  0  0  0  0  0
  130.1765  132.4624  157.3219 C   0  0  0  0  0  0  0  0  0  0  0  0
  130.5573  131.7199  156.0955 C   0  0  0  0  0  0  0  0  0  0  0  0
  130.1670  132.1913  154.8431 C   0  0  0  0  0  0  0  0  0  0  0  0
  130.5288  131.4999  153.7050 C   0  0  0  0  0  0  0  0  0  0  0  0
  131.2676  130.3340  153.8061 C   0  0  0  0  0  0  0  0  0  0  0  0
  131.7525  129.3875  152.2424 Br  0  0  0  0  0  0  0  0  0  0  0  0
  131.6532  129.8586  155.0477 C   0  0  0  0  0  0  0  0  0  0  0  0
  131.3016  130.5455  156.1917 C   0  0  0  0  0  0  0  0  0  0  0  0
  130.5137  133.7429  157.6171 N   0  0  0  0  0  0  0  0  0  0  0  0
  131.0468  134.3278  157.0562 H   0  0  0  0  0  0  0  0  0  0  0  0
  129.8216  136.9140  161.1850 C   0  0  0  0  0  0  0  0  0  0  0  0
  129.9995  137.9257  160.2595 C   0  0  0  0  0  0  0  0  0  0  0  0
  130.2666  139.2114  160.6868 C   0  0  0  0  0  0  0  0  0  0  0  0
  130.3681  139.4893  162.0399 C   0  0  0  0  0  0  0  0  0  0  0  0
  130.1959  138.4768  162.9649 C   0  0  0  0  0  0  0  0  0  0  0  0
  129.9227  137.1891  162.5346 C   0  0  0  0  0  0  0  0  0  0  0  0
  129.7346  136.0845  163.5423 C   0  0  0  0  0  0  0  0  0  0  0  0
  130.3551  139.0303  164.3648 C   0  0  0  0  0  0  0  0  0  0  0  0
  131.0710  140.3857  164.1844 C   0  0  0  0  0  0  0  0  0  0  0  0
  130.6547  140.7924  162.7549 C   0  0  0  0  0  0  0  0  0  0  0  0
  127.3966  134.3578  161.3626 C   0  0  0  0  0  0  0  0  0  0  0  0
  126.3134  131.4973  161.0775 H   0  0  0  0  0  0  0  0  0  0  0  0
  124.7946  131.0565  161.8942 H   0  0  0  0  0  0  0  0  0  0  0  0
  124.7512  131.9689  160.3664 H   0  0  0  0  0  0  0  0  0  0  0  0
  125.8806  132.9838  163.0144 H   0  0  0  0  0  0  0  0  0  0  0  0
  124.3185  133.4554  162.3033 H   0  0  0  0  0  0  0  0  0  0  0  0
  124.2268  134.8592  160.3244 H   0  0  0  0  0  0  0  0  0  0  0  0
  125.3602  136.5775  158.9736 H   0  0  0  0  0  0  0  0  0  0  0  0
  127.7968  136.8807  159.1597 H   0  0  0  0  0  0  0  0  0  0  0  0
  130.6525  135.9967  158.9897 H   0  0  0  0  0  0  0  0  0  0  0  0
  128.9953  130.9951  158.4183 H   0  0  0  0  0  0  0  0  0  0  0  0
  129.5863  133.0984  154.7635 H   0  0  0  0  0  0  0  0  0  0  0  0
  130.2304  131.8664  152.7339 H   0  0  0  0  0  0  0  0  0  0  0  0
  132.2300  128.9485  155.1213 H   0  0  0  0  0  0  0  0  0  0  0  0
  131.6029  130.1739  157.1600 H   0  0  0  0  0  0  0  0  0  0  0  0
  129.9253  137.7115  159.2036 H   0  0  0  0  0  0  0  0  0  0  0  0
  130.4010  140.0021  159.9634 H   0  0  0  0  0  0  0  0  0  0  0  0
  130.7058  135.6692  163.8116 H   0  0  0  0  0  0  0  0  0  0  0  0
  129.2507  136.4842  164.4335 H   0  0  0  0  0  0  0  0  0  0  0  0
  129.1116  135.3011  163.1108 H   0  0  0  0  0  0  0  0  0  0  0  0
  129.3788  139.1768  164.8269 H   0  0  0  0  0  0  0  0  0  0  0  0
  130.9639  138.3587  164.9701 H   0  0  0  0  0  0  0  0  0  0  0  0
  132.1521  140.2651  164.2536 H   0  0  0  0  0  0  0  0  0  0  0  0
  130.7166  141.1146  164.9133 H   0  0  0  0  0  0  0  0  0  0  0  0
  131.4681  141.3238  162.2608 H   0  0  0  0  0  0  0  0  0  0  0  0
  129.7590  141.4128  162.7838 H   0  0  0  0  0  0  0  0  0  0  0  0
  127.9687  133.7345  162.0339 H   0  0  0  0  0  0  0  0  0  0  0  0
  1  2  1  0
  1 36  1  0
  1 37  1  0
  1 38  1  0
  2  3  1  0
  2 39  1  0
  2 40  1  0
  3 35  2  0
  3  4  1  0
  4  5  2  0
  4 41  1  0
  5  6  1  0
  5 42  1  0
  6  7  2  0
  6 43  1  0
  7  8  1  0
  7 35  1  0
  8  9  1  1
  8 10  1  0
  8 25  1  0
 10 44  1  0
 11 10  1  0
 11 23  2  0
 11 12  1  0
 12 13  1  0
 12 14  1  0
 14 15  2  0
 14 45  1  0
 15 16  1  0
 15 23  1  0
 16 22  1  0
 16 17  2  0
 17 18  1  0
 17 46  1  0
 18 19  2  0
 18 47  1  0
 19 20  1  0
 19 21  1  0
 21 22  2  0
 21 48  1  0
 22 49  1  0
 23 24  1  0
 25 30  1  0
 25 26  2  0
 26 27  1  0
 26 50  1  0
 27 28  2  0
 27 51  1  0
 28 34  1  0
 28 29  1  0
 29 30  2  0
 29 32  1  0
 30 31  1  0
 31 52  1  0
 31 53  1  0
 31 54  1  0
 32 33  1  0
 32 55  1  0
 32 56  1  0
 33 34  1  0
 33 57  1  0
 33 58  1  0
 34 59  1  0
 34 60  1  0
 35 61  1  0
M  CHG  1  23   1
M  END
>  <DOCK_score>  (1) 
-57.730804

>  <SMILES>  (1) 
CCc1cccc([C@@H](Nc2[nH]cc(-c3ccc(Br)cc3)[nH+]2)c2ccc3c(c2C)CCC3)c1

$$$$
