Cc1[nH]c(N[C@@H]2[C@@H](O)[C@H](O)[C@@H](O)[C@H](O)[C@@H]2O)[nH+]c1-c1ccccc1
     RDKit          3D

 46 48  0  0  1  0  0  0  0  0999 V2000
  128.8480  130.9069  158.2628 C   0  0  0  0  0  0  0  0  0  0  0  0
  129.5871  132.2160  158.1578 C   0  0  0  0  0  0  0  0  0  0  0  0
  129.6396  133.2048  159.1099 N   0  0  0  0  0  0  0  0  0  0  0  0
  129.2062  133.1905  159.9775 H   0  0  0  0  0  0  0  0  0  0  0  0
  130.4115  134.2085  158.6109 C   0  0  0  0  0  0  0  0  0  0  0  0
  130.7144  135.3924  159.2613 N   0  0  0  0  0  0  0  0  0  0  0  0
  130.1883  135.6452  160.6050 C   0  0  2  0  0  0  0  0  0  0  0  0
  130.5443  134.8721  161.2861 H   0  0  0  0  0  0  0  0  0  0  0  0
  128.6588  135.6257  160.5660 C   0  0  1  0  0  0  0  0  0  0  0  0
  128.3029  136.3987  159.8850 H   0  0  0  0  0  0  0  0  0  0  0  0
  128.2103  134.3472  160.1117 O   0  0  0  0  0  0  0  0  0  0  0  0
  128.1096  135.8896  161.9693 C   0  0  2  0  0  0  0  0  0  0  0  0
  128.4655  135.1166  162.6503 H   0  0  0  0  0  0  0  0  0  0  0  0
  126.6811  135.8714  161.9329 O   0  0  0  0  0  0  0  0  0  0  0  0
  128.5898  137.2584  162.4558 C   0  0  1  0  0  0  0  0  0  0  0  0
  128.2337  138.0315  161.7749 H   0  0  0  0  0  0  0  0  0  0  0  0
  128.0766  137.5051  163.7665 O   0  0  0  0  0  0  0  0  0  0  0  0
  130.1192  137.2781  162.4948 C   0  0  2  0  0  0  0  0  0  0  0  0
  130.4752  136.5051  163.1758 H   0  0  0  0  0  0  0  0  0  0  0  0
  130.5677  138.5565  162.9492 O   0  0  0  0  0  0  0  0  0  0  0  0
  130.6685  137.0140  161.0915 C   0  0  2  0  0  0  0  0  0  0  0  0
  131.7581  137.0280  161.1192 H   0  0  0  0  0  0  0  0  0  0  0  0
  130.2018  138.0276  160.1988 O   0  0  0  0  0  0  0  0  0  0  0  0
  130.8162  133.8718  157.4106 N   0  0  0  0  0  0  0  0  0  0  0  0
  131.3770  134.4134  156.8334 H   0  0  0  0  0  0  0  0  0  0  0  0
  130.3277  132.6434  157.1053 C   0  0  0  0  0  0  0  0  0  0  0  0
  130.5575  131.9020  155.8413 C   0  0  0  0  0  0  0  0  0  0  0  0
  130.1522  132.4497  154.6254 C   0  0  0  0  0  0  0  0  0  0  0  0
  130.3733  131.7576  153.4521 C   0  0  0  0  0  0  0  0  0  0  0  0
  130.9866  130.5184  153.4819 C   0  0  0  0  0  0  0  0  0  0  0  0
  131.3858  129.9670  154.6865 C   0  0  0  0  0  0  0  0  0  0  0  0
  131.1745  130.6525  155.8656 C   0  0  0  0  0  0  0  0  0  0  0  0
  127.8353  131.0295  157.8786 H   0  0  0  0  0  0  0  0  0  0  0  0
  129.3687  130.1478  157.6792 H   0  0  0  0  0  0  0  0  0  0  0  0
  128.8053  130.5966  159.3069 H   0  0  0  0  0  0  0  0  0  0  0  0
  131.2749  136.0546  158.8273 H   0  0  0  0  0  0  0  0  0  0  0  0
  127.2483  134.2628  160.0621 H   0  0  0  0  0  0  0  0  0  0  0  0
  126.2941  136.5349  161.3455 H   0  0  0  0  0  0  0  0  0  0  0  0
  128.3535  136.8546  164.4262 H   0  0  0  0  0  0  0  0  0  0  0  0
  131.5296  138.6409  162.9989 H   0  0  0  0  0  0  0  0  0  0  0  0
  130.5117  137.9234  159.2887 H   0  0  0  0  0  0  0  0  0  0  0  0
  129.6693  133.4154  154.6012 H   0  0  0  0  0  0  0  0  0  0  0  0
  130.0634  132.1830  152.5089 H   0  0  0  0  0  0  0  0  0  0  0  0
  131.1528  129.9777  152.5619 H   0  0  0  0  0  0  0  0  0  0  0  0
  131.8637  128.9988  154.7040 H   0  0  0  0  0  0  0  0  0  0  0  0
  131.4869  130.2214  156.8053 H   0  0  0  0  0  0  0  0  0  0  0  0
  1  2  1  0
  1 33  1  0
  1 34  1  0
  1 35  1  0
  2 26  2  0
  2  3  1  0
  3  4  1  0
  3  5  1  0
  5  6  1  0
  5 24  2  0
  6  7  1  0
  6 36  1  0
  7  8  1  1
  7 21  1  0
  7  9  1  0
  9 10  1  6
  9 11  1  0
  9 12  1  0
 11 37  1  0
 12 13  1  1
 12 14  1  0
 12 15  1  0
 14 38  1  0
 15 16  1  6
 15 17  1  0
 15 18  1  0
 17 39  1  0
 18 19  1  1
 18 20  1  0
 18 21  1  0
 20 40  1  0
 21 22  1  1
 21 23  1  0
 23 41  1  0
 24 25  1  0
 24 26  1  0
 26 27  1  0
 27 32  1  0
 27 28  2  0
 28 29  1  0
 28 42  1  0
 29 30  2  0
 29 43  1  0
 30 31  1  0
 30 44  1  0
 31 32  2  0
 31 45  1  0
 32 46  1  0
M  CHG  1  24   1
M  END
>  <DOCK_score>  (1) 
-53.710857

>  <SMILES>  (1) 
Cc1[nH]c(N[C@@H]2[C@@H](O)[C@H](O)[C@@H](O)[C@H](O)[C@@H]2O)[nH+]c1-c1ccccc1

$$$$
