CC(C)[C@H](C)Oc1ccccc1CC([NH3+])C(=O)Nc1cccc(O)c1
     RDKit          3D

 52 53  0  0  1  0  0  0  0  0999 V2000
  130.3791  138.7489  159.5820 C   0  0  0  0  0  0  0  0  0  0  0  0
  131.7838  138.3877  160.0688 C   0  0  0  0  0  0  0  0  0  0  0  0
  132.4231  139.6088  160.7328 C   0  0  0  0  0  0  0  0  0  0  0  0
  131.6942  137.2447  161.0820 C   0  0  2  0  0  0  0  0  0  0  0  0
  131.0851  137.5578  161.9301 H   0  0  0  0  0  0  0  0  0  0  0  0
  133.0990  136.8835  161.5688 C   0  0  0  0  0  0  0  0  0  0  0  0
  131.0970  136.1041  160.4619 O   0  0  0  0  0  0  0  0  0  0  0  0
  130.9428  134.9939  161.2304 C   0  0  0  0  0  0  0  0  0  0  0  0
  130.7486  135.1176  162.5988 C   0  0  0  0  0  0  0  0  0  0  0  0
  130.5979  133.9874  163.3785 C   0  0  0  0  0  0  0  0  0  0  0  0
  130.6357  132.7339  162.7958 C   0  0  0  0  0  0  0  0  0  0  0  0
  130.8240  132.6082  161.4321 C   0  0  0  0  0  0  0  0  0  0  0  0
  130.9752  133.7356  160.6477 C   0  0  0  0  0  0  0  0  0  0  0  0
  131.1813  133.5980  159.1613 C   0  0  0  0  0  0  0  0  0  0  0  0
  130.0529  134.3189  158.4210 C   0  0  1  0  0  0  0  0  0  0  0  0
  130.2538  134.1846  156.9720 N   0  0  0  0  0  0  0  0  0  0  0  0
  131.1396  134.5944  156.7159 H   0  0  0  0  0  0  0  0  0  0  0  0
  130.2501  133.2074  156.7210 H   0  0  0  0  0  0  0  0  0  0  0  0
  129.5096  134.6601  156.4838 H   0  0  0  0  0  0  0  0  0  0  0  0
  128.7299  133.7069  158.8035 C   0  0  0  0  0  0  0  0  0  0  0  0
  128.2832  132.7789  158.1630 O   0  0  0  0  0  0  0  0  0  0  0  0
  128.0457  134.1873  159.8607 N   0  0  0  0  0  0  0  0  0  0  0  0
  126.8202  133.6154  160.2192 C   0  0  0  0  0  0  0  0  0  0  0  0
  126.5784  132.2713  159.9638 C   0  0  0  0  0  0  0  0  0  0  0  0
  125.3707  131.7055  160.3231 C   0  0  0  0  0  0  0  0  0  0  0  0
  124.3956  132.4767  160.9267 C   0  0  0  0  0  0  0  0  0  0  0  0
  124.6293  133.8212  161.1790 C   0  0  0  0  0  0  0  0  0  0  0  0
  123.6694  134.5784  161.7722 O   0  0  0  0  0  0  0  0  0  0  0  0
  125.8422  134.3913  160.8252 C   0  0  0  0  0  0  0  0  0  0  0  0
  129.7699  139.0620  160.4300 H   0  0  0  0  0  0  0  0  0  0  0  0
  130.4428  139.5632  158.8602 H   0  0  0  0  0  0  0  0  0  0  0  0
  129.9234  137.8790  159.1090 H   0  0  0  0  0  0  0  0  0  0  0  0
  132.3928  138.0746  159.2208 H   0  0  0  0  0  0  0  0  0  0  0  0
  131.8141  139.9219  161.5809 H   0  0  0  0  0  0  0  0  0  0  0  0
  133.4240  139.3515  161.0796 H   0  0  0  0  0  0  0  0  0  0  0  0
  132.4871  140.4231  160.0111 H   0  0  0  0  0  0  0  0  0  0  0  0
  133.7080  136.5703  160.7208 H   0  0  0  0  0  0  0  0  0  0  0  0
  133.5546  137.7534  162.0419 H   0  0  0  0  0  0  0  0  0  0  0  0
  133.0351  136.0692  162.2906 H   0  0  0  0  0  0  0  0  0  0  0  0
  130.7193  136.0964  163.0543 H   0  0  0  0  0  0  0  0  0  0  0  0
  130.4507  134.0830  164.4442 H   0  0  0  0  0  0  0  0  0  0  0  0
  130.5177  131.8515  163.4073 H   0  0  0  0  0  0  0  0  0  0  0  0
  130.8532  131.6281  160.9794 H   0  0  0  0  0  0  0  0  0  0  0  0
  131.1774  132.5422  158.8901 H   0  0  0  0  0  0  0  0  0  0  0  0
  132.1382  134.0406  158.8846 H   0  0  0  0  0  0  0  0  0  0  0  0
  130.0567  135.3746  158.6921 H   0  0  0  0  0  0  0  0  0  0  0  0
  128.4029  134.9294  160.3730 H   0  0  0  0  0  0  0  0  0  0  0  0
  127.3371  131.6675  159.4882 H   0  0  0  0  0  0  0  0  0  0  0  0
  125.1864  130.6594  160.1278 H   0  0  0  0  0  0  0  0  0  0  0  0
  123.4507  132.0325  161.2027 H   0  0  0  0  0  0  0  0  0  0  0  0
  123.9239  135.5016  161.9066 H   0  0  0  0  0  0  0  0  0  0  0  0
  126.0260  135.4373  161.0211 H   0  0  0  0  0  0  0  0  0  0  0  0
  1  2  1  0
  1 30  1  0
  1 31  1  0
  1 32  1  0
  2  3  1  0
  2  4  1  0
  2 33  1  0
  3 34  1  0
  3 35  1  0
  3 36  1  0
  4  5  1  1
  4  6  1  0
  4  7  1  0
  6 37  1  0
  6 38  1  0
  6 39  1  0
  7  8  1  0
  8 13  2  0
  8  9  1  0
  9 10  2  0
  9 40  1  0
 10 11  1  0
 10 41  1  0
 11 12  2  0
 11 42  1  0
 12 13  1  0
 12 43  1  0
 13 14  1  0
 14 15  1  0
 14 44  1  0
 14 45  1  0
 15 16  1  0
 15 20  1  0
 15 46  1  6
 16 17  1  0
 16 18  1  0
 16 19  1  0
 20 21  2  0
 20 22  1  0
 22 23  1  0
 22 47  1  0
 23 29  1  0
 23 24  2  0
 24 25  1  0
 24 48  1  0
 25 26  2  0
 25 49  1  0
 26 27  1  0
 26 50  1  0
 27 28  1  0
 27 29  2  0
 28 51  1  0
 29 52  1  0
M  CHG  1  16   1
M  END
>  <DOCK_score>  (1) 
-47.658783

>  <SMILES>  (1) 
CC(C)[C@H](C)Oc1ccccc1CC([NH3+])C(=O)Nc1cccc(O)c1

$$$$
