Fc1ccc([C@H](Nc2[nH]cc(-c3ccc(Br)cc3)[nH+]2)c2cccnc2)cc1
     RDKit          3D

 44 47  0  0  1  0  0  0  0  0999 V2000
  131.3026  140.6760  162.0937 F   0  0  0  0  0  0  0  0  0  0  0  0
  130.9155  139.4565  161.6600 C   0  0  0  0  0  0  0  0  0  0  0  0
  130.6451  138.4505  162.5721 C   0  0  0  0  0  0  0  0  0  0  0  0
  130.2495  137.2033  162.1274 C   0  0  0  0  0  0  0  0  0  0  0  0
  130.1232  136.9600  160.7724 C   0  0  0  0  0  0  0  0  0  0  0  0
  129.6912  135.5997  160.2887 C   0  0  2  0  0  0  0  0  0  0  0  0
  130.0209  134.8403  160.9978 H   0  0  0  0  0  0  0  0  0  0  0  0
  130.2883  135.3354  158.9773 N   0  0  0  0  0  0  0  0  0  0  0  0
  130.0331  134.1391  158.3289 C   0  0  0  0  0  0  0  0  0  0  0  0
  129.2438  133.1352  158.7993 N   0  0  0  0  0  0  0  0  0  0  0  0
  128.7633  133.1289  159.6420 H   0  0  0  0  0  0  0  0  0  0  0  0
  129.2533  132.1322  157.8605 C   0  0  0  0  0  0  0  0  0  0  0  0
  130.0473  132.5518  156.8444 C   0  0  0  0  0  0  0  0  0  0  0  0
  130.3537  131.7946  155.6062 C   0  0  0  0  0  0  0  0  0  0  0  0
  130.0114  132.3211  154.3619 C   0  0  0  0  0  0  0  0  0  0  0  0
  130.3043  131.6154  153.2127 C   0  0  0  0  0  0  0  0  0  0  0  0
  130.9257  130.3813  153.2950 C   0  0  0  0  0  0  0  0  0  0  0  0
  131.3165  129.4160  151.7165 Br  0  0  0  0  0  0  0  0  0  0  0  0
  131.2625  129.8514  154.5285 C   0  0  0  0  0  0  0  0  0  0  0  0
  130.9798  130.5518  155.6835 C   0  0  0  0  0  0  0  0  0  0  0  0
  130.5072  133.7890  157.1582 N   0  0  0  0  0  0  0  0  0  0  0  0
  131.0949  134.3275  156.6055 H   0  0  0  0  0  0  0  0  0  0  0  0
  128.1890  135.5611  160.1736 C   0  0  0  0  0  0  0  0  0  0  0  0
  127.5662  135.9212  158.9880 C   0  0  0  0  0  0  0  0  0  0  0  0
  126.1825  135.8660  158.9265 C   0  0  0  0  0  0  0  0  0  0  0  0
  125.4740  135.4662  160.0441 C   0  0  0  0  0  0  0  0  0  0  0  0
  126.0997  135.1356  161.1566 N   0  0  0  0  0  0  0  0  0  0  0  0
  127.4147  135.1718  161.2498 C   0  0  0  0  0  0  0  0  0  0  0  0
  130.3982  137.9621  159.8605 C   0  0  0  0  0  0  0  0  0  0  0  0
  130.7890  139.2116  160.3032 C   0  0  0  0  0  0  0  0  0  0  0  0
  130.7437  138.6403  163.6308 H   0  0  0  0  0  0  0  0  0  0  0  0
  130.0386  136.4184  162.8387 H   0  0  0  0  0  0  0  0  0  0  0  0
  130.8658  135.9969  158.5651 H   0  0  0  0  0  0  0  0  0  0  0  0
  128.7292  131.1898  157.9206 H   0  0  0  0  0  0  0  0  0  0  0  0
  129.5218  133.2814  154.2970 H   0  0  0  0  0  0  0  0  0  0  0  0
  130.0439  132.0245  152.2478 H   0  0  0  0  0  0  0  0  0  0  0  0
  131.7473  128.8881  154.5872 H   0  0  0  0  0  0  0  0  0  0  0  0
  131.2433  130.1376  156.6455 H   0  0  0  0  0  0  0  0  0  0  0  0
  128.1457  136.2335  158.1318 H   0  0  0  0  0  0  0  0  0  0  0  0
  125.6643  136.1359  158.0181 H   0  0  0  0  0  0  0  0  0  0  0  0
  124.3955  135.4238  160.0053 H   0  0  0  0  0  0  0  0  0  0  0  0
  127.8920  134.8937  162.1779 H   0  0  0  0  0  0  0  0  0  0  0  0
  130.3037  137.7696  158.8020 H   0  0  0  0  0  0  0  0  0  0  0  0
  130.9997  139.9955  159.5908 H   0  0  0  0  0  0  0  0  0  0  0  0
  1  2  1  0
  2 30  2  0
  2  3  1  0
  3  4  2  0
  3 31  1  0
  4  5  1  0
  4 32  1  0
  5  6  1  0
  5 29  2  0
  6  7  1  1
  6  8  1  0
  6 23  1  0
  8 33  1  0
  9  8  1  0
  9 21  2  0
  9 10  1  0
 10 11  1  0
 10 12  1  0
 12 13  2  0
 12 34  1  0
 13 14  1  0
 13 21  1  0
 14 20  1  0
 14 15  2  0
 15 16  1  0
 15 35  1  0
 16 17  2  0
 16 36  1  0
 17 18  1  0
 17 19  1  0
 19 20  2  0
 19 37  1  0
 20 38  1  0
 21 22  1  0
 23 28  1  0
 23 24  2  0
 24 25  1  0
 24 39  1  0
 25 26  2  0
 25 40  1  0
 26 27  1  0
 26 41  1  0
 27 28  2  0
 28 42  1  0
 29 30  1  0
 29 43  1  0
 30 44  1  0
M  CHG  1  21   1
M  END
>  <DOCK_score>  (1) 
-58.17041

>  <SMILES>  (1) 
Fc1ccc([C@H](Nc2[nH]cc(-c3ccc(Br)cc3)[nH+]2)c2cccnc2)cc1

$$$$
