C[NH2+]Cc1ccc([C@@H](O)c2ccc(C(O)c3ccc(Br)cc3)o2)o1
     RDKit          3D

 43 45  0  0  1  0  0  0  0  0999 V2000
  132.6089  135.9159  160.6853 C   0  0  0  0  0  0  0  0  0  0  0  0
  131.5923  135.1676  159.9340 N   0  0  0  0  0  0  0  0  0  0  0  0
  131.4754  135.5822  159.0216 H   0  0  0  0  0  0  0  0  0  0  0  0
  130.7154  135.1982  160.4322 H   0  0  0  0  0  0  0  0  0  0  0  0
  132.0225  133.7708  159.7856 C   0  0  0  0  0  0  0  0  0  0  0  0
  130.9796  133.0032  159.0148 C   0  0  0  0  0  0  0  0  0  0  0  0
  130.9388  132.8562  157.6783 C   0  0  0  0  0  0  0  0  0  0  0  0
  129.8048  132.0633  157.3879 C   0  0  0  0  0  0  0  0  0  0  0  0
  129.2157  131.7801  158.5636 C   0  0  0  0  0  0  0  0  0  0  0  0
  127.9662  130.9582  158.7479 C   0  0  1  0  0  0  0  0  0  0  0  0
  127.6054  130.6225  157.7758 H   0  0  0  0  0  0  0  0  0  0  0  0
  128.2590  129.8231  159.5652 O   0  0  0  0  0  0  0  0  0  0  0  0
  126.9068  131.7973  159.4146 C   0  0  0  0  0  0  0  0  0  0  0  0
  125.6654  131.3893  159.7336 C   0  0  0  0  0  0  0  0  0  0  0  0
  125.0165  132.4883  160.3418 C   0  0  0  0  0  0  0  0  0  0  0  0
  125.8975  133.5048  160.3507 C   0  0  0  0  0  0  0  0  0  0  0  0
  125.6455  134.8847  160.9014 C   0  0  1  0  0  0  0  0  0  0  0  0
  124.3156  134.9552  161.4195 O   0  0  0  0  0  0  0  0  0  0  0  0
  126.6303  135.1727  162.0051 C   0  0  0  0  0  0  0  0  0  0  0  0
  127.0442  136.4704  162.2407 C   0  0  0  0  0  0  0  0  0  0  0  0
  127.9518  136.7344  163.2491 C   0  0  0  0  0  0  0  0  0  0  0  0
  128.4461  135.6997  164.0228 C   0  0  0  0  0  0  0  0  0  0  0  0
  129.6885  136.0598  165.4022 Br  0  0  0  0  0  0  0  0  0  0  0  0
  128.0318  134.4012  163.7866 C   0  0  0  0  0  0  0  0  0  0  0  0
  127.1241  134.1382  162.7779 C   0  0  0  0  0  0  0  0  0  0  0  0
  127.0418  133.0795  159.7908 O   0  0  0  0  0  0  0  0  0  0  0  0
  129.9336  132.3493  159.5459 O   0  0  0  0  0  0  0  0  0  0  0  0
  132.7352  135.4680  161.6710 H   0  0  0  0  0  0  0  0  0  0  0  0
  133.5561  135.8827  160.1470 H   0  0  0  0  0  0  0  0  0  0  0  0
  132.2897  136.9523  160.7953 H   0  0  0  0  0  0  0  0  0  0  0  0
  132.1489  133.3229  160.7713 H   0  0  0  0  0  0  0  0  0  0  0  0
  132.9698  133.7377  159.2473 H   0  0  0  0  0  0  0  0  0  0  0  0
  131.6402  133.2622  156.9645 H   0  0  0  0  0  0  0  0  0  0  0  0
  129.4736  131.7477  156.4096 H   0  0  0  0  0  0  0  0  0  0  0  0
  128.5858  130.0472  160.4473 H   0  0  0  0  0  0  0  0  0  0  0  0
  125.2459  130.4090  159.5614 H   0  0  0  0  0  0  0  0  0  0  0  0
  124.0066  132.5087  160.7238 H   0  0  0  0  0  0  0  0  0  0  0  0
  125.7652  135.6206  160.1064 H   0  0  0  0  0  0  0  0  0  0  0  0
  124.0835  135.8171  161.7914 H   0  0  0  0  0  0  0  0  0  0  0  0
  126.6583  137.2784  161.6367 H   0  0  0  0  0  0  0  0  0  0  0  0
  128.2754  137.7482  163.4330 H   0  0  0  0  0  0  0  0  0  0  0  0
  128.4176  133.5929  164.3900 H   0  0  0  0  0  0  0  0  0  0  0  0
  126.8008  133.1245  162.5933 H   0  0  0  0  0  0  0  0  0  0  0  0
  1  2  1  0
  1 28  1  0
  1 29  1  0
  1 30  1  0
  2  3  1  0
  2  4  1  0
  2  5  1  0
  5  6  1  0
  5 31  1  0
  5 32  1  0
  6 27  1  0
  6  7  2  0
  7  8  1  0
  7 33  1  0
  8  9  2  0
  8 34  1  0
  9 10  1  0
  9 27  1  0
 10 11  1  6
 10 12  1  0
 10 13  1  0
 12 35  1  0
 13 26  1  0
 13 14  2  0
 14 15  1  0
 14 36  1  0
 15 16  2  0
 15 37  1  0
 16 17  1  0
 16 26  1  0
 17 18  1  0
 17 19  1  0
 17 38  1  6
 18 39  1  0
 19 25  1  0
 19 20  2  0
 20 21  1  0
 20 40  1  0
 21 22  2  0
 21 41  1  0
 22 23  1  0
 22 24  1  0
 24 25  2  0
 24 42  1  0
 25 43  1  0
M  CHG  1   2   1
M  END
>  <DOCK_score>  (1) 
-42.122826

>  <SMILES>  (1) 
C[NH2+]Cc1ccc([C@@H](O)c2ccc(C(O)c3ccc(Br)cc3)o2)o1

$$$$
