Cc1cccnc1-c1ccc(-c2n[nH]cc2C[NH2+]Cc2cccc(C3CC3)c2)cc1
     RDKit          3D

 57 61  0  0  0  0  0  0  0  0999 V2000
  129.2674  141.1771  164.5535 C   0  0  0  0  0  0  0  0  0  0  0  0
  127.8438  140.9167  164.1328 C   0  0  0  0  0  0  0  0  0  0  0  0
  126.8131  141.7016  164.6204 C   0  0  0  0  0  0  0  0  0  0  0  0
  125.5178  141.4266  164.2059 C   0  0  0  0  0  0  0  0  0  0  0  0
  125.2946  140.3846  163.3244 C   0  0  0  0  0  0  0  0  0  0  0  0
  126.2941  139.6559  162.8714 N   0  0  0  0  0  0  0  0  0  0  0  0
  127.5467  139.8828  163.2471 C   0  0  0  0  0  0  0  0  0  0  0  0
  128.6393  139.0336  162.7151 C   0  0  0  0  0  0  0  0  0  0  0  0
  129.2899  139.3920  161.5349 C   0  0  0  0  0  0  0  0  0  0  0  0
  130.3052  138.6030  161.0411 C   0  0  0  0  0  0  0  0  0  0  0  0
  130.6830  137.4459  161.7217 C   0  0  0  0  0  0  0  0  0  0  0  0
  131.7763  136.5963  161.1899 C   0  0  0  0  0  0  0  0  0  0  0  0
  133.0567  136.7146  161.4728 N   0  0  0  0  0  0  0  0  0  0  0  0
  133.7517  135.7241  160.7671 N   0  0  0  0  0  0  0  0  0  0  0  0
  134.7104  135.5772  160.7876 H   0  0  0  0  0  0  0  0  0  0  0  0
  132.8549  135.0055  160.0579 C   0  0  0  0  0  0  0  0  0  0  0  0
  131.6284  135.5206  160.2922 C   0  0  0  0  0  0  0  0  0  0  0  0
  130.3318  135.0282  159.7033 C   0  0  0  0  0  0  0  0  0  0  0  0
  130.5066  134.7908  158.2641 N   0  0  0  0  0  0  0  0  0  0  0  0
  131.2253  134.0969  158.1225 H   0  0  0  0  0  0  0  0  0  0  0  0
  130.7761  135.6514  157.8116 H   0  0  0  0  0  0  0  0  0  0  0  0
  129.2425  134.3105  157.6900 C   0  0  0  0  0  0  0  0  0  0  0  0
  128.8401  133.0252  158.3659 C   0  0  0  0  0  0  0  0  0  0  0  0
  129.7793  132.0337  158.5810 C   0  0  0  0  0  0  0  0  0  0  0  0
  129.4102  130.8548  159.2009 C   0  0  0  0  0  0  0  0  0  0  0  0
  128.1019  130.6674  159.6068 C   0  0  0  0  0  0  0  0  0  0  0  0
  127.1629  131.6583  159.3914 C   0  0  0  0  0  0  0  0  0  0  0  0
  125.7367  131.4539  159.8333 C   0  0  0  0  0  0  0  0  0  0  0  0
  125.0980  132.5504  160.6883 C   0  0  0  0  0  0  0  0  0  0  0  0
  125.4865  131.2137  161.3235 C   0  0  0  0  0  0  0  0  0  0  0  0
  127.5321  132.8376  158.7713 C   0  0  0  0  0  0  0  0  0  0  0  0
  130.0289  137.0844  162.8990 C   0  0  0  0  0  0  0  0  0  0  0  0
  129.0168  137.8759  163.3956 C   0  0  0  0  0  0  0  0  0  0  0  0
  129.7266  141.8846  163.8631 H   0  0  0  0  0  0  0  0  0  0  0  0
  129.2781  141.5931  165.5609 H   0  0  0  0  0  0  0  0  0  0  0  0
  129.8268  140.2417  164.5405 H   0  0  0  0  0  0  0  0  0  0  0  0
  127.0128  142.5103  165.3078 H   0  0  0  0  0  0  0  0  0  0  0  0
  124.6918  142.0208  164.5678 H   0  0  0  0  0  0  0  0  0  0  0  0
  124.2877  140.1682  162.9996 H   0  0  0  0  0  0  0  0  0  0  0  0
  128.9978  140.2886  161.0081 H   0  0  0  0  0  0  0  0  0  0  0  0
  130.8091  138.8807  160.1271 H   0  0  0  0  0  0  0  0  0  0  0  0
  133.0791  134.1672  159.4147 H   0  0  0  0  0  0  0  0  0  0  0  0
  129.5553  135.7777  159.8563 H   0  0  0  0  0  0  0  0  0  0  0  0
  130.0406  134.0984  160.1921 H   0  0  0  0  0  0  0  0  0  0  0  0
  129.3722  134.1343  156.6222 H   0  0  0  0  0  0  0  0  0  0  0  0
  128.4661  135.0600  157.8428 H   0  0  0  0  0  0  0  0  0  0  0  0
  130.8014  132.1802  158.2643 H   0  0  0  0  0  0  0  0  0  0  0  0
  130.1438  130.0801  159.3686 H   0  0  0  0  0  0  0  0  0  0  0  0
  127.8136  129.7464  160.0916 H   0  0  0  0  0  0  0  0  0  0  0  0
  125.0953  130.9303  159.1245 H   0  0  0  0  0  0  0  0  0  0  0  0
  125.7094  133.4196  160.9310 H   0  0  0  0  0  0  0  0  0  0  0  0
  124.0362  132.7482  160.5418 H   0  0  0  0  0  0  0  0  0  0  0  0
  124.6802  130.5324  161.5950 H   0  0  0  0  0  0  0  0  0  0  0  0
  126.3534  131.2032  161.9841 H   0  0  0  0  0  0  0  0  0  0  0  0
  126.7995  133.6141  158.6077 H   0  0  0  0  0  0  0  0  0  0  0  0
  130.3188  136.1861  163.4237 H   0  0  0  0  0  0  0  0  0  0  0  0
  128.5131  137.5981  164.3095 H   0  0  0  0  0  0  0  0  0  0  0  0
  1  2  1  0
  1 34  1  0
  1 35  1  0
  1 36  1  0
  2  7  2  0
  2  3  1  0
  3  4  2  0
  3 37  1  0
  4  5  1  0
  4 38  1  0
  5  6  2  0
  5 39  1  0
  6  7  1  0
  7  8  1  0
  8 33  1  0
  8  9  2  0
  9 10  1  0
  9 40  1  0
 10 11  2  0
 10 41  1  0
 11 12  1  0
 11 32  1  0
 12 17  1  0
 12 13  2  0
 13 14  1  0
 14 15  1  0
 14 16  1  0
 16 17  2  0
 16 42  1  0
 17 18  1  0
 18 19  1  0
 18 43  1  0
 18 44  1  0
 19 20  1  0
 19 21  1  0
 19 22  1  0
 22 23  1  0
 22 45  1  0
 22 46  1  0
 23 31  1  0
 23 24  2  0
 24 25  1  0
 24 47  1  0
 25 26  2  0
 25 48  1  0
 26 27  1  0
 26 49  1  0
 27 28  1  0
 27 31  2  0
 28 30  1  0
 28 29  1  0
 28 50  1  0
 29 30  1  0
 29 51  1  0
 29 52  1  0
 30 53  1  0
 30 54  1  0
 31 55  1  0
 32 33  2  0
 32 56  1  0
 33 57  1  0
M  CHG  1  19   1
M  END
>  <DOCK_score>  (1) 
-48.397644

>  <SMILES>  (1) 
Cc1cccnc1-c1ccc(-c2n[nH]cc2C[NH2+]Cc2cccc(C3CC3)c2)cc1

$$$$
