CCc1ccc(-c2c[nH]c(N[C@@H](C=Cc3ccnn3C)c3ccnn3C)[nH+]2)cc1
     RDKit          3D

 55 58  0  0  1  0  0  0  0  0999 V2000
  130.3843  128.5803  151.5433 C   0  0  0  0  0  0  0  0  0  0  0  0
  131.4479  129.6393  151.8395 C   0  0  0  0  0  0  0  0  0  0  0  0
  131.1183  130.3333  153.1360 C   0  0  0  0  0  0  0  0  0  0  0  0
  131.6125  129.8366  154.3280 C   0  0  0  0  0  0  0  0  0  0  0  0
  131.3188  130.4711  155.5180 C   0  0  0  0  0  0  0  0  0  0  0  0
  130.5128  131.6082  155.5178 C   0  0  0  0  0  0  0  0  0  0  0  0
  130.1890  132.2914  156.7939 C   0  0  0  0  0  0  0  0  0  0  0  0
  129.5465  131.7406  157.8534 C   0  0  0  0  0  0  0  0  0  0  0  0
  129.4561  132.7163  158.8161 N   0  0  0  0  0  0  0  0  0  0  0  0
  129.0467  132.6243  159.6906 H   0  0  0  0  0  0  0  0  0  0  0  0
  130.0467  133.8359  158.3163 C   0  0  0  0  0  0  0  0  0  0  0  0
  130.1663  135.0473  158.9757 N   0  0  0  0  0  0  0  0  0  0  0  0
  129.6308  135.1998  160.3307 C   0  0  1  0  0  0  0  0  0  0  0  0
  129.8330  134.2957  160.9051 H   0  0  0  0  0  0  0  0  0  0  0  0
  130.2886  136.3783  161.0011 C   0  0  0  0  0  0  0  0  0  0  0  0
  130.1748  137.5917  160.4729 C   0  0  0  0  0  0  0  0  0  0  0  0
  130.7210  138.7595  161.1856 C   0  0  0  0  0  0  0  0  0  0  0  0
  131.6953  139.6188  160.7236 C   0  0  0  0  0  0  0  0  0  0  0  0
  131.9113  140.5819  161.7085 C   0  0  0  0  0  0  0  0  0  0  0  0
  131.1243  140.3287  162.7231 N   0  0  0  0  0  0  0  0  0  0  0  0
  130.3624  139.1910  162.4294 N   0  0  0  0  0  0  0  0  0  0  0  0
  129.3592  138.5748  163.3013 C   0  0  0  0  0  0  0  0  0  0  0  0
  128.1429  135.4279  160.2602 C   0  0  0  0  0  0  0  0  0  0  0  0
  127.4757  136.0341  159.2512 C   0  0  0  0  0  0  0  0  0  0  0  0
  126.1156  136.0405  159.5771 C   0  0  0  0  0  0  0  0  0  0  0  0
  125.9713  135.4588  160.7401 N   0  0  0  0  0  0  0  0  0  0  0  0
  127.2365  135.0588  161.1894 N   0  0  0  0  0  0  0  0  0  0  0  0
  127.5249  134.3653  162.4471 C   0  0  0  0  0  0  0  0  0  0  0  0
  130.4886  133.5764  157.1100 N   0  0  0  0  0  0  0  0  0  0  0  0
  130.9534  134.2036  156.5342 H   0  0  0  0  0  0  0  0  0  0  0  0
  130.0129  132.1014  154.3139 C   0  0  0  0  0  0  0  0  0  0  0  0
  130.3179  131.4620  153.1294 C   0  0  0  0  0  0  0  0  0  0  0  0
  130.3649  127.8494  152.3517 H   0  0  0  0  0  0  0  0  0  0  0  0
  129.4079  129.0580  151.4620 H   0  0  0  0  0  0  0  0  0  0  0  0
  130.6225  128.0785  150.6055 H   0  0  0  0  0  0  0  0  0  0  0  0
  132.4239  129.1623  151.9204 H   0  0  0  0  0  0  0  0  0  0  0  0
  131.4668  130.3708  151.0306 H   0  0  0  0  0  0  0  0  0  0  0  0
  132.2330  128.9525  154.3276 H   0  0  0  0  0  0  0  0  0  0  0  0
  131.7092  130.0847  156.4479 H   0  0  0  0  0  0  0  0  0  0  0  0
  129.1763  130.7287  157.9262 H   0  0  0  0  0  0  0  0  0  0  0  0
  130.6047  135.7952  158.5404 H   0  0  0  0  0  0  0  0  0  0  0  0
  130.8526  136.2363  161.9113 H   0  0  0  0  0  0  0  0  0  0  0  0
  129.6818  137.7220  159.5209 H   0  0  0  0  0  0  0  0  0  0  0  0
  132.1985  139.5585  159.7699 H   0  0  0  0  0  0  0  0  0  0  0  0
  132.6151  141.3988  161.6465 H   0  0  0  0  0  0  0  0  0  0  0  0
  129.8495  137.8857  163.9889 H   0  0  0  0  0  0  0  0  0  0  0  0
  128.8455  139.3507  163.8691 H   0  0  0  0  0  0  0  0  0  0  0  0
  128.6362  138.0297  162.6945 H   0  0  0  0  0  0  0  0  0  0  0  0
  127.9158  136.4417  158.3529 H   0  0  0  0  0  0  0  0  0  0  0  0
  125.3215  136.4545  158.9733 H   0  0  0  0  0  0  0  0  0  0  0  0
  127.7124  135.0985  163.2315 H   0  0  0  0  0  0  0  0  0  0  0  0
  126.6718  133.7462  162.7246 H   0  0  0  0  0  0  0  0  0  0  0  0
  128.4054  133.7352  162.3209 H   0  0  0  0  0  0  0  0  0  0  0  0
  129.3877  132.9820  154.3078 H   0  0  0  0  0  0  0  0  0  0  0  0
  129.9307  131.8431  152.1960 H   0  0  0  0  0  0  0  0  0  0  0  0
  1  2  1  0
  1 33  1  0
  1 34  1  0
  1 35  1  0
  2  3  1  0
  2 36  1  0
  2 37  1  0
  3 32  2  0
  3  4  1  0
  4  5  2  0
  4 38  1  0
  5  6  1  0
  5 39  1  0
  6  7  1  0
  6 31  2  0
  7 29  1  0
  7  8  2  0
  8  9  1  0
  8 40  1  0
  9 10  1  0
  9 11  1  0
 11 12  1  0
 11 29  2  0
 12 13  1  0
 12 41  1  0
 13 14  1  1
 13 15  1  0
 13 23  1  0
 15 16  2  0
 15 42  1  0
 16 17  1  0
 16 43  1  0
 17 21  1  0
 17 18  2  0
 18 19  1  0
 18 44  1  0
 19 20  2  0
 19 45  1  0
 20 21  1  0
 21 22  1  0
 22 46  1  0
 22 47  1  0
 22 48  1  0
 23 27  1  0
 23 24  2  0
 24 25  1  0
 24 49  1  0
 25 26  2  0
 25 50  1  0
 26 27  1  0
 27 28  1  0
 28 51  1  0
 28 52  1  0
 28 53  1  0
 29 30  1  0
 31 32  1  0
 31 54  1  0
 32 55  1  0
M  CHG  1  29   1
M  END
>  <DOCK_score>  (1) 
-58.395332

>  <SMILES>  (1) 
CCc1ccc(-c2c[nH]c(N[C@@H](C=Cc3ccnn3C)c3ccnn3C)[nH+]2)cc1

$$$$
