C1=C(c2ccc([C@H](Cc3cnn4ccccc34)[NH2+]Cc3cnn4ccccc34)cc2)CCCC1
     RDKit          3D

 64 69  0  0  1  0  0  0  0  0999 V2000
  134.4929  139.7153  159.5300 C   0  0  0  0  0  0  0  0  0  0  0  0
  134.0045  139.1519  160.6083 C   0  0  0  0  0  0  0  0  0  0  0  0
  132.9916  138.0887  160.4398 C   0  0  0  0  0  0  0  0  0  0  0  0
  133.2358  136.8045  160.9281 C   0  0  0  0  0  0  0  0  0  0  0  0
  132.2859  135.8167  160.7679 C   0  0  0  0  0  0  0  0  0  0  0  0
  131.0934  136.0972  160.1252 C   0  0  0  0  0  0  0  0  0  0  0  0
  130.0603  135.0135  159.9541 C   0  0  2  0  0  0  0  0  0  0  0  0
  129.1942  135.4168  159.4293 H   0  0  0  0  0  0  0  0  0  0  0  0
  129.6292  134.4983  161.3288 C   0  0  0  0  0  0  0  0  0  0  0  0
  128.6269  135.4495  161.9302 C   0  0  0  0  0  0  0  0  0  0  0  0
  127.5412  136.0135  161.2800 C   0  0  0  0  0  0  0  0  0  0  0  0
  126.8939  136.7892  162.1213 N   0  0  0  0  0  0  0  0  0  0  0  0
  127.5437  136.7559  163.3613 N   0  0  0  0  0  0  0  0  0  0  0  0
  127.2861  137.3703  164.5531 C   0  0  0  0  0  0  0  0  0  0  0  0
  128.0777  137.1539  165.6242 C   0  0  0  0  0  0  0  0  0  0  0  0
  129.1892  136.3004  165.5264 C   0  0  0  0  0  0  0  0  0  0  0  0
  129.4613  135.6843  164.3442 C   0  0  0  0  0  0  0  0  0  0  0  0
  128.6203  135.9155  163.2390 C   0  0  0  0  0  0  0  0  0  0  0  0
  130.6343  133.9084  159.1748 N   0  0  0  0  0  0  0  0  0  0  0  0
  131.2029  133.3320  159.7770 H   0  0  0  0  0  0  0  0  0  0  0  0
  131.2041  134.2821  158.4308 H   0  0  0  0  0  0  0  0  0  0  0  0
  129.5507  133.0984  158.6023 C   0  0  0  0  0  0  0  0  0  0  0  0
  130.1395  131.9649  157.8029 C   0  0  0  0  0  0  0  0  0  0  0  0
  130.4581  130.7044  158.2818 C   0  0  0  0  0  0  0  0  0  0  0  0
  130.9490  129.9838  157.2975 N   0  0  0  0  0  0  0  0  0  0  0  0
  130.9664  130.7596  156.1317 N   0  0  0  0  0  0  0  0  0  0  0  0
  131.3708  130.4947  154.8548 C   0  0  0  0  0  0  0  0  0  0  0  0
  131.2795  131.4381  153.8945 C   0  0  0  0  0  0  0  0  0  0  0  0
  130.7657  132.7109  154.1938 C   0  0  0  0  0  0  0  0  0  0  0  0
  130.3590  132.9899  155.4620 C   0  0  0  0  0  0  0  0  0  0  0  0
  130.4610  131.9936  156.4517 C   0  0  0  0  0  0  0  0  0  0  0  0
  130.8475  137.3668  159.6338 C   0  0  0  0  0  0  0  0  0  0  0  0
  131.7869  138.3650  159.7921 C   0  0  0  0  0  0  0  0  0  0  0  0
  134.4091  139.5272  162.0040 C   0  0  0  0  0  0  0  0  0  0  0  0
  135.7313  140.3001  161.9776 C   0  0  0  0  0  0  0  0  0  0  0  0
  135.6113  141.4261  160.9433 C   0  0  0  0  0  0  0  0  0  0  0  0
  135.5313  140.7989  159.5500 C   0  0  0  0  0  0  0  0  0  0  0  0
  134.1264  139.3802  158.5710 H   0  0  0  0  0  0  0  0  0  0  0  0
  134.1663  136.5843  161.4299 H   0  0  0  0  0  0  0  0  0  0  0  0
  132.4738  134.8223  161.1453 H   0  0  0  0  0  0  0  0  0  0  0  0
  129.1759  133.5128  161.2216 H   0  0  0  0  0  0  0  0  0  0  0  0
  130.5004  134.4286  161.9802 H   0  0  0  0  0  0  0  0  0  0  0  0
  127.2707  135.8436  160.2482 H   0  0  0  0  0  0  0  0  0  0  0  0
  126.4339  138.0279  164.6423 H   0  0  0  0  0  0  0  0  0  0  0  0
  127.8588  137.6444  166.5611 H   0  0  0  0  0  0  0  0  0  0  0  0
  129.8237  136.1341  166.3845 H   0  0  0  0  0  0  0  0  0  0  0  0
  130.3127  135.0259  164.2546 H   0  0  0  0  0  0  0  0  0  0  0  0
  128.9365  133.7211  157.9518 H   0  0  0  0  0  0  0  0  0  0  0  0
  128.9350  132.6948  159.4062 H   0  0  0  0  0  0  0  0  0  0  0  0
  130.3247  130.3679  159.2993 H   0  0  0  0  0  0  0  0  0  0  0  0
  131.7680  129.5204  154.6112 H   0  0  0  0  0  0  0  0  0  0  0  0
  131.6075  131.2147  152.8900 H   0  0  0  0  0  0  0  0  0  0  0  0
  130.6947  133.4633  153.4225 H   0  0  0  0  0  0  0  0  0  0  0  0
  129.9620  133.9640  155.7064 H   0  0  0  0  0  0  0  0  0  0  0  0
  129.9166  137.5783  159.1288 H   0  0  0  0  0  0  0  0  0  0  0  0
  131.5922  139.3568  159.4116 H   0  0  0  0  0  0  0  0  0  0  0  0
  133.6324  140.1479  162.4508 H   0  0  0  0  0  0  0  0  0  0  0  0
  134.5331  138.6228  162.5999 H   0  0  0  0  0  0  0  0  0  0  0  0
  136.5456  139.6314  161.6982 H   0  0  0  0  0  0  0  0  0  0  0  0
  135.9285  140.7259  162.9614 H   0  0  0  0  0  0  0  0  0  0  0  0
  136.4861  142.0738  161.0037 H   0  0  0  0  0  0  0  0  0  0  0  0
  134.7103  142.0088  161.1349 H   0  0  0  0  0  0  0  0  0  0  0  0
  136.5008  140.3751  159.2883 H   0  0  0  0  0  0  0  0  0  0  0  0
  135.2664  141.5665  158.8228 H   0  0  0  0  0  0  0  0  0  0  0  0
  1 37  1  0
  1  2  2  0
  1 38  1  0
  2  3  1  0
  2 34  1  0
  3 33  1  0
  3  4  2  0
  4  5  1  0
  4 39  1  0
  5  6  2  0
  5 40  1  0
  6  7  1  0
  6 32  1  0
  7  8  1  6
  7  9  1  0
  7 19  1  0
  9 10  1  0
  9 41  1  0
  9 42  1  0
 10 18  2  0
 10 11  1  0
 11 12  2  0
 11 43  1  0
 12 13  1  0
 13 18  1  0
 13 14  1  0
 14 15  2  0
 14 44  1  0
 15 16  1  0
 15 45  1  0
 16 17  2  0
 16 46  1  0
 17 18  1  0
 17 47  1  0
 19 20  1  0
 19 21  1  0
 19 22  1  0
 22 23  1  0
 22 48  1  0
 22 49  1  0
 23 31  2  0
 23 24  1  0
 24 25  2  0
 24 50  1  0
 25 26  1  0
 26 31  1  0
 26 27  1  0
 27 28  2  0
 27 51  1  0
 28 29  1  0
 28 52  1  0
 29 30  2  0
 29 53  1  0
 30 31  1  0
 30 54  1  0
 32 33  2  0
 32 55  1  0
 33 56  1  0
 34 35  1  0
 34 57  1  0
 34 58  1  0
 35 36  1  0
 35 59  1  0
 35 60  1  0
 36 37  1  0
 36 61  1  0
 36 62  1  0
 37 63  1  0
 37 64  1  0
M  CHG  1  19   1
M  END
>  <DOCK_score>  (1) 
-47.825756

>  <SMILES>  (1) 
C1=C(c2ccc([C@H](Cc3cnn4ccccc34)[NH2+]Cc3cnn4ccccc34)cc2)CCCC1

$$$$
