CC=Cc1[nH]c(NC(CF)c2ccccc2N[C@@H](CF)c2cccc3ccccc23)[nH+]c1C
     RDKit          3D

 62 65  0  0  1  0  0  0  0  0999 V2000
  131.3489  131.1941  154.1954 C   0  0  0  0  0  0  0  0  0  0  0  0
  131.0397  132.1330  155.3330 C   0  0  0  0  0  0  0  0  0  0  0  0
  130.5485  131.6566  156.4738 C   0  0  0  0  0  0  0  0  0  0  0  0
  130.2469  132.5728  157.5839 C   0  0  0  0  0  0  0  0  0  0  0  0
  130.4196  133.9474  157.5940 N   0  0  0  0  0  0  0  0  0  0  0  0
  130.7634  134.4920  156.8686 H   0  0  0  0  0  0  0  0  0  0  0  0
  130.0153  134.3873  158.8163 C   0  0  0  0  0  0  0  0  0  0  0  0
  130.0243  135.7022  159.2422 N   0  0  0  0  0  0  0  0  0  0  0  0
  129.5591  136.0387  160.5901 C   0  0  1  0  0  0  0  0  0  0  0  0
  130.4201  135.3095  161.6235 C   0  0  0  0  0  0  0  0  0  0  0  0
  129.9872  133.9841  161.7392 F   0  0  0  0  0  0  0  0  0  0  0  0
  129.6707  137.5264  160.8032 C   0  0  0  0  0  0  0  0  0  0  0  0
  128.5430  138.2700  161.0916 C   0  0  0  0  0  0  0  0  0  0  0  0
  128.6445  139.6349  161.2881 C   0  0  0  0  0  0  0  0  0  0  0  0
  129.8748  140.2602  161.1962 C   0  0  0  0  0  0  0  0  0  0  0  0
  131.0068  139.5221  160.9129 C   0  0  0  0  0  0  0  0  0  0  0  0
  130.9077  138.1512  160.7102 C   0  0  0  0  0  0  0  0  0  0  0  0
  132.0501  137.4023  160.4192 N   0  0  0  0  0  0  0  0  0  0  0  0
  133.1661  137.3701  161.3675 C   0  0  1  0  0  0  0  0  0  0  0  0
  132.7774  137.3147  162.3844 H   0  0  0  0  0  0  0  0  0  0  0  0
  134.0383  136.1446  161.0875 C   0  0  0  0  0  0  0  0  0  0  0  0
  133.2711  134.9836  161.2308 F   0  0  0  0  0  0  0  0  0  0  0  0
  133.9927  138.6207  161.2132 C   0  0  0  0  0  0  0  0  0  0  0  0
  134.0759  139.2410  160.0044 C   0  0  0  0  0  0  0  0  0  0  0  0
  134.8354  140.3978  159.8424 C   0  0  0  0  0  0  0  0  0  0  0  0
  135.5163  140.9414  160.8883 C   0  0  0  0  0  0  0  0  0  0  0  0
  135.4544  140.3292  162.1515 C   0  0  0  0  0  0  0  0  0  0  0  0
  136.1442  140.8607  163.2547 C   0  0  0  0  0  0  0  0  0  0  0  0
  136.0614  140.2403  164.4631 C   0  0  0  0  0  0  0  0  0  0  0  0
  135.3019  139.0829  164.6250 C   0  0  0  0  0  0  0  0  0  0  0  0
  134.6203  138.5398  163.5798 C   0  0  0  0  0  0  0  0  0  0  0  0
  134.6818  139.1523  162.3162 C   0  0  0  0  0  0  0  0  0  0  0  0
  129.6199  133.3553  159.5271 N   0  0  0  0  0  0  0  0  0  0  0  0
  129.2869  133.3984  160.4372 H   0  0  0  0  0  0  0  0  0  0  0  0
  129.7437  132.2362  158.8037 C   0  0  0  0  0  0  0  0  0  0  0  0
  129.3930  130.8441  159.2618 C   0  0  0  0  0  0  0  0  0  0  0  0
  132.0920  130.4648  154.5181 H   0  0  0  0  0  0  0  0  0  0  0  0
  130.4384  130.6761  153.8942 H   0  0  0  0  0  0  0  0  0  0  0  0
  131.7399  131.7623  153.3515 H   0  0  0  0  0  0  0  0  0  0  0  0
  131.2170  133.1925  155.2221 H   0  0  0  0  0  0  0  0  0  0  0  0
  130.3714  130.5971  156.5847 H   0  0  0  0  0  0  0  0  0  0  0  0
  130.3383  136.4021  158.6487 H   0  0  0  0  0  0  0  0  0  0  0  0
  128.5192  135.7326  160.7026 H   0  0  0  0  0  0  0  0  0  0  0  0
  131.4622  135.3247  161.3041 H   0  0  0  0  0  0  0  0  0  0  0  0
  130.3286  135.8073  162.5888 H   0  0  0  0  0  0  0  0  0  0  0  0
  127.5808  137.7848  161.1640 H   0  0  0  0  0  0  0  0  0  0  0  0
  127.7613  140.2140  161.5135 H   0  0  0  0  0  0  0  0  0  0  0  0
  129.9506  141.3264  161.3506 H   0  0  0  0  0  0  0  0  0  0  0  0
  131.9678  140.0104  160.8458 H   0  0  0  0  0  0  0  0  0  0  0  0
  132.1044  136.9032  159.5891 H   0  0  0  0  0  0  0  0  0  0  0  0
  134.4270  136.2001  160.0707 H   0  0  0  0  0  0  0  0  0  0  0  0
  134.8688  136.1207  161.7930 H   0  0  0  0  0  0  0  0  0  0  0  0
  133.5450  138.8305  159.1582 H   0  0  0  0  0  0  0  0  0  0  0  0
  134.8850  140.8702  158.8724 H   0  0  0  0  0  0  0  0  0  0  0  0
  136.1046  141.8360  160.7469 H   0  0  0  0  0  0  0  0  0  0  0  0
  136.7365  141.7570  163.1441 H   0  0  0  0  0  0  0  0  0  0  0  0
  136.5923  140.6507  165.3093 H   0  0  0  0  0  0  0  0  0  0  0  0
  135.2532  138.6099  165.5948 H   0  0  0  0  0  0  0  0  0  0  0  0
  134.0353  137.6430  163.7203 H   0  0  0  0  0  0  0  0  0  0  0  0
  130.2632  130.3865  159.7325 H   0  0  0  0  0  0  0  0  0  0  0  0
  128.5750  130.8934  159.9805 H   0  0  0  0  0  0  0  0  0  0  0  0
  129.0871  130.2455  158.4037 H   0  0  0  0  0  0  0  0  0  0  0  0
  1  2  1  0
  1 37  1  0
  1 38  1  0
  1 39  1  0
  2  3  2  0
  2 40  1  0
  3  4  1  0
  3 41  1  0
  4 35  2  0
  4  5  1  0
  5  6  1  0
  5  7  1  0
  7  8  1  0
  7 33  2  0
  8  9  1  0
  8 42  1  0
  9 10  1  0
  9 12  1  0
  9 43  1  6
 10 11  1  0
 10 44  1  0
 10 45  1  0
 12 17  1  0
 12 13  2  0
 13 14  1  0
 13 46  1  0
 14 15  2  0
 14 47  1  0
 15 16  1  0
 15 48  1  0
 16 17  2  0
 16 49  1  0
 17 18  1  0
 18 19  1  0
 18 50  1  0
 19 20  1  1
 19 21  1  0
 19 23  1  0
 21 22  1  0
 21 51  1  0
 21 52  1  0
 23 32  1  0
 23 24  2  0
 24 25  1  0
 24 53  1  0
 25 26  2  0
 25 54  1  0
 26 27  1  0
 26 55  1  0
 27 32  2  0
 27 28  1  0
 28 29  2  0
 28 56  1  0
 29 30  1  0
 29 57  1  0
 30 31  2  0
 30 58  1  0
 31 32  1  0
 31 59  1  0
 33 34  1  0
 33 35  1  0
 35 36  1  0
 36 60  1  0
 36 61  1  0
 36 62  1  0
M  CHG  1  33   1
M  END
>  <DOCK_score>  (1) 
-58.796104

>  <SMILES>  (1) 
CC=Cc1[nH]c(NC(CF)c2ccccc2N[C@@H](CF)c2cccc3ccccc23)[nH+]c1C

$$$$
