CC1=CC=C([C@@H](C)Nc2[nH]cc(-c3ccc(-c4ccccc4)cc3)[nH+]2)CC1
     RDKit          3D

 53 56  0  0  1  0  0  0  0  0999 V2000
  136.1846  134.0932  164.5778 C   0  0  0  0  0  0  0  0  0  0  0  0
  134.9333  134.5343  163.8631 C   0  0  0  0  0  0  0  0  0  0  0  0
  134.7685  134.2456  162.5767 C   0  0  0  0  0  0  0  0  0  0  0  0
  133.5438  134.6769  161.8837 C   0  0  0  0  0  0  0  0  0  0  0  0
  132.8089  135.6595  162.3930 C   0  0  0  0  0  0  0  0  0  0  0  0
  131.5558  136.1056  161.6846 C   0  0  1  0  0  0  0  0  0  0  0  0
  130.7069  135.5268  162.0488 H   0  0  0  0  0  0  0  0  0  0  0  0
  131.3159  137.5914  161.9599 C   0  0  0  0  0  0  0  0  0  0  0  0
  131.7082  135.8945  160.2430 N   0  0  0  0  0  0  0  0  0  0  0  0
  131.3237  134.6920  159.6750 C   0  0  0  0  0  0  0  0  0  0  0  0
  130.7940  133.6325  160.3452 N   0  0  0  0  0  0  0  0  0  0  0  0
  130.6193  133.5845  161.2981 H   0  0  0  0  0  0  0  0  0  0  0  0
  130.5527  132.6434  159.4233 C   0  0  0  0  0  0  0  0  0  0  0  0
  130.9371  133.1283  158.2159 C   0  0  0  0  0  0  0  0  0  0  0  0
  130.8566  132.4103  156.9214 C   0  0  0  0  0  0  0  0  0  0  0  0
  130.0880  132.9323  155.8809 C   0  0  0  0  0  0  0  0  0  0  0  0
  130.0176  132.2679  154.6765 C   0  0  0  0  0  0  0  0  0  0  0  0
  130.7061  131.0679  154.5008 C   0  0  0  0  0  0  0  0  0  0  0  0
  130.6255  130.3496  153.2058 C   0  0  0  0  0  0  0  0  0  0  0  0
  130.7407  128.9611  153.1676 C   0  0  0  0  0  0  0  0  0  0  0  0
  130.6602  128.2976  151.9601 C   0  0  0  0  0  0  0  0  0  0  0  0
  130.4760  129.0093  150.7878 C   0  0  0  0  0  0  0  0  0  0  0  0
  130.3665  130.3875  150.8194 C   0  0  0  0  0  0  0  0  0  0  0  0
  130.4401  131.0611  152.0215 C   0  0  0  0  0  0  0  0  0  0  0  0
  131.4699  130.5429  155.5429 C   0  0  0  0  0  0  0  0  0  0  0  0
  131.5448  131.2098  156.7457 C   0  0  0  0  0  0  0  0  0  0  0  0
  131.4106  134.3860  158.4036 N   0  0  0  0  0  0  0  0  0  0  0  0
  131.7544  134.9674  157.7073 H   0  0  0  0  0  0  0  0  0  0  0  0
  133.2213  136.3245  163.6794 C   0  0  0  0  0  0  0  0  0  0  0  0
  133.8735  135.3013  164.6084 C   0  0  0  0  0  0  0  0  0  0  0  0
  136.0280  133.1037  165.0074 H   0  0  0  0  0  0  0  0  0  0  0  0
  137.0130  134.0553  163.8703 H   0  0  0  0  0  0  0  0  0  0  0  0
  136.4179  134.8017  165.3726 H   0  0  0  0  0  0  0  0  0  0  0  0
  135.5286  133.6941  162.0434 H   0  0  0  0  0  0  0  0  0  0  0  0
  133.2456  134.1989  160.9623 H   0  0  0  0  0  0  0  0  0  0  0  0
  130.4094  137.9140  161.4475 H   0  0  0  0  0  0  0  0  0  0  0  0
  131.2023  137.7484  163.0326 H   0  0  0  0  0  0  0  0  0  0  0  0
  132.1646  138.1701  161.5958 H   0  0  0  0  0  0  0  0  0  0  0  0
  132.0786  136.5973  159.6863 H   0  0  0  0  0  0  0  0  0  0  0  0
  130.1335  131.6678  159.6211 H   0  0  0  0  0  0  0  0  0  0  0  0
  129.5515  133.8596  156.0184 H   0  0  0  0  0  0  0  0  0  0  0  0
  129.4261  132.6743  153.8694 H   0  0  0  0  0  0  0  0  0  0  0  0
  130.8885  128.4051  154.0816 H   0  0  0  0  0  0  0  0  0  0  0  0
  130.7449  127.2214  151.9298 H   0  0  0  0  0  0  0  0  0  0  0  0
  130.4180  128.4867  149.8445 H   0  0  0  0  0  0  0  0  0  0  0  0
  130.2233  130.9378  149.9011 H   0  0  0  0  0  0  0  0  0  0  0  0
  130.3547  132.1374  152.0448 H   0  0  0  0  0  0  0  0  0  0  0  0
  132.0024  129.6132  155.4069 H   0  0  0  0  0  0  0  0  0  0  0  0
  132.1366  130.8034  157.5524 H   0  0  0  0  0  0  0  0  0  0  0  0
  133.9322  137.1219  163.4631 H   0  0  0  0  0  0  0  0  0  0  0  0
  132.3423  136.7459  164.1672 H   0  0  0  0  0  0  0  0  0  0  0  0
  134.3277  135.8179  165.4540 H   0  0  0  0  0  0  0  0  0  0  0  0
  133.1151  134.6090  164.9738 H   0  0  0  0  0  0  0  0  0  0  0  0
  1  2  1  0
  1 31  1  0
  1 32  1  0
  1 33  1  0
  2 30  1  0
  2  3  2  0
  3  4  1  0
  3 34  1  0
  4  5  2  0
  4 35  1  0
  5  6  1  0
  5 29  1  0
  6  7  1  1
  6  8  1  0
  6  9  1  0
  8 36  1  0
  8 37  1  0
  8 38  1  0
  9 39  1  0
 10  9  1  0
 10 27  2  0
 10 11  1  0
 11 12  1  0
 11 13  1  0
 13 14  2  0
 13 40  1  0
 14 15  1  0
 14 27  1  0
 15 26  1  0
 15 16  2  0
 16 17  1  0
 16 41  1  0
 17 18  2  0
 17 42  1  0
 18 19  1  0
 18 25  1  0
 19 24  1  0
 19 20  2  0
 20 21  1  0
 20 43  1  0
 21 22  2  0
 21 44  1  0
 22 23  1  0
 22 45  1  0
 23 24  2  0
 23 46  1  0
 24 47  1  0
 25 26  2  0
 25 48  1  0
 26 49  1  0
 27 28  1  0
 29 30  1  0
 29 50  1  0
 29 51  1  0
 30 52  1  0
 30 53  1  0
M  CHG  1  27   1
M  END
>  <DOCK_score>  (1) 
-56.571884

>  <SMILES>  (1) 
CC1=CC=C([C@@H](C)Nc2[nH]cc(-c3ccc(-c4ccccc4)cc3)[nH+]2)CC1

$$$$
