CCc1ccc(-c2c[nH]c(N[C@H](CO)c3ccccc3C)[nH+]2)cc1
     RDKit          3D

 48 50  0  0  1  0  0  0  0  0999 V2000
  130.5256  128.5264  151.9917 C   0  0  0  0  0  0  0  0  0  0  0  0
  131.6111  129.5557  152.3123 C   0  0  0  0  0  0  0  0  0  0  0  0
  131.2091  130.3471  153.5301 C   0  0  0  0  0  0  0  0  0  0  0  0
  131.5777  129.9088  154.7888 C   0  0  0  0  0  0  0  0  0  0  0  0
  131.2173  130.6324  155.9074 C   0  0  0  0  0  0  0  0  0  0  0  0
  130.4707  131.8009  155.7675 C   0  0  0  0  0  0  0  0  0  0  0  0
  130.0756  132.5800  156.9663 C   0  0  0  0  0  0  0  0  0  0  0  0
  129.3211  132.1284  157.9986 C   0  0  0  0  0  0  0  0  0  0  0  0
  129.1987  133.1683  158.8878 N   0  0  0  0  0  0  0  0  0  0  0  0
  128.7140  133.1519  159.7278 H   0  0  0  0  0  0  0  0  0  0  0  0
  129.8828  134.2259  158.3725 C   0  0  0  0  0  0  0  0  0  0  0  0
  130.0061  135.4717  158.9635 N   0  0  0  0  0  0  0  0  0  0  0  0
  128.9372  135.9828  159.8251 C   0  0  2  0  0  0  0  0  0  0  0  0
  128.7938  135.3051  160.6667 H   0  0  0  0  0  0  0  0  0  0  0  0
  127.6383  136.0813  159.0226 C   0  0  0  0  0  0  0  0  0  0  0  0
  127.0340  134.7894  158.9339 O   0  0  0  0  0  0  0  0  0  0  0  0
  129.3154  137.3483  160.3385 C   0  0  0  0  0  0  0  0  0  0  0  0
  130.1202  138.1747  159.5765 C   0  0  0  0  0  0  0  0  0  0  0  0
  130.4667  139.4272  160.0471 C   0  0  0  0  0  0  0  0  0  0  0  0
  130.0088  139.8535  161.2801 C   0  0  0  0  0  0  0  0  0  0  0  0
  129.2038  139.0275  162.0416 C   0  0  0  0  0  0  0  0  0  0  0  0
  128.8530  137.7767  161.5685 C   0  0  0  0  0  0  0  0  0  0  0  0
  127.9705  136.8783  162.3963 C   0  0  0  0  0  0  0  0  0  0  0  0
  130.4102  133.8687  157.2270 N   0  0  0  0  0  0  0  0  0  0  0  0
  130.9514  134.4360  156.6557 H   0  0  0  0  0  0  0  0  0  0  0  0
  130.0972  132.2351  154.4968 C   0  0  0  0  0  0  0  0  0  0  0  0
  130.4680  131.5066  153.3849 C   0  0  0  0  0  0  0  0  0  0  0  0
  130.4036  127.8518  152.8392 H   0  0  0  0  0  0  0  0  0  0  0  0
  129.5838  129.0395  151.7972 H   0  0  0  0  0  0  0  0  0  0  0  0
  130.8162  127.9541  151.1108 H   0  0  0  0  0  0  0  0  0  0  0  0
  132.5526  129.0432  152.5062 H   0  0  0  0  0  0  0  0  0  0  0  0
  131.7328  130.2308  151.4643 H   0  0  0  0  0  0  0  0  0  0  0  0
  132.1521  129.0006  154.8964 H   0  0  0  0  0  0  0  0  0  0  0  0
  131.5097  130.2916  156.8896 H   0  0  0  0  0  0  0  0  0  0  0  0
  128.8971  131.1405  158.1017 H   0  0  0  0  0  0  0  0  0  0  0  0
  130.8004  136.0061  158.8071 H   0  0  0  0  0  0  0  0  0  0  0  0
  126.9547  136.7688  159.5205 H   0  0  0  0  0  0  0  0  0  0  0  0
  127.8576  136.4493  158.0203 H   0  0  0  0  0  0  0  0  0  0  0  0
  126.8113  134.3997  159.7904 H   0  0  0  0  0  0  0  0  0  0  0  0
  130.4780  137.8417  158.6134 H   0  0  0  0  0  0  0  0  0  0  0  0
  131.0954  140.0728  159.4520 H   0  0  0  0  0  0  0  0  0  0  0  0
  130.2797  140.8321  161.6480 H   0  0  0  0  0  0  0  0  0  0  0  0
  128.8457  139.3606  163.0045 H   0  0  0  0  0  0  0  0  0  0  0  0
  128.5892  136.2613  163.0479 H   0  0  0  0  0  0  0  0  0  0  0  0
  127.2990  137.4866  163.0021 H   0  0  0  0  0  0  0  0  0  0  0  0
  127.3849  136.2369  161.7375 H   0  0  0  0  0  0  0  0  0  0  0  0
  129.5184  133.1398  154.3825 H   0  0  0  0  0  0  0  0  0  0  0  0
  130.1788  131.8419  152.3998 H   0  0  0  0  0  0  0  0  0  0  0  0
  1  2  1  0
  1 28  1  0
  1 29  1  0
  1 30  1  0
  2  3  1  0
  2 31  1  0
  2 32  1  0
  3 27  2  0
  3  4  1  0
  4  5  2  0
  4 33  1  0
  5  6  1  0
  5 34  1  0
  6  7  1  0
  6 26  2  0
  7 24  1  0
  7  8  2  0
  8  9  1  0
  8 35  1  0
  9 10  1  0
  9 11  1  0
 11 12  1  0
 11 24  2  0
 12 13  1  0
 12 36  1  0
 13 14  1  1
 13 15  1  0
 13 17  1  0
 15 16  1  0
 15 37  1  0
 15 38  1  0
 16 39  1  0
 17 22  1  0
 17 18  2  0
 18 19  1  0
 18 40  1  0
 19 20  2  0
 19 41  1  0
 20 21  1  0
 20 42  1  0
 21 22  2  0
 21 43  1  0
 22 23  1  0
 23 44  1  0
 23 45  1  0
 23 46  1  0
 24 25  1  0
 26 27  1  0
 26 47  1  0
 27 48  1  0
M  CHG  1  24   1
M  END
>  <DOCK_score>  (1) 
-56.382271

>  <SMILES>  (1) 
CCc1ccc(-c2c[nH]c(N[C@H](CO)c3ccccc3C)[nH+]2)cc1

$$$$
