O=C1CC[C@H](NC(N[C@H]2C[C@@H](O)C2)=[NH+][C@H]2COc3ccccc3C2)CN1
     RDKit          3D

 53 56  0  0  1  0  0  0  0  0999 V2000
  123.8549  133.6379  161.5546 O   0  0  0  0  0  0  0  0  0  0  0  0
  125.0144  133.8905  161.3041 C   0  0  0  0  0  0  0  0  0  0  0  0
  125.8743  132.7960  160.7400 C   0  0  0  0  0  0  0  0  0  0  0  0
  127.3524  133.1588  160.9028 C   0  0  0  0  0  0  0  0  0  0  0  0
  127.5589  134.5908  160.3946 C   0  0  2  0  0  0  0  0  0  0  0  0
  127.1509  134.6841  159.3882 H   0  0  0  0  0  0  0  0  0  0  0  0
  128.9898  134.9043  160.3758 N   0  0  0  0  0  0  0  0  0  0  0  0
  129.7357  134.6445  159.2507 C   0  0  0  0  0  0  0  0  0  0  0  0
  129.1389  134.0904  158.1430 N   0  0  0  0  0  0  0  0  0  0  0  0
  129.9147  133.2305  157.2459 C   0  0  1  0  0  0  0  0  0  0  0  0
  130.4011  133.7853  156.4436 H   0  0  0  0  0  0  0  0  0  0  0  0
  130.8545  132.2609  157.9819 C   0  0  0  0  0  0  0  0  0  0  0  0
  130.4534  131.2045  156.9388 C   0  0  1  0  0  0  0  0  0  0  0  0
  131.0866  131.2045  156.0517 H   0  0  0  0  0  0  0  0  0  0  0  0
  130.2665  129.8990  157.4891 O   0  0  0  0  0  0  0  0  0  0  0  0
  129.1432  131.9927  156.7590 C   0  0  0  0  0  0  0  0  0  0  0  0
  131.0088  134.9235  159.2339 N   0  0  0  0  0  0  0  0  0  0  0  0
  131.4420  135.1630  158.3996 H   0  0  0  0  0  0  0  0  0  0  0  0
  131.7855  134.8755  160.4751 C   0  0  1  0  0  0  0  0  0  0  0  0
  131.1376  134.5903  161.3040 H   0  0  0  0  0  0  0  0  0  0  0  0
  132.9235  133.8564  160.3339 C   0  0  0  0  0  0  0  0  0  0  0  0
  133.5977  133.7558  161.5890 O   0  0  0  0  0  0  0  0  0  0  0  0
  133.9718  134.9083  162.2032 C   0  0  0  0  0  0  0  0  0  0  0  0
  134.9250  134.8425  163.2147 C   0  0  0  0  0  0  0  0  0  0  0  0
  135.3274  135.9907  163.8653 C   0  0  0  0  0  0  0  0  0  0  0  0
  134.7822  137.2116  163.5125 C   0  0  0  0  0  0  0  0  0  0  0  0
  133.8370  137.2808  162.5078 C   0  0  0  0  0  0  0  0  0  0  0  0
  133.4308  136.1318  161.8498 C   0  0  0  0  0  0  0  0  0  0  0  0
  132.4034  136.2491  160.7525 C   0  0  0  0  0  0  0  0  0  0  0  0
  126.8350  135.5538  161.3365 C   0  0  0  0  0  0  0  0  0  0  0  0
  125.4577  135.1249  161.5449 N   0  0  0  0  0  0  0  0  0  0  0  0
  125.6477  132.6667  159.6817 H   0  0  0  0  0  0  0  0  0  0  0  0
  125.6694  131.8654  161.2693 H   0  0  0  0  0  0  0  0  0  0  0  0
  127.9654  132.4709  160.3206 H   0  0  0  0  0  0  0  0  0  0  0  0
  127.6312  133.0990  161.9548 H   0  0  0  0  0  0  0  0  0  0  0  0
  129.4109  135.2951  161.1574 H   0  0  0  0  0  0  0  0  0  0  0  0
  128.2041  134.2688  157.9556 H   0  0  0  0  0  0  0  0  0  0  0  0
  131.9048  132.5478  157.9312 H   0  0  0  0  0  0  0  0  0  0  0  0
  130.5293  132.0222  158.9945 H   0  0  0  0  0  0  0  0  0  0  0  0
  130.0141  129.2302  156.8379 H   0  0  0  0  0  0  0  0  0  0  0  0
  128.3486  131.6792  157.4361 H   0  0  0  0  0  0  0  0  0  0  0  0
  128.8138  132.0633  155.7223 H   0  0  0  0  0  0  0  0  0  0  0  0
  133.6226  134.1907  159.5674 H   0  0  0  0  0  0  0  0  0  0  0  0
  132.5138  132.8846  160.0585 H   0  0  0  0  0  0  0  0  0  0  0  0
  135.3513  133.8895  163.4916 H   0  0  0  0  0  0  0  0  0  0  0  0
  136.0674  135.9360  164.6501 H   0  0  0  0  0  0  0  0  0  0  0  0
  135.0951  138.1106  164.0226 H   0  0  0  0  0  0  0  0  0  0  0  0
  133.4130  138.2355  162.2337 H   0  0  0  0  0  0  0  0  0  0  0  0
  131.6213  136.9430  161.0606 H   0  0  0  0  0  0  0  0  0  0  0  0
  132.8816  136.6205  159.8461 H   0  0  0  0  0  0  0  0  0  0  0  0
  127.3536  135.5782  162.2950 H   0  0  0  0  0  0  0  0  0  0  0  0
  126.8392  136.5536  160.9026 H   0  0  0  0  0  0  0  0  0  0  0  0
  124.8238  135.7783  161.8795 H   0  0  0  0  0  0  0  0  0  0  0  0
  1  2  2  0
  2 31  1  0
  2  3  1  0
  3  4  1  0
  3 32  1  0
  3 33  1  0
  4  5  1  0
  4 34  1  0
  4 35  1  0
  5  6  1  6
  5  7  1  0
  5 30  1  0
  7 36  1  0
  8  7  1  0
  8  9  1  0
  8 17  2  0
  9 10  1  0
  9 37  1  0
 10 11  1  6
 10 16  1  0
 10 12  1  0
 12 13  1  0
 12 38  1  0
 12 39  1  0
 13 14  1  6
 13 15  1  0
 13 16  1  0
 15 40  1  0
 16 41  1  0
 16 42  1  0
 17 18  1  0
 17 19  1  0
 19 20  1  1
 19 29  1  0
 19 21  1  0
 21 22  1  0
 21 43  1  0
 21 44  1  0
 22 23  1  0
 23 28  2  0
 23 24  1  0
 24 25  2  0
 24 45  1  0
 25 26  1  0
 25 46  1  0
 26 27  2  0
 26 47  1  0
 27 28  1  0
 27 48  1  0
 28 29  1  0
 29 49  1  0
 29 50  1  0
 30 31  1  0
 30 51  1  0
 30 52  1  0
 31 53  1  0
M  CHG  1  17   1
M  END
>  <DOCK_score>  (1) 
-47.442471

>  <SMILES>  (1) 
O=C1CC[C@H](NC(N[C@H]2C[C@@H](O)C2)=[NH+][C@H]2COc3ccccc3C2)CN1

$$$$
