CC1=C(C)[C@](O)(c2ccc(Sc3ccccc3)c(Nc3[nH]cc(C)[nH+]3)c2)C=CC1=O
     RDKit          3D

 54 57  0  0  1  0  0  0  0  0999 V2000
  127.2458  135.7323  166.7408 C   0  0  0  0  0  0  0  0  0  0  0  0
  127.5374  136.7085  165.6305 C   0  0  0  0  0  0  0  0  0  0  0  0
  127.5385  136.3043  164.3672 C   0  0  0  0  0  0  0  0  0  0  0  0
  127.2283  134.8589  164.0749 C   0  0  0  0  0  0  0  0  0  0  0  0
  127.8340  137.2170  163.2192 C   0  0  2  0  0  0  0  0  0  0  0  0
  126.9090  136.9439  162.1646 O   0  0  0  0  0  0  0  0  0  0  0  0
  129.2294  136.9374  162.7238 C   0  0  0  0  0  0  0  0  0  0  0  0
  130.3073  137.0929  163.5760 C   0  0  0  0  0  0  0  0  0  0  0  0
  131.5903  136.8389  163.1283 C   0  0  0  0  0  0  0  0  0  0  0  0
  131.7992  136.4248  161.8205 C   0  0  0  0  0  0  0  0  0  0  0  0
  133.4330  136.0987  161.2470 S   0  0  0  0  0  0  0  0  0  0  0  0
  133.9539  137.6623  160.6241 C   0  0  0  0  0  0  0  0  0  0  0  0
  134.0074  138.7656  161.4677 C   0  0  0  0  0  0  0  0  0  0  0  0
  134.4212  139.9881  160.9773 C   0  0  0  0  0  0  0  0  0  0  0  0
  134.7722  140.1182  159.6459 C   0  0  0  0  0  0  0  0  0  0  0  0
  134.7149  139.0239  158.8020 C   0  0  0  0  0  0  0  0  0  0  0  0
  134.3071  137.7968  159.2867 C   0  0  0  0  0  0  0  0  0  0  0  0
  130.7112  136.2669  160.9611 C   0  0  0  0  0  0  0  0  0  0  0  0
  130.9146  135.8498  159.6401 N   0  0  0  0  0  0  0  0  0  0  0  0
  130.9088  134.4992  159.3314 C   0  0  0  0  0  0  0  0  0  0  0  0
  130.7118  133.4821  160.2136 N   0  0  0  0  0  0  0  0  0  0  0  0
  130.5506  133.5677  161.1662 H   0  0  0  0  0  0  0  0  0  0  0  0
  130.7841  132.3088  159.4977 C   0  0  0  0  0  0  0  0  0  0  0  0
  131.0200  132.6445  158.2178 C   0  0  0  0  0  0  0  0  0  0  0  0
  131.1773  131.6830  157.0682 C   0  0  0  0  0  0  0  0  0  0  0  0
  131.0867  133.9840  158.1378 N   0  0  0  0  0  0  0  0  0  0  0  0
  131.2438  134.4905  157.3256 H   0  0  0  0  0  0  0  0  0  0  0  0
  129.4285  136.5299  161.4177 C   0  0  0  0  0  0  0  0  0  0  0  0
  127.7337  138.6642  163.5849 C   0  0  0  0  0  0  0  0  0  0  0  0
  127.7337  139.0975  164.8364 C   0  0  0  0  0  0  0  0  0  0  0  0
  127.8245  138.1220  165.9389 C   0  0  0  0  0  0  0  0  0  0  0  0
  128.1266  138.4715  167.0647 O   0  0  0  0  0  0  0  0  0  0  0  0
  128.1825  135.3272  167.1238 H   0  0  0  0  0  0  0  0  0  0  0  0
  126.7157  136.2435  167.5444 H   0  0  0  0  0  0  0  0  0  0  0  0
  126.6285  134.9198  166.3576 H   0  0  0  0  0  0  0  0  0  0  0  0
  127.2076  134.7026  162.9963 H   0  0  0  0  0  0  0  0  0  0  0  0
  127.9962  134.2254  164.5190 H   0  0  0  0  0  0  0  0  0  0  0  0
  126.2569  134.6030  164.4978 H   0  0  0  0  0  0  0  0  0  0  0  0
  125.9847  137.0991  162.4022 H   0  0  0  0  0  0  0  0  0  0  0  0
  130.1468  137.4158  164.5940 H   0  0  0  0  0  0  0  0  0  0  0  0
  132.4298  136.9619  163.7964 H   0  0  0  0  0  0  0  0  0  0  0  0
  133.7294  138.6657  162.5066 H   0  0  0  0  0  0  0  0  0  0  0  0
  134.4672  140.8448  161.6333 H   0  0  0  0  0  0  0  0  0  0  0  0
  135.0916  141.0766  159.2640 H   0  0  0  0  0  0  0  0  0  0  0  0
  134.9897  139.1289  157.7629 H   0  0  0  0  0  0  0  0  0  0  0  0
  134.2622  136.9428  158.6271 H   0  0  0  0  0  0  0  0  0  0  0  0
  131.0555  136.5066  158.9404 H   0  0  0  0  0  0  0  0  0  0  0  0
  130.6723  131.3087  159.8899 H   0  0  0  0  0  0  0  0  0  0  0  0
  130.2036  131.4952  156.6157 H   0  0  0  0  0  0  0  0  0  0  0  0
  131.8470  132.1134  156.3236 H   0  0  0  0  0  0  0  0  0  0  0  0
  131.5951  130.7450  157.4336 H   0  0  0  0  0  0  0  0  0  0  0  0
  128.5844  136.4130  160.7541 H   0  0  0  0  0  0  0  0  0  0  0  0
  127.6572  139.3922  162.7908 H   0  0  0  0  0  0  0  0  0  0  0  0
  127.6682  140.1545  165.0482 H   0  0  0  0  0  0  0  0  0  0  0  0
  1  2  1  0
  1 33  1  0
  1 34  1  0
  1 35  1  0
  2 31  1  0
  2  3  2  0
  3  4  1  0
  3  5  1  0
  4 36  1  0
  4 37  1  0
  4 38  1  0
  5  6  1  6
  5  7  1  0
  5 29  1  0
  6 39  1  0
  7 28  1  0
  7  8  2  0
  8  9  1  0
  8 40  1  0
  9 10  2  0
  9 41  1  0
 10 11  1  0
 10 18  1  0
 11 12  1  0
 12 17  1  0
 12 13  2  0
 13 14  1  0
 13 42  1  0
 14 15  2  0
 14 43  1  0
 15 16  1  0
 15 44  1  0
 16 17  2  0
 16 45  1  0
 17 46  1  0
 18 19  1  0
 18 28  2  0
 19 47  1  0
 20 19  1  0
 20 26  2  0
 20 21  1  0
 21 22  1  0
 21 23  1  0
 23 24  2  0
 23 48  1  0
 24 25  1  0
 24 26  1  0
 25 49  1  0
 25 50  1  0
 25 51  1  0
 26 27  1  0
 28 52  1  0
 29 30  2  0
 29 53  1  0
 30 31  1  0
 30 54  1  0
 31 32  2  0
M  CHG  1  26   1
M  END
>  <DOCK_score>  (1) 
-47.964725

>  <SMILES>  (1) 
CC1=C(C)[C@](O)(c2ccc(Sc3ccccc3)c(Nc3[nH]cc(C)[nH+]3)c2)C=CC1=O

$$$$
