O=C1CCC(NC(NC2CC2)=[NH+][C@H]2COc3ccc(Br)cc3C2)CN1
     RDKit          3D

 49 52  0  0  1  0  0  0  0  0999 V2000
  123.6904  133.9935  161.6373 O   0  0  0  0  0  0  0  0  0  0  0  0
  124.8592  134.1300  161.3435 C   0  0  0  0  0  0  0  0  0  0  0  0
  125.5912  132.9494  160.7729 C   0  0  0  0  0  0  0  0  0  0  0  0
  127.1018  133.1726  160.8784 C   0  0  0  0  0  0  0  0  0  0  0  0
  127.4244  134.5697  160.3346 C   0  0  2  0  0  0  0  0  0  0  0  0
  128.8771  134.7451  160.2610 N   0  0  0  0  0  0  0  0  0  0  0  0
  129.5546  134.3964  159.1167 C   0  0  0  0  0  0  0  0  0  0  0  0
  128.8690  133.8831  158.0414 N   0  0  0  0  0  0  0  0  0  0  0  0
  129.5911  133.5115  156.8220 C   0  0  0  0  0  0  0  0  0  0  0  0
  129.3474  132.1111  156.2556 C   0  0  0  0  0  0  0  0  0  0  0  0
  130.6756  132.4389  156.9423 C   0  0  0  0  0  0  0  0  0  0  0  0
  130.8470  134.5526  159.0513 N   0  0  0  0  0  0  0  0  0  0  0  0
  131.2709  134.7355  158.1982 H   0  0  0  0  0  0  0  0  0  0  0  0
  131.6594  134.4516  160.2663 C   0  0  1  0  0  0  0  0  0  0  0  0
  131.1870  133.7644  160.9680 H   0  0  0  0  0  0  0  0  0  0  0  0
  133.0621  133.9431  159.9094 C   0  0  0  0  0  0  0  0  0  0  0  0
  133.7954  133.7567  161.1207 O   0  0  0  0  0  0  0  0  0  0  0  0
  133.7971  134.7709  162.0247 C   0  0  0  0  0  0  0  0  0  0  0  0
  134.7691  134.7711  163.0203 C   0  0  0  0  0  0  0  0  0  0  0  0
  134.8004  135.7804  163.9604 C   0  0  0  0  0  0  0  0  0  0  0  0
  133.8619  136.7962  163.9147 C   0  0  0  0  0  0  0  0  0  0  0  0
  133.9016  138.1795  165.2035 Br  0  0  0  0  0  0  0  0  0  0  0  0
  132.8959  136.7995  162.9266 C   0  0  0  0  0  0  0  0  0  0  0  0
  132.8586  135.7868  161.9824 C   0  0  0  0  0  0  0  0  0  0  0  0
  131.7985  135.8328  160.9112 C   0  0  0  0  0  0  0  0  0  0  0  0
  126.8288  135.6130  161.2807 C   0  0  0  0  0  0  0  0  0  0  0  0
  125.4254  135.3206  161.5441 N   0  0  0  0  0  0  0  0  0  0  0  0
  125.3159  132.8242  159.7256 H   0  0  0  0  0  0  0  0  0  0  0  0
  125.3183  132.0516  161.3275 H   0  0  0  0  0  0  0  0  0  0  0  0
  127.6261  132.4197  160.2897 H   0  0  0  0  0  0  0  0  0  0  0  0
  127.4110  133.1045  161.9213 H   0  0  0  0  0  0  0  0  0  0  0  0
  126.9916  134.6842  159.3408 H   0  0  0  0  0  0  0  0  0  0  0  0
  129.3608  135.1073  161.0197 H   0  0  0  0  0  0  0  0  0  0  0  0
  127.9072  133.7669  158.0899 H   0  0  0  0  0  0  0  0  0  0  0  0
  129.7594  134.3197  156.1104 H   0  0  0  0  0  0  0  0  0  0  0  0
  128.6499  131.4664  156.7903 H   0  0  0  0  0  0  0  0  0  0  0  0
  129.3557  131.9982  155.1716 H   0  0  0  0  0  0  0  0  0  0  0  0
  131.5573  132.5416  156.3097 H   0  0  0  0  0  0  0  0  0  0  0  0
  130.8522  132.0102  157.9287 H   0  0  0  0  0  0  0  0  0  0  0  0
  133.5697  134.6760  159.2822 H   0  0  0  0  0  0  0  0  0  0  0  0
  132.9851  132.9950  159.3772 H   0  0  0  0  0  0  0  0  0  0  0  0
  135.5014  133.9782  163.0575 H   0  0  0  0  0  0  0  0  0  0  0  0
  135.5565  135.7776  164.7315 H   0  0  0  0  0  0  0  0  0  0  0  0
  132.1640  137.5929  162.8931 H   0  0  0  0  0  0  0  0  0  0  0  0
  132.0779  136.5619  160.1504 H   0  0  0  0  0  0  0  0  0  0  0  0
  130.8475  136.1217  161.3584 H   0  0  0  0  0  0  0  0  0  0  0  0
  127.3811  135.6042  162.2203 H   0  0  0  0  0  0  0  0  0  0  0  0
  126.9121  136.6004  160.8266 H   0  0  0  0  0  0  0  0  0  0  0  0
  124.8683  136.0370  161.8867 H   0  0  0  0  0  0  0  0  0  0  0  0
  1  2  2  0
  2 27  1  0
  2  3  1  0
  3  4  1  0
  3 28  1  0
  3 29  1  0
  4  5  1  0
  4 30  1  0
  4 31  1  0
  5  6  1  0
  5 26  1  0
  5 32  1  6
  6 33  1  0
  7  6  1  0
  7  8  1  0
  7 12  2  0
  8  9  1  0
  8 34  1  0
  9 11  1  0
  9 10  1  0
  9 35  1  0
 10 11  1  0
 10 36  1  0
 10 37  1  0
 11 38  1  0
 11 39  1  0
 12 13  1  0
 12 14  1  0
 14 15  1  1
 14 25  1  0
 14 16  1  0
 16 17  1  0
 16 40  1  0
 16 41  1  0
 17 18  1  0
 18 24  2  0
 18 19  1  0
 19 20  2  0
 19 42  1  0
 20 21  1  0
 20 43  1  0
 21 22  1  0
 21 23  2  0
 23 24  1  0
 23 44  1  0
 24 25  1  0
 25 45  1  0
 25 46  1  0
 26 27  1  0
 26 47  1  0
 26 48  1  0
 27 49  1  0
M  CHG  1  12   1
M  END
>  <DOCK_score>  (1) 
-47.578098

>  <SMILES>  (1) 
O=C1CCC(NC(NC2CC2)=[NH+][C@H]2COc3ccc(Br)cc3C2)CN1

$$$$
