Clc1ccc([C@@H](Cc2ccccc2)Nc2[nH]cc(C3=CCC=CC3)[nH+]2)cc1
     RDKit          3D

 50 53  0  0  1  0  0  0  0  0999 V2000
  130.1690  141.1701  161.4909 Cl  0  0  0  0  0  0  0  0  0  0  0  0
  129.9882  139.5051  161.0340 C   0  0  0  0  0  0  0  0  0  0  0  0
  130.0921  139.1372  159.7042 C   0  0  0  0  0  0  0  0  0  0  0  0
  129.9475  137.8115  159.3410 C   0  0  0  0  0  0  0  0  0  0  0  0
  129.6996  136.8531  160.3059 C   0  0  0  0  0  0  0  0  0  0  0  0
  129.5421  135.4079  159.9092 C   0  0  1  0  0  0  0  0  0  0  0  0
  129.8743  134.7683  160.7269 H   0  0  0  0  0  0  0  0  0  0  0  0
  128.0709  135.1207  159.6024 C   0  0  0  0  0  0  0  0  0  0  0  0
  127.3194  134.9163  160.8925 C   0  0  0  0  0  0  0  0  0  0  0  0
  127.2085  133.6495  161.4345 C   0  0  0  0  0  0  0  0  0  0  0  0
  126.5231  133.4627  162.6205 C   0  0  0  0  0  0  0  0  0  0  0  0
  125.9398  134.5412  163.2589 C   0  0  0  0  0  0  0  0  0  0  0  0
  126.0464  135.8072  162.7141 C   0  0  0  0  0  0  0  0  0  0  0  0
  126.7360  135.9948  161.5309 C   0  0  0  0  0  0  0  0  0  0  0  0
  130.3512  135.1375  158.7182 N   0  0  0  0  0  0  0  0  0  0  0  0
  130.3664  133.8686  158.1653 C   0  0  0  0  0  0  0  0  0  0  0  0
  130.1995  132.7040  158.8499 N   0  0  0  0  0  0  0  0  0  0  0  0
  130.0497  132.6152  159.8041 H   0  0  0  0  0  0  0  0  0  0  0  0
  130.2771  131.6782  157.9405 C   0  0  0  0  0  0  0  0  0  0  0  0
  130.4978  132.2449  156.7257 C   0  0  0  0  0  0  0  0  0  0  0  0
  130.6533  131.5249  155.4452 C   0  0  0  0  0  0  0  0  0  0  0  0
  130.2699  132.1192  154.3359 C   0  0  0  0  0  0  0  0  0  0  0  0
  130.3924  131.4727  152.9886 C   0  0  0  0  0  0  0  0  0  0  0  0
  131.3824  130.3478  153.0151 C   0  0  0  0  0  0  0  0  0  0  0  0
  131.7560  129.7597  154.1096 C   0  0  0  0  0  0  0  0  0  0  0  0
  131.2362  130.1434  155.4621 C   0  0  0  0  0  0  0  0  0  0  0  0
  130.5443  133.5913  156.8969 N   0  0  0  0  0  0  0  0  0  0  0  0
  130.6868  134.2434  156.1931 H   0  0  0  0  0  0  0  0  0  0  0  0
  129.5904  137.2210  161.6342 C   0  0  0  0  0  0  0  0  0  0  0  0
  129.7395  138.5457  161.9992 C   0  0  0  0  0  0  0  0  0  0  0  0
  130.2860  139.8858  158.9503 H   0  0  0  0  0  0  0  0  0  0  0  0
  130.0287  137.5242  158.3031 H   0  0  0  0  0  0  0  0  0  0  0  0
  127.6414  135.9638  159.0613 H   0  0  0  0  0  0  0  0  0  0  0  0
  127.9960  134.2209  158.9918 H   0  0  0  0  0  0  0  0  0  0  0  0
  127.6603  132.8063  160.9334 H   0  0  0  0  0  0  0  0  0  0  0  0
  126.4396  132.4736  163.0458 H   0  0  0  0  0  0  0  0  0  0  0  0
  125.4007  134.3946  164.1831 H   0  0  0  0  0  0  0  0  0  0  0  0
  125.5903  136.6497  163.2127 H   0  0  0  0  0  0  0  0  0  0  0  0
  126.8190  136.9838  161.1051 H   0  0  0  0  0  0  0  0  0  0  0  0
  130.8760  135.8477  158.3169 H   0  0  0  0  0  0  0  0  0  0  0  0
  130.1830  130.6231  158.1508 H   0  0  0  0  0  0  0  0  0  0  0  0
  129.8544  133.1142  154.3976 H   0  0  0  0  0  0  0  0  0  0  0  0
  129.4189  131.0847  152.6886 H   0  0  0  0  0  0  0  0  0  0  0  0
  130.7189  132.2178  152.2632 H   0  0  0  0  0  0  0  0  0  0  0  0
  131.8048  130.0113  152.0797 H   0  0  0  0  0  0  0  0  0  0  0  0
  132.4747  128.9562  154.0432 H   0  0  0  0  0  0  0  0  0  0  0  0
  130.4685  129.4314  155.7649 H   0  0  0  0  0  0  0  0  0  0  0  0
  132.0546  130.1125  156.1813 H   0  0  0  0  0  0  0  0  0  0  0  0
  129.3926  136.4724  162.3871 H   0  0  0  0  0  0  0  0  0  0  0  0
  129.6582  138.8322  163.0373 H   0  0  0  0  0  0  0  0  0  0  0  0
  1  2  1  0
  2 30  2  0
  2  3  1  0
  3  4  2  0
  3 31  1  0
  4  5  1  0
  4 32  1  0
  5  6  1  0
  5 29  2  0
  6  7  1  1
  6  8  1  0
  6 15  1  0
  8  9  1  0
  8 33  1  0
  8 34  1  0
  9 14  1  0
  9 10  2  0
 10 11  1  0
 10 35  1  0
 11 12  2  0
 11 36  1  0
 12 13  1  0
 12 37  1  0
 13 14  2  0
 13 38  1  0
 14 39  1  0
 15 40  1  0
 16 15  1  0
 16 27  2  0
 16 17  1  0
 17 18  1  0
 17 19  1  0
 19 20  2  0
 19 41  1  0
 20 21  1  0
 20 27  1  0
 21 26  1  0
 21 22  2  0
 22 23  1  0
 22 42  1  0
 23 24  1  0
 23 43  1  0
 23 44  1  0
 24 25  2  0
 24 45  1  0
 25 26  1  0
 25 46  1  0
 26 47  1  0
 26 48  1  0
 27 28  1  0
 29 30  1  0
 29 49  1  0
 30 50  1  0
M  CHG  1  27   1
M  END
>  <DOCK_score>  (1) 
-56.794964

>  <SMILES>  (1) 
Clc1ccc([C@@H](Cc2ccccc2)Nc2[nH]cc(C3=CCC=CC3)[nH+]2)cc1

$$$$
