O=C1CC[C@H]([NH+]=C(NC2CCCCCCCCC2)NC2CCOCC2)CN1
     RDKit          3D

 66 68  0  0  1  0  0  0  0  0999 V2000
  123.8093  133.6477  161.4471 O   0  0  0  0  0  0  0  0  0  0  0  0
  124.9688  133.8992  161.1953 C   0  0  0  0  0  0  0  0  0  0  0  0
  125.8240  132.8071  160.6198 C   0  0  0  0  0  0  0  0  0  0  0  0
  127.3031  133.1669  160.7806 C   0  0  0  0  0  0  0  0  0  0  0  0
  127.5095  134.6028  160.2835 C   0  0  2  0  0  0  0  0  0  0  0  0
  127.0956  134.7055  159.2803 H   0  0  0  0  0  0  0  0  0  0  0  0
  128.9407  134.9149  160.2625 N   0  0  0  0  0  0  0  0  0  0  0  0
  129.2854  135.6469  160.7975 H   0  0  0  0  0  0  0  0  0  0  0  0
  129.7508  134.2088  159.5250 C   0  0  0  0  0  0  0  0  0  0  0  0
  131.0940  134.5013  159.5052 N   0  0  0  0  0  0  0  0  0  0  0  0
  131.7348  135.0814  160.6880 C   0  0  0  0  0  0  0  0  0  0  0  0
  133.2209  135.3081  160.4033 C   0  0  0  0  0  0  0  0  0  0  0  0
  133.5722  136.7743  160.6640 C   0  0  0  0  0  0  0  0  0  0  0  0
  134.5555  136.8631  161.8328 C   0  0  0  0  0  0  0  0  0  0  0  0
  133.8943  137.5973  163.0008 C   0  0  0  0  0  0  0  0  0  0  0  0
  133.7420  136.6398  164.1845 C   0  0  0  0  0  0  0  0  0  0  0  0
  132.2559  136.4131  164.4692 C   0  0  0  0  0  0  0  0  0  0  0  0
  131.9046  134.9471  164.2086 C   0  0  0  0  0  0  0  0  0  0  0  0
  130.9213  134.8582  163.0397 C   0  0  0  0  0  0  0  0  0  0  0  0
  131.5826  134.1240  161.8716 C   0  0  0  0  0  0  0  0  0  0  0  0
  129.2621  133.1711  158.7668 N   0  0  0  0  0  0  0  0  0  0  0  0
  130.1098  132.0113  158.4795 C   0  0  0  0  0  0  0  0  0  0  0  0
  130.2764  131.8612  156.9641 C   0  0  0  0  0  0  0  0  0  0  0  0
  131.0973  130.6027  156.6710 C   0  0  0  0  0  0  0  0  0  0  0  0
  130.4462  129.4668  157.2437 O   0  0  0  0  0  0  0  0  0  0  0  0
  130.3052  129.5299  158.6644 C   0  0  0  0  0  0  0  0  0  0  0  0
  129.4525  130.7453  159.0376 C   0  0  0  0  0  0  0  0  0  0  0  0
  126.7898  135.5588  161.2357 C   0  0  0  0  0  0  0  0  0  0  0  0
  125.4127  135.1297  161.4451 N   0  0  0  0  0  0  0  0  0  0  0  0
  125.5937  132.6866  159.5612 H   0  0  0  0  0  0  0  0  0  0  0  0
  125.6197  131.8731  161.1433 H   0  0  0  0  0  0  0  0  0  0  0  0
  127.5854  133.0982  161.8312 H   0  0  0  0  0  0  0  0  0  0  0  0
  127.9135  132.4827  160.1913 H   0  0  0  0  0  0  0  0  0  0  0  0
  131.6173  134.3239  158.7080 H   0  0  0  0  0  0  0  0  0  0  0  0
  131.2614  136.0335  160.9276 H   0  0  0  0  0  0  0  0  0  0  0  0
  133.8172  134.6701  161.0556 H   0  0  0  0  0  0  0  0  0  0  0  0
  133.4330  135.0632  159.3625 H   0  0  0  0  0  0  0  0  0  0  0  0
  132.6654  137.3271  160.9093 H   0  0  0  0  0  0  0  0  0  0  0  0
  134.0287  137.2027  159.7717 H   0  0  0  0  0  0  0  0  0  0  0  0
  135.4456  137.4080  161.5182 H   0  0  0  0  0  0  0  0  0  0  0  0
  134.8371  135.8584  162.1480 H   0  0  0  0  0  0  0  0  0  0  0  0
  132.9114  137.9560  162.6949 H   0  0  0  0  0  0  0  0  0  0  0  0
  134.5144  138.4439  163.2958 H   0  0  0  0  0  0  0  0  0  0  0  0
  134.2188  137.0715  165.0647 H   0  0  0  0  0  0  0  0  0  0  0  0
  134.2154  135.6878  163.9449 H   0  0  0  0  0  0  0  0  0  0  0  0
  131.6596  137.0511  163.8170 H   0  0  0  0  0  0  0  0  0  0  0  0
  132.0439  136.6581  165.5100 H   0  0  0  0  0  0  0  0  0  0  0  0
  131.4481  134.5186  165.1008 H   0  0  0  0  0  0  0  0  0  0  0  0
  132.8115  134.3942  163.9633 H   0  0  0  0  0  0  0  0  0  0  0  0
  130.6397  135.8629  162.7247 H   0  0  0  0  0  0  0  0  0  0  0  0
  130.0312  134.3132  163.3543 H   0  0  0  0  0  0  0  0  0  0  0  0
  130.9624  133.2775  161.5768 H   0  0  0  0  0  0  0  0  0  0  0  0
  132.5653  133.7652  162.1776 H   0  0  0  0  0  0  0  0  0  0  0  0
  128.3563  133.2069  158.4222 H   0  0  0  0  0  0  0  0  0  0  0  0
  131.0865  132.1496  158.9430 H   0  0  0  0  0  0  0  0  0  0  0  0
  129.2956  131.7733  156.4968 H   0  0  0  0  0  0  0  0  0  0  0  0
  130.7935  132.7343  156.5663 H   0  0  0  0  0  0  0  0  0  0  0  0
  132.0919  130.7083  157.1042 H   0  0  0  0  0  0  0  0  0  0  0  0
  131.1827  130.4673  155.5928 H   0  0  0  0  0  0  0  0  0  0  0  0
  131.2895  129.6215  159.1237 H   0  0  0  0  0  0  0  0  0  0  0  0
  129.8200  128.6217  159.0222 H   0  0  0  0  0  0  0  0  0  0  0  0
  129.3804  130.8204  160.1226 H   0  0  0  0  0  0  0  0  0  0  0  0
  128.4546  130.6355  158.6131 H   0  0  0  0  0  0  0  0  0  0  0  0
  127.3117  135.5749  162.1926 H   0  0  0  0  0  0  0  0  0  0  0  0
  126.7906  136.5614  160.8082 H   0  0  0  0  0  0  0  0  0  0  0  0
  124.7807  135.7810  161.7873 H   0  0  0  0  0  0  0  0  0  0  0  0
  1  2  2  0
  2 29  1  0
  2  3  1  0
  3  4  1  0
  3 30  1  0
  3 31  1  0
  4  5  1  0
  4 32  1  0
  4 33  1  0
  5  6  1  6
  5  7  1  0
  5 28  1  0
  7  8  1  0
  9  7  2  0
  9 10  1  0
  9 21  1  0
 10 11  1  0
 10 34  1  0
 11 20  1  0
 11 12  1  0
 11 35  1  0
 12 13  1  0
 12 36  1  0
 12 37  1  0
 13 14  1  0
 13 38  1  0
 13 39  1  0
 14 15  1  0
 14 40  1  0
 14 41  1  0
 15 16  1  0
 15 42  1  0
 15 43  1  0
 16 17  1  0
 16 44  1  0
 16 45  1  0
 17 18  1  0
 17 46  1  0
 17 47  1  0
 18 19  1  0
 18 48  1  0
 18 49  1  0
 19 20  1  0
 19 50  1  0
 19 51  1  0
 20 52  1  0
 20 53  1  0
 21 22  1  0
 21 54  1  0
 22 27  1  0
 22 23  1  0
 22 55  1  0
 23 24  1  0
 23 56  1  0
 23 57  1  0
 24 25  1  0
 24 58  1  0
 24 59  1  0
 25 26  1  0
 26 27  1  0
 26 60  1  0
 26 61  1  0
 27 62  1  0
 27 63  1  0
 28 29  1  0
 28 64  1  0
 28 65  1  0
 29 66  1  0
M  CHG  1   7   1
M  END
>  <DOCK_score>  (1) 
-43.413719

>  <SMILES>  (1) 
O=C1CC[C@H]([NH+]=C(NC2CCCCCCCCC2)NC2CCOCC2)CN1

$$$$
