Cn1cc(CC2=C(c3c(Br)cnn(C)c3=O)CN[NH2+]C2)cn1
     RDKit          3D

 40 42  0  0  0  0  0  0  0  0999 V2000
  130.6393  132.6456  155.7362 C   0  0  0  0  0  0  0  0  0  0  0  0
  130.1612  132.6986  157.1200 N   0  0  0  0  0  0  0  0  0  0  0  0
  130.7146  133.4098  158.1245 C   0  0  0  0  0  0  0  0  0  0  0  0
  129.9810  133.1881  159.2396 C   0  0  0  0  0  0  0  0  0  0  0  0
  130.2380  133.7790  160.6020 C   0  0  0  0  0  0  0  0  0  0  0  0
  130.8941  135.1269  160.4492 C   0  0  0  0  0  0  0  0  0  0  0  0
  130.1313  136.2003  160.3624 C   0  0  0  0  0  0  0  0  0  0  0  0
  128.6663  136.0419  160.4224 C   0  0  0  0  0  0  0  0  0  0  0  0
  127.9124  135.8429  159.2692 C   0  0  0  0  0  0  0  0  0  0  0  0
  128.7359  135.7677  157.5686 Br  0  0  0  0  0  0  0  0  0  0  0  0
  126.5243  135.7003  159.4063 C   0  0  0  0  0  0  0  0  0  0  0  0
  125.9647  135.7540  160.5835 N   0  0  0  0  0  0  0  0  0  0  0  0
  126.6297  135.9359  161.6651 N   0  0  0  0  0  0  0  0  0  0  0  0
  125.9124  135.9812  162.9416 C   0  0  0  0  0  0  0  0  0  0  0  0
  127.9681  136.0861  161.6619 C   0  0  0  0  0  0  0  0  0  0  0  0
  128.5740  136.2528  162.7072 O   0  0  0  0  0  0  0  0  0  0  0  0
  130.7086  137.5794  160.1981 C   0  0  0  0  0  0  0  0  0  0  0  0
  132.1364  137.5626  160.5515 N   0  0  0  0  0  0  0  0  0  0  0  0
  132.8158  136.4907  159.8371 N   0  0  0  0  0  0  0  0  0  0  0  0
  133.8141  136.5950  159.9411 H   0  0  0  0  0  0  0  0  0  0  0  0
  132.5708  136.5282  158.8590 H   0  0  0  0  0  0  0  0  0  0  0  0
  132.3947  135.2017  160.4006 C   0  0  0  0  0  0  0  0  0  0  0  0
  128.9385  132.3184  158.9032 C   0  0  0  0  0  0  0  0  0  0  0  0
  129.0455  132.0243  157.6328 N   0  0  0  0  0  0  0  0  0  0  0  0
  130.1629  133.4362  155.1566 H   0  0  0  0  0  0  0  0  0  0  0  0
  131.7204  132.7839  155.7197 H   0  0  0  0  0  0  0  0  0  0  0  0
  130.3904  131.6769  155.3026 H   0  0  0  0  0  0  0  0  0  0  0  0
  131.5880  134.0408  158.0518 H   0  0  0  0  0  0  0  0  0  0  0  0
  130.8943  133.1174  161.1671 H   0  0  0  0  0  0  0  0  0  0  0  0
  129.2926  133.8931  161.1326 H   0  0  0  0  0  0  0  0  0  0  0  0
  125.9130  135.5444  158.5296 H   0  0  0  0  0  0  0  0  0  0  0  0
  125.6201  137.0086  163.1579 H   0  0  0  0  0  0  0  0  0  0  0  0
  125.0220  135.3555  162.8803 H   0  0  0  0  0  0  0  0  0  0  0  0
  126.5612  135.6130  163.7362 H   0  0  0  0  0  0  0  0  0  0  0  0
  130.5915  137.9005  159.1629 H   0  0  0  0  0  0  0  0  0  0  0  0
  130.1826  138.2732  160.8539 H   0  0  0  0  0  0  0  0  0  0  0  0
  132.5663  138.4549  160.3588 H   0  0  0  0  0  0  0  0  0  0  0  0
  132.7948  135.1001  161.4094 H   0  0  0  0  0  0  0  0  0  0  0  0
  132.7771  134.3927  159.7783 H   0  0  0  0  0  0  0  0  0  0  0  0
  128.1766  131.9531  159.5759 H   0  0  0  0  0  0  0  0  0  0  0  0
  1  2  1  0
  1 25  1  0
  1 26  1  0
  1 27  1  0
  2 24  1  0
  2  3  1  0
  3  4  2  0
  3 28  1  0
  4  5  1  0
  4 23  1  0
  5  6  1  0
  5 29  1  0
  5 30  1  0
  6 22  1  0
  6  7  2  0
  7  8  1  0
  7 17  1  0
  8 15  1  0
  8  9  2  0
  9 10  1  0
  9 11  1  0
 11 12  2  0
 11 31  1  0
 12 13  1  0
 13 14  1  0
 13 15  1  0
 14 32  1  0
 14 33  1  0
 14 34  1  0
 15 16  2  0
 17 18  1  0
 17 35  1  0
 17 36  1  0
 18 19  1  0
 18 37  1  0
 19 20  1  0
 19 21  1  0
 19 22  1  0
 22 38  1  0
 22 39  1  0
 23 24  2  0
 23 40  1  0
M  CHG  1  19   1
M  END
>  <DOCK_score>  (1) 
-42.687347

>  <SMILES>  (1) 
Cn1cc(CC2=C(c3c(Br)cnn(C)c3=O)CN[NH2+]C2)cn1

$$$$
