Nc1ccc(-c2c[nH]c(NC(c3cccc4ccccc34)[C@H](O)c3ccccc3O)[nH+]2)cc1
     RDKit          3D

 58 62  0  0  1  0  0  0  0  0999 V2000
  130.9104  130.0981  152.6765 N   0  0  0  0  0  0  0  0  0  0  0  0
  130.9203  130.7313  153.9218 C   0  0  0  0  0  0  0  0  0  0  0  0
  130.6361  132.0889  154.0125 C   0  0  0  0  0  0  0  0  0  0  0  0
  130.6455  132.7157  155.2407 C   0  0  0  0  0  0  0  0  0  0  0  0
  130.9403  131.9867  156.3918 C   0  0  0  0  0  0  0  0  0  0  0  0
  130.9511  132.6587  157.7144 C   0  0  0  0  0  0  0  0  0  0  0  0
  130.6528  132.0820  158.9047 C   0  0  0  0  0  0  0  0  0  0  0  0
  130.7932  133.0553  159.8655 N   0  0  0  0  0  0  0  0  0  0  0  0
  130.6515  132.9463  160.8189 H   0  0  0  0  0  0  0  0  0  0  0  0
  131.1645  134.2006  159.2315 C   0  0  0  0  0  0  0  0  0  0  0  0
  131.4061  135.4189  159.8430 N   0  0  0  0  0  0  0  0  0  0  0  0
  130.6923  135.7760  161.0715 C   0  0  2  0  0  0  0  0  0  0  0  0
  129.2092  135.7905  160.8047 C   0  0  0  0  0  0  0  0  0  0  0  0
  128.7398  136.1057  159.5664 C   0  0  0  0  0  0  0  0  0  0  0  0
  127.3722  136.1237  159.3008 C   0  0  0  0  0  0  0  0  0  0  0  0
  126.4655  135.8267  160.2717 C   0  0  0  0  0  0  0  0  0  0  0  0
  126.9123  135.4965  161.5624 C   0  0  0  0  0  0  0  0  0  0  0  0
  126.0067  135.1836  162.5906 C   0  0  0  0  0  0  0  0  0  0  0  0
  126.4763  134.8680  163.8284 C   0  0  0  0  0  0  0  0  0  0  0  0
  127.8444  134.8498  164.0939 C   0  0  0  0  0  0  0  0  0  0  0  0
  128.7507  135.1474  163.1233 C   0  0  0  0  0  0  0  0  0  0  0  0
  128.3037  135.4782  161.8326 C   0  0  0  0  0  0  0  0  0  0  0  0
  131.1403  137.1633  161.5366 C   0  0  2  0  0  0  0  0  0  0  0  0
  130.3918  137.5795  162.2109 H   0  0  0  0  0  0  0  0  0  0  0  0
  131.2896  138.0203  160.4030 O   0  0  0  0  0  0  0  0  0  0  0  0
  132.4586  137.0498  162.2578 C   0  0  0  0  0  0  0  0  0  0  0  0
  132.4840  136.8381  163.6229 C   0  0  0  0  0  0  0  0  0  0  0  0
  133.6931  136.7339  164.2851 C   0  0  0  0  0  0  0  0  0  0  0  0
  134.8798  136.8408  163.5832 C   0  0  0  0  0  0  0  0  0  0  0  0
  134.8598  137.0524  162.2185 C   0  0  0  0  0  0  0  0  0  0  0  0
  133.6476  137.1520  161.5508 C   0  0  0  0  0  0  0  0  0  0  0  0
  133.6253  137.3548  160.2072 O   0  0  0  0  0  0  0  0  0  0  0  0
  131.2612  133.9587  157.9468 N   0  0  0  0  0  0  0  0  0  0  0  0
  131.5140  134.6061  157.2702 H   0  0  0  0  0  0  0  0  0  0  0  0
  131.2306  130.6265  156.2977 C   0  0  0  0  0  0  0  0  0  0  0  0
  131.2142  130.0027  155.0680 C   0  0  0  0  0  0  0  0  0  0  0  0
  130.7056  130.6067  151.8758 H   0  0  0  0  0  0  0  0  0  0  0  0
  131.1094  129.1514  152.6120 H   0  0  0  0  0  0  0  0  0  0  0  0
  130.4077  132.6532  153.1205 H   0  0  0  0  0  0  0  0  0  0  0  0
  130.4244  133.7704  155.3110 H   0  0  0  0  0  0  0  0  0  0  0  0
  130.3645  131.0540  159.0675 H   0  0  0  0  0  0  0  0  0  0  0  0
  132.0479  136.0359  159.4582 H   0  0  0  0  0  0  0  0  0  0  0  0
  130.9148  135.0434  161.8472 H   0  0  0  0  0  0  0  0  0  0  0  0
  129.4381  136.3451  158.7779 H   0  0  0  0  0  0  0  0  0  0  0  0
  127.0261  136.3769  158.3095 H   0  0  0  0  0  0  0  0  0  0  0  0
  125.4087  135.8404  160.0502 H   0  0  0  0  0  0  0  0  0  0  0  0
  124.9438  135.1934  162.3995 H   0  0  0  0  0  0  0  0  0  0  0  0
  125.7783  134.6281  164.6169 H   0  0  0  0  0  0  0  0  0  0  0  0
  128.1905  134.5956  165.0849 H   0  0  0  0  0  0  0  0  0  0  0  0
  129.8078  135.1290  163.3436 H   0  0  0  0  0  0  0  0  0  0  0  0
  130.4784  138.1396  159.8904 H   0  0  0  0  0  0  0  0  0  0  0  0
  131.5584  136.7542  164.1732 H   0  0  0  0  0  0  0  0  0  0  0  0
  133.7107  136.5691  165.3523 H   0  0  0  0  0  0  0  0  0  0  0  0
  135.8232  136.7591  164.1028 H   0  0  0  0  0  0  0  0  0  0  0  0
  135.7870  137.1362  161.6710 H   0  0  0  0  0  0  0  0  0  0  0  0
  134.5020  137.4124  159.8034 H   0  0  0  0  0  0  0  0  0  0  0  0
  131.4640  130.0609  157.1875 H   0  0  0  0  0  0  0  0  0  0  0  0
  131.4347  128.9479  154.9951 H   0  0  0  0  0  0  0  0  0  0  0  0
  1  2  1  0
  1 37  1  0
  1 38  1  0
  2 36  2  0
  2  3  1  0
  3  4  2  0
  3 39  1  0
  4  5  1  0
  4 40  1  0
  5  6  1  0
  5 35  2  0
  6 33  1  0
  6  7  2  0
  7  8  1  0
  7 41  1  0
  8  9  1  0
  8 10  1  0
 10 11  1  0
 10 33  2  0
 11 12  1  0
 11 42  1  0
 12 13  1  0
 12 23  1  0
 12 43  1  1
 13 22  1  0
 13 14  2  0
 14 15  1  0
 14 44  1  0
 15 16  2  0
 15 45  1  0
 16 17  1  0
 16 46  1  0
 17 22  2  0
 17 18  1  0
 18 19  2  0
 18 47  1  0
 19 20  1  0
 19 48  1  0
 20 21  2  0
 20 49  1  0
 21 22  1  0
 21 50  1  0
 23 24  1  1
 23 25  1  0
 23 26  1  0
 25 51  1  0
 26 31  1  0
 26 27  2  0
 27 28  1  0
 27 52  1  0
 28 29  2  0
 28 53  1  0
 29 30  1  0
 29 54  1  0
 30 31  2  0
 30 55  1  0
 31 32  1  0
 32 56  1  0
 33 34  1  0
 35 36  1  0
 35 57  1  0
 36 58  1  0
M  CHG  1  33   1
M  END
>  <DOCK_score>  (1) 
-58.915527

>  <SMILES>  (1) 
Nc1ccc(-c2c[nH]c(NC(c3cccc4ccccc34)[C@H](O)c3ccccc3O)[nH+]2)cc1

$$$$
