c1ccc([C@@H](Nc2[nH]cc(-c3cccnc3)[nH+]2)C2COC3(CCCC3)C2)cc1
     RDKit          3D

 55 59  0  0  1  0  0  0  0  0999 V2000
  125.6109  135.7457  160.1746 C   0  0  0  0  0  0  0  0  0  0  0  0
  126.2776  135.7620  161.3855 C   0  0  0  0  0  0  0  0  0  0  0  0
  127.6432  135.9736  161.4198 C   0  0  0  0  0  0  0  0  0  0  0  0
  128.3422  136.1681  160.2432 C   0  0  0  0  0  0  0  0  0  0  0  0
  129.8310  136.3987  160.2806 C   0  0  1  0  0  0  0  0  0  0  0  0
  130.2580  135.8780  161.1377 H   0  0  0  0  0  0  0  0  0  0  0  0
  130.4355  135.8874  159.0479 N   0  0  0  0  0  0  0  0  0  0  0  0
  130.3127  134.5479  158.7206 C   0  0  0  0  0  0  0  0  0  0  0  0
  129.6637  133.6075  159.4600 N   0  0  0  0  0  0  0  0  0  0  0  0
  129.2078  133.7539  160.3036 H   0  0  0  0  0  0  0  0  0  0  0  0
  129.7713  132.4131  158.7898 C   0  0  0  0  0  0  0  0  0  0  0  0
  130.4890  132.6562  157.6653 C   0  0  0  0  0  0  0  0  0  0  0  0
  130.8602  131.6570  156.6336 C   0  0  0  0  0  0  0  0  0  0  0  0
  131.0163  132.0392  155.2981 C   0  0  0  0  0  0  0  0  0  0  0  0
  131.3678  131.0699  154.3747 C   0  0  0  0  0  0  0  0  0  0  0  0
  131.5417  129.7644  154.7974 C   0  0  0  0  0  0  0  0  0  0  0  0
  131.3826  129.4326  156.0639 N   0  0  0  0  0  0  0  0  0  0  0  0
  131.0533  130.3210  156.9792 C   0  0  0  0  0  0  0  0  0  0  0  0
  130.8071  133.9750  157.6505 N   0  0  0  0  0  0  0  0  0  0  0  0
  131.3184  134.4226  156.9583 H   0  0  0  0  0  0  0  0  0  0  0  0
  130.1119  137.8978  160.4027 C   0  0  2  0  0  0  0  0  0  0  0  0
  131.6103  138.2071  160.1546 C   0  0  0  0  0  0  0  0  0  0  0  0
  131.8656  139.4281  160.8703 O   0  0  0  0  0  0  0  0  0  0  0  0
  130.9189  139.5738  161.9279 C   0  0  0  0  0  0  0  0  0  0  0  0
  131.6296  139.6078  163.2911 C   0  0  0  0  0  0  0  0  0  0  0  0
  131.7447  141.1184  163.6189 C   0  0  0  0  0  0  0  0  0  0  0  0
  130.4066  141.6886  163.0852 C   0  0  0  0  0  0  0  0  0  0  0  0
  130.1444  140.8905  161.7898 C   0  0  0  0  0  0  0  0  0  0  0  0
  129.9489  138.3802  161.8712 C   0  0  0  0  0  0  0  0  0  0  0  0
  127.6748  136.1566  159.0327 C   0  0  0  0  0  0  0  0  0  0  0  0
  126.3099  135.9407  158.9980 C   0  0  0  0  0  0  0  0  0  0  0  0
  124.5440  135.5804  160.1478 H   0  0  0  0  0  0  0  0  0  0  0  0
  125.7315  135.6096  162.3046 H   0  0  0  0  0  0  0  0  0  0  0  0
  128.1640  135.9865  162.3658 H   0  0  0  0  0  0  0  0  0  0  0  0
  130.9218  136.4875  158.4610 H   0  0  0  0  0  0  0  0  0  0  0  0
  129.3653  131.4620  159.1010 H   0  0  0  0  0  0  0  0  0  0  0  0
  130.8701  133.0654  154.9951 H   0  0  0  0  0  0  0  0  0  0  0  0
  131.5006  131.3294  153.3349 H   0  0  0  0  0  0  0  0  0  0  0  0
  131.8123  129.0048  154.0788 H   0  0  0  0  0  0  0  0  0  0  0  0
  130.9324  130.0111  158.0067 H   0  0  0  0  0  0  0  0  0  0  0  0
  129.4758  138.4708  159.7282 H   0  0  0  0  0  0  0  0  0  0  0  0
  132.2325  137.4022  160.5459 H   0  0  0  0  0  0  0  0  0  0  0  0
  131.7965  138.3468  159.0897 H   0  0  0  0  0  0  0  0  0  0  0  0
  131.0317  139.0976  164.0462 H   0  0  0  0  0  0  0  0  0  0  0  0
  132.6191  139.1566  163.2171 H   0  0  0  0  0  0  0  0  0  0  0  0
  132.5904  141.5637  163.0949 H   0  0  0  0  0  0  0  0  0  0  0  0
  131.8295  141.2747  164.6941 H   0  0  0  0  0  0  0  0  0  0  0  0
  130.5057  142.7515  162.8650 H   0  0  0  0  0  0  0  0  0  0  0  0
  129.6060  141.5205  163.8055 H   0  0  0  0  0  0  0  0  0  0  0  0
  130.5069  141.4488  160.9267 H   0  0  0  0  0  0  0  0  0  0  0  0
  129.0788  140.6882  161.6833 H   0  0  0  0  0  0  0  0  0  0  0  0
  128.9252  138.7014  162.0636 H   0  0  0  0  0  0  0  0  0  0  0  0
  130.2485  137.6011  162.5720 H   0  0  0  0  0  0  0  0  0  0  0  0
  128.2202  136.3130  158.1137 H   0  0  0  0  0  0  0  0  0  0  0  0
  125.7890  135.9277  158.0520 H   0  0  0  0  0  0  0  0  0  0  0  0
  1 31  2  0
  1  2  1  0
  1 32  1  0
  2  3  2  0
  2 33  1  0
  3  4  1  0
  3 34  1  0
  4  5  1  0
  4 30  2  0
  5  6  1  1
  5  7  1  0
  5 21  1  0
  7 35  1  0
  8  7  1  0
  8 19  2  0
  8  9  1  0
  9 10  1  0
  9 11  1  0
 11 12  2  0
 11 36  1  0
 12 13  1  0
 12 19  1  0
 13 18  1  0
 13 14  2  0
 14 15  1  0
 14 37  1  0
 15 16  2  0
 15 38  1  0
 16 17  1  0
 16 39  1  0
 17 18  2  0
 18 40  1  0
 19 20  1  0
 21 29  1  0
 21 22  1  0
 21 41  1  6
 22 23  1  0
 22 42  1  0
 22 43  1  0
 23 24  1  0
 24 28  1  0
 24 25  1  0
 24 29  1  0
 25 26  1  0
 25 44  1  0
 25 45  1  0
 26 27  1  0
 26 46  1  0
 26 47  1  0
 27 28  1  0
 27 48  1  0
 27 49  1  0
 28 50  1  0
 28 51  1  0
 29 52  1  0
 29 53  1  0
 30 31  1  0
 30 54  1  0
 31 55  1  0
M  CHG  1  19   1
M  END
>  <DOCK_score>  (1) 
-56.905136

>  <SMILES>  (1) 
c1ccc([C@@H](Nc2[nH]cc(-c3cccnc3)[nH+]2)C2COC3(CCCC3)C2)cc1

$$$$
