O=C1CC[C@H](NC(NC2CCOCC2)=[NH+]C2COc3cc(N[C@@H]4CC=CCC4)ccc3C2)CN1
     RDKit          3D

 72 76  0  0  1  0  0  0  0  0999 V2000
  124.4347  135.5999  164.5004 O   0  0  0  0  0  0  0  0  0  0  0  0
  125.5314  135.7398  164.0019 C   0  0  0  0  0  0  0  0  0  0  0  0
  126.7259  135.2352  164.7593 C   0  0  0  0  0  0  0  0  0  0  0  0
  128.0018  135.8743  164.2058 C   0  0  0  0  0  0  0  0  0  0  0  0
  127.9893  135.7379  162.6785 C   0  0  2  0  0  0  0  0  0  0  0  0
  127.8171  134.6975  162.4031 H   0  0  0  0  0  0  0  0  0  0  0  0
  129.2744  136.1841  162.1346 N   0  0  0  0  0  0  0  0  0  0  0  0
  129.7587  135.6302  160.9733 C   0  0  0  0  0  0  0  0  0  0  0  0
  129.0372  134.6577  160.3223 N   0  0  0  0  0  0  0  0  0  0  0  0
  129.7306  133.6303  159.5415 C   0  0  0  0  0  0  0  0  0  0  0  0
  129.8885  134.1059  158.0941 C   0  0  0  0  0  0  0  0  0  0  0  0
  130.5428  132.9950  157.2686 C   0  0  0  0  0  0  0  0  0  0  0  0
  129.7463  131.8114  157.3493 O   0  0  0  0  0  0  0  0  0  0  0  0
  129.6031  131.2936  158.6735 C   0  0  0  0  0  0  0  0  0  0  0  0
  128.9111  132.3362  159.5555 C   0  0  0  0  0  0  0  0  0  0  0  0
  130.9022  136.0272  160.4894 N   0  0  0  0  0  0  0  0  0  0  0  0
  131.0579  136.0044  159.5322 H   0  0  0  0  0  0  0  0  0  0  0  0
  131.9519  136.5075  161.3912 C   0  0  1  0  0  0  0  0  0  0  0  0
  132.3566  135.3866  162.3572 C   0  0  0  0  0  0  0  0  0  0  0  0
  133.3032  135.9142  163.2876 O   0  0  0  0  0  0  0  0  0  0  0  0
  134.3573  136.6140  162.7932 C   0  0  0  0  0  0  0  0  0  0  0  0
  135.4596  136.8195  163.6152 C   0  0  0  0  0  0  0  0  0  0  0  0
  136.5533  137.5321  163.1486 C   0  0  0  0  0  0  0  0  0  0  0  0
  137.6604  137.7370  163.9752 N   0  0  0  0  0  0  0  0  0  0  0  0
  137.6668  137.1985  165.3376 C   0  0  2  0  0  0  0  0  0  0  0  0
  137.2204  136.2039  165.3406 H   0  0  0  0  0  0  0  0  0  0  0  0
  136.8693  138.1230  166.2601 C   0  0  0  0  0  0  0  0  0  0  0  0
  137.0902  137.7364  167.6941 C   0  0  0  0  0  0  0  0  0  0  0  0
  138.0618  136.9853  168.1029 C   0  0  0  0  0  0  0  0  0  0  0  0
  139.1019  136.3902  167.1996 C   0  0  0  0  0  0  0  0  0  0  0  0
  139.1093  137.1177  165.8533 C   0  0  0  0  0  0  0  0  0  0  0  0
  136.5452  138.0416  161.8556 C   0  0  0  0  0  0  0  0  0  0  0  0
  135.4505  137.8349  161.0418 C   0  0  0  0  0  0  0  0  0  0  0  0
  134.3567  137.1212  161.5048 C   0  0  0  0  0  0  0  0  0  0  0  0
  133.1853  136.9106  160.5790 C   0  0  0  0  0  0  0  0  0  0  0  0
  126.8646  136.6099  162.1182 C   0  0  0  0  0  0  0  0  0  0  0  0
  125.6122  136.3340  162.8108 N   0  0  0  0  0  0  0  0  0  0  0  0
  126.6208  135.4910  165.8135 H   0  0  0  0  0  0  0  0  0  0  0  0
  126.7901  134.1520  164.6543 H   0  0  0  0  0  0  0  0  0  0  0  0
  128.8745  135.3636  164.6127 H   0  0  0  0  0  0  0  0  0  0  0  0
  128.0322  136.9289  164.4799 H   0  0  0  0  0  0  0  0  0  0  0  0
  129.7834  136.8703  162.5938 H   0  0  0  0  0  0  0  0  0  0  0  0
  128.0690  134.6519  160.3800 H   0  0  0  0  0  0  0  0  0  0  0  0
  130.7138  133.4438  159.9735 H   0  0  0  0  0  0  0  0  0  0  0  0
  128.9084  134.3395  157.6785 H   0  0  0  0  0  0  0  0  0  0  0  0
  130.5171  134.9962  158.0698 H   0  0  0  0  0  0  0  0  0  0  0  0
  130.6188  133.3119  156.2283 H   0  0  0  0  0  0  0  0  0  0  0  0
  131.5392  132.7900  157.6600 H   0  0  0  0  0  0  0  0  0  0  0  0
  130.5872  131.0663  159.0833 H   0  0  0  0  0  0  0  0  0  0  0  0
  129.0022  130.3847  158.6454 H   0  0  0  0  0  0  0  0  0  0  0  0
  128.8407  131.9607  160.5763 H   0  0  0  0  0  0  0  0  0  0  0  0
  127.9112  132.5340  159.1693 H   0  0  0  0  0  0  0  0  0  0  0  0
  131.5868  137.3653  161.9561 H   0  0  0  0  0  0  0  0  0  0  0  0
  131.4773  135.0274  162.8918 H   0  0  0  0  0  0  0  0  0  0  0  0
  132.8083  134.5664  161.7992 H   0  0  0  0  0  0  0  0  0  0  0  0
  135.4638  136.4227  164.6196 H   0  0  0  0  0  0  0  0  0  0  0  0
  138.4248  138.2358  163.6472 H   0  0  0  0  0  0  0  0  0  0  0  0
  137.1971  139.1519  166.1114 H   0  0  0  0  0  0  0  0  0  0  0  0
  135.8089  138.0454  166.0204 H   0  0  0  0  0  0  0  0  0  0  0  0
  136.3920  138.1065  168.4304 H   0  0  0  0  0  0  0  0  0  0  0  0
  138.1283  136.7737  169.1599 H   0  0  0  0  0  0  0  0  0  0  0  0
  138.8802  135.3351  167.0389 H   0  0  0  0  0  0  0  0  0  0  0  0
  140.0825  136.4842  167.6663 H   0  0  0  0  0  0  0  0  0  0  0  0
  139.7224  136.5651  165.1415 H   0  0  0  0  0  0  0  0  0  0  0  0
  139.5089  138.1234  165.9824 H   0  0  0  0  0  0  0  0  0  0  0  0
  137.3945  138.5988  161.4885 H   0  0  0  0  0  0  0  0  0  0  0  0
  135.4459  138.2322  160.0376 H   0  0  0  0  0  0  0  0  0  0  0  0
  133.4237  136.1214  159.8661 H   0  0  0  0  0  0  0  0  0  0  0  0
  132.9782  137.8350  160.0398 H   0  0  0  0  0  0  0  0  0  0  0  0
  127.1245  137.6604  162.2482 H   0  0  0  0  0  0  0  0  0  0  0  0
  126.7422  136.4009  161.0554 H   0  0  0  0  0  0  0  0  0  0  0  0
  124.7855  136.5995  162.3782 H   0  0  0  0  0  0  0  0  0  0  0  0
  1  2  2  0
  2 37  1  0
  2  3  1  0
  3  4  1  0
  3 38  1  0
  3 39  1  0
  4  5  1  0
  4 40  1  0
  4 41  1  0
  5  6  1  1
  5  7  1  0
  5 36  1  0
  7 42  1  0
  8  7  1  0
  8  9  1  0
  8 16  2  0
  9 10  1  0
  9 43  1  0
 10 15  1  0
 10 11  1  0
 10 44  1  0
 11 12  1  0
 11 45  1  0
 11 46  1  0
 12 13  1  0
 12 47  1  0
 12 48  1  0
 13 14  1  0
 14 15  1  0
 14 49  1  0
 14 50  1  0
 15 51  1  0
 15 52  1  0
 16 17  1  0
 16 18  1  0
 18 35  1  0
 18 19  1  0
 18 53  1  1
 19 20  1  0
 19 54  1  0
 19 55  1  0
 20 21  1  0
 21 34  2  0
 21 22  1  0
 22 23  2  0
 22 56  1  0
 23 24  1  0
 23 32  1  0
 24 25  1  0
 24 57  1  0
 25 26  1  6
 25 31  1  0
 25 27  1  0
 27 28  1  0
 27 58  1  0
 27 59  1  0
 28 29  2  0
 28 60  1  0
 29 30  1  0
 29 61  1  0
 30 31  1  0
 30 62  1  0
 30 63  1  0
 31 64  1  0
 31 65  1  0
 32 33  2  0
 32 66  1  0
 33 34  1  0
 33 67  1  0
 34 35  1  0
 35 68  1  0
 35 69  1  0
 36 37  1  0
 36 70  1  0
 36 71  1  0
 37 72  1  0
M  CHG  1  16   1
M  END
>  <DOCK_score>  (1) 
-42.910725

>  <SMILES>  (1) 
O=C1CC[C@H](NC(NC2CCOCC2)=[NH+]C2COc3cc(N[C@@H]4CC=CCC4)ccc3C2)CN1

$$$$
