CCc1ccc(-c2c[nH]c(N[C@@H](Cc3ccc(F)cc3-c3ccc(C)cc3)c3ccoc3)[nH+]2)cc1
     RDKit          3D

 64 68  0  0  1  0  0  0  0  0999 V2000
  130.2428  128.6370  151.5594 C   0  0  0  0  0  0  0  0  0  0  0  0
  131.2296  129.7878  151.7661 C   0  0  0  0  0  0  0  0  0  0  0  0
  130.9663  130.4425  153.0976 C   0  0  0  0  0  0  0  0  0  0  0  0
  131.6175  129.9867  154.2298 C   0  0  0  0  0  0  0  0  0  0  0  0
  131.3847  130.5857  155.4512 C   0  0  0  0  0  0  0  0  0  0  0  0
  130.4829  131.6444  155.5445 C   0  0  0  0  0  0  0  0  0  0  0  0
  130.2243  132.2886  156.8553 C   0  0  0  0  0  0  0  0  0  0  0  0
  129.7403  131.6759  157.9640 C   0  0  0  0  0  0  0  0  0  0  0  0
  129.6560  132.6343  158.9445 N   0  0  0  0  0  0  0  0  0  0  0  0
  129.3435  132.5009  159.8531 H   0  0  0  0  0  0  0  0  0  0  0  0
  130.0914  133.8058  158.4057 C   0  0  0  0  0  0  0  0  0  0  0  0
  130.1645  135.0197  159.0673 N   0  0  0  0  0  0  0  0  0  0  0  0
  129.2203  135.3244  160.1453 C   0  0  1  0  0  0  0  0  0  0  0  0
  129.3245  134.5850  160.9393 H   0  0  0  0  0  0  0  0  0  0  0  0
  129.5161  136.7177  160.7038 C   0  0  0  0  0  0  0  0  0  0  0  0
  128.9156  136.8452  162.0802 C   0  0  0  0  0  0  0  0  0  0  0  0
  127.6271  137.3172  162.2308 C   0  0  0  0  0  0  0  0  0  0  0  0
  127.0720  137.4300  163.4921 C   0  0  0  0  0  0  0  0  0  0  0  0
  127.8089  137.0803  164.6121 C   0  0  0  0  0  0  0  0  0  0  0  0
  127.2631  137.1973  165.8425 F   0  0  0  0  0  0  0  0  0  0  0  0
  129.1018  136.6120  164.4721 C   0  0  0  0  0  0  0  0  0  0  0  0
  129.6622  136.4922  163.2021 C   0  0  0  0  0  0  0  0  0  0  0  0
  131.0499  135.9906  163.0453 C   0  0  0  0  0  0  0  0  0  0  0  0
  131.2877  134.6254  162.8993 C   0  0  0  0  0  0  0  0  0  0  0  0
  132.5801  134.1649  162.7484 C   0  0  0  0  0  0  0  0  0  0  0  0
  133.6390  135.0547  162.7535 C   0  0  0  0  0  0  0  0  0  0  0  0
  135.0484  134.5453  162.5946 C   0  0  0  0  0  0  0  0  0  0  0  0
  133.4091  136.4104  162.9032 C   0  0  0  0  0  0  0  0  0  0  0  0
  132.1205  136.8825  163.0491 C   0  0  0  0  0  0  0  0  0  0  0  0
  127.8135  135.2877  159.6062 C   0  0  0  0  0  0  0  0  0  0  0  0
  127.4086  135.5941  158.2868 C   0  0  0  0  0  0  0  0  0  0  0  0
  126.0744  135.4289  158.2402 C   0  0  0  0  0  0  0  0  0  0  0  0
  125.6510  135.0499  159.4571 O   0  0  0  0  0  0  0  0  0  0  0  0
  126.7014  134.9626  160.2895 C   0  0  0  0  0  0  0  0  0  0  0  0
  130.4356  133.5940  157.1590 N   0  0  0  0  0  0  0  0  0  0  0  0
  130.7836  134.2640  156.5499 H   0  0  0  0  0  0  0  0  0  0  0  0
  129.8254  132.0957  154.4014 C   0  0  0  0  0  0  0  0  0  0  0  0
  130.0702  131.4928  153.1844 C   0  0  0  0  0  0  0  0  0  0  0  0
  130.3688  127.9035  152.3559 H   0  0  0  0  0  0  0  0  0  0  0  0
  129.2239  129.0237  151.5795 H   0  0  0  0  0  0  0  0  0  0  0  0
  130.4330  128.1638  150.5961 H   0  0  0  0  0  0  0  0  0  0  0  0
  132.2481  129.4016  151.7459 H   0  0  0  0  0  0  0  0  0  0  0  0
  131.1033  130.5218  150.9696 H   0  0  0  0  0  0  0  0  0  0  0  0
  132.3124  129.1632  154.1571 H   0  0  0  0  0  0  0  0  0  0  0  0
  131.8971  130.2321  156.3336 H   0  0  0  0  0  0  0  0  0  0  0  0
  129.4721  130.6340  158.0579 H   0  0  0  0  0  0  0  0  0  0  0  0
  130.8407  135.6685  158.8172 H   0  0  0  0  0  0  0  0  0  0  0  0
  130.5946  136.8640  160.7630 H   0  0  0  0  0  0  0  0  0  0  0  0
  129.0828  137.4720  160.0470 H   0  0  0  0  0  0  0  0  0  0  0  0
  127.0501  137.5953  161.3612 H   0  0  0  0  0  0  0  0  0  0  0  0
  126.0622  137.7962  163.6049 H   0  0  0  0  0  0  0  0  0  0  0  0
  129.6765  136.3400  165.3451 H   0  0  0  0  0  0  0  0  0  0  0  0
  130.4619  133.9295  162.8997 H   0  0  0  0  0  0  0  0  0  0  0  0
  132.7652  133.1073  162.6311 H   0  0  0  0  0  0  0  0  0  0  0  0
  135.4673  134.3232  163.5760 H   0  0  0  0  0  0  0  0  0  0  0  0
  135.0411  133.6390  161.9892 H   0  0  0  0  0  0  0  0  0  0  0  0
  135.6563  135.3053  162.1037 H   0  0  0  0  0  0  0  0  0  0  0  0
  134.2398  137.1008  162.9065 H   0  0  0  0  0  0  0  0  0  0  0  0
  131.9421  137.9412  163.1665 H   0  0  0  0  0  0  0  0  0  0  0  0
  128.0481  135.8997  157.4719 H   0  0  0  0  0  0  0  0  0  0  0  0
  125.4491  135.5807  157.3727 H   0  0  0  0  0  0  0  0  0  0  0  0
  126.6599  134.6799  161.3311 H   0  0  0  0  0  0  0  0  0  0  0  0
  129.1254  132.9154  154.4680 H   0  0  0  0  0  0  0  0  0  0  0  0
  129.5610  131.8414  152.2980 H   0  0  0  0  0  0  0  0  0  0  0  0
  1  2  1  0
  1 39  1  0
  1 40  1  0
  1 41  1  0
  2  3  1  0
  2 42  1  0
  2 43  1  0
  3 38  2  0
  3  4  1  0
  4  5  2  0
  4 44  1  0
  5  6  1  0
  5 45  1  0
  6  7  1  0
  6 37  2  0
  7 35  1  0
  7  8  2  0
  8  9  1  0
  8 46  1  0
  9 10  1  0
  9 11  1  0
 11 12  1  0
 11 35  2  0
 12 13  1  0
 12 47  1  0
 13 14  1  1
 13 15  1  0
 13 30  1  0
 15 16  1  0
 15 48  1  0
 15 49  1  0
 16 22  1  0
 16 17  2  0
 17 18  1  0
 17 50  1  0
 18 19  2  0
 18 51  1  0
 19 20  1  0
 19 21  1  0
 21 22  2  0
 21 52  1  0
 22 23  1  0
 23 29  1  0
 23 24  2  0
 24 25  1  0
 24 53  1  0
 25 26  2  0
 25 54  1  0
 26 27  1  0
 26 28  1  0
 27 55  1  0
 27 56  1  0
 27 57  1  0
 28 29  2  0
 28 58  1  0
 29 59  1  0
 30 34  2  0
 30 31  1  0
 31 32  2  0
 31 60  1  0
 32 33  1  0
 32 61  1  0
 33 34  1  0
 34 62  1  0
 35 36  1  0
 37 38  1  0
 37 63  1  0
 38 64  1  0
M  CHG  1  35   1
M  END
>  <DOCK_score>  (1) 
-59.170521

>  <SMILES>  (1) 
CCc1ccc(-c2c[nH]c(N[C@@H](Cc3ccc(F)cc3-c3ccc(C)cc3)c3ccoc3)[nH+]2)cc1

$$$$
