Nc1ccc(-c2c[nH]c(N[C@H](C3=CCOCC3)C3CCCC3Cc3ccc(Cl)cc3)[nH+]2)cc1
     RDKit          3D

 65 69  0  0  1  0  0  0  0  0999 V2000
  131.7994  130.0171  152.1763 N   0  0  0  0  0  0  0  0  0  0  0  0
  131.5367  130.5993  153.4187 C   0  0  0  0  0  0  0  0  0  0  0  0
  131.1850  131.9419  153.4958 C   0  0  0  0  0  0  0  0  0  0  0  0
  130.9255  132.5184  154.7212 C   0  0  0  0  0  0  0  0  0  0  0  0
  131.0156  131.7536  155.8832 C   0  0  0  0  0  0  0  0  0  0  0  0
  130.7368  132.3715  157.2027 C   0  0  0  0  0  0  0  0  0  0  0  0
  130.2319  131.7377  158.2899 C   0  0  0  0  0  0  0  0  0  0  0  0
  130.1396  132.6755  159.2910 N   0  0  0  0  0  0  0  0  0  0  0  0
  129.8161  132.5235  160.1927 H   0  0  0  0  0  0  0  0  0  0  0  0
  130.5825  133.8572  158.7818 C   0  0  0  0  0  0  0  0  0  0  0  0
  130.6484  135.0571  159.4692 N   0  0  0  0  0  0  0  0  0  0  0  0
  130.2186  135.1245  160.8681 C   0  0  2  0  0  0  0  0  0  0  0  0
  130.5491  134.2286  161.3934 H   0  0  0  0  0  0  0  0  0  0  0  0
  128.7155  135.2161  160.9278 C   0  0  0  0  0  0  0  0  0  0  0  0
  128.0853  135.7957  159.9499 C   0  0  0  0  0  0  0  0  0  0  0  0
  126.5909  135.9463  159.9185 C   0  0  0  0  0  0  0  0  0  0  0  0
  125.9887  135.0759  160.8787 O   0  0  0  0  0  0  0  0  0  0  0  0
  126.5757  135.1867  162.1812 C   0  0  0  0  0  0  0  0  0  0  0  0
  128.0023  134.6336  162.1166 C   0  0  0  0  0  0  0  0  0  0  0  0
  130.8315  136.3598  161.5309 C   0  0  2  0  0  0  0  0  0  0  0  0
  130.4291  137.6307  160.7547 C   0  0  0  0  0  0  0  0  0  0  0  0
  131.6905  138.5276  160.8141 C   0  0  0  0  0  0  0  0  0  0  0  0
  132.8444  137.5045  160.6696 C   0  0  0  0  0  0  0  0  0  0  0  0
  132.3673  136.2796  161.4769 C   0  0  1  0  0  0  0  0  0  0  0  0
  132.9448  136.3279  162.8930 C   0  0  0  0  0  0  0  0  0  0  0  0
  134.3569  135.8020  162.8777 C   0  0  0  0  0  0  0  0  0  0  0  0
  134.5951  134.4555  163.0813 C   0  0  0  0  0  0  0  0  0  0  0  0
  135.8896  133.9717  163.0617 C   0  0  0  0  0  0  0  0  0  0  0  0
  136.9481  134.8370  162.8497 C   0  0  0  0  0  0  0  0  0  0  0  0
  138.5749  134.2311  162.8317 Cl  0  0  0  0  0  0  0  0  0  0  0  0
  136.7095  136.1854  162.6517 C   0  0  0  0  0  0  0  0  0  0  0  0
  135.4142  136.6672  162.6659 C   0  0  0  0  0  0  0  0  0  0  0  0
  130.9417  133.6707  157.5350 N   0  0  0  0  0  0  0  0  0  0  0  0
  131.2973  134.3528  156.9443 H   0  0  0  0  0  0  0  0  0  0  0  0
  131.3736  130.4087  155.8039 C   0  0  0  0  0  0  0  0  0  0  0  0
  131.6267  129.8349  154.5758 C   0  0  0  0  0  0  0  0  0  0  0  0
  131.7366  130.5506  151.3680 H   0  0  0  0  0  0  0  0  0  0  0  0
  132.0450  129.0808  152.1214 H   0  0  0  0  0  0  0  0  0  0  0  0
  131.1153  132.5340  152.5952 H   0  0  0  0  0  0  0  0  0  0  0  0
  130.6522  133.5616  154.7807 H   0  0  0  0  0  0  0  0  0  0  0  0
  129.9590  130.6950  158.3578 H   0  0  0  0  0  0  0  0  0  0  0  0
  130.9793  135.8531  159.0244 H   0  0  0  0  0  0  0  0  0  0  0  0
  128.6612  136.1863  159.1238 H   0  0  0  0  0  0  0  0  0  0  0  0
  126.2234  135.6960  158.9233 H   0  0  0  0  0  0  0  0  0  0  0  0
  126.3287  136.9781  160.1517 H   0  0  0  0  0  0  0  0  0  0  0  0
  125.9906  134.6102  162.8977 H   0  0  0  0  0  0  0  0  0  0  0  0
  126.6010  136.2332  162.4847 H   0  0  0  0  0  0  0  0  0  0  0  0
  128.5370  134.9014  163.0280 H   0  0  0  0  0  0  0  0  0  0  0  0
  127.9668  133.5483  162.0226 H   0  0  0  0  0  0  0  0  0  0  0  0
  130.4977  136.4322  162.5660 H   0  0  0  0  0  0  0  0  0  0  0  0
  130.1841  137.3850  159.7213 H   0  0  0  0  0  0  0  0  0  0  0  0
  129.5871  138.1239  161.2404 H   0  0  0  0  0  0  0  0  0  0  0  0
  131.7512  139.0458  161.7711 H   0  0  0  0  0  0  0  0  0  0  0  0
  131.7005  139.2402  159.9893 H   0  0  0  0  0  0  0  0  0  0  0  0
  133.7651  137.9057  161.0934 H   0  0  0  0  0  0  0  0  0  0  0  0
  132.9917  137.2379  159.6230 H   0  0  0  0  0  0  0  0  0  0  0  0
  132.6758  135.3607  160.9785 H   0  0  0  0  0  0  0  0  0  0  0  0
  132.9443  137.3576  163.2506 H   0  0  0  0  0  0  0  0  0  0  0  0
  132.3352  135.7130  163.5550 H   0  0  0  0  0  0  0  0  0  0  0  0
  133.7690  133.7808  163.2510 H   0  0  0  0  0  0  0  0  0  0  0  0
  136.0752  132.9191  163.2163 H   0  0  0  0  0  0  0  0  0  0  0  0
  137.5354  136.8614  162.4866 H   0  0  0  0  0  0  0  0  0  0  0  0
  135.2278  137.7196  162.5110 H   0  0  0  0  0  0  0  0  0  0  0  0
  131.4487  129.8155  156.7032 H   0  0  0  0  0  0  0  0  0  0  0  0
  131.8997  128.7919  154.5135 H   0  0  0  0  0  0  0  0  0  0  0  0
  1  2  1  0
  1 37  1  0
  1 38  1  0
  2 36  2  0
  2  3  1  0
  3  4  2  0
  3 39  1  0
  4  5  1  0
  4 40  1  0
  5  6  1  0
  5 35  2  0
  6 33  1  0
  6  7  2  0
  7  8  1  0
  7 41  1  0
  8  9  1  0
  8 10  1  0
 10 11  1  0
 10 33  2  0
 11 12  1  0
 11 42  1  0
 12 13  1  1
 12 14  1  0
 12 20  1  0
 14 19  1  0
 14 15  2  0
 15 16  1  0
 15 43  1  0
 16 17  1  0
 16 44  1  0
 16 45  1  0
 17 18  1  0
 18 19  1  0
 18 46  1  0
 18 47  1  0
 19 48  1  0
 19 49  1  0
 20 24  1  0
 20 21  1  0
 20 50  1  1
 21 22  1  0
 21 51  1  0
 21 52  1  0
 22 23  1  0
 22 53  1  0
 22 54  1  0
 23 24  1  0
 23 55  1  0
 23 56  1  0
 24 25  1  0
 24 57  1  6
 25 26  1  0
 25 58  1  0
 25 59  1  0
 26 32  1  0
 26 27  2  0
 27 28  1  0
 27 60  1  0
 28 29  2  0
 28 61  1  0
 29 30  1  0
 29 31  1  0
 31 32  2  0
 31 62  1  0
 32 63  1  0
 33 34  1  0
 35 36  1  0
 35 64  1  0
 36 65  1  0
M  CHG  1  33   1
M  END
>  <DOCK_score>  (1) 
-58.969757

>  <SMILES>  (1) 
Nc1ccc(-c2c[nH]c(N[C@H](C3=CCOCC3)C3CCCC3Cc3ccc(Cl)cc3)[nH+]2)cc1

$$$$
