O=C1CC[C@H]([NH+]=C(NC2CCCC2)N[C@@H]2Cc3ccc(Br)cc3C2)CN1
     RDKit          3D

 54 57  0  0  1  0  0  0  0  0999 V2000
  124.2432  133.8540  161.4758 O   0  0  0  0  0  0  0  0  0  0  0  0
  125.4034  134.1599  161.2995 C   0  0  0  0  0  0  0  0  0  0  0  0
  126.3130  133.1550  160.6530 C   0  0  0  0  0  0  0  0  0  0  0  0
  127.7737  133.5328  160.9110 C   0  0  0  0  0  0  0  0  0  0  0  0
  127.9582  135.0164  160.5702 C   0  0  2  0  0  0  0  0  0  0  0  0
  127.5811  135.2107  159.5661 H   0  0  0  0  0  0  0  0  0  0  0  0
  129.3796  135.3640  160.6408 N   0  0  0  0  0  0  0  0  0  0  0  0
  129.6818  136.0461  161.2607 H   0  0  0  0  0  0  0  0  0  0  0  0
  130.2380  134.7569  159.8706 C   0  0  0  0  0  0  0  0  0  0  0  0
  129.8096  133.7900  158.9920 N   0  0  0  0  0  0  0  0  0  0  0  0
  130.7010  132.6867  158.6253 C   0  0  0  0  0  0  0  0  0  0  0  0
  129.9684  131.7048  157.6879 C   0  0  0  0  0  0  0  0  0  0  0  0
  130.4833  130.3095  158.1231 C   0  0  0  0  0  0  0  0  0  0  0  0
  130.5867  130.4472  159.6624 C   0  0  0  0  0  0  0  0  0  0  0  0
  131.0944  131.8876  159.8801 C   0  0  0  0  0  0  0  0  0  0  0  0
  131.5719  135.0831  159.9367 N   0  0  0  0  0  0  0  0  0  0  0  0
  132.0285  136.1135  160.8728 C   0  0  2  0  0  0  0  0  0  0  0  0
  131.7895  135.8352  161.8992 H   0  0  0  0  0  0  0  0  0  0  0  0
  131.4207  137.4867  160.5163 C   0  0  0  0  0  0  0  0  0  0  0  0
  132.5022  138.4948  160.8413 C   0  0  0  0  0  0  0  0  0  0  0  0
  132.4251  139.8655  161.0249 C   0  0  0  0  0  0  0  0  0  0  0  0
  133.5616  140.5925  161.3195 C   0  0  0  0  0  0  0  0  0  0  0  0
  134.7817  139.9501  161.4321 C   0  0  0  0  0  0  0  0  0  0  0  0
  136.3401  140.9422  161.8362 Br  0  0  0  0  0  0  0  0  0  0  0  0
  134.8601  138.5827  161.2491 C   0  0  0  0  0  0  0  0  0  0  0  0
  133.7210  137.8527  160.9536 C   0  0  0  0  0  0  0  0  0  0  0  0
  133.5420  136.3692  160.7118 C   0  0  0  0  0  0  0  0  0  0  0  0
  127.1748  135.8525  161.5830 C   0  0  0  0  0  0  0  0  0  0  0  0
  125.8034  135.3705  161.6902 N   0  0  0  0  0  0  0  0  0  0  0  0
  126.1279  133.1374  159.5789 H   0  0  0  0  0  0  0  0  0  0  0  0
  126.1151  132.1679  161.0706 H   0  0  0  0  0  0  0  0  0  0  0  0
  128.4260  132.9278  160.2813 H   0  0  0  0  0  0  0  0  0  0  0  0
  128.0165  133.3643  161.9602 H   0  0  0  0  0  0  0  0  0  0  0  0
  128.9172  133.8384  158.6150 H   0  0  0  0  0  0  0  0  0  0  0  0
  131.5935  133.0753  158.1349 H   0  0  0  0  0  0  0  0  0  0  0  0
  128.8898  131.7745  157.8299 H   0  0  0  0  0  0  0  0  0  0  0  0
  130.2306  131.9020  156.6485 H   0  0  0  0  0  0  0  0  0  0  0  0
  131.4614  130.1061  157.6869 H   0  0  0  0  0  0  0  0  0  0  0  0
  129.7715  129.5299  157.8519 H   0  0  0  0  0  0  0  0  0  0  0  0
  131.2999  129.7268  160.0628 H   0  0  0  0  0  0  0  0  0  0  0  0
  129.6082  130.3139  160.1237 H   0  0  0  0  0  0  0  0  0  0  0  0
  132.1780  131.8878  159.9982 H   0  0  0  0  0  0  0  0  0  0  0  0
  130.6221  132.3206  160.7618 H   0  0  0  0  0  0  0  0  0  0  0  0
  132.2108  134.6311  159.3636 H   0  0  0  0  0  0  0  0  0  0  0  0
  131.1727  137.5267  159.4557 H   0  0  0  0  0  0  0  0  0  0  0  0
  130.5334  137.6759  161.1204 H   0  0  0  0  0  0  0  0  0  0  0  0
  131.4731  140.3676  160.9369 H   0  0  0  0  0  0  0  0  0  0  0  0
  133.4980  141.6611  161.4618 H   0  0  0  0  0  0  0  0  0  0  0  0
  135.8127  138.0814  161.3374 H   0  0  0  0  0  0  0  0  0  0  0  0
  134.1031  135.7954  161.4494 H   0  0  0  0  0  0  0  0  0  0  0  0
  133.8646  136.1087  159.7038 H   0  0  0  0  0  0  0  0  0  0  0  0
  127.1666  136.8938  161.2611 H   0  0  0  0  0  0  0  0  0  0  0  0
  127.6592  135.7803  162.5568 H   0  0  0  0  0  0  0  0  0  0  0  0
  125.1408  135.9665  162.0734 H   0  0  0  0  0  0  0  0  0  0  0  0
  1  2  2  0
  2 29  1  0
  2  3  1  0
  3  4  1  0
  3 30  1  0
  3 31  1  0
  4  5  1  0
  4 32  1  0
  4 33  1  0
  5  6  1  6
  5  7  1  0
  5 28  1  0
  7  8  1  0
  9  7  2  0
  9 10  1  0
  9 16  1  0
 10 11  1  0
 10 34  1  0
 11 15  1  0
 11 12  1  0
 11 35  1  0
 12 13  1  0
 12 36  1  0
 12 37  1  0
 13 14  1  0
 13 38  1  0
 13 39  1  0
 14 15  1  0
 14 40  1  0
 14 41  1  0
 15 42  1  0
 15 43  1  0
 16 17  1  0
 16 44  1  0
 17 18  1  1
 17 27  1  0
 17 19  1  0
 19 20  1  0
 19 45  1  0
 19 46  1  0
 20 26  2  0
 20 21  1  0
 21 22  2  0
 21 47  1  0
 22 23  1  0
 22 48  1  0
 23 24  1  0
 23 25  2  0
 25 26  1  0
 25 49  1  0
 26 27  1  0
 27 50  1  0
 27 51  1  0
 28 29  1  0
 28 52  1  0
 28 53  1  0
 29 54  1  0
M  CHG  1   7   1
M  END
>  <DOCK_score>  (1) 
-46.19355

>  <SMILES>  (1) 
O=C1CC[C@H]([NH+]=C(NC2CCCC2)N[C@@H]2Cc3ccc(Br)cc3C2)CN1

$$$$
