OCC[NH2+]C[C@@H]1CC=C(c2n[nH]cc2C(O)(Cc2ccccc2)C2CC2)CC1
     RDKit          3D

 60 63  0  0  1  0  0  0  0  0999 V2000
  132.4724  133.5199  153.5278 O   0  0  0  0  0  0  0  0  0  0  0  0
  131.1913  132.9669  153.2189 C   0  0  0  0  0  0  0  0  0  0  0  0
  130.5743  132.3711  154.4859 C   0  0  0  0  0  0  0  0  0  0  0  0
  130.4218  133.4244  155.4984 N   0  0  0  0  0  0  0  0  0  0  0  0
  131.3264  133.8148  155.7164 H   0  0  0  0  0  0  0  0  0  0  0  0
  129.8195  134.1504  155.1404 H   0  0  0  0  0  0  0  0  0  0  0  0
  129.8293  132.8522  156.7148 C   0  0  0  0  0  0  0  0  0  0  0  0
  129.6705  133.9492  157.7694 C   0  0  2  0  0  0  0  0  0  0  0  0
  130.5436  134.6016  157.7534 H   0  0  0  0  0  0  0  0  0  0  0  0
  129.5233  133.3143  159.1537 C   0  0  0  0  0  0  0  0  0  0  0  0
  129.1107  134.3517  160.1568 C   0  0  0  0  0  0  0  0  0  0  0  0
  128.6030  135.5166  159.8357 C   0  0  0  0  0  0  0  0  0  0  0  0
  128.2321  136.4393  160.9298 C   0  0  0  0  0  0  0  0  0  0  0  0
  127.0573  136.5071  161.5227 N   0  0  0  0  0  0  0  0  0  0  0  0
  127.1218  137.5052  162.5033 N   0  0  0  0  0  0  0  0  0  0  0  0
  126.4000  137.7687  163.0953 H   0  0  0  0  0  0  0  0  0  0  0  0
  128.3614  138.0410  162.4780 C   0  0  0  0  0  0  0  0  0  0  0  0
  129.0711  137.4072  161.5198 C   0  0  0  0  0  0  0  0  0  0  0  0
  130.5047  137.6847  161.1473 C   0  0  2  0  0  0  0  0  0  0  0  0
  130.7020  137.3925  159.7624 O   0  0  0  0  0  0  0  0  0  0  0  0
  131.4303  136.8057  161.9909 C   0  0  0  0  0  0  0  0  0  0  0  0
  131.2221  137.1137  163.4512 C   0  0  0  0  0  0  0  0  0  0  0  0
  131.9806  138.0922  164.0663 C   0  0  0  0  0  0  0  0  0  0  0  0
  131.7864  138.3780  165.4046 C   0  0  0  0  0  0  0  0  0  0  0  0
  130.8409  137.6783  166.1308 C   0  0  0  0  0  0  0  0  0  0  0  0
  130.0860  136.6962  165.5170 C   0  0  0  0  0  0  0  0  0  0  0  0
  130.2767  136.4139  164.1773 C   0  0  0  0  0  0  0  0  0  0  0  0
  130.8233  139.1581  161.4081 C   0  0  0  0  0  0  0  0  0  0  0  0
  130.3958  140.1723  160.3452 C   0  0  0  0  0  0  0  0  0  0  0  0
  131.8759  139.8217  160.5177 C   0  0  0  0  0  0  0  0  0  0  0  0
  128.3764  135.9692  158.4228 C   0  0  0  0  0  0  0  0  0  0  0  0
  128.4088  134.7695  157.4737 C   0  0  0  0  0  0  0  0  0  0  0  0
  132.4477  134.2230  154.1911 H   0  0  0  0  0  0  0  0  0  0  0  0
  131.3046  132.1855  152.4676 H   0  0  0  0  0  0  0  0  0  0  0  0
  130.5407  133.7513  152.8321 H   0  0  0  0  0  0  0  0  0  0  0  0
  129.5971  131.9494  154.2502 H   0  0  0  0  0  0  0  0  0  0  0  0
  131.2249  131.5866  154.8726 H   0  0  0  0  0  0  0  0  0  0  0  0
  128.8523  132.4304  156.4792 H   0  0  0  0  0  0  0  0  0  0  0  0
  130.4800  132.0679  157.1016 H   0  0  0  0  0  0  0  0  0  0  0  0
  128.7672  132.5302  159.1130 H   0  0  0  0  0  0  0  0  0  0  0  0
  130.4763  132.8792  159.4549 H   0  0  0  0  0  0  0  0  0  0  0  0
  129.2395  134.1248  161.2048 H   0  0  0  0  0  0  0  0  0  0  0  0
  128.7220  138.8365  163.1131 H   0  0  0  0  0  0  0  0  0  0  0  0
  131.6045  137.5486  159.4522 H   0  0  0  0  0  0  0  0  0  0  0  0
  131.2034  135.7559  161.8050 H   0  0  0  0  0  0  0  0  0  0  0  0
  132.4671  137.0066  161.7214 H   0  0  0  0  0  0  0  0  0  0  0  0
  132.7224  138.6358  163.5001 H   0  0  0  0  0  0  0  0  0  0  0  0
  132.3763  139.1450  165.8843 H   0  0  0  0  0  0  0  0  0  0  0  0
  130.6922  137.8985  167.1775 H   0  0  0  0  0  0  0  0  0  0  0  0
  129.3475  136.1492  166.0844 H   0  0  0  0  0  0  0  0  0  0  0  0
  129.6870  135.6464  163.6980 H   0  0  0  0  0  0  0  0  0  0  0  0
  130.7762  139.4719  162.4510 H   0  0  0  0  0  0  0  0  0  0  0  0
  129.8875  139.7897  159.4601 H   0  0  0  0  0  0  0  0  0  0  0  0
  130.0677  141.1533  160.6888 H   0  0  0  0  0  0  0  0  0  0  0  0
  132.5209  140.5723  160.9746 H   0  0  0  0  0  0  0  0  0  0  0  0
  132.3416  139.2084  159.7463 H   0  0  0  0  0  0  0  0  0  0  0  0
  129.1575  136.6750  158.1397 H   0  0  0  0  0  0  0  0  0  0  0  0
  127.4057  136.4600  158.3518 H   0  0  0  0  0  0  0  0  0  0  0  0
  128.4329  135.1194  156.4417 H   0  0  0  0  0  0  0  0  0  0  0  0
  127.5249  134.1511  157.6302 H   0  0  0  0  0  0  0  0  0  0  0  0
  1  2  1  0
  1 33  1  0
  2  3  1  0
  2 34  1  0
  2 35  1  0
  3  4  1  0
  3 36  1  0
  3 37  1  0
  4  5  1  0
  4  6  1  0
  4  7  1  0
  7  8  1  0
  7 38  1  0
  7 39  1  0
  8  9  1  1
  8 32  1  0
  8 10  1  0
 10 11  1  0
 10 40  1  0
 10 41  1  0
 11 12  2  0
 11 42  1  0
 12 13  1  0
 12 31  1  0
 13 18  1  0
 13 14  2  0
 14 15  1  0
 15 16  1  0
 15 17  1  0
 17 18  2  0
 17 43  1  0
 18 19  1  0
 19 20  1  6
 19 21  1  0
 19 28  1  0
 20 44  1  0
 21 22  1  0
 21 45  1  0
 21 46  1  0
 22 27  1  0
 22 23  2  0
 23 24  1  0
 23 47  1  0
 24 25  2  0
 24 48  1  0
 25 26  1  0
 25 49  1  0
 26 27  2  0
 26 50  1  0
 27 51  1  0
 28 30  1  0
 28 29  1  0
 28 52  1  0
 29 30  1  0
 29 53  1  0
 29 54  1  0
 30 55  1  0
 30 56  1  0
 31 32  1  0
 31 57  1  0
 31 58  1  0
 32 59  1  0
 32 60  1  0
M  CHG  1   4   1
M  END
>  <DOCK_score>  (1) 
-46.054855

>  <SMILES>  (1) 
OCC[NH2+]C[C@@H]1CC=C(c2n[nH]cc2C(O)(Cc2ccccc2)C2CC2)CC1

$$$$
