Cn1nccc1C[C@@H](C=CCO)Nc1[nH]cc(-c2ccc(N)cc2)[nH+]1
     RDKit          3D

 48 50  0  0  1  0  0  0  0  0999 V2000
  129.4558  136.7585  163.0368 C   0  0  0  0  0  0  0  0  0  0  0  0
  130.7087  136.8453  162.2825 N   0  0  0  0  0  0  0  0  0  0  0  0
  132.0002  136.8299  162.8251 N   0  0  0  0  0  0  0  0  0  0  0  0
  132.8577  136.9313  161.8422 C   0  0  0  0  0  0  0  0  0  0  0  0
  132.1412  137.0094  160.6435 C   0  0  0  0  0  0  0  0  0  0  0  0
  130.8227  136.9513  160.9420 C   0  0  0  0  0  0  0  0  0  0  0  0
  129.6851  137.0021  159.9550 C   0  0  0  0  0  0  0  0  0  0  0  0
  129.3321  135.5813  159.5099 C   0  0  1  0  0  0  0  0  0  0  0  0
  129.3813  134.9095  160.3668 H   0  0  0  0  0  0  0  0  0  0  0  0
  127.9375  135.5658  158.9388 C   0  0  0  0  0  0  0  0  0  0  0  0
  127.0146  134.8132  159.4846 C   0  0  0  0  0  0  0  0  0  0  0  0
  125.6201  134.7976  158.9135 C   0  0  0  0  0  0  0  0  0  0  0  0
  124.6921  135.2288  159.9109 O   0  0  0  0  0  0  0  0  0  0  0  0
  130.2834  135.1394  158.4873 N   0  0  0  0  0  0  0  0  0  0  0  0
  130.1641  133.8776  157.9303 C   0  0  0  0  0  0  0  0  0  0  0  0
  129.6595  132.7796  158.5556 N   0  0  0  0  0  0  0  0  0  0  0  0
  129.3214  132.7402  159.4640 H   0  0  0  0  0  0  0  0  0  0  0  0
  129.7179  131.7361  157.6624 C   0  0  0  0  0  0  0  0  0  0  0  0
  130.2507  132.2285  156.5168 C   0  0  0  0  0  0  0  0  0  0  0  0
  130.4992  131.4635  155.2704 C   0  0  0  0  0  0  0  0  0  0  0  0
  129.8739  131.8413  154.0831 C   0  0  0  0  0  0  0  0  0  0  0  0
  130.1109  131.1324  152.9243 C   0  0  0  0  0  0  0  0  0  0  0  0
  130.9633  130.0349  152.9420 C   0  0  0  0  0  0  0  0  0  0  0  0
  131.1968  129.3140  151.7684 N   0  0  0  0  0  0  0  0  0  0  0  0
  131.5835  129.6529  154.1257 C   0  0  0  0  0  0  0  0  0  0  0  0
  131.3539  130.3624  155.2856 C   0  0  0  0  0  0  0  0  0  0  0  0
  130.5195  133.5435  156.7135 N   0  0  0  0  0  0  0  0  0  0  0  0
  130.9087  134.1422  156.0570 H   0  0  0  0  0  0  0  0  0  0  0  0
  129.1684  135.7127  163.1449 H   0  0  0  0  0  0  0  0  0  0  0  0
  129.5942  137.2012  164.0232 H   0  0  0  0  0  0  0  0  0  0  0  0
  128.6725  137.2972  162.5034 H   0  0  0  0  0  0  0  0  0  0  0  0
  133.9331  136.9519  161.9398 H   0  0  0  0  0  0  0  0  0  0  0  0
  132.5653  137.1006  159.6545 H   0  0  0  0  0  0  0  0  0  0  0  0
  129.9828  137.5910  159.0874 H   0  0  0  0  0  0  0  0  0  0  0  0
  128.8161  137.4620  160.4254 H   0  0  0  0  0  0  0  0  0  0  0  0
  127.6990  136.1752  158.0797 H   0  0  0  0  0  0  0  0  0  0  0  0
  127.2532  134.2038  160.3438 H   0  0  0  0  0  0  0  0  0  0  0  0
  125.5708  135.4694  158.0566 H   0  0  0  0  0  0  0  0  0  0  0  0
  125.3686  133.7855  158.5965 H   0  0  0  0  0  0  0  0  0  0  0  0
  124.8558  136.1233  160.2399 H   0  0  0  0  0  0  0  0  0  0  0  0
  130.9968  135.7307  158.2006 H   0  0  0  0  0  0  0  0  0  0  0  0
  129.3964  130.7201  157.8378 H   0  0  0  0  0  0  0  0  0  0  0  0
  129.2075  132.6912  154.0699 H   0  0  0  0  0  0  0  0  0  0  0  0
  129.6302  131.4275  152.0033 H   0  0  0  0  0  0  0  0  0  0  0  0
  131.7917  128.5480  151.7799 H   0  0  0  0  0  0  0  0  0  0  0  0
  130.7642  129.5798  150.9418 H   0  0  0  0  0  0  0  0  0  0  0  0
  132.2456  128.7998  154.1373 H   0  0  0  0  0  0  0  0  0  0  0  0
  131.8362  130.0655  156.2052 H   0  0  0  0  0  0  0  0  0  0  0  0
  1  2  1  0
  1 29  1  0
  1 30  1  0
  1 31  1  0
  2  6  1  0
  2  3  1  0
  3  4  2  0
  4  5  1  0
  4 32  1  0
  5  6  2  0
  5 33  1  0
  6  7  1  0
  7  8  1  0
  7 34  1  0
  7 35  1  0
  8  9  1  1
  8 10  1  0
  8 14  1  0
 10 11  2  0
 10 36  1  0
 11 12  1  0
 11 37  1  0
 12 13  1  0
 12 38  1  0
 12 39  1  0
 13 40  1  0
 14 41  1  0
 15 14  1  0
 15 27  2  0
 15 16  1  0
 16 17  1  0
 16 18  1  0
 18 19  2  0
 18 42  1  0
 19 20  1  0
 19 27  1  0
 20 26  1  0
 20 21  2  0
 21 22  1  0
 21 43  1  0
 22 23  2  0
 22 44  1  0
 23 24  1  0
 23 25  1  0
 24 45  1  0
 24 46  1  0
 25 26  2  0
 25 47  1  0
 26 48  1  0
 27 28  1  0
M  CHG  1  27   1
M  END
>  <DOCK_score>  (1) 
-53.977547

>  <SMILES>  (1) 
Cn1nccc1C[C@@H](C=CCO)Nc1[nH]cc(-c2ccc(N)cc2)[nH+]1

$$$$
