Cn1nccc1[C@@H](CSCC1CC=CC1)Nc1[nH]cc(-c2ccc(N)cc2)[nH+]1
     RDKit          3D

 55 58  0  0  1  0  0  0  0  0999 V2000
  127.8971  134.7476  162.9179 C   0  0  0  0  0  0  0  0  0  0  0  0
  129.2344  134.2762  162.5495 N   0  0  0  0  0  0  0  0  0  0  0  0
  129.9545  133.2585  163.1885 N   0  0  0  0  0  0  0  0  0  0  0  0
  131.1026  133.1234  162.5759 C   0  0  0  0  0  0  0  0  0  0  0  0
  131.1485  134.0459  161.5254 C   0  0  0  0  0  0  0  0  0  0  0  0
  129.9900  134.7451  161.5344 C   0  0  0  0  0  0  0  0  0  0  0  0
  129.6090  135.8458  160.5783 C   0  0  1  0  0  0  0  0  0  0  0  0
  128.5268  135.8558  160.4484 H   0  0  0  0  0  0  0  0  0  0  0  0
  130.0675  137.1923  161.1420 C   0  0  0  0  0  0  0  0  0  0  0  0
  130.1608  138.4093  159.8000 S   0  0  0  0  0  0  0  0  0  0  0  0
  131.2554  139.6851  160.4816 C   0  0  0  0  0  0  0  0  0  0  0  0
  132.6159  139.0673  160.8108 C   0  0  0  0  0  0  0  0  0  0  0  0
  133.6393  140.1568  161.2066 C   0  0  0  0  0  0  0  0  0  0  0  0
  134.9468  139.6907  160.6096 C   0  0  0  0  0  0  0  0  0  0  0  0
  134.7488  138.7721  159.7036 C   0  0  0  0  0  0  0  0  0  0  0  0
  133.2762  138.4725  159.5453 C   0  0  0  0  0  0  0  0  0  0  0  0
  130.2541  135.6132  159.2837 N   0  0  0  0  0  0  0  0  0  0  0  0
  129.9912  134.4514  158.5782 C   0  0  0  0  0  0  0  0  0  0  0  0
  129.1577  133.4529  158.9778 N   0  0  0  0  0  0  0  0  0  0  0  0
  128.6446  133.4274  159.8007 H   0  0  0  0  0  0  0  0  0  0  0  0
  129.1766  132.4870  157.9996 C   0  0  0  0  0  0  0  0  0  0  0  0
  130.0205  132.9236  157.0323 C   0  0  0  0  0  0  0  0  0  0  0  0
  130.3553  132.2070  155.7772 C   0  0  0  0  0  0  0  0  0  0  0  0
  130.0754  132.7922  154.5433 C   0  0  0  0  0  0  0  0  0  0  0  0
  130.3928  132.1268  153.3780 C   0  0  0  0  0  0  0  0  0  0  0  0
  130.9803  130.8685  153.4330 C   0  0  0  0  0  0  0  0  0  0  0  0
  131.2951  130.1938  152.2510 N   0  0  0  0  0  0  0  0  0  0  0  0
  131.2554  130.2808  154.6621 C   0  0  0  0  0  0  0  0  0  0  0  0
  130.9450  130.9449  155.8299 C   0  0  0  0  0  0  0  0  0  0  0  0
  130.5048  134.1316  157.4153 N   0  0  0  0  0  0  0  0  0  0  0  0
  131.1311  134.6724  156.9093 H   0  0  0  0  0  0  0  0  0  0  0  0
  127.1468  134.1708  162.3770 H   0  0  0  0  0  0  0  0  0  0  0  0
  127.7497  134.6205  163.9903 H   0  0  0  0  0  0  0  0  0  0  0  0
  127.8000  135.8022  162.6601 H   0  0  0  0  0  0  0  0  0  0  0  0
  131.8792  132.4187  162.8340 H   0  0  0  0  0  0  0  0  0  0  0  0
  131.9650  134.1783  160.8312 H   0  0  0  0  0  0  0  0  0  0  0  0
  129.3549  137.5334  161.8929 H   0  0  0  0  0  0  0  0  0  0  0  0
  131.0507  137.0792  161.5988 H   0  0  0  0  0  0  0  0  0  0  0  0
  131.3858  140.4815  159.7488 H   0  0  0  0  0  0  0  0  0  0  0  0
  130.8136  140.0958  161.3895 H   0  0  0  0  0  0  0  0  0  0  0  0
  132.5222  138.3148  161.5937 H   0  0  0  0  0  0  0  0  0  0  0  0
  133.3511  141.1197  160.7847 H   0  0  0  0  0  0  0  0  0  0  0  0
  133.7203  140.2256  162.2913 H   0  0  0  0  0  0  0  0  0  0  0  0
  135.9176  140.0678  160.8953 H   0  0  0  0  0  0  0  0  0  0  0  0
  135.5343  138.2895  159.1412 H   0  0  0  0  0  0  0  0  0  0  0  0
  133.1105  137.3961  159.5005 H   0  0  0  0  0  0  0  0  0  0  0  0
  132.8845  138.9554  158.6500 H   0  0  0  0  0  0  0  0  0  0  0  0
  130.8653  136.2732  158.9208 H   0  0  0  0  0  0  0  0  0  0  0  0
  128.6282  131.5566  158.0032 H   0  0  0  0  0  0  0  0  0  0  0  0
  129.6146  133.7680  154.5001 H   0  0  0  0  0  0  0  0  0  0  0  0
  130.1799  132.5816  152.4218 H   0  0  0  0  0  0  0  0  0  0  0  0
  131.7056  129.3154  152.2887 H   0  0  0  0  0  0  0  0  0  0  0  0
  131.1035  130.6030  151.3929 H   0  0  0  0  0  0  0  0  0  0  0  0
  131.7122  129.3031  154.7025 H   0  0  0  0  0  0  0  0  0  0  0  0
  131.1589  130.4879  156.7848 H   0  0  0  0  0  0  0  0  0  0  0  0
  1  2  1  0
  1 32  1  0
  1 33  1  0
  1 34  1  0
  2  6  1  0
  2  3  1  0
  3  4  2  0
  4  5  1  0
  4 35  1  0
  5  6  2  0
  5 36  1  0
  6  7  1  0
  7  8  1  6
  7  9  1  0
  7 17  1  0
  9 10  1  0
  9 37  1  0
  9 38  1  0
 10 11  1  0
 11 12  1  0
 11 39  1  0
 11 40  1  0
 12 16  1  0
 12 13  1  0
 12 41  1  0
 13 14  1  0
 13 42  1  0
 13 43  1  0
 14 15  2  0
 14 44  1  0
 15 16  1  0
 15 45  1  0
 16 46  1  0
 16 47  1  0
 17 48  1  0
 18 17  1  0
 18 30  2  0
 18 19  1  0
 19 20  1  0
 19 21  1  0
 21 22  2  0
 21 49  1  0
 22 23  1  0
 22 30  1  0
 23 29  1  0
 23 24  2  0
 24 25  1  0
 24 50  1  0
 25 26  2  0
 25 51  1  0
 26 27  1  0
 26 28  1  0
 27 52  1  0
 27 53  1  0
 28 29  2  0
 28 54  1  0
 29 55  1  0
 30 31  1  0
M  CHG  1  30   1
M  END
>  <DOCK_score>  (1) 
-56.305595

>  <SMILES>  (1) 
Cn1nccc1[C@@H](CSCC1CC=CC1)Nc1[nH]cc(-c2ccc(N)cc2)[nH+]1

$$$$
