C/C=C/C=C/CNc1ccc(-c2n[nH]cc2C[NH2+]CC2=CCOCC2)o1
     RDKit          3D

 53 55  0  0  0  0  0  0  0  0999 V2000
  127.1478  134.8027  168.4386 C   0  0  0  0  0  0  0  0  0  0  0  0
  127.0914  134.8881  166.9352 C   0  0  0  0  0  0  0  0  0  0  0  0
  127.1774  136.0694  166.3331 C   0  0  0  0  0  0  0  0  0  0  0  0
  127.1223  136.1529  164.8654 C   0  0  0  0  0  0  0  0  0  0  0  0
  127.2082  137.3342  164.2634 C   0  0  0  0  0  0  0  0  0  0  0  0
  127.1519  137.4196  162.7599 C   0  0  0  0  0  0  0  0  0  0  0  0
  126.3317  136.3233  162.2390 N   0  0  0  0  0  0  0  0  0  0  0  0
  126.8856  135.3955  161.3645 C   0  0  0  0  0  0  0  0  0  0  0  0
  126.2376  134.3367  160.8177 C   0  0  0  0  0  0  0  0  0  0  0  0
  127.1662  133.6651  159.9981 C   0  0  0  0  0  0  0  0  0  0  0  0
  128.3369  134.3499  160.0866 C   0  0  0  0  0  0  0  0  0  0  0  0
  129.5949  134.0067  159.3918 C   0  0  0  0  0  0  0  0  0  0  0  0
  129.7793  132.9846  158.5795 N   0  0  0  0  0  0  0  0  0  0  0  0
  131.1074  133.0165  158.1354 N   0  0  0  0  0  0  0  0  0  0  0  0
  131.5192  132.3826  157.5276 H   0  0  0  0  0  0  0  0  0  0  0  0
  131.7154  134.0821  158.7003 C   0  0  0  0  0  0  0  0  0  0  0  0
  130.8124  134.7140  159.4802 C   0  0  0  0  0  0  0  0  0  0  0  0
  131.0610  135.9540  160.2997 C   0  0  0  0  0  0  0  0  0  0  0  0
  130.7629  137.1436  159.4910 N   0  0  0  0  0  0  0  0  0  0  0  0
  131.3579  137.1541  158.6761 H   0  0  0  0  0  0  0  0  0  0  0  0
  129.7966  137.1198  159.2015 H   0  0  0  0  0  0  0  0  0  0  0  0
  131.0053  138.3522  160.2899 C   0  0  0  0  0  0  0  0  0  0  0  0
  132.4486  138.3875  160.7222 C   0  0  0  0  0  0  0  0  0  0  0  0
  132.7202  138.3989  161.9933 C   0  0  0  0  0  0  0  0  0  0  0  0
  134.1241  138.4370  162.5267 C   0  0  0  0  0  0  0  0  0  0  0  0
  135.0536  138.1071  161.4925 O   0  0  0  0  0  0  0  0  0  0  0  0
  134.8449  138.8593  160.2908 C   0  0  0  0  0  0  0  0  0  0  0  0
  133.5193  138.4141  159.6665 C   0  0  0  0  0  0  0  0  0  0  0  0
  128.1547  135.3938  160.9224 O   0  0  0  0  0  0  0  0  0  0  0  0
  126.3256  135.3764  168.8662 H   0  0  0  0  0  0  0  0  0  0  0  0
  127.0626  133.7606  168.7469 H   0  0  0  0  0  0  0  0  0  0  0  0
  128.0961  135.2092  168.7905 H   0  0  0  0  0  0  0  0  0  0  0  0
  126.9814  133.9891  166.3470 H   0  0  0  0  0  0  0  0  0  0  0  0
  127.2875  136.9685  166.9214 H   0  0  0  0  0  0  0  0  0  0  0  0
  127.0121  135.2538  164.2772 H   0  0  0  0  0  0  0  0  0  0  0  0
  127.3186  138.2333  164.8516 H   0  0  0  0  0  0  0  0  0  0  0  0
  128.1604  137.3437  162.3536 H   0  0  0  0  0  0  0  0  0  0  0  0
  126.7129  138.3732  162.4663 H   0  0  0  0  0  0  0  0  0  0  0  0
  125.4020  136.2447  162.5043 H   0  0  0  0  0  0  0  0  0  0  0  0
  125.2061  134.0611  160.9798 H   0  0  0  0  0  0  0  0  0  0  0  0
  126.9827  132.7770  159.4117 H   0  0  0  0  0  0  0  0  0  0  0  0
  132.7440  134.3769  158.5540 H   0  0  0  0  0  0  0  0  0  0  0  0
  130.4182  135.9427  161.1800 H   0  0  0  0  0  0  0  0  0  0  0  0
  132.1048  135.9797  160.6126 H   0  0  0  0  0  0  0  0  0  0  0  0
  130.7841  139.2349  159.6896 H   0  0  0  0  0  0  0  0  0  0  0  0
  130.3625  138.3410  161.1701 H   0  0  0  0  0  0  0  0  0  0  0  0
  131.9011  138.3764  162.6967 H   0  0  0  0  0  0  0  0  0  0  0  0
  134.2228  137.7213  163.3429 H   0  0  0  0  0  0  0  0  0  0  0  0
  134.3369  139.4395  162.8976 H   0  0  0  0  0  0  0  0  0  0  0  0
  135.6608  138.6706  159.5932 H   0  0  0  0  0  0  0  0  0  0  0  0
  134.8011  139.9227  160.5261 H   0  0  0  0  0  0  0  0  0  0  0  0
  133.6348  137.4171  159.2416 H   0  0  0  0  0  0  0  0  0  0  0  0
  133.2358  139.1130  158.8795 H   0  0  0  0  0  0  0  0  0  0  0  0
  1  2  1  0
  1 30  1  0
  1 31  1  0
  1 32  1  0
  2  3  2  0
  2 33  1  0
  3  4  1  0
  3 34  1  0
  4  5  2  0
  4 35  1  0
  5  6  1  0
  5 36  1  0
  6  7  1  0
  6 37  1  0
  6 38  1  0
  7  8  1  0
  7 39  1  0
  8 29  1  0
  8  9  2  0
  9 10  1  0
  9 40  1  0
 10 11  2  0
 10 41  1  0
 11 12  1  0
 11 29  1  0
 12 17  1  0
 12 13  2  0
 13 14  1  0
 14 15  1  0
 14 16  1  0
 16 17  2  0
 16 42  1  0
 17 18  1  0
 18 19  1  0
 18 43  1  0
 18 44  1  0
 19 20  1  0
 19 21  1  0
 19 22  1  0
 22 23  1  0
 22 45  1  0
 22 46  1  0
 23 28  1  0
 23 24  2  0
 24 25  1  0
 24 47  1  0
 25 26  1  0
 25 48  1  0
 25 49  1  0
 26 27  1  0
 27 28  1  0
 27 50  1  0
 27 51  1  0
 28 52  1  0
 28 53  1  0
M  CHG  1  19   1
M  END
>  <DOCK_score>  (1) 
-41.922878

>  <SMILES>  (1) 
C/C=C/C=C/CNc1ccc(-c2n[nH]cc2C[NH2+]CC2=CCOCC2)o1

$$$$
