CCc1ccc(-c2c[nH]c(NC(c3ccnn3C)[C@H](CO)Cc3ccccc3)[nH+]2)cc1
     RDKit          3D

 61 64  0  0  1  0  0  0  0  0999 V2000
  130.3046  128.8483  152.0720 C   0  0  0  0  0  0  0  0  0  0  0  0
  131.5040  129.7285  152.4280 C   0  0  0  0  0  0  0  0  0  0  0  0
  131.2093  130.4917  153.6936 C   0  0  0  0  0  0  0  0  0  0  0  0
  131.5402  129.9447  154.9204 C   0  0  0  0  0  0  0  0  0  0  0  0
  131.2777  130.6410  156.0826 C   0  0  0  0  0  0  0  0  0  0  0  0
  130.6679  131.8927  156.0194 C   0  0  0  0  0  0  0  0  0  0  0  0
  130.3782  132.6435  157.2654 C   0  0  0  0  0  0  0  0  0  0  0  0
  129.5797  132.2285  158.2798 C   0  0  0  0  0  0  0  0  0  0  0  0
  129.5930  133.2211  159.2293 N   0  0  0  0  0  0  0  0  0  0  0  0
  129.1171  133.2141  160.0745 H   0  0  0  0  0  0  0  0  0  0  0  0
  130.3934  134.2183  158.7631 C   0  0  0  0  0  0  0  0  0  0  0  0
  130.6690  135.4051  159.4206 N   0  0  0  0  0  0  0  0  0  0  0  0
  130.0779  135.6687  160.7349 C   0  0  2  0  0  0  0  0  0  0  0  0
  128.5752  135.6557  160.6217 C   0  0  0  0  0  0  0  0  0  0  0  0
  127.8544  136.0013  159.5298 C   0  0  0  0  0  0  0  0  0  0  0  0
  126.4997  135.8481  159.8423 C   0  0  0  0  0  0  0  0  0  0  0  0
  126.4103  135.4255  161.0773 N   0  0  0  0  0  0  0  0  0  0  0  0
  127.7074  135.2915  161.5889 N   0  0  0  0  0  0  0  0  0  0  0  0
  128.0598  134.8390  162.9370 C   0  0  0  0  0  0  0  0  0  0  0  0
  130.5396  137.0384  161.2364 C   0  0  2  0  0  0  0  0  0  0  0  0
  130.2216  137.8086  160.5338 H   0  0  0  0  0  0  0  0  0  0  0  0
  132.0652  137.0517  161.3513 C   0  0  0  0  0  0  0  0  0  0  0  0
  132.6418  136.7946  160.0693 O   0  0  0  0  0  0  0  0  0  0  0  0
  129.9223  137.3137  162.6090 C   0  0  0  0  0  0  0  0  0  0  0  0
  130.3772  138.6627  163.1028 C   0  0  0  0  0  0  0  0  0  0  0  0
  131.5278  138.7692  163.8618 C   0  0  0  0  0  0  0  0  0  0  0  0
  131.9475  140.0074  164.3107 C   0  0  0  0  0  0  0  0  0  0  0  0
  131.2112  141.1379  164.0096 C   0  0  0  0  0  0  0  0  0  0  0  0
  130.0579  141.0309  163.2551 C   0  0  0  0  0  0  0  0  0  0  0  0
  129.6408  139.7933  162.8017 C   0  0  0  0  0  0  0  0  0  0  0  0
  130.8608  133.8695  157.5894 N   0  0  0  0  0  0  0  0  0  0  0  0
  131.4562  134.4028  157.0399 H   0  0  0  0  0  0  0  0  0  0  0  0
  130.3315  132.4364  154.7809 C   0  0  0  0  0  0  0  0  0  0  0  0
  130.6037  131.7335  153.6248 C   0  0  0  0  0  0  0  0  0  0  0  0
  130.5178  128.2966  151.1564 H   0  0  0  0  0  0  0  0  0  0  0  0
  130.1163  128.1457  152.8838 H   0  0  0  0  0  0  0  0  0  0  0  0
  129.4253  129.4747  151.9225 H   0  0  0  0  0  0  0  0  0  0  0  0
  132.3833  129.1025  152.5773 H   0  0  0  0  0  0  0  0  0  0  0  0
  131.6923  130.4316  151.6158 H   0  0  0  0  0  0  0  0  0  0  0  0
  132.0087  128.9727  154.9684 H   0  0  0  0  0  0  0  0  0  0  0  0
  131.5403  130.2150  157.0397 H   0  0  0  0  0  0  0  0  0  0  0  0
  129.0387  131.2952  158.3323 H   0  0  0  0  0  0  0  0  0  0  0  0
  131.2534  136.0620  159.0111 H   0  0  0  0  0  0  0  0  0  0  0  0
  130.3959  134.8983  161.4375 H   0  0  0  0  0  0  0  0  0  0  0  0
  128.2545  136.3361  158.5843 H   0  0  0  0  0  0  0  0  0  0  0  0
  125.6705  136.0442  159.1785 H   0  0  0  0  0  0  0  0  0  0  0  0
  128.1130  135.6979  163.6062 H   0  0  0  0  0  0  0  0  0  0  0  0
  127.3009  134.1444  163.2970 H   0  0  0  0  0  0  0  0  0  0  0  0
  129.0276  134.3383  162.9109 H   0  0  0  0  0  0  0  0  0  0  0  0
  132.3943  138.0274  161.7086 H   0  0  0  0  0  0  0  0  0  0  0  0
  132.3834  136.2813  162.0537 H   0  0  0  0  0  0  0  0  0  0  0  0
  132.4010  137.4422  159.3927 H   0  0  0  0  0  0  0  0  0  0  0  0
  128.8355  137.3042  162.5271 H   0  0  0  0  0  0  0  0  0  0  0  0
  130.2405  136.5434  163.3116 H   0  0  0  0  0  0  0  0  0  0  0  0
  132.1006  137.8854  164.1008 H   0  0  0  0  0  0  0  0  0  0  0  0
  132.8484  140.0910  164.9006 H   0  0  0  0  0  0  0  0  0  0  0  0
  131.5368  142.1046  164.3641 H   0  0  0  0  0  0  0  0  0  0  0  0
  129.4825  141.9140  163.0200 H   0  0  0  0  0  0  0  0  0  0  0  0
  128.7396  139.7097  162.2124 H   0  0  0  0  0  0  0  0  0  0  0  0
  129.8585  133.4057  154.7260 H   0  0  0  0  0  0  0  0  0  0  0  0
  130.3441  132.1541  152.6646 H   0  0  0  0  0  0  0  0  0  0  0  0
  1  2  1  0
  1 35  1  0
  1 36  1  0
  1 37  1  0
  2  3  1  0
  2 38  1  0
  2 39  1  0
  3 34  2  0
  3  4  1  0
  4  5  2  0
  4 40  1  0
  5  6  1  0
  5 41  1  0
  6  7  1  0
  6 33  2  0
  7 31  1  0
  7  8  2  0
  8  9  1  0
  8 42  1  0
  9 10  1  0
  9 11  1  0
 11 12  1  0
 11 31  2  0
 12 13  1  0
 12 43  1  0
 13 14  1  0
 13 20  1  0
 13 44  1  1
 14 18  1  0
 14 15  2  0
 15 16  1  0
 15 45  1  0
 16 17  2  0
 16 46  1  0
 17 18  1  0
 18 19  1  0
 19 47  1  0
 19 48  1  0
 19 49  1  0
 20 21  1  6
 20 22  1  0
 20 24  1  0
 22 23  1  0
 22 50  1  0
 22 51  1  0
 23 52  1  0
 24 25  1  0
 24 53  1  0
 24 54  1  0
 25 30  1  0
 25 26  2  0
 26 27  1  0
 26 55  1  0
 27 28  2  0
 27 56  1  0
 28 29  1  0
 28 57  1  0
 29 30  2  0
 29 58  1  0
 30 59  1  0
 31 32  1  0
 33 34  1  0
 33 60  1  0
 34 61  1  0
M  CHG  1  31   1
M  END
>  <DOCK_score>  (1) 
-61.593826

>  <SMILES>  (1) 
CCc1ccc(-c2c[nH]c(NC(c3ccnn3C)[C@H](CO)Cc3ccccc3)[nH+]2)cc1

$$$$
