CCc1ccc(-c2c[nH]c(N[C@H](C)C(Cc3ccccc3)c3ccc(C)cc3)[nH+]2)cc1
     RDKit          3D

 63 66  0  0  1  0  0  0  0  0999 V2000
  130.0137  128.4410  151.6495 C   0  0  0  0  0  0  0  0  0  0  0  0
  131.0884  129.5203  151.7943 C   0  0  0  0  0  0  0  0  0  0  0  0
  130.8923  130.2539  153.0961 C   0  0  0  0  0  0  0  0  0  0  0  0
  131.5181  129.8013  154.2433 C   0  0  0  0  0  0  0  0  0  0  0  0
  131.3410  130.4687  155.4382 C   0  0  0  0  0  0  0  0  0  0  0  0
  130.5294  131.6007  155.4876 C   0  0  0  0  0  0  0  0  0  0  0  0
  130.3352  132.3223  156.7690 C   0  0  0  0  0  0  0  0  0  0  0  0
  129.8025  131.8046  157.9035 C   0  0  0  0  0  0  0  0  0  0  0  0
  129.8090  132.8086  158.8411 N   0  0  0  0  0  0  0  0  0  0  0  0
  129.4902  132.7433  159.7549 H   0  0  0  0  0  0  0  0  0  0  0  0
  130.3461  133.9114  158.2515 C   0  0  0  0  0  0  0  0  0  0  0  0
  130.5303  135.1416  158.8591 N   0  0  0  0  0  0  0  0  0  0  0  0
  130.1328  135.3356  160.2557 C   0  0  2  0  0  0  0  0  0  0  0  0
  130.3918  134.4485  160.8339 H   0  0  0  0  0  0  0  0  0  0  0  0
  128.6224  135.5688  160.3283 C   0  0  0  0  0  0  0  0  0  0  0  0
  130.8646  136.5503  160.8302 C   0  0  2  0  0  0  0  0  0  0  0  0
  132.2884  136.1498  161.2218 C   0  0  0  0  0  0  0  0  0  0  0  0
  133.1492  137.3831  161.3159 C   0  0  0  0  0  0  0  0  0  0  0  0
  133.8353  137.8336  160.2035 C   0  0  0  0  0  0  0  0  0  0  0  0
  134.6211  138.9677  160.2886 C   0  0  0  0  0  0  0  0  0  0  0  0
  134.7292  139.6452  161.4886 C   0  0  0  0  0  0  0  0  0  0  0  0
  134.0473  139.1917  162.6023 C   0  0  0  0  0  0  0  0  0  0  0  0
  133.2574  138.0606  162.5159 C   0  0  0  0  0  0  0  0  0  0  0  0
  130.1303  137.0494  162.0478 C   0  0  0  0  0  0  0  0  0  0  0  0
  129.9554  136.2184  163.1385 C   0  0  0  0  0  0  0  0  0  0  0  0
  129.2856  136.6777  164.2572 C   0  0  0  0  0  0  0  0  0  0  0  0
  128.7825  137.9651  164.2814 C   0  0  0  0  0  0  0  0  0  0  0  0
  128.0483  138.4643  165.4992 C   0  0  0  0  0  0  0  0  0  0  0  0
  128.9533  138.7946  163.1889 C   0  0  0  0  0  0  0  0  0  0  0  0
  129.6268  138.3367  162.0720 C   0  0  0  0  0  0  0  0  0  0  0  0
  130.6548  133.6183  157.0119 N   0  0  0  0  0  0  0  0  0  0  0  0
  131.0503  134.2298  156.3711 H   0  0  0  0  0  0  0  0  0  0  0  0
  129.8964  132.0488  154.3296 C   0  0  0  0  0  0  0  0  0  0  0  0
  130.0852  131.3769  153.1390 C   0  0  0  0  0  0  0  0  0  0  0  0
  130.0916  127.7372  152.4783 H   0  0  0  0  0  0  0  0  0  0  0  0
  129.0280  128.9061  151.6590 H   0  0  0  0  0  0  0  0  0  0  0  0
  130.1561  127.9105  150.7079 H   0  0  0  0  0  0  0  0  0  0  0  0
  131.0106  130.2240  150.9656 H   0  0  0  0  0  0  0  0  0  0  0  0
  132.0741  129.0553  151.7848 H   0  0  0  0  0  0  0  0  0  0  0  0
  132.1468  128.9241  154.2039 H   0  0  0  0  0  0  0  0  0  0  0  0
  131.8308  130.1147  156.3334 H   0  0  0  0  0  0  0  0  0  0  0  0
  129.4416  130.7963  158.0430 H   0  0  0  0  0  0  0  0  0  0  0  0
  130.9190  135.8762  158.3589 H   0  0  0  0  0  0  0  0  0  0  0  0
  128.3108  135.6089  161.3721 H   0  0  0  0  0  0  0  0  0  0  0  0
  128.3764  136.5113  159.8393 H   0  0  0  0  0  0  0  0  0  0  0  0
  128.1042  134.7523  159.8255 H   0  0  0  0  0  0  0  0  0  0  0  0
  130.9027  137.3400  160.0798 H   0  0  0  0  0  0  0  0  0  0  0  0
  132.2711  135.6443  162.1873 H   0  0  0  0  0  0  0  0  0  0  0  0
  132.6974  135.4780  160.4673 H   0  0  0  0  0  0  0  0  0  0  0  0
  133.7544  137.3017  159.2671 H   0  0  0  0  0  0  0  0  0  0  0  0
  135.1542  139.3219  159.4187 H   0  0  0  0  0  0  0  0  0  0  0  0
  135.3468  140.5287  161.5562 H   0  0  0  0  0  0  0  0  0  0  0  0
  134.1321  139.7209  163.5399 H   0  0  0  0  0  0  0  0  0  0  0  0
  132.7249  137.7061  163.3861 H   0  0  0  0  0  0  0  0  0  0  0  0
  130.3449  135.2112  163.1179 H   0  0  0  0  0  0  0  0  0  0  0  0
  129.1525  136.0297  165.1109 H   0  0  0  0  0  0  0  0  0  0  0  0
  126.9852  138.2461  165.3973 H   0  0  0  0  0  0  0  0  0  0  0  0
  128.4378  137.9669  166.3875 H   0  0  0  0  0  0  0  0  0  0  0  0
  128.1909  139.5408  165.5934 H   0  0  0  0  0  0  0  0  0  0  0  0
  128.5602  139.8003  163.2079 H   0  0  0  0  0  0  0  0  0  0  0  0
  129.7599  138.9846  161.2182 H   0  0  0  0  0  0  0  0  0  0  0  0
  129.2625  132.9226  154.3631 H   0  0  0  0  0  0  0  0  0  0  0  0
  129.5987  131.7258  152.2401 H   0  0  0  0  0  0  0  0  0  0  0  0
  1  2  1  0
  1 35  1  0
  1 36  1  0
  1 37  1  0
  2  3  1  0
  2 38  1  0
  2 39  1  0
  3 34  2  0
  3  4  1  0
  4  5  2  0
  4 40  1  0
  5  6  1  0
  5 41  1  0
  6  7  1  0
  6 33  2  0
  7 31  1  0
  7  8  2  0
  8  9  1  0
  8 42  1  0
  9 10  1  0
  9 11  1  0
 11 12  1  0
 11 31  2  0
 12 13  1  0
 12 43  1  0
 13 14  1  1
 13 15  1  0
 13 16  1  0
 15 44  1  0
 15 45  1  0
 15 46  1  0
 16 17  1  0
 16 24  1  0
 16 47  1  6
 17 18  1  0
 17 48  1  0
 17 49  1  0
 18 23  1  0
 18 19  2  0
 19 20  1  0
 19 50  1  0
 20 21  2  0
 20 51  1  0
 21 22  1  0
 21 52  1  0
 22 23  2  0
 22 53  1  0
 23 54  1  0
 24 30  1  0
 24 25  2  0
 25 26  1  0
 25 55  1  0
 26 27  2  0
 26 56  1  0
 27 28  1  0
 27 29  1  0
 28 57  1  0
 28 58  1  0
 28 59  1  0
 29 30  2  0
 29 60  1  0
 30 61  1  0
 31 32  1  0
 33 34  1  0
 33 62  1  0
 34 63  1  0
M  CHG  1  31   1
M  END
>  <DOCK_score>  (1) 
-57.966232

>  <SMILES>  (1) 
CCc1ccc(-c2c[nH]c(N[C@H](C)C(Cc3ccccc3)c3ccc(C)cc3)[nH+]2)cc1

$$$$
