Cn1nccc1C=C[C@H](Nc1[nH]cc(-c2ccc(N)cc2)[nH+]1)C1=CCCCC1
     RDKit          3D

 55 58  0  0  1  0  0  0  0  0999 V2000
  128.3833  138.6825  162.9549 C   0  0  0  0  0  0  0  0  0  0  0  0
  129.0803  139.4776  161.9409 N   0  0  0  0  0  0  0  0  0  0  0  0
  129.4217  140.8317  162.0448 N   0  0  0  0  0  0  0  0  0  0  0  0
  130.0331  141.1975  160.9469 C   0  0  0  0  0  0  0  0  0  0  0  0
  130.1163  140.0975  160.0937 C   0  0  0  0  0  0  0  0  0  0  0  0
  129.5121  139.0314  160.7258 C   0  0  0  0  0  0  0  0  0  0  0  0
  129.3659  137.6662  160.1922 C   0  0  0  0  0  0  0  0  0  0  0  0
  129.9072  136.6392  160.8378 C   0  0  0  0  0  0  0  0  0  0  0  0
  129.6611  135.2324  160.3568 C   0  0  2  0  0  0  0  0  0  0  0  0
  130.1822  134.5297  161.0070 H   0  0  0  0  0  0  0  0  0  0  0  0
  130.1590  135.0909  158.9863 N   0  0  0  0  0  0  0  0  0  0  0  0
  130.0426  133.8779  158.3292 C   0  0  0  0  0  0  0  0  0  0  0  0
  129.4829  132.7489  158.8428 N   0  0  0  0  0  0  0  0  0  0  0  0
  129.0973  132.6499  159.7274 H   0  0  0  0  0  0  0  0  0  0  0  0
  129.5653  131.7745  157.8764 C   0  0  0  0  0  0  0  0  0  0  0  0
  130.1723  132.3365  156.8022 C   0  0  0  0  0  0  0  0  0  0  0  0
  130.4762  131.6592  155.5177 C   0  0  0  0  0  0  0  0  0  0  0  0
  129.9276  132.1382  154.3291 C   0  0  0  0  0  0  0  0  0  0  0  0
  130.2157  131.5103  153.1358 C   0  0  0  0  0  0  0  0  0  0  0  0
  131.0430  130.3941  153.1186 C   0  0  0  0  0  0  0  0  0  0  0  0
  131.3288  129.7562  151.9091 N   0  0  0  0  0  0  0  0  0  0  0  0
  131.5871  129.9114  154.3035 C   0  0  0  0  0  0  0  0  0  0  0  0
  131.3063  130.5394  155.4984 C   0  0  0  0  0  0  0  0  0  0  0  0
  130.4483  133.6291  157.1079 N   0  0  0  0  0  0  0  0  0  0  0  0
  130.8791  134.2669  156.5175 H   0  0  0  0  0  0  0  0  0  0  0  0
  128.1825  134.9427  160.3866 C   0  0  0  0  0  0  0  0  0  0  0  0
  127.4901  135.2097  159.3260 C   0  0  0  0  0  0  0  0  0  0  0  0
  126.0108  134.9863  159.2092 C   0  0  0  0  0  0  0  0  0  0  0  0
  125.5328  134.0363  160.3096 C   0  0  0  0  0  0  0  0  0  0  0  0
  126.0836  134.5328  161.6522 C   0  0  0  0  0  0  0  0  0  0  0  0
  127.6044  134.3630  161.6443 C   0  0  0  0  0  0  0  0  0  0  0  0
  129.1067  138.2912  163.6701 H   0  0  0  0  0  0  0  0  0  0  0  0
  127.6607  139.3108  163.4757 H   0  0  0  0  0  0  0  0  0  0  0  0
  127.8639  137.8540  162.4732 H   0  0  0  0  0  0  0  0  0  0  0  0
  130.4142  142.1861  160.7380 H   0  0  0  0  0  0  0  0  0  0  0  0
  130.5701  140.0838  159.1138 H   0  0  0  0  0  0  0  0  0  0  0  0
  128.8188  137.5002  159.2759 H   0  0  0  0  0  0  0  0  0  0  0  0
  130.5236  136.8124  161.7075 H   0  0  0  0  0  0  0  0  0  0  0  0
  130.5704  135.8472  158.5392 H   0  0  0  0  0  0  0  0  0  0  0  0
  129.2138  130.7565  157.9575 H   0  0  0  0  0  0  0  0  0  0  0  0
  129.2806  133.0028  154.3424 H   0  0  0  0  0  0  0  0  0  0  0  0
  129.7943  131.8837  152.2141 H   0  0  0  0  0  0  0  0  0  0  0  0
  131.9068  128.9767  151.8968 H   0  0  0  0  0  0  0  0  0  0  0  0
  130.9498  130.0919  151.0824 H   0  0  0  0  0  0  0  0  0  0  0  0
  132.2299  129.0436  154.2879 H   0  0  0  0  0  0  0  0  0  0  0  0
  131.7296  130.1645  156.4186 H   0  0  0  0  0  0  0  0  0  0  0  0
  128.0095  135.6185  158.4718 H   0  0  0  0  0  0  0  0  0  0  0  0
  125.7868  134.5524  158.2348 H   0  0  0  0  0  0  0  0  0  0  0  0
  125.4945  135.9413  159.3070 H   0  0  0  0  0  0  0  0  0  0  0  0
  125.9028  133.0303  160.1113 H   0  0  0  0  0  0  0  0  0  0  0  0
  124.4433  134.0298  160.3403 H   0  0  0  0  0  0  0  0  0  0  0  0
  125.8332  135.5853  161.7843 H   0  0  0  0  0  0  0  0  0  0  0  0
  125.6537  133.9462  162.4642 H   0  0  0  0  0  0  0  0  0  0  0  0
  128.0297  134.8754  162.5071 H   0  0  0  0  0  0  0  0  0  0  0  0
  127.8498  133.3024  161.6993 H   0  0  0  0  0  0  0  0  0  0  0  0
  1  2  1  0
  1 32  1  0
  1 33  1  0
  1 34  1  0
  2  6  1  0
  2  3  1  0
  3  4  2  0
  4  5  1  0
  4 35  1  0
  5  6  2  0
  5 36  1  0
  6  7  1  0
  7  8  2  0
  7 37  1  0
  8  9  1  0
  8 38  1  0
  9 10  1  1
  9 11  1  0
  9 26  1  0
 11 39  1  0
 12 11  1  0
 12 24  2  0
 12 13  1  0
 13 14  1  0
 13 15  1  0
 15 16  2  0
 15 40  1  0
 16 17  1  0
 16 24  1  0
 17 23  1  0
 17 18  2  0
 18 19  1  0
 18 41  1  0
 19 20  2  0
 19 42  1  0
 20 21  1  0
 20 22  1  0
 21 43  1  0
 21 44  1  0
 22 23  2  0
 22 45  1  0
 23 46  1  0
 24 25  1  0
 26 31  1  0
 26 27  2  0
 27 28  1  0
 27 47  1  0
 28 29  1  0
 28 48  1  0
 28 49  1  0
 29 30  1  0
 29 50  1  0
 29 51  1  0
 30 31  1  0
 30 52  1  0
 30 53  1  0
 31 54  1  0
 31 55  1  0
M  CHG  1  24   1
M  END
>  <DOCK_score>  (1) 
-58.727501

>  <SMILES>  (1) 
Cn1nccc1C=C[C@H](Nc1[nH]cc(-c2ccc(N)cc2)[nH+]1)C1=CCCCC1

$$$$
