Cc1ccc(-c2c[nH]c(C[NH2+][C@H](c3ccccc3)c3ccccc3-c3ccccc3)n2)cc1
     RDKit          3D

 61 65  0  0  1  0  0  0  0  0999 V2000
  136.2090  142.0509  159.8685 C   0  0  0  0  0  0  0  0  0  0  0  0
  135.6038  140.7341  160.2819 C   0  0  0  0  0  0  0  0  0  0  0  0
  135.5885  139.6738  159.3938 C   0  0  0  0  0  0  0  0  0  0  0  0
  135.0360  138.4655  159.7674 C   0  0  0  0  0  0  0  0  0  0  0  0
  134.4930  138.3148  161.0419 C   0  0  0  0  0  0  0  0  0  0  0  0
  133.8972  137.0184  161.4489 C   0  0  0  0  0  0  0  0  0  0  0  0
  134.3015  136.2414  162.4876 C   0  0  0  0  0  0  0  0  0  0  0  0
  133.4829  135.1469  162.5010 N   0  0  0  0  0  0  0  0  0  0  0  0
  133.5227  134.4080  163.1282 H   0  0  0  0  0  0  0  0  0  0  0  0
  132.6086  135.2830  161.4800 C   0  0  0  0  0  0  0  0  0  0  0  0
  131.5211  134.3029  161.1226 C   0  0  0  0  0  0  0  0  0  0  0  0
  130.7797  134.7983  159.9551 N   0  0  0  0  0  0  0  0  0  0  0  0
  130.3676  135.6931  160.1733 H   0  0  0  0  0  0  0  0  0  0  0  0
  131.4107  134.8999  159.1743 H   0  0  0  0  0  0  0  0  0  0  0  0
  129.7196  133.8429  159.6066 C   0  0  2  0  0  0  0  0  0  0  0  0
  129.2598  133.4620  160.5185 H   0  0  0  0  0  0  0  0  0  0  0  0
  130.3121  132.6977  158.8266 C   0  0  0  0  0  0  0  0  0  0  0  0
  130.3801  132.7627  157.4474 C   0  0  0  0  0  0  0  0  0  0  0  0
  130.9270  131.7137  156.7322 C   0  0  0  0  0  0  0  0  0  0  0  0
  131.3982  130.5963  157.3955 C   0  0  0  0  0  0  0  0  0  0  0  0
  131.3258  130.5292  158.7744 C   0  0  0  0  0  0  0  0  0  0  0  0
  130.7823  131.5797  159.4899 C   0  0  0  0  0  0  0  0  0  0  0  0
  128.6755  134.5346  158.7686 C   0  0  0  0  0  0  0  0  0  0  0  0
  129.0330  135.5836  157.9456 C   0  0  0  0  0  0  0  0  0  0  0  0
  128.0768  136.2156  157.1717 C   0  0  0  0  0  0  0  0  0  0  0  0
  126.7557  135.8085  157.2262 C   0  0  0  0  0  0  0  0  0  0  0  0
  126.3862  134.7647  158.0498 C   0  0  0  0  0  0  0  0  0  0  0  0
  127.3466  134.1205  158.8275 C   0  0  0  0  0  0  0  0  0  0  0  0
  126.9554  132.9972  159.7146 C   0  0  0  0  0  0  0  0  0  0  0  0
  126.9685  131.6894  159.2341 C   0  0  0  0  0  0  0  0  0  0  0  0
  126.6072  130.6480  160.0648 C   0  0  0  0  0  0  0  0  0  0  0  0
  126.2240  130.9016  161.3694 C   0  0  0  0  0  0  0  0  0  0  0  0
  126.2046  132.1984  161.8502 C   0  0  0  0  0  0  0  0  0  0  0  0
  126.5680  133.2470  161.0296 C   0  0  0  0  0  0  0  0  0  0  0  0
  132.8572  136.3991  160.8543 N   0  0  0  0  0  0  0  0  0  0  0  0
  134.5065  139.3880  161.9306 C   0  0  0  0  0  0  0  0  0  0  0  0
  135.0663  140.5903  161.5484 C   0  0  0  0  0  0  0  0  0  0  0  0
  135.4407  142.6775  159.4155 H   0  0  0  0  0  0  0  0  0  0  0  0
  136.6180  142.5538  160.7448 H   0  0  0  0  0  0  0  0  0  0  0  0
  137.0059  141.8737  159.1461 H   0  0  0  0  0  0  0  0  0  0  0  0
  136.0092  139.7918  158.4062 H   0  0  0  0  0  0  0  0  0  0  0  0
  135.0248  137.6380  159.0732 H   0  0  0  0  0  0  0  0  0  0  0  0
  135.1125  136.4484  163.1701 H   0  0  0  0  0  0  0  0  0  0  0  0
  131.9662  133.3362  160.8868 H   0  0  0  0  0  0  0  0  0  0  0  0
  130.8394  134.1931  161.9660 H   0  0  0  0  0  0  0  0  0  0  0  0
  130.0085  133.6342  156.9289 H   0  0  0  0  0  0  0  0  0  0  0  0
  130.9832  131.7661  155.6549 H   0  0  0  0  0  0  0  0  0  0  0  0
  131.8224  129.7754  156.8365 H   0  0  0  0  0  0  0  0  0  0  0  0
  131.6936  129.6559  159.2925 H   0  0  0  0  0  0  0  0  0  0  0  0
  130.7254  131.5272  160.5671 H   0  0  0  0  0  0  0  0  0  0  0  0
  130.0621  135.9084  157.9026 H   0  0  0  0  0  0  0  0  0  0  0  0
  128.3617  137.0327  156.5255 H   0  0  0  0  0  0  0  0  0  0  0  0
  126.0124  136.3081  156.6229 H   0  0  0  0  0  0  0  0  0  0  0  0
  125.3546  134.4478  158.0919 H   0  0  0  0  0  0  0  0  0  0  0  0
  127.2636  131.4907  158.2144 H   0  0  0  0  0  0  0  0  0  0  0  0
  126.6204  129.6335  159.6944 H   0  0  0  0  0  0  0  0  0  0  0  0
  125.9385  130.0841  162.0148 H   0  0  0  0  0  0  0  0  0  0  0  0
  125.9041  132.3908  162.8696 H   0  0  0  0  0  0  0  0  0  0  0  0
  126.5523  134.2591  161.4061 H   0  0  0  0  0  0  0  0  0  0  0  0
  134.0834  139.2780  162.9182 H   0  0  0  0  0  0  0  0  0  0  0  0
  135.0806  141.4216  162.2376 H   0  0  0  0  0  0  0  0  0  0  0  0
  1  2  1  0
  1 38  1  0
  1 39  1  0
  1 40  1  0
  2 37  2  0
  2  3  1  0
  3  4  2  0
  3 41  1  0
  4  5  1  0
  4 42  1  0
  5  6  1  0
  5 36  2  0
  6 35  1  0
  6  7  2  0
  7  8  1  0
  7 43  1  0
  8  9  1  0
  8 10  1  0
 10 11  1  0
 10 35  2  0
 11 12  1  0
 11 44  1  0
 11 45  1  0
 12 13  1  0
 12 14  1  0
 12 15  1  0
 15 16  1  1
 15 17  1  0
 15 23  1  0
 17 22  1  0
 17 18  2  0
 18 19  1  0
 18 46  1  0
 19 20  2  0
 19 47  1  0
 20 21  1  0
 20 48  1  0
 21 22  2  0
 21 49  1  0
 22 50  1  0
 23 28  1  0
 23 24  2  0
 24 25  1  0
 24 51  1  0
 25 26  2  0
 25 52  1  0
 26 27  1  0
 26 53  1  0
 27 28  2  0
 27 54  1  0
 28 29  1  0
 29 34  1  0
 29 30  2  0
 30 31  1  0
 30 55  1  0
 31 32  2  0
 31 56  1  0
 32 33  1  0
 32 57  1  0
 33 34  2  0
 33 58  1  0
 34 59  1  0
 36 37  1  0
 36 60  1  0
 37 61  1  0
M  CHG  1  12   1
M  END
>  <DOCK_score>  (1) 
-58.819023

>  <SMILES>  (1) 
Cc1ccc(-c2c[nH]c(C[NH2+][C@H](c3ccccc3)c3ccccc3-c3ccccc3)n2)cc1

$$$$
