CCc1ccc(-c2c[nH]c(N[C@@H](C)c3cc(C)on3)[nH+]2)cc1
     RDKit          3D

 43 45  0  0  1  0  0  0  0  0999 V2000
  130.1740  128.3846  151.7053 C   0  0  0  0  0  0  0  0  0  0  0  0
  131.1876  129.5190  151.8674 C   0  0  0  0  0  0  0  0  0  0  0  0
  130.9368  130.2346  153.1698 C   0  0  0  0  0  0  0  0  0  0  0  0
  131.5736  129.8115  154.3221 C   0  0  0  0  0  0  0  0  0  0  0  0
  131.3514  130.4660  155.5166 C   0  0  0  0  0  0  0  0  0  0  0  0
  130.4751  131.5489  155.5624 C   0  0  0  0  0  0  0  0  0  0  0  0
  130.2283  132.2532  156.8442 C   0  0  0  0  0  0  0  0  0  0  0  0
  129.7267  131.6988  157.9757 C   0  0  0  0  0  0  0  0  0  0  0  0
  129.6635  132.6988  158.9154 N   0  0  0  0  0  0  0  0  0  0  0  0
  129.3456  132.6107  159.8276 H   0  0  0  0  0  0  0  0  0  0  0  0
  130.1289  133.8360  158.3303 C   0  0  0  0  0  0  0  0  0  0  0  0
  130.2295  135.0742  158.9412 N   0  0  0  0  0  0  0  0  0  0  0  0
  129.8150  135.2383  160.3368 C   0  0  1  0  0  0  0  0  0  0  0  0
  130.1299  134.3687  160.9138 H   0  0  0  0  0  0  0  0  0  0  0  0
  130.4630  136.4971  160.9166 C   0  0  0  0  0  0  0  0  0  0  0  0
  128.3152  135.3691  160.4033 C   0  0  0  0  0  0  0  0  0  0  0  0
  127.4207  134.5197  161.0941 C   0  0  0  0  0  0  0  0  0  0  0  0
  126.2023  135.0579  160.8481 C   0  0  0  0  0  0  0  0  0  0  0  0
  124.8743  134.5507  161.3483 C   0  0  0  0  0  0  0  0  0  0  0  0
  126.4104  136.1271  160.0670 O   0  0  0  0  0  0  0  0  0  0  0  0
  127.5861  136.2835  159.8315 N   0  0  0  0  0  0  0  0  0  0  0  0
  130.4701  133.5646  157.0942 N   0  0  0  0  0  0  0  0  0  0  0  0
  130.8354  134.2002  156.4591 H   0  0  0  0  0  0  0  0  0  0  0  0
  129.8320  131.9678  154.3990 C   0  0  0  0  0  0  0  0  0  0  0  0
  130.0658  131.3091  153.2090 C   0  0  0  0  0  0  0  0  0  0  0  0
  130.2801  127.6822  152.5321 H   0  0  0  0  0  0  0  0  0  0  0  0
  129.1647  128.7960  151.7054 H   0  0  0  0  0  0  0  0  0  0  0  0
  130.3555  127.8671  150.7633 H   0  0  0  0  0  0  0  0  0  0  0  0
  132.1968  129.1081  151.8671 H   0  0  0  0  0  0  0  0  0  0  0  0
  131.0812  130.2220  151.0404 H   0  0  0  0  0  0  0  0  0  0  0  0
  132.2491  128.9695  154.2863 H   0  0  0  0  0  0  0  0  0  0  0  0
  131.8528  130.1374  156.4150 H   0  0  0  0  0  0  0  0  0  0  0  0
  129.4328  130.6685  158.1118 H   0  0  0  0  0  0  0  0  0  0  0  0
  130.5742  135.8331  158.4453 H   0  0  0  0  0  0  0  0  0  0  0  0
  130.1547  136.6191  161.9550 H   0  0  0  0  0  0  0  0  0  0  0  0
  131.5479  136.4024  160.8685 H   0  0  0  0  0  0  0  0  0  0  0  0
  130.1483  137.3665  160.3395 H   0  0  0  0  0  0  0  0  0  0  0  0
  127.6549  133.6455  161.6835 H   0  0  0  0  0  0  0  0  0  0  0  0
  124.0765  135.1936  160.9765 H   0  0  0  0  0  0  0  0  0  0  0  0
  124.7164  133.5329  160.9919 H   0  0  0  0  0  0  0  0  0  0  0  0
  124.8694  134.5589  162.4383 H   0  0  0  0  0  0  0  0  0  0  0  0
  129.1517  132.8061  154.4287 H   0  0  0  0  0  0  0  0  0  0  0  0
  129.5677  131.6326  152.3070 H   0  0  0  0  0  0  0  0  0  0  0  0
  1  2  1  0
  1 26  1  0
  1 27  1  0
  1 28  1  0
  2  3  1  0
  2 29  1  0
  2 30  1  0
  3 25  2  0
  3  4  1  0
  4  5  2  0
  4 31  1  0
  5  6  1  0
  5 32  1  0
  6  7  1  0
  6 24  2  0
  7 22  1  0
  7  8  2  0
  8  9  1  0
  8 33  1  0
  9 10  1  0
  9 11  1  0
 11 12  1  0
 11 22  2  0
 12 13  1  0
 12 34  1  0
 13 14  1  1
 13 15  1  0
 13 16  1  0
 15 35  1  0
 15 36  1  0
 15 37  1  0
 16 21  2  0
 16 17  1  0
 17 18  2  0
 17 38  1  0
 18 19  1  0
 18 20  1  0
 19 39  1  0
 19 40  1  0
 19 41  1  0
 20 21  1  0
 22 23  1  0
 24 25  1  0
 24 42  1  0
 25 43  1  0
M  CHG  1  22   1
M  END
>  <DOCK_score>  (1) 
-52.443859

>  <SMILES>  (1) 
CCc1ccc(-c2c[nH]c(N[C@@H](C)c3cc(C)on3)[nH+]2)cc1

$$$$
