Nc1ccc(-c2c[nH]c(N[C@@H](Cc3ccc(F)cc3)c3ccccc3)[nH+]2)cc1
     RDKit          3D

 50 53  0  0  1  0  0  0  0  0999 V2000
  131.7691  129.9791  151.9903 N   0  0  0  0  0  0  0  0  0  0  0  0
  131.4553  130.5791  153.2121 C   0  0  0  0  0  0  0  0  0  0  0  0
  130.9685  131.8805  153.2414 C   0  0  0  0  0  0  0  0  0  0  0  0
  130.6581  132.4749  154.4463 C   0  0  0  0  0  0  0  0  0  0  0  0
  130.8331  131.7692  155.6357 C   0  0  0  0  0  0  0  0  0  0  0  0
  130.4999  132.4064  156.9334 C   0  0  0  0  0  0  0  0  0  0  0  0
  130.0647  131.7677  158.0475 C   0  0  0  0  0  0  0  0  0  0  0  0
  129.8795  132.7297  159.0119 N   0  0  0  0  0  0  0  0  0  0  0  0
  129.5721  132.5815  159.9199 H   0  0  0  0  0  0  0  0  0  0  0  0
  130.2074  133.9283  158.4574 C   0  0  0  0  0  0  0  0  0  0  0  0
  130.1582  135.1541  159.0991 N   0  0  0  0  0  0  0  0  0  0  0  0
  129.7237  135.2327  160.4960 C   0  0  1  0  0  0  0  0  0  0  0  0
  130.1385  134.3928  161.0533 H   0  0  0  0  0  0  0  0  0  0  0  0
  130.2156  136.5449  161.1100 C   0  0  0  0  0  0  0  0  0  0  0  0
  131.6645  136.4049  161.5002 C   0  0  0  0  0  0  0  0  0  0  0  0
  131.9991  135.9500  162.7621 C   0  0  0  0  0  0  0  0  0  0  0  0
  133.3274  135.8268  163.1229 C   0  0  0  0  0  0  0  0  0  0  0  0
  134.3233  136.1475  162.2160 C   0  0  0  0  0  0  0  0  0  0  0  0
  135.6222  136.0215  162.5656 F   0  0  0  0  0  0  0  0  0  0  0  0
  133.9869  136.5971  160.9503 C   0  0  0  0  0  0  0  0  0  0  0  0
  132.6580  136.7251  160.5937 C   0  0  0  0  0  0  0  0  0  0  0  0
  128.2189  135.1823  160.5575 C   0  0  0  0  0  0  0  0  0  0  0  0
  127.5902  134.6284  161.6570 C   0  0  0  0  0  0  0  0  0  0  0  0
  126.2097  134.5858  161.7152 C   0  0  0  0  0  0  0  0  0  0  0  0
  125.4579  135.0895  160.6703 C   0  0  0  0  0  0  0  0  0  0  0  0
  126.0868  135.6386  159.5683 C   0  0  0  0  0  0  0  0  0  0  0  0
  127.4671  135.6847  159.5119 C   0  0  0  0  0  0  0  0  0  0  0  0
  130.5723  133.7317  157.2139 N   0  0  0  0  0  0  0  0  0  0  0  0
  130.8515  134.4233  156.5937 H   0  0  0  0  0  0  0  0  0  0  0  0
  131.3269  130.4660  155.6044 C   0  0  0  0  0  0  0  0  0  0  0  0
  131.6301  129.8735  154.3968 C   0  0  0  0  0  0  0  0  0  0  0  0
  131.6472  130.4708  151.1630 H   0  0  0  0  0  0  0  0  0  0  0  0
  132.1090  129.0709  151.9690 H   0  0  0  0  0  0  0  0  0  0  0  0
  130.8335  132.4270  152.3197 H   0  0  0  0  0  0  0  0  0  0  0  0
  130.2795  133.4860  154.4684 H   0  0  0  0  0  0  0  0  0  0  0  0
  129.8956  130.7065  158.1562 H   0  0  0  0  0  0  0  0  0  0  0  0
  130.4114  135.9608  158.6238 H   0  0  0  0  0  0  0  0  0  0  0  0
  129.6220  136.7773  161.9942 H   0  0  0  0  0  0  0  0  0  0  0  0
  130.1116  137.3486  160.3812 H   0  0  0  0  0  0  0  0  0  0  0  0
  131.2221  135.6952  163.4676 H   0  0  0  0  0  0  0  0  0  0  0  0
  133.5887  135.4759  164.1105 H   0  0  0  0  0  0  0  0  0  0  0  0
  134.7629  136.8472  160.2421 H   0  0  0  0  0  0  0  0  0  0  0  0
  132.3953  137.0757  159.6066 H   0  0  0  0  0  0  0  0  0  0  0  0
  128.1775  134.2318  162.4720 H   0  0  0  0  0  0  0  0  0  0  0  0
  125.7185  134.1564  162.5759 H   0  0  0  0  0  0  0  0  0  0  0  0
  124.3795  135.0537  160.7146 H   0  0  0  0  0  0  0  0  0  0  0  0
  125.4994  136.0318  158.7518 H   0  0  0  0  0  0  0  0  0  0  0  0
  127.9583  136.1137  158.6510 H   0  0  0  0  0  0  0  0  0  0  0  0
  131.4674  129.9190  156.5250 H   0  0  0  0  0  0  0  0  0  0  0  0
  132.0087  128.8624  154.3717 H   0  0  0  0  0  0  0  0  0  0  0  0
  1  2  1  0
  1 32  1  0
  1 33  1  0
  2 31  2  0
  2  3  1  0
  3  4  2  0
  3 34  1  0
  4  5  1  0
  4 35  1  0
  5  6  1  0
  5 30  2  0
  6 28  1  0
  6  7  2  0
  7  8  1  0
  7 36  1  0
  8  9  1  0
  8 10  1  0
 10 11  1  0
 10 28  2  0
 11 12  1  0
 11 37  1  0
 12 13  1  1
 12 14  1  0
 12 22  1  0
 14 15  1  0
 14 38  1  0
 14 39  1  0
 15 21  1  0
 15 16  2  0
 16 17  1  0
 16 40  1  0
 17 18  2  0
 17 41  1  0
 18 19  1  0
 18 20  1  0
 20 21  2  0
 20 42  1  0
 21 43  1  0
 22 27  1  0
 22 23  2  0
 23 24  1  0
 23 44  1  0
 24 25  2  0
 24 45  1  0
 25 26  1  0
 25 46  1  0
 26 27  2  0
 26 47  1  0
 27 48  1  0
 28 29  1  0
 30 31  1  0
 30 49  1  0
 31 50  1  0
M  CHG  1  28   1
M  END
>  <DOCK_score>  (1) 
-56.547066

>  <SMILES>  (1) 
Nc1ccc(-c2c[nH]c(N[C@@H](Cc3ccc(F)cc3)c3ccccc3)[nH+]2)cc1

$$$$
