Cc1ccc([C@H](c2ccccc2)[NH+]2CCN(c3ccccc3Oc3cccc4ccccc34)CC2)cc1
     RDKit          3D

 70 75  0  0  1  0  0  0  0  0999 V2000
  131.7573  129.6142  157.6978 C   0  0  0  0  0  0  0  0  0  0  0  0
  131.3229  130.9195  158.3127 C   0  0  0  0  0  0  0  0  0  0  0  0
  131.0291  130.9842  159.6620 C   0  0  0  0  0  0  0  0  0  0  0  0
  130.6316  132.1819  160.2262 C   0  0  0  0  0  0  0  0  0  0  0  0
  130.5275  133.3149  159.4411 C   0  0  0  0  0  0  0  0  0  0  0  0
  130.0936  134.6205  160.0561 C   0  0  2  0  0  0  0  0  0  0  0  0
  129.9077  134.4768  161.1206 H   0  0  0  0  0  0  0  0  0  0  0  0
  128.8310  135.0967  159.3854 C   0  0  0  0  0  0  0  0  0  0  0  0
  127.5986  134.7136  159.8806 C   0  0  0  0  0  0  0  0  0  0  0  0
  126.4403  135.1541  159.2678 C   0  0  0  0  0  0  0  0  0  0  0  0
  126.5146  135.9700  158.1545 C   0  0  0  0  0  0  0  0  0  0  0  0
  127.7471  136.3488  157.6561 C   0  0  0  0  0  0  0  0  0  0  0  0
  128.9054  135.9120  158.2715 C   0  0  0  0  0  0  0  0  0  0  0  0
  131.1524  135.6227  159.8750 N   0  0  0  0  0  0  0  0  0  0  0  0
  131.3244  135.7557  158.8898 H   0  0  0  0  0  0  0  0  0  0  0  0
  132.3832  135.1579  160.5280 C   0  0  0  0  0  0  0  0  0  0  0  0
  133.4916  136.1930  160.3236 C   0  0  0  0  0  0  0  0  0  0  0  0
  133.0687  137.4789  160.8958 N   0  0  0  0  0  0  0  0  0  0  0  0
  134.0802  138.4383  160.7756 C   0  0  0  0  0  0  0  0  0  0  0  0
  133.8505  139.6055  160.0620 C   0  0  0  0  0  0  0  0  0  0  0  0
  134.8491  140.5546  159.9502 C   0  0  0  0  0  0  0  0  0  0  0  0
  136.0821  140.3383  160.5374 C   0  0  0  0  0  0  0  0  0  0  0  0
  136.3205  139.1747  161.2450 C   0  0  0  0  0  0  0  0  0  0  0  0
  135.3229  138.2212  161.3674 C   0  0  0  0  0  0  0  0  0  0  0  0
  135.5556  137.0768  162.0638 O   0  0  0  0  0  0  0  0  0  0  0  0
  135.2800  137.0723  163.3932 C   0  0  0  0  0  0  0  0  0  0  0  0
  134.7855  138.2032  164.0037 C   0  0  0  0  0  0  0  0  0  0  0  0
  134.4948  138.2083  165.3649 C   0  0  0  0  0  0  0  0  0  0  0  0
  134.7005  137.1020  166.1315 C   0  0  0  0  0  0  0  0  0  0  0  0
  135.2088  135.9294  165.5477 C   0  0  0  0  0  0  0  0  0  0  0  0
  135.4324  134.7722  166.3139 C   0  0  0  0  0  0  0  0  0  0  0  0
  135.9268  133.6538  165.7164 C   0  0  0  0  0  0  0  0  0  0  0  0
  136.2161  133.6372  164.3533 C   0  0  0  0  0  0  0  0  0  0  0  0
  136.0123  134.7392  163.5804 C   0  0  0  0  0  0  0  0  0  0  0  0
  135.5032  135.9114  164.1619 C   0  0  0  0  0  0  0  0  0  0  0  0
  131.8236  137.9450  160.2690 C   0  0  0  0  0  0  0  0  0  0  0  0
  130.7290  136.8954  160.4739 C   0  0  0  0  0  0  0  0  0  0  0  0
  130.8159  133.2490  158.0907 C   0  0  0  0  0  0  0  0  0  0  0  0
  131.2188  132.0527  157.5276 C   0  0  0  0  0  0  0  0  0  0  0  0
  130.8813  129.0685  157.3470 H   0  0  0  0  0  0  0  0  0  0  0  0
  132.4227  129.8118  156.8575 H   0  0  0  0  0  0  0  0  0  0  0  0
  132.2820  129.0176  158.4442 H   0  0  0  0  0  0  0  0  0  0  0  0
  131.1105  130.0990  160.2753 H   0  0  0  0  0  0  0  0  0  0  0  0
  130.4021  132.2324  161.2803 H   0  0  0  0  0  0  0  0  0  0  0  0
  127.5405  134.0731  160.7481 H   0  0  0  0  0  0  0  0  0  0  0  0
  125.4774  134.8584  159.6573 H   0  0  0  0  0  0  0  0  0  0  0  0
  125.6098  136.3120  157.6742 H   0  0  0  0  0  0  0  0  0  0  0  0
  127.8052  136.9864  156.7863 H   0  0  0  0  0  0  0  0  0  0  0  0
  129.8683  136.2078  157.8822 H   0  0  0  0  0  0  0  0  0  0  0  0
  132.2011  135.0263  161.5947 H   0  0  0  0  0  0  0  0  0  0  0  0
  132.6891  134.2070  160.0917 H   0  0  0  0  0  0  0  0  0  0  0  0
  133.6833  136.3147  159.2575 H   0  0  0  0  0  0  0  0  0  0  0  0
  134.4008  135.8551  160.8207 H   0  0  0  0  0  0  0  0  0  0  0  0
  132.8899  139.7750  159.5981 H   0  0  0  0  0  0  0  0  0  0  0  0
  134.6674  141.4652  159.3987 H   0  0  0  0  0  0  0  0  0  0  0  0
  136.8610  141.0806  160.4433 H   0  0  0  0  0  0  0  0  0  0  0  0
  137.2847  139.0092  161.7026 H   0  0  0  0  0  0  0  0  0  0  0  0
  134.6172  139.0953  163.4186 H   0  0  0  0  0  0  0  0  0  0  0  0
  134.1042  139.1058  165.8213 H   0  0  0  0  0  0  0  0  0  0  0  0
  134.4734  137.1259  167.1871 H   0  0  0  0  0  0  0  0  0  0  0  0
  135.2125  134.7705  167.3713 H   0  0  0  0  0  0  0  0  0  0  0  0
  136.0973  132.7661  166.3072 H   0  0  0  0  0  0  0  0  0  0  0  0
  136.6074  132.7367  163.9033 H   0  0  0  0  0  0  0  0  0  0  0  0
  136.2412  134.7122  162.5253 H   0  0  0  0  0  0  0  0  0  0  0  0
  131.9879  138.0956  159.2020 H   0  0  0  0  0  0  0  0  0  0  0  0
  131.5160  138.8853  160.7263 H   0  0  0  0  0  0  0  0  0  0  0  0
  129.8084  137.2327  159.9974 H   0  0  0  0  0  0  0  0  0  0  0  0
  130.5554  136.7550  161.5407 H   0  0  0  0  0  0  0  0  0  0  0  0
  130.7303  134.1332  157.4765 H   0  0  0  0  0  0  0  0  0  0  0  0
  131.4487  132.0023  156.4736 H   0  0  0  0  0  0  0  0  0  0  0  0
  1  2  1  0
  1 40  1  0
  1 41  1  0
  1 42  1  0
  2 39  2  0
  2  3  1  0
  3  4  2  0
  3 43  1  0
  4  5  1  0
  4 44  1  0
  5  6  1  0
  5 38  2  0
  6  7  1  1
  6  8  1  0
  6 14  1  0
  8 13  1  0
  8  9  2  0
  9 10  1  0
  9 45  1  0
 10 11  2  0
 10 46  1  0
 11 12  1  0
 11 47  1  0
 12 13  2  0
 12 48  1  0
 13 49  1  0
 14 15  1  0
 14 37  1  0
 14 16  1  0
 16 17  1  0
 16 50  1  0
 16 51  1  0
 17 18  1  0
 17 52  1  0
 17 53  1  0
 18 19  1  0
 18 36  1  0
 19 24  1  0
 19 20  2  0
 20 21  1  0
 20 54  1  0
 21 22  2  0
 21 55  1  0
 22 23  1  0
 22 56  1  0
 23 24  2  0
 23 57  1  0
 24 25  1  0
 25 26  1  0
 26 35  1  0
 26 27  2  0
 27 28  1  0
 27 58  1  0
 28 29  2  0
 28 59  1  0
 29 30  1  0
 29 60  1  0
 30 35  2  0
 30 31  1  0
 31 32  2  0
 31 61  1  0
 32 33  1  0
 32 62  1  0
 33 34  2  0
 33 63  1  0
 34 35  1  0
 34 64  1  0
 36 37  1  0
 36 65  1  0
 36 66  1  0
 37 67  1  0
 37 68  1  0
 38 39  1  0
 38 69  1  0
 39 70  1  0
M  CHG  1  14   1
M  END
>  <DOCK_score>  (1) 
-56.397385

>  <SMILES>  (1) 
Cc1ccc([C@H](c2ccccc2)[NH+]2CCN(c3ccccc3Oc3cccc4ccccc34)CC2)cc1

$$$$
