CC(=C[C@@H](Nc1[nH]cc(-c2ccc(N)cc2)[nH+]1)c1cc2ccccc2[nH]1)c1ccc(C)cc1
     RDKit          3D

 61 65  0  0  1  0  0  0  0  0999 V2000
  129.3266  136.7617  163.4516 C   0  0  0  0  0  0  0  0  0  0  0  0
  129.2475  138.1478  162.8656 C   0  0  0  0  0  0  0  0  0  0  0  0
  130.1594  138.5511  161.9919 C   0  0  0  0  0  0  0  0  0  0  0  0
  131.2107  137.5890  161.5019 C   0  0  1  0  0  0  0  0  0  0  0  0
  131.4241  136.8566  162.2803 H   0  0  0  0  0  0  0  0  0  0  0  0
  130.7226  136.9007  160.3042 N   0  0  0  0  0  0  0  0  0  0  0  0
  131.1479  135.6133  160.0241 C   0  0  0  0  0  0  0  0  0  0  0  0
  132.0086  134.8805  160.7815 N   0  0  0  0  0  0  0  0  0  0  0  0
  132.4313  135.1637  161.6073 H   0  0  0  0  0  0  0  0  0  0  0  0
  132.1686  133.6649  160.1596 C   0  0  0  0  0  0  0  0  0  0  0  0
  131.4017  133.6910  159.0418 C   0  0  0  0  0  0  0  0  0  0  0  0
  131.2589  132.5924  158.0552 C   0  0  0  0  0  0  0  0  0  0  0  0
  130.4277  132.7523  156.9476 C   0  0  0  0  0  0  0  0  0  0  0  0
  130.3010  131.7321  156.0289 C   0  0  0  0  0  0  0  0  0  0  0  0
  130.9922  130.5403  156.2125 C   0  0  0  0  0  0  0  0  0  0  0  0
  130.8581  129.5059  155.2832 N   0  0  0  0  0  0  0  0  0  0  0  0
  131.8168  130.3763  157.3191 C   0  0  0  0  0  0  0  0  0  0  0  0
  131.9512  131.3962  158.2375 C   0  0  0  0  0  0  0  0  0  0  0  0
  130.7835  134.8973  158.9882 N   0  0  0  0  0  0  0  0  0  0  0  0
  130.1711  135.1850  158.2933 H   0  0  0  0  0  0  0  0  0  0  0  0
  132.4691  138.3476  161.1674 C   0  0  0  0  0  0  0  0  0  0  0  0
  133.1766  139.0878  162.0355 C   0  0  0  0  0  0  0  0  0  0  0  0
  134.3097  139.6489  161.2959 C   0  0  0  0  0  0  0  0  0  0  0  0
  135.3812  140.4747  161.6419 C   0  0  0  0  0  0  0  0  0  0  0  0
  136.3028  140.8224  160.6951 C   0  0  0  0  0  0  0  0  0  0  0  0
  136.1861  140.3560  159.3926 C   0  0  0  0  0  0  0  0  0  0  0  0
  135.1405  139.5354  159.0313 C   0  0  0  0  0  0  0  0  0  0  0  0
  134.1905  139.1686  159.9791 C   0  0  0  0  0  0  0  0  0  0  0  0
  133.0598  138.3842  159.9337 N   0  0  0  0  0  0  0  0  0  0  0  0
  132.7309  137.9261  159.1445 H   0  0  0  0  0  0  0  0  0  0  0  0
  128.1533  139.0579  163.2650 C   0  0  0  0  0  0  0  0  0  0  0  0
  128.4445  140.2774  163.8770 C   0  0  0  0  0  0  0  0  0  0  0  0
  127.4187  141.1250  164.2421 C   0  0  0  0  0  0  0  0  0  0  0  0
  126.1033  140.7623  164.0134 C   0  0  0  0  0  0  0  0  0  0  0  0
  124.9877  141.6899  164.4210 C   0  0  0  0  0  0  0  0  0  0  0  0
  125.8078  139.5521  163.4119 C   0  0  0  0  0  0  0  0  0  0  0  0
  126.8245  138.6982  163.0367 C   0  0  0  0  0  0  0  0  0  0  0  0
  130.2373  136.6689  164.0434 H   0  0  0  0  0  0  0  0  0  0  0  0
  128.4599  136.5867  164.0890 H   0  0  0  0  0  0  0  0  0  0  0  0
  129.3399  136.0271  162.6466 H   0  0  0  0  0  0  0  0  0  0  0  0
  130.1487  139.5690  161.6313 H   0  0  0  0  0  0  0  0  0  0  0  0
  130.1014  137.3468  159.7077 H   0  0  0  0  0  0  0  0  0  0  0  0
  132.7868  132.8459  160.4969 H   0  0  0  0  0  0  0  0  0  0  0  0
  129.8868  133.6765  156.8070 H   0  0  0  0  0  0  0  0  0  0  0  0
  129.6604  131.8572  155.1684 H   0  0  0  0  0  0  0  0  0  0  0  0
  131.3404  128.6740  155.4106 H   0  0  0  0  0  0  0  0  0  0  0  0
  130.2826  129.6196  154.5107 H   0  0  0  0  0  0  0  0  0  0  0  0
  132.3528  129.4492  157.4601 H   0  0  0  0  0  0  0  0  0  0  0  0
  132.5924  131.2684  159.0970 H   0  0  0  0  0  0  0  0  0  0  0  0
  132.9505  139.2437  163.0800 H   0  0  0  0  0  0  0  0  0  0  0  0
  135.4781  140.8416  162.6530 H   0  0  0  0  0  0  0  0  0  0  0  0
  137.1288  141.4648  160.9621 H   0  0  0  0  0  0  0  0  0  0  0  0
  136.9228  140.6394  158.6554 H   0  0  0  0  0  0  0  0  0  0  0  0
  135.0587  139.1775  158.0156 H   0  0  0  0  0  0  0  0  0  0  0  0
  129.4708  140.5594  164.0607 H   0  0  0  0  0  0  0  0  0  0  0  0
  127.6429  142.0712  164.7119 H   0  0  0  0  0  0  0  0  0  0  0  0
  124.6820  141.4636  165.4424 H   0  0  0  0  0  0  0  0  0  0  0  0
  125.3347  142.7217  164.3657 H   0  0  0  0  0  0  0  0  0  0  0  0
  124.1397  141.5552  163.7496 H   0  0  0  0  0  0  0  0  0  0  0  0
  124.7789  139.2749  163.2357 H   0  0  0  0  0  0  0  0  0  0  0  0
  126.5925  137.7536  162.5671 H   0  0  0  0  0  0  0  0  0  0  0  0
  1  2  1  0
  1 38  1  0
  1 39  1  0
  1 40  1  0
  2  3  2  0
  2 31  1  0
  3  4  1  0
  3 41  1  0
  4  5  1  1
  4  6  1  0
  4 21  1  0
  6 42  1  0
  7  6  1  0
  7 19  2  0
  7  8  1  0
  8  9  1  0
  8 10  1  0
 10 11  2  0
 10 43  1  0
 11 12  1  0
 11 19  1  0
 12 18  1  0
 12 13  2  0
 13 14  1  0
 13 44  1  0
 14 15  2  0
 14 45  1  0
 15 16  1  0
 15 17  1  0
 16 46  1  0
 16 47  1  0
 17 18  2  0
 17 48  1  0
 18 49  1  0
 19 20  1  0
 21 29  1  0
 21 22  2  0
 22 23  1  0
 22 50  1  0
 23 28  2  0
 23 24  1  0
 24 25  2  0
 24 51  1  0
 25 26  1  0
 25 52  1  0
 26 27  2  0
 26 53  1  0
 27 28  1  0
 27 54  1  0
 28 29  1  0
 29 30  1  0
 31 37  1  0
 31 32  2  0
 32 33  1  0
 32 55  1  0
 33 34  2  0
 33 56  1  0
 34 35  1  0
 34 36  1  0
 35 57  1  0
 35 58  1  0
 35 59  1  0
 36 37  2  0
 36 60  1  0
 37 61  1  0
M  CHG  1  19   1
M  END
>  <DOCK_score>  (1) 
-57.950619

>  <SMILES>  (1) 
CC(=C[C@@H](Nc1[nH]cc(-c2ccc(N)cc2)[nH+]1)c1cc2ccccc2[nH]1)c1ccc(C)cc1

$$$$
