O=C1CC[C@H](NC(NC2CC2)=[NH+]CC=CCO)CN1
     RDKit          3D

 42 43  0  0  1  0  0  0  0  0999 V2000
  123.8630  133.6395  161.4040 O   0  0  0  0  0  0  0  0  0  0  0  0
  125.0057  133.9055  161.0964 C   0  0  0  0  0  0  0  0  0  0  0  0
  125.7970  132.8751  160.3431 C   0  0  0  0  0  0  0  0  0  0  0  0
  127.2907  133.1974  160.4332 C   0  0  0  0  0  0  0  0  0  0  0  0
  127.4894  134.6768  160.0823 C   0  0  2  0  0  0  0  0  0  0  0  0
  127.0091  134.8941  159.1282 H   0  0  0  0  0  0  0  0  0  0  0  0
  128.9213  134.9722  159.9904 N   0  0  0  0  0  0  0  0  0  0  0  0
  129.7028  134.3079  159.0748 C   0  0  0  0  0  0  0  0  0  0  0  0
  129.1551  133.8709  157.8920 N   0  0  0  0  0  0  0  0  0  0  0  0
  129.9879  133.1631  156.9165 C   0  0  0  0  0  0  0  0  0  0  0  0
  129.4718  131.8235  156.3871 C   0  0  0  0  0  0  0  0  0  0  0  0
  130.6474  131.8576  157.3658 C   0  0  0  0  0  0  0  0  0  0  0  0
  130.9630  134.0923  159.3285 N   0  0  0  0  0  0  0  0  0  0  0  0
  131.5146  133.6237  158.6827 H   0  0  0  0  0  0  0  0  0  0  0  0
  131.5465  134.5579  160.5891 C   0  0  0  0  0  0  0  0  0  0  0  0
  132.0813  135.9553  160.4093 C   0  0  0  0  0  0  0  0  0  0  0  0
  131.6113  136.9356  161.1400 C   0  0  0  0  0  0  0  0  0  0  0  0
  132.1462  138.3329  160.9603 C   0  0  0  0  0  0  0  0  0  0  0  0
  133.1497  138.3317  159.9428 O   0  0  0  0  0  0  0  0  0  0  0  0
  126.8592  135.5301  161.1838 C   0  0  0  0  0  0  0  0  0  0  0  0
  125.4924  135.0969  161.4456 N   0  0  0  0  0  0  0  0  0  0  0  0
  125.4890  132.8752  159.2976 H   0  0  0  0  0  0  0  0  0  0  0  0
  125.6121  131.8915  160.7749 H   0  0  0  0  0  0  0  0  0  0  0  0
  127.8433  132.5758  159.7287 H   0  0  0  0  0  0  0  0  0  0  0  0
  127.6462  133.0095  161.4462 H   0  0  0  0  0  0  0  0  0  0  0  0
  129.3189  135.6335  160.5782 H   0  0  0  0  0  0  0  0  0  0  0  0
  128.2173  134.0314  157.7032 H   0  0  0  0  0  0  0  0  0  0  0  0
  130.5447  133.7967  156.2261 H   0  0  0  0  0  0  0  0  0  0  0  0
  128.5128  131.4689  156.7646 H   0  0  0  0  0  0  0  0  0  0  0  0
  129.6890  131.5757  155.3482 H   0  0  0  0  0  0  0  0  0  0  0  0
  131.6379  131.6321  156.9706 H   0  0  0  0  0  0  0  0  0  0  0  0
  130.4619  131.5257  158.3873 H   0  0  0  0  0  0  0  0  0  0  0  0
  130.7811  134.5588  161.3652 H   0  0  0  0  0  0  0  0  0  0  0  0
  132.3591  133.8926  160.8809 H   0  0  0  0  0  0  0  0  0  0  0  0
  132.8522  136.1485  159.6779 H   0  0  0  0  0  0  0  0  0  0  0  0
  130.8405  136.7424  161.8714 H   0  0  0  0  0  0  0  0  0  0  0  0
  131.3338  138.9983  160.6684 H   0  0  0  0  0  0  0  0  0  0  0  0
  132.5803  138.6792  161.8982 H   0  0  0  0  0  0  0  0  0  0  0  0
  132.8336  138.0340  159.0789 H   0  0  0  0  0  0  0  0  0  0  0  0
  127.4486  135.4340  162.0956 H   0  0  0  0  0  0  0  0  0  0  0  0
  126.8524  136.5743  160.8712 H   0  0  0  0  0  0  0  0  0  0  0  0
  124.8995  135.7139  161.9026 H   0  0  0  0  0  0  0  0  0  0  0  0
  1  2  2  0
  2 21  1  0
  2  3  1  0
  3  4  1  0
  3 22  1  0
  3 23  1  0
  4  5  1  0
  4 24  1  0
  4 25  1  0
  5  6  1  6
  5  7  1  0
  5 20  1  0
  7 26  1  0
  8  7  1  0
  8  9  1  0
  8 13  2  0
  9 10  1  0
  9 27  1  0
 10 12  1  0
 10 11  1  0
 10 28  1  0
 11 12  1  0
 11 29  1  0
 11 30  1  0
 12 31  1  0
 12 32  1  0
 13 14  1  0
 13 15  1  0
 15 16  1  0
 15 33  1  0
 15 34  1  0
 16 17  2  0
 16 35  1  0
 17 18  1  0
 17 36  1  0
 18 19  1  0
 18 37  1  0
 18 38  1  0
 19 39  1  0
 20 21  1  0
 20 40  1  0
 20 41  1  0
 21 42  1  0
M  CHG  1  13   1
M  END
>  <DOCK_score>  (1) 
-42.421383

>  <SMILES>  (1) 
O=C1CC[C@H](NC(NC2CC2)=[NH+]CC=CCO)CN1

$$$$
