CCc1ccc(-c2c[nH]c(N[C@H](C=CCc3ccccc3)C3CCCCC3)[nH+]2)cc1
     RDKit          3D

 64 67  0  0  1  0  0  0  0  0999 V2000
  132.0811  129.5686  152.5412 C   0  0  0  0  0  0  0  0  0  0  0  0
  130.6592  129.6663  153.0974 C   0  0  0  0  0  0  0  0  0  0  0  0
  130.6675  130.4978  154.3542 C   0  0  0  0  0  0  0  0  0  0  0  0
  130.4839  131.8667  154.2760 C   0  0  0  0  0  0  0  0  0  0  0  0
  130.4849  132.6323  155.4242 C   0  0  0  0  0  0  0  0  0  0  0  0
  130.6828  132.0253  156.6632 C   0  0  0  0  0  0  0  0  0  0  0  0
  130.6904  132.8437  157.9003 C   0  0  0  0  0  0  0  0  0  0  0  0
  130.3122  132.4280  159.1345 C   0  0  0  0  0  0  0  0  0  0  0  0
  130.4764  133.4961  159.9826 N   0  0  0  0  0  0  0  0  0  0  0  0
  130.2887  133.5082  160.9341 H   0  0  0  0  0  0  0  0  0  0  0  0
  130.9507  134.5342  159.2412 C   0  0  0  0  0  0  0  0  0  0  0  0
  131.2498  135.7976  159.7215 N   0  0  0  0  0  0  0  0  0  0  0  0
  131.0607  136.1053  161.1413 C   0  0  2  0  0  0  0  0  0  0  0  0
  131.6814  135.4411  161.7427 H   0  0  0  0  0  0  0  0  0  0  0  0
  129.6125  135.9094  161.5092 C   0  0  0  0  0  0  0  0  0  0  0  0
  129.2828  135.0390  162.4310 C   0  0  0  0  0  0  0  0  0  0  0  0
  127.8345  134.8431  162.7989 C   0  0  0  0  0  0  0  0  0  0  0  0
  127.2357  133.7691  161.9277 C   0  0  0  0  0  0  0  0  0  0  0  0
  126.6397  134.1058  160.7266 C   0  0  0  0  0  0  0  0  0  0  0  0
  126.0948  133.1200  159.9253 C   0  0  0  0  0  0  0  0  0  0  0  0
  126.1370  131.7988  160.3296 C   0  0  0  0  0  0  0  0  0  0  0  0
  126.7279  131.4628  161.5332 C   0  0  0  0  0  0  0  0  0  0  0  0
  127.2774  132.4479  162.3322 C   0  0  0  0  0  0  0  0  0  0  0  0
  131.4622  137.5577  161.4063 C   0  0  0  0  0  0  0  0  0  0  0  0
  131.2645  137.8790  162.8891 C   0  0  0  0  0  0  0  0  0  0  0  0
  131.6660  139.3314  163.1541 C   0  0  0  0  0  0  0  0  0  0  0  0
  130.7947  140.2636  162.3098 C   0  0  0  0  0  0  0  0  0  0  0  0
  130.9925  139.9423  160.8270 C   0  0  0  0  0  0  0  0  0  0  0  0
  130.5909  138.4899  160.5619 C   0  0  0  0  0  0  0  0  0  0  0  0
  131.0827  134.1387  157.9986 N   0  0  0  0  0  0  0  0  0  0  0  0
  131.4069  134.6854  157.2658 H   0  0  0  0  0  0  0  0  0  0  0  0
  130.8729  130.6464  156.7354 C   0  0  0  0  0  0  0  0  0  0  0  0
  130.8644  129.8900  155.5812 C   0  0  0  0  0  0  0  0  0  0  0  0
  132.4516  130.5681  152.3131 H   0  0  0  0  0  0  0  0  0  0  0  0
  132.7298  129.1010  153.2818 H   0  0  0  0  0  0  0  0  0  0  0  0
  132.0751  128.9673  151.6320 H   0  0  0  0  0  0  0  0  0  0  0  0
  130.0105  130.1339  152.3567 H   0  0  0  0  0  0  0  0  0  0  0  0
  130.2888  128.6669  153.3254 H   0  0  0  0  0  0  0  0  0  0  0  0
  130.3354  132.3364  153.3150 H   0  0  0  0  0  0  0  0  0  0  0  0
  130.3367  133.7003  155.3625 H   0  0  0  0  0  0  0  0  0  0  0  0
  129.9507  131.4455  159.3997 H   0  0  0  0  0  0  0  0  0  0  0  0
  131.5849  136.4791  159.1179 H   0  0  0  0  0  0  0  0  0  0  0  0
  128.8463  136.4866  161.0127 H   0  0  0  0  0  0  0  0  0  0  0  0
  130.0487  134.4619  162.9273 H   0  0  0  0  0  0  0  0  0  0  0  0
  127.7625  134.5448  163.8447 H   0  0  0  0  0  0  0  0  0  0  0  0
  127.2921  135.7768  162.6491 H   0  0  0  0  0  0  0  0  0  0  0  0
  126.6032  135.1385  160.4127 H   0  0  0  0  0  0  0  0  0  0  0  0
  125.6327  133.3826  158.9851 H   0  0  0  0  0  0  0  0  0  0  0  0
  125.7079  131.0291  159.7052 H   0  0  0  0  0  0  0  0  0  0  0  0
  126.7605  130.4306  161.8492 H   0  0  0  0  0  0  0  0  0  0  0  0
  127.7391  132.1855  163.2725 H   0  0  0  0  0  0  0  0  0  0  0  0
  132.5097  137.6994  161.1403 H   0  0  0  0  0  0  0  0  0  0  0  0
  130.2170  137.7372  163.1550 H   0  0  0  0  0  0  0  0  0  0  0  0
  131.8853  137.2150  163.4906 H   0  0  0  0  0  0  0  0  0  0  0  0
  132.7136  139.4731  162.8881 H   0  0  0  0  0  0  0  0  0  0  0  0
  131.5253  139.5602  164.2105 H   0  0  0  0  0  0  0  0  0  0  0  0
  131.0808  141.2982  162.4986 H   0  0  0  0  0  0  0  0  0  0  0  0
  129.7473  140.1219  162.5757 H   0  0  0  0  0  0  0  0  0  0  0  0
  132.0400  140.0839  160.5610 H   0  0  0  0  0  0  0  0  0  0  0  0
  130.3717  140.6063  160.2255 H   0  0  0  0  0  0  0  0  0  0  0  0
  130.7317  138.2609  159.5055 H   0  0  0  0  0  0  0  0  0  0  0  0
  129.5435  138.3481  160.8279 H   0  0  0  0  0  0  0  0  0  0  0  0
  131.0270  130.1709  157.6928 H   0  0  0  0  0  0  0  0  0  0  0  0
  131.0119  128.8215  155.6360 H   0  0  0  0  0  0  0  0  0  0  0  0
  1  2  1  0
  1 34  1  0
  1 35  1  0
  1 36  1  0
  2  3  1  0
  2 37  1  0
  2 38  1  0
  3 33  2  0
  3  4  1  0
  4  5  2  0
  4 39  1  0
  5  6  1  0
  5 40  1  0
  6  7  1  0
  6 32  2  0
  7 30  1  0
  7  8  2  0
  8  9  1  0
  8 41  1  0
  9 10  1  0
  9 11  1  0
 11 12  1  0
 11 30  2  0
 12 13  1  0
 12 42  1  0
 13 14  1  1
 13 15  1  0
 13 24  1  0
 15 16  2  0
 15 43  1  0
 16 17  1  0
 16 44  1  0
 17 18  1  0
 17 45  1  0
 17 46  1  0
 18 23  1  0
 18 19  2  0
 19 20  1  0
 19 47  1  0
 20 21  2  0
 20 48  1  0
 21 22  1  0
 21 49  1  0
 22 23  2  0
 22 50  1  0
 23 51  1  0
 24 29  1  0
 24 25  1  0
 24 52  1  0
 25 26  1  0
 25 53  1  0
 25 54  1  0
 26 27  1  0
 26 55  1  0
 26 56  1  0
 27 28  1  0
 27 57  1  0
 27 58  1  0
 28 29  1  0
 28 59  1  0
 28 60  1  0
 29 61  1  0
 29 62  1  0
 30 31  1  0
 32 33  1  0
 32 63  1  0
 33 64  1  0
M  CHG  1  30   1
M  END
>  <DOCK_score>  (1) 
-56.796749

>  <SMILES>  (1) 
CCc1ccc(-c2c[nH]c(N[C@H](C=CCc3ccccc3)C3CCCCC3)[nH+]2)cc1

$$$$
