O=C1CC[C@H](NC(NC2CCC2)=[NH+][C@H]2COc3cc(F)ccc3C2)CN1
     RDKit          3D

 52 55  0  0  1  0  0  0  0  0999 V2000
  123.8638  133.6550  161.5490 O   0  0  0  0  0  0  0  0  0  0  0  0
  125.0194  133.9275  161.3016 C   0  0  0  0  0  0  0  0  0  0  0  0
  125.9208  132.8284  160.8170 C   0  0  0  0  0  0  0  0  0  0  0  0
  127.3845  133.2456  160.9794 C   0  0  0  0  0  0  0  0  0  0  0  0
  127.5565  134.6503  160.3890 C   0  0  2  0  0  0  0  0  0  0  0  0
  127.1600  134.6715  159.3739 H   0  0  0  0  0  0  0  0  0  0  0  0
  128.9775  135.0060  160.3724 N   0  0  0  0  0  0  0  0  0  0  0  0
  129.7495  134.7025  159.2759 C   0  0  0  0  0  0  0  0  0  0  0  0
  129.1876  134.0652  158.1949 N   0  0  0  0  0  0  0  0  0  0  0  0
  130.0035  133.1776  157.3625 C   0  0  0  0  0  0  0  0  0  0  0  0
  129.1809  132.1476  156.5705 C   0  0  0  0  0  0  0  0  0  0  0  0
  130.2881  131.1298  156.8995 C   0  0  0  0  0  0  0  0  0  0  0  0
  130.6052  131.9909  158.1334 C   0  0  0  0  0  0  0  0  0  0  0  0
  131.0137  135.0188  159.2611 N   0  0  0  0  0  0  0  0  0  0  0  0
  131.4532  135.2213  158.4204 H   0  0  0  0  0  0  0  0  0  0  0  0
  131.7711  135.0688  160.5141 C   0  0  1  0  0  0  0  0  0  0  0  0
  131.1177  134.8138  161.3487 H   0  0  0  0  0  0  0  0  0  0  0  0
  132.9404  134.0778  160.4514 C   0  0  0  0  0  0  0  0  0  0  0  0
  133.5958  134.0743  161.7204 O   0  0  0  0  0  0  0  0  0  0  0  0
  133.9257  135.2728  162.2685 C   0  0  0  0  0  0  0  0  0  0  0  0
  134.8608  135.2962  163.2981 C   0  0  0  0  0  0  0  0  0  0  0  0
  135.2158  136.4945  163.8875 C   0  0  0  0  0  0  0  0  0  0  0  0
  136.1231  136.5137  164.8885 F   0  0  0  0  0  0  0  0  0  0  0  0
  134.6395  137.6761  163.4511 C   0  0  0  0  0  0  0  0  0  0  0  0
  133.7132  137.6546  162.4276 C   0  0  0  0  0  0  0  0  0  0  0  0
  133.3546  136.4557  161.8333 C   0  0  0  0  0  0  0  0  0  0  0  0
  132.3416  136.4747  160.7166 C   0  0  0  0  0  0  0  0  0  0  0  0
  126.7888  135.6451  161.2605 C   0  0  0  0  0  0  0  0  0  0  0  0
  125.4216  135.1872  161.4740 N   0  0  0  0  0  0  0  0  0  0  0  0
  125.7351  131.9251  161.3982 H   0  0  0  0  0  0  0  0  0  0  0  0
  125.7167  132.6301  159.7648 H   0  0  0  0  0  0  0  0  0  0  0  0
  127.6476  133.2574  162.0371 H   0  0  0  0  0  0  0  0  0  0  0  0
  128.0274  132.5428  160.4492 H   0  0  0  0  0  0  0  0  0  0  0  0
  129.3739  135.4555  161.1351 H   0  0  0  0  0  0  0  0  0  0  0  0
  128.2511  134.2032  157.9834 H   0  0  0  0  0  0  0  0  0  0  0  0
  130.7299  133.7168  156.7545 H   0  0  0  0  0  0  0  0  0  0  0  0
  128.2203  131.9109  157.0282 H   0  0  0  0  0  0  0  0  0  0  0  0
  129.0994  132.3775  155.5081 H   0  0  0  0  0  0  0  0  0  0  0  0
  131.0921  131.1083  156.1638 H   0  0  0  0  0  0  0  0  0  0  0  0
  129.9111  130.1369  157.1450 H   0  0  0  0  0  0  0  0  0  0  0  0
  131.6721  132.0945  158.3311 H   0  0  0  0  0  0  0  0  0  0  0  0
  130.0349  131.7112  159.0192 H   0  0  0  0  0  0  0  0  0  0  0  0
  132.5639  133.0793  160.2293 H   0  0  0  0  0  0  0  0  0  0  0  0
  133.6423  134.3868  159.6769 H   0  0  0  0  0  0  0  0  0  0  0  0
  135.3104  134.3749  163.6383 H   0  0  0  0  0  0  0  0  0  0  0  0
  134.9149  138.6137  163.9110 H   0  0  0  0  0  0  0  0  0  0  0  0
  133.2656  138.5772  162.0887 H   0  0  0  0  0  0  0  0  0  0  0  0
  132.8223  136.8069  159.7964 H   0  0  0  0  0  0  0  0  0  0  0  0
  131.5339  137.1606  160.9720 H   0  0  0  0  0  0  0  0  0  0  0  0
  126.7703  136.6168  160.7672 H   0  0  0  0  0  0  0  0  0  0  0  0
  127.2906  135.7427  162.2232 H   0  0  0  0  0  0  0  0  0  0  0  0
  124.7631  135.8395  161.7598 H   0  0  0  0  0  0  0  0  0  0  0  0
  1  2  2  0
  2 29  1  0
  2  3  1  0
  3  4  1  0
  3 30  1  0
  3 31  1  0
  4  5  1  0
  4 32  1  0
  4 33  1  0
  5  6  1  6
  5  7  1  0
  5 28  1  0
  7 34  1  0
  8  7  1  0
  8  9  1  0
  8 14  2  0
  9 10  1  0
  9 35  1  0
 10 13  1  0
 10 11  1  0
 10 36  1  0
 11 12  1  0
 11 37  1  0
 11 38  1  0
 12 13  1  0
 12 39  1  0
 12 40  1  0
 13 41  1  0
 13 42  1  0
 14 15  1  0
 14 16  1  0
 16 17  1  1
 16 27  1  0
 16 18  1  0
 18 19  1  0
 18 43  1  0
 18 44  1  0
 19 20  1  0
 20 26  2  0
 20 21  1  0
 21 22  2  0
 21 45  1  0
 22 23  1  0
 22 24  1  0
 24 25  2  0
 24 46  1  0
 25 26  1  0
 25 47  1  0
 26 27  1  0
 27 48  1  0
 27 49  1  0
 28 29  1  0
 28 50  1  0
 28 51  1  0
 29 52  1  0
M  CHG  1  14   1
M  END
>  <DOCK_score>  (1) 
-46.974957

>  <SMILES>  (1) 
O=C1CC[C@H](NC(NC2CCC2)=[NH+][C@H]2COc3cc(F)ccc3C2)CN1

$$$$
