Nc1ccc(-c2c[nH]c(N[C@H](c3ccccc3)c3ccc(Cl)cc3)[nH+]2)nc1N
     RDKit          3D

 48 51  0  0  1  0  0  0  0  0999 V2000
  131.4102  129.6027  152.4049 N   0  0  0  0  0  0  0  0  0  0  0  0
  131.1034  130.3237  153.5657 C   0  0  0  0  0  0  0  0  0  0  0  0
  131.5849  129.9061  154.8010 C   0  0  0  0  0  0  0  0  0  0  0  0
  131.2622  130.6511  155.9236 C   0  0  0  0  0  0  0  0  0  0  0  0
  130.4616  131.7815  155.7838 C   0  0  0  0  0  0  0  0  0  0  0  0
  130.1068  132.5806  156.9805 C   0  0  0  0  0  0  0  0  0  0  0  0
  129.4234  132.1348  158.0645 C   0  0  0  0  0  0  0  0  0  0  0  0
  129.3155  133.1945  158.9310 N   0  0  0  0  0  0  0  0  0  0  0  0
  128.8779  133.1866  159.7966 H   0  0  0  0  0  0  0  0  0  0  0  0
  129.9365  134.2583  158.3517 C   0  0  0  0  0  0  0  0  0  0  0  0
  130.0509  135.5231  158.9025 N   0  0  0  0  0  0  0  0  0  0  0  0
  129.4746  135.8031  160.2200 C   0  0  2  0  0  0  0  0  0  0  0  0
  129.9322  135.1499  160.9630 H   0  0  0  0  0  0  0  0  0  0  0  0
  127.9885  135.5560  160.1809 C   0  0  0  0  0  0  0  0  0  0  0  0
  127.3272  135.1379  161.3206 C   0  0  0  0  0  0  0  0  0  0  0  0
  125.9632  134.9154  161.2859 C   0  0  0  0  0  0  0  0  0  0  0  0
  125.2622  135.1022  160.1092 C   0  0  0  0  0  0  0  0  0  0  0  0
  125.9246  135.5152  158.9682 C   0  0  0  0  0  0  0  0  0  0  0  0
  127.2876  135.7419  159.0040 C   0  0  0  0  0  0  0  0  0  0  0  0
  129.7353  137.2414  160.5869 C   0  0  0  0  0  0  0  0  0  0  0  0
  128.8403  137.9223  161.3911 C   0  0  0  0  0  0  0  0  0  0  0  0
  129.0817  139.2397  161.7325 C   0  0  0  0  0  0  0  0  0  0  0  0
  130.2135  139.8803  161.2602 C   0  0  0  0  0  0  0  0  0  0  0  0
  130.5132  141.5371  161.6829 Cl  0  0  0  0  0  0  0  0  0  0  0  0
  131.1057  139.2000  160.4510 C   0  0  0  0  0  0  0  0  0  0  0  0
  130.8661  137.8809  160.1148 C   0  0  0  0  0  0  0  0  0  0  0  0
  130.4032  133.8893  157.1840 N   0  0  0  0  0  0  0  0  0  0  0  0
  130.8849  134.4598  156.5649 H   0  0  0  0  0  0  0  0  0  0  0  0
  130.0165  132.1553  154.5887 N   0  0  0  0  0  0  0  0  0  0  0  0
  130.3093  131.4713  153.4961 C   0  0  0  0  0  0  0  0  0  0  0  0
  129.8220  131.8989  152.2635 N   0  0  0  0  0  0  0  0  0  0  0  0
  131.0708  129.8991  151.5458 H   0  0  0  0  0  0  0  0  0  0  0  0
  131.9619  128.8068  152.4598 H   0  0  0  0  0  0  0  0  0  0  0  0
  132.2008  129.0227  154.8832 H   0  0  0  0  0  0  0  0  0  0  0  0
  131.6244  130.3559  156.8973 H   0  0  0  0  0  0  0  0  0  0  0  0
  129.0375  131.1377  158.2166 H   0  0  0  0  0  0  0  0  0  0  0  0
  130.5163  136.2229  158.4179 H   0  0  0  0  0  0  0  0  0  0  0  0
  127.8755  134.9884  162.2389 H   0  0  0  0  0  0  0  0  0  0  0  0
  125.4459  134.5930  162.1774 H   0  0  0  0  0  0  0  0  0  0  0  0
  124.1971  134.9258  160.0814 H   0  0  0  0  0  0  0  0  0  0  0  0
  125.3768  135.6611  158.0489 H   0  0  0  0  0  0  0  0  0  0  0  0
  127.8049  136.0645  158.1125 H   0  0  0  0  0  0  0  0  0  0  0  0
  127.9548  137.4236  161.7560 H   0  0  0  0  0  0  0  0  0  0  0  0
  128.3848  139.7702  162.3644 H   0  0  0  0  0  0  0  0  0  0  0  0
  131.9892  139.6996  160.0817 H   0  0  0  0  0  0  0  0  0  0  0  0
  131.5629  137.3496  159.4832 H   0  0  0  0  0  0  0  0  0  0  0  0
  129.2707  132.6951  152.2098 H   0  0  0  0  0  0  0  0  0  0  0  0
  130.0340  131.4006  151.4589 H   0  0  0  0  0  0  0  0  0  0  0  0
  1  2  1  0
  1 32  1  0
  1 33  1  0
  2 30  2  0
  2  3  1  0
  3  4  2  0
  3 34  1  0
  4  5  1  0
  4 35  1  0
  5  6  1  0
  5 29  2  0
  6 27  1  0
  6  7  2  0
  7  8  1  0
  7 36  1  0
  8  9  1  0
  8 10  1  0
 10 11  1  0
 10 27  2  0
 11 12  1  0
 11 37  1  0
 12 13  1  1
 12 14  1  0
 12 20  1  0
 14 19  1  0
 14 15  2  0
 15 16  1  0
 15 38  1  0
 16 17  2  0
 16 39  1  0
 17 18  1  0
 17 40  1  0
 18 19  2  0
 18 41  1  0
 19 42  1  0
 20 26  1  0
 20 21  2  0
 21 22  1  0
 21 43  1  0
 22 23  2  0
 22 44  1  0
 23 24  1  0
 23 25  1  0
 25 26  2  0
 25 45  1  0
 26 46  1  0
 27 28  1  0
 29 30  1  0
 30 31  1  0
 31 47  1  0
 31 48  1  0
M  CHG  1  27   1
M  END
>  <DOCK_score>  (1) 
-58.713139

>  <SMILES>  (1) 
Nc1ccc(-c2c[nH]c(N[C@H](c3ccccc3)c3ccc(Cl)cc3)[nH+]2)nc1N

$$$$
