CSC(=C[C@H](Nc1[nH]cc(-c2cccnc2)[nH+]1)c1ccccc1)SC
     RDKit          3D

 46 48  0  0  1  0  0  0  0  0999 V2000
  132.3292  138.8704  161.9591 C   0  0  0  0  0  0  0  0  0  0  0  0
  130.5171  138.9071  161.8843 S   0  0  0  0  0  0  0  0  0  0  0  0
  130.1078  137.2684  161.3822 C   0  0  0  0  0  0  0  0  0  0  0  0
  129.4378  137.0668  160.2482 C   0  0  0  0  0  0  0  0  0  0  0  0
  129.0878  135.6655  159.8187 C   0  0  2  0  0  0  0  0  0  0  0  0
  128.9568  135.0375  160.6998 H   0  0  0  0  0  0  0  0  0  0  0  0
  130.1679  135.1247  158.9897 N   0  0  0  0  0  0  0  0  0  0  0  0
  130.0702  133.8430  158.4754 C   0  0  0  0  0  0  0  0  0  0  0  0
  129.4118  132.8036  159.0569 N   0  0  0  0  0  0  0  0  0  0  0  0
  128.9306  132.8271  159.8988 H   0  0  0  0  0  0  0  0  0  0  0  0
  129.5520  131.7156  158.2299 C   0  0  0  0  0  0  0  0  0  0  0  0
  130.2986  132.1189  157.1722 C   0  0  0  0  0  0  0  0  0  0  0  0
  130.7114  131.2763  156.0232 C   0  0  0  0  0  0  0  0  0  0  0  0
  130.3240  131.6102  154.7222 C   0  0  0  0  0  0  0  0  0  0  0  0
  130.7400  130.7950  153.6838 C   0  0  0  0  0  0  0  0  0  0  0  0
  131.5089  129.6800  153.9653 C   0  0  0  0  0  0  0  0  0  0  0  0
  131.8544  129.3874  155.2041 N   0  0  0  0  0  0  0  0  0  0  0  0
  131.4870  130.1362  156.2238 C   0  0  0  0  0  0  0  0  0  0  0  0
  130.6016  133.4292  157.3510 N   0  0  0  0  0  0  0  0  0  0  0  0
  131.1269  133.9730  156.7434 H   0  0  0  0  0  0  0  0  0  0  0  0
  127.8078  135.6887  159.0236 C   0  0  0  0  0  0  0  0  0  0  0  0
  126.5925  135.5417  159.6656 C   0  0  0  0  0  0  0  0  0  0  0  0
  125.4182  135.5674  158.9368 C   0  0  0  0  0  0  0  0  0  0  0  0
  125.4597  135.7308  157.5648 C   0  0  0  0  0  0  0  0  0  0  0  0
  126.6753  135.8724  156.9221 C   0  0  0  0  0  0  0  0  0  0  0  0
  127.8493  135.8511  157.6515 C   0  0  0  0  0  0  0  0  0  0  0  0
  130.5847  135.8964  162.3795 S   0  0  0  0  0  0  0  0  0  0  0  0
  129.7476  136.2263  163.9545 C   0  0  0  0  0  0  0  0  0  0  0  0
  132.6959  139.8185  162.3526 H   0  0  0  0  0  0  0  0  0  0  0  0
  132.6495  138.0580  162.6114 H   0  0  0  0  0  0  0  0  0  0  0  0
  132.7311  138.7126  160.9583 H   0  0  0  0  0  0  0  0  0  0  0  0
  129.1455  137.9079  159.6369 H   0  0  0  0  0  0  0  0  0  0  0  0
  130.9513  135.6646  158.8012 H   0  0  0  0  0  0  0  0  0  0  0  0
  129.1485  130.7272  158.3932 H   0  0  0  0  0  0  0  0  0  0  0  0
  129.7190  132.4842  154.5317 H   0  0  0  0  0  0  0  0  0  0  0  0
  130.4636  131.0244  152.6653 H   0  0  0  0  0  0  0  0  0  0  0  0
  131.8315  129.0393  153.1580 H   0  0  0  0  0  0  0  0  0  0  0  0
  131.7897  129.8640  157.2241 H   0  0  0  0  0  0  0  0  0  0  0  0
  126.5603  135.4104  160.7372 H   0  0  0  0  0  0  0  0  0  0  0  0
  124.4684  135.4572  159.4391 H   0  0  0  0  0  0  0  0  0  0  0  0
  124.5424  135.7482  156.9951 H   0  0  0  0  0  0  0  0  0  0  0  0
  126.7077  136.0001  155.8501 H   0  0  0  0  0  0  0  0  0  0  0  0
  128.7992  135.9616  157.1493 H   0  0  0  0  0  0  0  0  0  0  0  0
  130.1592  137.1309  164.4023 H   0  0  0  0  0  0  0  0  0  0  0  0
  128.6805  136.3618  163.7776 H   0  0  0  0  0  0  0  0  0  0  0  0
  129.8998  135.3847  164.6302 H   0  0  0  0  0  0  0  0  0  0  0  0
  1  2  1  0
  1 29  1  0
  1 30  1  0
  1 31  1  0
  2  3  1  0
  3  4  2  0
  3 27  1  0
  4  5  1  0
  4 32  1  0
  5  6  1  1
  5  7  1  0
  5 21  1  0
  7 33  1  0
  8  7  1  0
  8 19  2  0
  8  9  1  0
  9 10  1  0
  9 11  1  0
 11 12  2  0
 11 34  1  0
 12 13  1  0
 12 19  1  0
 13 18  1  0
 13 14  2  0
 14 15  1  0
 14 35  1  0
 15 16  2  0
 15 36  1  0
 16 17  1  0
 16 37  1  0
 17 18  2  0
 18 38  1  0
 19 20  1  0
 21 26  1  0
 21 22  2  0
 22 23  1  0
 22 39  1  0
 23 24  2  0
 23 40  1  0
 24 25  1  0
 24 41  1  0
 25 26  2  0
 25 42  1  0
 26 43  1  0
 27 28  1  0
 28 44  1  0
 28 45  1  0
 28 46  1  0
M  CHG  1  19   1
M  END
>  <DOCK_score>  (1) 
-56.656975

>  <SMILES>  (1) 
CSC(=C[C@H](Nc1[nH]cc(-c2cccnc2)[nH+]1)c1ccccc1)SC

$$$$
