CCC=C[C@H](CC(C)=O)Nc1[nH]cc(-c2ccc(CC)cc2)[nH+]1
     RDKit          3D

 49 50  0  0  1  0  0  0  0  0999 V2000
  125.7887  133.7300  159.3694 C   0  0  0  0  0  0  0  0  0  0  0  0
  126.2860  134.6029  160.5233 C   0  0  0  0  0  0  0  0  0  0  0  0
  127.7887  134.5223  160.6028 C   0  0  0  0  0  0  0  0  0  0  0  0
  128.5266  135.3716  159.9317 C   0  0  0  0  0  0  0  0  0  0  0  0
  130.0293  135.2948  160.0161 C   0  0  2  0  0  0  0  0  0  0  0  0
  130.3147  134.4767  160.6774 H   0  0  0  0  0  0  0  0  0  0  0  0
  130.5771  136.6122  160.5686 C   0  0  0  0  0  0  0  0  0  0  0  0
  132.0798  136.5354  160.6530 C   0  0  0  0  0  0  0  0  0  0  0  0
  132.9079  137.7849  160.4988 C   0  0  0  0  0  0  0  0  0  0  0  0
  132.6202  135.4725  160.8440 O   0  0  0  0  0  0  0  0  0  0  0  0
  130.5820  135.0582  158.6800 N   0  0  0  0  0  0  0  0  0  0  0  0
  130.2278  133.9200  157.9761 C   0  0  0  0  0  0  0  0  0  0  0  0
  129.3752  132.9523  158.4107 N   0  0  0  0  0  0  0  0  0  0  0  0
  128.9105  132.9362  159.2619 H   0  0  0  0  0  0  0  0  0  0  0  0
  129.2943  132.0027  157.4214 C   0  0  0  0  0  0  0  0  0  0  0  0
  130.0992  132.4170  156.4115 C   0  0  0  0  0  0  0  0  0  0  0  0
  130.3279  131.7059  155.1300 C   0  0  0  0  0  0  0  0  0  0  0  0
  130.0035  132.3203  153.9217 C   0  0  0  0  0  0  0  0  0  0  0  0
  130.2238  131.6564  152.7321 C   0  0  0  0  0  0  0  0  0  0  0  0
  130.7545  130.3790  152.7380 C   0  0  0  0  0  0  0  0  0  0  0  0
  130.9865  129.6568  151.4358 C   0  0  0  0  0  0  0  0  0  0  0  0
  129.7343  128.8591  151.0651 C   0  0  0  0  0  0  0  0  0  0  0  0
  131.0733  129.7622  153.9345 C   0  0  0  0  0  0  0  0  0  0  0  0
  130.8627  130.4189  155.1299 C   0  0  0  0  0  0  0  0  0  0  0  0
  130.6539  133.5994  156.7788 N   0  0  0  0  0  0  0  0  0  0  0  0
  131.2697  134.1226  156.2421 H   0  0  0  0  0  0  0  0  0  0  0  0
  126.2214  134.0835  158.4336 H   0  0  0  0  0  0  0  0  0  0  0  0
  126.0886  132.6961  159.5406 H   0  0  0  0  0  0  0  0  0  0  0  0
  124.7018  133.7883  159.3120 H   0  0  0  0  0  0  0  0  0  0  0  0
  125.8531  134.2493  161.4591 H   0  0  0  0  0  0  0  0  0  0  0  0
  125.9862  135.6368  160.3521 H   0  0  0  0  0  0  0  0  0  0  0  0
  128.2573  133.7671  161.2164 H   0  0  0  0  0  0  0  0  0  0  0  0
  128.0580  136.1268  159.3181 H   0  0  0  0  0  0  0  0  0  0  0  0
  130.2916  137.4303  159.9071 H   0  0  0  0  0  0  0  0  0  0  0  0
  130.1659  136.7882  161.5626 H   0  0  0  0  0  0  0  0  0  0  0  0
  132.6367  138.4988  161.2765 H   0  0  0  0  0  0  0  0  0  0  0  0
  133.9648  137.5338  160.5887 H   0  0  0  0  0  0  0  0  0  0  0  0
  132.7214  138.2259  159.5195 H   0  0  0  0  0  0  0  0  0  0  0  0
  131.1959  135.6991  158.2888 H   0  0  0  0  0  0  0  0  0  0  0  0
  128.7029  131.0994  157.4434 H   0  0  0  0  0  0  0  0  0  0  0  0
  129.5844  133.3157  153.9162 H   0  0  0  0  0  0  0  0  0  0  0  0
  129.9770  132.1331  151.7950 H   0  0  0  0  0  0  0  0  0  0  0  0
  131.2010  130.3817  150.6512 H   0  0  0  0  0  0  0  0  0  0  0  0
  131.8316  128.9765  151.5433 H   0  0  0  0  0  0  0  0  0  0  0  0
  129.5198  128.1337  151.8499 H   0  0  0  0  0  0  0  0  0  0  0  0
  128.8893  129.5389  150.9578 H   0  0  0  0  0  0  0  0  0  0  0  0
  129.9021  128.3364  150.1233 H   0  0  0  0  0  0  0  0  0  0  0  0
  131.4877  128.7648  153.9332 H   0  0  0  0  0  0  0  0  0  0  0  0
  131.1120  129.9365  156.0634 H   0  0  0  0  0  0  0  0  0  0  0  0
  1  2  1  0
  1 27  1  0
  1 28  1  0
  1 29  1  0
  2  3  1  0
  2 30  1  0
  2 31  1  0
  3  4  2  0
  3 32  1  0
  4  5  1  0
  4 33  1  0
  5  6  1  1
  5  7  1  0
  5 11  1  0
  7  8  1  0
  7 34  1  0
  7 35  1  0
  8  9  1  0
  8 10  2  0
  9 36  1  0
  9 37  1  0
  9 38  1  0
 11 39  1  0
 12 11  1  0
 12 25  2  0
 12 13  1  0
 13 14  1  0
 13 15  1  0
 15 16  2  0
 15 40  1  0
 16 17  1  0
 16 25  1  0
 17 24  1  0
 17 18  2  0
 18 19  1  0
 18 41  1  0
 19 20  2  0
 19 42  1  0
 20 21  1  0
 20 23  1  0
 21 22  1  0
 21 43  1  0
 21 44  1  0
 22 45  1  0
 22 46  1  0
 22 47  1  0
 23 24  2  0
 23 48  1  0
 24 49  1  0
 25 26  1  0
M  CHG  1  25   1
M  END
>  <DOCK_score>  (1) 
-56.508751

>  <SMILES>  (1) 
CCC=C[C@H](CC(C)=O)Nc1[nH]cc(-c2ccc(CC)cc2)[nH+]1

$$$$
