CC1C[C@@H]1NC(NC1CC2COCC2C1)=[NH+]C1CCC(=O)NC1
     RDKit          3D

 52 55  0  0  1  0  0  0  0  0999 V2000
  131.9007  139.1790  159.8305 C   0  0  0  0  0  0  0  0  0  0  0  0
  132.5730  138.3100  160.8955 C   0  0  2  0  0  0  0  0  0  0  0  0
  133.6383  137.3155  160.4275 C   0  0  0  0  0  0  0  0  0  0  0  0
  132.2667  136.8111  160.8805 C   0  0  2  0  0  0  0  0  0  0  0  0
  132.2109  136.2992  161.8414 H   0  0  0  0  0  0  0  0  0  0  0  0
  131.3523  136.3177  159.8478 N   0  0  0  0  0  0  0  0  0  0  0  0
  130.1833  135.6899  160.2075 C   0  0  0  0  0  0  0  0  0  0  0  0
  129.6437  134.7226  159.3933 N   0  0  0  0  0  0  0  0  0  0  0  0
  130.5190  133.8958  158.5586 C   0  0  2  0  0  0  0  0  0  0  0  0
  129.7170  132.7619  157.8696 C   0  0  0  0  0  0  0  0  0  0  0  0
  129.5243  131.7116  158.9832 C   0  0  1  0  0  0  0  0  0  0  0  0
  129.7980  130.3098  158.3964 C   0  0  0  0  0  0  0  0  0  0  0  0
  130.5900  129.6362  159.3983 O   0  0  0  0  0  0  0  0  0  0  0  0
  131.5178  130.6313  159.8817 C   0  0  0  0  0  0  0  0  0  0  0  0
  130.6881  131.9292  159.9883 C   0  0  1  0  0  0  0  0  0  0  0  0
  131.5240  133.0996  159.4303 C   0  0  0  0  0  0  0  0  0  0  0  0
  129.5864  136.0121  161.3206 N   0  0  0  0  0  0  0  0  0  0  0  0
  129.9670  136.6945  161.8952 H   0  0  0  0  0  0  0  0  0  0  0  0
  128.3406  135.3431  161.7039 C   0  0  1  0  0  0  0  0  0  0  0  0
  128.2252  135.3072  163.2326 C   0  0  0  0  0  0  0  0  0  0  0  0
  127.0149  134.4480  163.6064 C   0  0  0  0  0  0  0  0  0  0  0  0
  125.8187  134.8738  162.8046 C   0  0  0  0  0  0  0  0  0  0  0  0
  124.7197  134.5353  163.1897 O   0  0  0  0  0  0  0  0  0  0  0  0
  125.9004  135.6039  161.6917 N   0  0  0  0  0  0  0  0  0  0  0  0
  127.1483  136.1175  161.1409 C   0  0  0  0  0  0  0  0  0  0  0  0
  130.8180  139.1052  159.9318 H   0  0  0  0  0  0  0  0  0  0  0  0
  132.2080  140.2166  159.9612 H   0  0  0  0  0  0  0  0  0  0  0  0
  132.1974  138.8343  158.8400 H   0  0  0  0  0  0  0  0  0  0  0  0
  132.7186  138.7844  161.8660 H   0  0  0  0  0  0  0  0  0  0  0  0
  134.4848  137.1356  161.0900 H   0  0  0  0  0  0  0  0  0  0  0  0
  133.8601  137.2806  159.3609 H   0  0  0  0  0  0  0  0  0  0  0  0
  131.5718  136.4338  158.9100 H   0  0  0  0  0  0  0  0  0  0  0  0
  128.6833  134.5873  159.3712 H   0  0  0  0  0  0  0  0  0  0  0  0
  131.0414  134.5064  157.8222 H   0  0  0  0  0  0  0  0  0  0  0  0
  128.7524  133.1324  157.5227 H   0  0  0  0  0  0  0  0  0  0  0  0
  130.2861  132.3403  157.0411 H   0  0  0  0  0  0  0  0  0  0  0  0
  128.5458  131.7869  159.4574 H   0  0  0  0  0  0  0  0  0  0  0  0
  128.8608  129.7777  158.2329 H   0  0  0  0  0  0  0  0  0  0  0  0
  130.3562  130.3916  157.4638 H   0  0  0  0  0  0  0  0  0  0  0  0
  132.3366  130.7617  159.1740 H   0  0  0  0  0  0  0  0  0  0  0  0
  131.9034  130.3464  160.8606 H   0  0  0  0  0  0  0  0  0  0  0  0
  130.3327  132.1209  161.0007 H   0  0  0  0  0  0  0  0  0  0  0  0
  132.3462  132.7254  158.8203 H   0  0  0  0  0  0  0  0  0  0  0  0
  131.9015  133.7210  160.2424 H   0  0  0  0  0  0  0  0  0  0  0  0
  128.3366  134.3257  161.3129 H   0  0  0  0  0  0  0  0  0  0  0  0
  129.1295  134.8728  163.6587 H   0  0  0  0  0  0  0  0  0  0  0  0
  128.0894  136.3193  163.6142 H   0  0  0  0  0  0  0  0  0  0  0  0
  127.2361  133.4010  163.3985 H   0  0  0  0  0  0  0  0  0  0  0  0
  126.7993  134.5685  164.6680 H   0  0  0  0  0  0  0  0  0  0  0  0
  125.0778  135.8058  161.2190 H   0  0  0  0  0  0  0  0  0  0  0  0
  127.2490  137.1717  161.3990 H   0  0  0  0  0  0  0  0  0  0  0  0
  127.1321  136.0154  160.0558 H   0  0  0  0  0  0  0  0  0  0  0  0
  1  2  1  0
  1 26  1  0
  1 27  1  0
  1 28  1  0
  2  4  1  0
  2  3  1  0
  2 29  1  1
  3  4  1  0
  3 30  1  0
  3 31  1  0
  4  5  1  1
  4  6  1  0
  6 32  1  0
  7  6  1  0
  7  8  1  0
  7 17  2  0
  8  9  1  0
  8 33  1  0
  9 16  1  0
  9 10  1  0
  9 34  1  6
 10 11  1  0
 10 35  1  0
 10 36  1  0
 11 15  1  0
 11 12  1  0
 11 37  1  1
 12 13  1  0
 12 38  1  0
 12 39  1  0
 13 14  1  0
 14 15  1  0
 14 40  1  0
 14 41  1  0
 15 16  1  0
 15 42  1  1
 16 43  1  0
 16 44  1  0
 17 18  1  0
 17 19  1  0
 19 25  1  0
 19 20  1  0
 19 45  1  6
 20 21  1  0
 20 46  1  0
 20 47  1  0
 21 22  1  0
 21 48  1  0
 21 49  1  0
 22 23  2  0
 22 24  1  0
 24 25  1  0
 24 50  1  0
 25 51  1  0
 25 52  1  0
M  CHG  1  17   1
M  END
>  <DOCK_score>  (1) 
-41.867817

>  <SMILES>  (1) 
CC1C[C@@H]1NC(NC1CC2COCC2C1)=[NH+]C1CCC(=O)NC1

$$$$
