CCOC(=O)c1oc2ccc(C3=CCCCC3)cc2c1C[NH2+][C@H]1COC2(CCC2)C1
     RDKit          3D

 62 66  0  0  1  0  0  0  0  0999 V2000
  126.1643  133.5730  162.2125 C   0  0  0  0  0  0  0  0  0  0  0  0
  125.9179  134.6416  161.1455 C   0  0  0  0  0  0  0  0  0  0  0  0
  127.1167  135.4436  160.9779 O   0  0  0  0  0  0  0  0  0  0  0  0
  127.2339  136.5393  161.7555 C   0  0  0  0  0  0  0  0  0  0  0  0
  126.3577  136.8162  162.5517 O   0  0  0  0  0  0  0  0  0  0  0  0
  128.4193  137.3976  161.6407 C   0  0  0  0  0  0  0  0  0  0  0  0
  128.4411  138.7265  161.8742 O   0  0  0  0  0  0  0  0  0  0  0  0
  129.6775  139.2279  161.6841 C   0  0  0  0  0  0  0  0  0  0  0  0
  130.2092  140.5092  161.7933 C   0  0  0  0  0  0  0  0  0  0  0  0
  131.5317  140.7303  161.5386 C   0  0  0  0  0  0  0  0  0  0  0  0
  132.3727  139.6781  161.1537 C   0  0  0  0  0  0  0  0  0  0  0  0
  133.8015  139.9373  160.8767 C   0  0  0  0  0  0  0  0  0  0  0  0
  134.2573  139.6627  159.6787 C   0  0  0  0  0  0  0  0  0  0  0  0
  135.6842  139.8662  159.2601 C   0  0  0  0  0  0  0  0  0  0  0  0
  136.3926  140.8025  160.2412 C   0  0  0  0  0  0  0  0  0  0  0  0
  136.1290  140.3029  161.6671 C   0  0  0  0  0  0  0  0  0  0  0  0
  134.6449  140.4996  161.9836 C   0  0  0  0  0  0  0  0  0  0  0  0
  131.8650  138.3898  161.0379 C   0  0  0  0  0  0  0  0  0  0  0  0
  130.5142  138.1609  161.3032 C   0  0  0  0  0  0  0  0  0  0  0  0
  129.6599  136.9739  161.2836 C   0  0  0  0  0  0  0  0  0  0  0  0
  130.0721  135.5663  160.9369 C   0  0  0  0  0  0  0  0  0  0  0  0
  129.9048  135.3484  159.4939 N   0  0  0  0  0  0  0  0  0  0  0  0
  128.9376  135.4872  159.2426 H   0  0  0  0  0  0  0  0  0  0  0  0
  130.4814  136.0026  158.9859 H   0  0  0  0  0  0  0  0  0  0  0  0
  130.3067  133.9765  159.1560 C   0  0  1  0  0  0  0  0  0  0  0  0
  131.1962  133.6914  159.7179 H   0  0  0  0  0  0  0  0  0  0  0  0
  129.1535  132.9924  159.4361 C   0  0  0  0  0  0  0  0  0  0  0  0
  128.7724  132.4052  158.1779 O   0  0  0  0  0  0  0  0  0  0  0  0
  129.9147  132.4834  157.3194 C   0  0  0  0  0  0  0  0  0  0  0  0
  129.6673  132.1963  155.8408 C   0  0  0  0  0  0  0  0  0  0  0  0
  131.0461  131.5107  155.8337 C   0  0  0  0  0  0  0  0  0  0  0  0
  130.8606  131.2857  157.3458 C   0  0  0  0  0  0  0  0  0  0  0  0
  130.5594  133.8453  157.6323 C   0  0  0  0  0  0  0  0  0  0  0  0
  126.9895  132.9325  161.9014 H   0  0  0  0  0  0  0  0  0  0  0  0
  126.4145  134.0545  163.1579 H   0  0  0  0  0  0  0  0  0  0  0  0
  125.2645  132.9709  162.3381 H   0  0  0  0  0  0  0  0  0  0  0  0
  125.0927  135.2822  161.4565 H   0  0  0  0  0  0  0  0  0  0  0  0
  125.6679  134.1602  160.2000 H   0  0  0  0  0  0  0  0  0  0  0  0
  129.5733  141.3318  162.0849 H   0  0  0  0  0  0  0  0  0  0  0  0
  131.9334  141.7285  161.6307 H   0  0  0  0  0  0  0  0  0  0  0  0
  133.5653  139.2673  158.9498 H   0  0  0  0  0  0  0  0  0  0  0  0
  135.7091  140.3030  158.2617 H   0  0  0  0  0  0  0  0  0  0  0  0
  136.1954  138.9037  159.2461 H   0  0  0  0  0  0  0  0  0  0  0  0
  136.0018  141.8140  160.1293 H   0  0  0  0  0  0  0  0  0  0  0  0
  137.4646  140.7971  160.0437 H   0  0  0  0  0  0  0  0  0  0  0  0
  136.3812  139.2449  161.7368 H   0  0  0  0  0  0  0  0  0  0  0  0
  136.7327  140.8736  162.3727 H   0  0  0  0  0  0  0  0  0  0  0  0
  134.4038  139.9898  162.9164 H   0  0  0  0  0  0  0  0  0  0  0  0
  134.4364  141.5640  162.0915 H   0  0  0  0  0  0  0  0  0  0  0  0
  132.5091  137.5739  160.7452 H   0  0  0  0  0  0  0  0  0  0  0  0
  131.1170  135.4164  161.2084 H   0  0  0  0  0  0  0  0  0  0  0  0
  129.4492  134.8599  161.4857 H   0  0  0  0  0  0  0  0  0  0  0  0
  129.4892  132.2140  160.1214 H   0  0  0  0  0  0  0  0  0  0  0  0
  128.3068  133.5271  159.8665 H   0  0  0  0  0  0  0  0  0  0  0  0
  128.8377  131.5126  155.6604 H   0  0  0  0  0  0  0  0  0  0  0  0
  129.6212  133.0929  155.2226 H   0  0  0  0  0  0  0  0  0  0  0  0
  131.8672  132.1852  155.5908 H   0  0  0  0  0  0  0  0  0  0  0  0
  131.0710  130.5872  155.2552 H   0  0  0  0  0  0  0  0  0  0  0  0
  131.7662  131.4561  157.9279 H   0  0  0  0  0  0  0  0  0  0  0  0
  130.3686  130.3448  157.5925 H   0  0  0  0  0  0  0  0  0  0  0  0
  130.0630  134.6464  157.0847 H   0  0  0  0  0  0  0  0  0  0  0  0
  131.6273  133.8299  157.4145 H   0  0  0  0  0  0  0  0  0  0  0  0
  1  2  1  0
  1 34  1  0
  1 35  1  0
  1 36  1  0
  2  3  1  0
  2 37  1  0
  2 38  1  0
  3  4  1  0
  4  5  2  0
  4  6  1  0
  6 20  2  0
  6  7  1  0
  7  8  1  0
  8 19  2  0
  8  9  1  0
  9 10  2  0
  9 39  1  0
 10 11  1  0
 10 40  1  0
 11 12  1  0
 11 18  2  0
 12 17  1  0
 12 13  2  0
 13 14  1  0
 13 41  1  0
 14 15  1  0
 14 42  1  0
 14 43  1  0
 15 16  1  0
 15 44  1  0
 15 45  1  0
 16 17  1  0
 16 46  1  0
 16 47  1  0
 17 48  1  0
 17 49  1  0
 18 19  1  0
 18 50  1  0
 19 20  1  0
 20 21  1  0
 21 22  1  0
 21 51  1  0
 21 52  1  0
 22 23  1  0
 22 24  1  0
 22 25  1  0
 25 26  1  1
 25 33  1  0
 25 27  1  0
 27 28  1  0
 27 53  1  0
 27 54  1  0
 28 29  1  0
 29 32  1  0
 29 30  1  0
 29 33  1  0
 30 31  1  0
 30 55  1  0
 30 56  1  0
 31 32  1  0
 31 57  1  0
 31 58  1  0
 32 59  1  0
 32 60  1  0
 33 61  1  0
 33 62  1  0
M  CHG  1  22   1
M  END
>  <DOCK_score>  (1) 
-44.780319

>  <SMILES>  (1) 
CCOC(=O)c1oc2ccc(C3=CCCCC3)cc2c1C[NH2+][C@H]1COC2(CCC2)C1

$$$$
