CCc1ccc(CC[C@@H](CC2=CCCC2)Nc2[nH]cc(-c3ccc(N)cc3)[nH+]2)cc1
     RDKit          3D

 63 66  0  0  1  0  0  0  0  0999 V2000
  136.9775  140.4332  162.1213 C   0  0  0  0  0  0  0  0  0  0  0  0
  135.9398  139.9915  163.1561 C   0  0  0  0  0  0  0  0  0  0  0  0
  135.0348  138.9516  162.5474 C   0  0  0  0  0  0  0  0  0  0  0  0
  135.3606  137.6113  162.6418 C   0  0  0  0  0  0  0  0  0  0  0  0
  134.5303  136.6573  162.0838 C   0  0  0  0  0  0  0  0  0  0  0  0
  133.3748  137.0434  161.4307 C   0  0  0  0  0  0  0  0  0  0  0  0
  132.4698  136.0034  160.8219 C   0  0  0  0  0  0  0  0  0  0  0  0
  131.0264  136.5103  160.8396 C   0  0  0  0  0  0  0  0  0  0  0  0
  130.1075  135.4544  160.2217 C   0  0  1  0  0  0  0  0  0  0  0  0
  130.1757  134.5316  160.7977 H   0  0  0  0  0  0  0  0  0  0  0  0
  128.6640  135.9612  160.2394 C   0  0  0  0  0  0  0  0  0  0  0  0
  127.7201  134.7940  160.1059 C   0  0  0  0  0  0  0  0  0  0  0  0
  127.2810  134.3258  158.9694 C   0  0  0  0  0  0  0  0  0  0  0  0
  126.3529  133.1532  159.1861 C   0  0  0  0  0  0  0  0  0  0  0  0
  125.9590  133.2345  160.6792 C   0  0  0  0  0  0  0  0  0  0  0  0
  127.1629  134.0079  161.2699 C   0  0  0  0  0  0  0  0  0  0  0  0
  130.5183  135.1986  158.8389 N   0  0  0  0  0  0  0  0  0  0  0  0
  130.3174  133.9494  158.2771 C   0  0  0  0  0  0  0  0  0  0  0  0
  129.7525  132.8809  158.9020 N   0  0  0  0  0  0  0  0  0  0  0  0
  129.4206  132.8574  159.8131 H   0  0  0  0  0  0  0  0  0  0  0  0
  129.7393  131.8404  158.0034 C   0  0  0  0  0  0  0  0  0  0  0  0
  130.2907  132.3055  156.8553 C   0  0  0  0  0  0  0  0  0  0  0  0
  130.4813  131.5333  155.6029 C   0  0  0  0  0  0  0  0  0  0  0  0
  129.8695  131.9544  154.4233 C   0  0  0  0  0  0  0  0  0  0  0  0
  130.0527  131.2384  153.2592 C   0  0  0  0  0  0  0  0  0  0  0  0
  130.8368  130.0909  153.2640 C   0  0  0  0  0  0  0  0  0  0  0  0
  131.0159  129.3634  152.0850 N   0  0  0  0  0  0  0  0  0  0  0  0
  131.4434  129.6661  154.4402 C   0  0  0  0  0  0  0  0  0  0  0  0
  131.2677  130.3823  155.6055 C   0  0  0  0  0  0  0  0  0  0  0  0
  130.6409  133.6007  157.0556 N   0  0  0  0  0  0  0  0  0  0  0  0
  131.0600  134.1779  156.3983 H   0  0  0  0  0  0  0  0  0  0  0  0
  133.0523  138.3840  161.3309 C   0  0  0  0  0  0  0  0  0  0  0  0
  133.8801  139.3377  161.8934 C   0  0  0  0  0  0  0  0  0  0  0  0
  137.6321  141.1854  162.5616 H   0  0  0  0  0  0  0  0  0  0  0  0
  137.5702  139.5727  161.8108 H   0  0  0  0  0  0  0  0  0  0  0  0
  136.4693  140.8562  161.2548 H   0  0  0  0  0  0  0  0  0  0  0  0
  135.3476  140.8519  163.4663 H   0  0  0  0  0  0  0  0  0  0  0  0
  136.4485  139.5685  164.0223 H   0  0  0  0  0  0  0  0  0  0  0  0
  136.2634  137.3095  163.1522 H   0  0  0  0  0  0  0  0  0  0  0  0
  134.7844  135.6102  162.1579 H   0  0  0  0  0  0  0  0  0  0  0  0
  132.5379  135.0806  161.3981 H   0  0  0  0  0  0  0  0  0  0  0  0
  132.7756  135.8131  159.7933 H   0  0  0  0  0  0  0  0  0  0  0  0
  130.9582  137.4332  160.2637 H   0  0  0  0  0  0  0  0  0  0  0  0
  130.7206  136.7007  161.8685 H   0  0  0  0  0  0  0  0  0  0  0  0
  128.4719  136.4781  161.1796 H   0  0  0  0  0  0  0  0  0  0  0  0
  128.5104  136.6496  159.4084 H   0  0  0  0  0  0  0  0  0  0  0  0
  127.5458  134.7245  158.0012 H   0  0  0  0  0  0  0  0  0  0  0  0
  125.4694  133.2464  158.5547 H   0  0  0  0  0  0  0  0  0  0  0  0
  126.8705  132.2163  158.9804 H   0  0  0  0  0  0  0  0  0  0  0  0
  125.0303  133.7903  160.8092 H   0  0  0  0  0  0  0  0  0  0  0  0
  125.8820  132.2399  161.1183 H   0  0  0  0  0  0  0  0  0  0  0  0
  127.9117  133.3147  161.6531 H   0  0  0  0  0  0  0  0  0  0  0  0
  126.8295  134.6823  162.0586 H   0  0  0  0  0  0  0  0  0  0  0  0
  130.9311  135.9044  158.3171 H   0  0  0  0  0  0  0  0  0  0  0  0
  129.3581  130.8449  158.1770 H   0  0  0  0  0  0  0  0  0  0  0  0
  129.2560  132.8433  154.4202 H   0  0  0  0  0  0  0  0  0  0  0  0
  129.5826  131.5668  152.3441 H   0  0  0  0  0  0  0  0  0  0  0  0
  131.5632  128.5627  152.0874 H   0  0  0  0  0  0  0  0  0  0  0  0
  130.5928  129.6593  151.2637 H   0  0  0  0  0  0  0  0  0  0  0  0
  132.0525  128.7743  154.4417 H   0  0  0  0  0  0  0  0  0  0  0  0
  131.7392  130.0518  156.5192 H   0  0  0  0  0  0  0  0  0  0  0  0
  132.1518  138.6860  160.8168 H   0  0  0  0  0  0  0  0  0  0  0  0
  133.6260  140.3847  161.8190 H   0  0  0  0  0  0  0  0  0  0  0  0
  1  2  1  0
  1 34  1  0
  1 35  1  0
  1 36  1  0
  2  3  1  0
  2 37  1  0
  2 38  1  0
  3 33  2  0
  3  4  1  0
  4  5  2  0
  4 39  1  0
  5  6  1  0
  5 40  1  0
  6  7  1  0
  6 32  2  0
  7  8  1  0
  7 41  1  0
  7 42  1  0
  8  9  1  0
  8 43  1  0
  8 44  1  0
  9 10  1  1
  9 11  1  0
  9 17  1  0
 11 12  1  0
 11 45  1  0
 11 46  1  0
 12 16  1  0
 12 13  2  0
 13 14  1  0
 13 47  1  0
 14 15  1  0
 14 48  1  0
 14 49  1  0
 15 16  1  0
 15 50  1  0
 15 51  1  0
 16 52  1  0
 16 53  1  0
 17 54  1  0
 18 17  1  0
 18 30  2  0
 18 19  1  0
 19 20  1  0
 19 21  1  0
 21 22  2  0
 21 55  1  0
 22 23  1  0
 22 30  1  0
 23 29  1  0
 23 24  2  0
 24 25  1  0
 24 56  1  0
 25 26  2  0
 25 57  1  0
 26 27  1  0
 26 28  1  0
 27 58  1  0
 27 59  1  0
 28 29  2  0
 28 60  1  0
 29 61  1  0
 30 31  1  0
 32 33  1  0
 32 62  1  0
 33 63  1  0
M  CHG  1  30   1
M  END
>  <DOCK_score>  (1) 
-60.605335

>  <SMILES>  (1) 
CCc1ccc(CC[C@@H](CC2=CCCC2)Nc2[nH]cc(-c3ccc(N)cc3)[nH+]2)cc1

$$$$
