CCc1ccc(CCC=C[C@H](Nc2[nH]cc(-c3ccc([N+](=O)[O-])cc3)[nH+]2)c2ccc(CC)cc2)cc1
     RDKit          3D

 69 72  0  0  1  0  0  0  0  0999 V2000
  138.4975  136.7592  164.9002 C   0  0  0  0  0  0  0  0  0  0  0  0
  137.9590  136.6378  163.4732 C   0  0  0  0  0  0  0  0  0  0  0  0
  136.6645  137.4008  163.3583 C   0  0  0  0  0  0  0  0  0  0  0  0
  136.6780  138.7340  162.9928 C   0  0  0  0  0  0  0  0  0  0  0  0
  135.4905  139.4337  162.8869 C   0  0  0  0  0  0  0  0  0  0  0  0
  134.2895  138.8004  163.1470 C   0  0  0  0  0  0  0  0  0  0  0  0
  132.9951  139.5633  163.0320 C   0  0  0  0  0  0  0  0  0  0  0  0
  132.4531  139.4363  161.6068 C   0  0  0  0  0  0  0  0  0  0  0  0
  132.2096  137.9832  161.2896 C   0  0  0  0  0  0  0  0  0  0  0  0
  131.0442  137.4431  161.5467 C   0  0  0  0  0  0  0  0  0  0  0  0
  130.8007  135.9901  161.2295 C   0  0  2  0  0  0  0  0  0  0  0  0
  131.5055  135.3733  161.7872 H   0  0  0  0  0  0  0  0  0  0  0  0
  130.9857  135.7661  159.7936 N   0  0  0  0  0  0  0  0  0  0  0  0
  130.8142  134.4990  159.2629 C   0  0  0  0  0  0  0  0  0  0  0  0
  130.4697  133.3853  159.9654 N   0  0  0  0  0  0  0  0  0  0  0  0
  130.3024  133.3369  160.9195 H   0  0  0  0  0  0  0  0  0  0  0  0
  130.4035  132.3425  159.0736 C   0  0  0  0  0  0  0  0  0  0  0  0
  130.7089  132.8483  157.8532 C   0  0  0  0  0  0  0  0  0  0  0  0
  130.7631  132.0869  156.5813 C   0  0  0  0  0  0  0  0  0  0  0  0
  130.4634  132.7177  155.3751 C   0  0  0  0  0  0  0  0  0  0  0  0
  130.5216  132.0059  154.1942 C   0  0  0  0  0  0  0  0  0  0  0  0
  130.8643  130.6656  154.2076 C   0  0  0  0  0  0  0  0  0  0  0  0
  130.9184  129.9056  152.9383 N   0  0  0  0  0  0  0  0  0  0  0  0
  130.6615  130.4605  151.8848 O   0  0  0  0  0  0  0  0  0  0  0  0
  131.2201  128.7257  152.9472 O   0  0  0  0  0  0  0  0  0  0  0  0
  131.1574  130.0332  155.4023 C   0  0  0  0  0  0  0  0  0  0  0  0
  131.1085  130.7366  156.5886 C   0  0  0  0  0  0  0  0  0  0  0  0
  130.9512  134.1751  158.0003 N   0  0  0  0  0  0  0  0  0  0  0  0
  131.1895  134.7861  157.2856 H   0  0  0  0  0  0  0  0  0  0  0  0
  129.3926  135.6201  161.6183 C   0  0  0  0  0  0  0  0  0  0  0  0
  128.3212  136.2727  161.0378 C   0  0  0  0  0  0  0  0  0  0  0  0
  127.0294  135.9328  161.3940 C   0  0  0  0  0  0  0  0  0  0  0  0
  126.8091  134.9399  162.3302 C   0  0  0  0  0  0  0  0  0  0  0  0
  125.4008  134.5692  162.7183 C   0  0  0  0  0  0  0  0  0  0  0  0
  124.9525  135.4341  163.8980 C   0  0  0  0  0  0  0  0  0  0  0  0
  127.8807  134.2908  162.9145 C   0  0  0  0  0  0  0  0  0  0  0  0
  129.1724  134.6279  162.5552 C   0  0  0  0  0  0  0  0  0  0  0  0
  134.2766  137.4689  163.5181 C   0  0  0  0  0  0  0  0  0  0  0  0
  135.4636  136.7677  163.6188 C   0  0  0  0  0  0  0  0  0  0  0  0
  137.7698  136.3475  165.5993 H   0  0  0  0  0  0  0  0  0  0  0  0
  139.4338  136.2074  164.9832 H   0  0  0  0  0  0  0  0  0  0  0  0
  138.6726  137.8093  165.1343 H   0  0  0  0  0  0  0  0  0  0  0  0
  137.7839  135.5878  163.2390 H   0  0  0  0  0  0  0  0  0  0  0  0
  138.6867  137.0496  162.7739 H   0  0  0  0  0  0  0  0  0  0  0  0
  137.6163  139.2287  162.7896 H   0  0  0  0  0  0  0  0  0  0  0  0
  135.5010  140.4751  162.6013 H   0  0  0  0  0  0  0  0  0  0  0  0
  133.1712  140.6143  163.2613 H   0  0  0  0  0  0  0  0  0  0  0  0
  132.2688  139.1547  163.7347 H   0  0  0  0  0  0  0  0  0  0  0  0
  133.1793  139.8449  160.9041 H   0  0  0  0  0  0  0  0  0  0  0  0
  131.5168  139.9882  161.5238 H   0  0  0  0  0  0  0  0  0  0  0  0
  132.9961  137.3873  160.8506 H   0  0  0  0  0  0  0  0  0  0  0  0
  130.2578  138.0391  161.9858 H   0  0  0  0  0  0  0  0  0  0  0  0
  131.2284  136.5057  159.2146 H   0  0  0  0  0  0  0  0  0  0  0  0
  130.1551  131.3164  159.3011 H   0  0  0  0  0  0  0  0  0  0  0  0
  130.1908  133.7626  155.3642 H   0  0  0  0  0  0  0  0  0  0  0  0
  130.2938  132.4946  153.2584 H   0  0  0  0  0  0  0  0  0  0  0  0
  131.4245  128.9867  155.4068 H   0  0  0  0  0  0  0  0  0  0  0  0
  131.3377  130.2419  157.5209 H   0  0  0  0  0  0  0  0  0  0  0  0
  128.4931  137.0479  160.3059 H   0  0  0  0  0  0  0  0  0  0  0  0
  126.1922  136.4427  160.9405 H   0  0  0  0  0  0  0  0  0  0  0  0
  125.3679  133.5181  163.0051 H   0  0  0  0  0  0  0  0  0  0  0  0
  124.7349  134.7357  161.8717 H   0  0  0  0  0  0  0  0  0  0  0  0
  123.9340  135.1660  164.1787 H   0  0  0  0  0  0  0  0  0  0  0  0
  124.9855  136.4851  163.6111 H   0  0  0  0  0  0  0  0  0  0  0  0
  125.6186  135.2675  164.7446 H   0  0  0  0  0  0  0  0  0  0  0  0
  127.7086  133.5181  163.6492 H   0  0  0  0  0  0  0  0  0  0  0  0
  130.0093  134.1177  163.0085 H   0  0  0  0  0  0  0  0  0  0  0  0
  133.3385  136.9754  163.7255 H   0  0  0  0  0  0  0  0  0  0  0  0
  135.4530  135.7263  163.9046 H   0  0  0  0  0  0  0  0  0  0  0  0
  1  2  1  0
  1 40  1  0
  1 41  1  0
  1 42  1  0
  2  3  1  0
  2 43  1  0
  2 44  1  0
  3 39  2  0
  3  4  1  0
  4  5  2  0
  4 45  1  0
  5  6  1  0
  5 46  1  0
  6  7  1  0
  6 38  2  0
  7  8  1  0
  7 47  1  0
  7 48  1  0
  8  9  1  0
  8 49  1  0
  8 50  1  0
  9 10  2  0
  9 51  1  0
 10 11  1  0
 10 52  1  0
 11 12  1  1
 11 13  1  0
 11 30  1  0
 13 53  1  0
 14 13  1  0
 14 28  2  0
 14 15  1  0
 15 16  1  0
 15 17  1  0
 17 18  2  0
 17 54  1  0
 18 19  1  0
 18 28  1  0
 19 27  1  0
 19 20  2  0
 20 21  1  0
 20 55  1  0
 21 22  2  0
 21 56  1  0
 22 23  1  0
 22 26  1  0
 23 24  2  0
 23 25  1  0
 26 27  2  0
 26 57  1  0
 27 58  1  0
 28 29  1  0
 30 37  1  0
 30 31  2  0
 31 32  1  0
 31 59  1  0
 32 33  2  0
 32 60  1  0
 33 34  1  0
 33 36  1  0
 34 35  1  0
 34 61  1  0
 34 62  1  0
 35 63  1  0
 35 64  1  0
 35 65  1  0
 36 37  2  0
 36 66  1  0
 37 67  1  0
 38 39  1  0
 38 68  1  0
 39 69  1  0
M  CHG  3  23   1  25  -1  28   1
M  END
>  <DOCK_score>  (1) 
-56.217941

>  <SMILES>  (1) 
CCc1ccc(CCC=C[C@H](Nc2[nH]cc(-c3ccc([N+](=O)[O-])cc3)[nH+]2)c2ccc(CC)cc2)cc1

$$$$
