c1ccc(C(Nc2[nH]cc(-c3cccnc3)[nH+]2)c2ccccc2)cc1
     RDKit          3D

 44 47  0  0  1  0  0  0  0  0999 V2000
  130.5957  139.8664  160.9939 C   0  0  0  0  0  0  0  0  0  0  0  0
  130.3641  138.9684  162.0191 C   0  0  0  0  0  0  0  0  0  0  0  0
  130.0498  137.6539  161.7288 C   0  0  0  0  0  0  0  0  0  0  0  0
  129.9672  137.2374  160.4134 C   0  0  0  0  0  0  0  0  0  0  0  0
  129.6250  135.8042  160.0969 C   0  0  0  0  0  0  0  0  0  0  0  0
  130.2650  135.4160  158.8376 N   0  0  0  0  0  0  0  0  0  0  0  0
  130.0934  134.1354  158.3400 C   0  0  0  0  0  0  0  0  0  0  0  0
  129.3534  133.1519  158.9205 N   0  0  0  0  0  0  0  0  0  0  0  0
  128.8558  133.2212  159.7504 H   0  0  0  0  0  0  0  0  0  0  0  0
  129.4415  132.0428  158.1148 C   0  0  0  0  0  0  0  0  0  0  0  0
  130.2321  132.3801  157.0660 C   0  0  0  0  0  0  0  0  0  0  0  0
  130.6100  131.4948  155.9374 C   0  0  0  0  0  0  0  0  0  0  0  0
  130.2689  131.8326  154.6245 C   0  0  0  0  0  0  0  0  0  0  0  0
  130.6487  130.9755  153.6064 C   0  0  0  0  0  0  0  0  0  0  0  0
  131.3380  129.8176  153.9185 C   0  0  0  0  0  0  0  0  0  0  0  0
  131.6416  129.5227  155.1677 N   0  0  0  0  0  0  0  0  0  0  0  0
  131.3058  130.3100  156.1692 C   0  0  0  0  0  0  0  0  0  0  0  0
  130.6124  133.6723  157.2291 N   0  0  0  0  0  0  0  0  0  0  0  0
  131.1797  134.1726  156.6219 H   0  0  0  0  0  0  0  0  0  0  0  0
  128.1306  135.6617  159.9659 C   0  0  0  0  0  0  0  0  0  0  0  0
  127.3659  135.3517  161.0749 C   0  0  0  0  0  0  0  0  0  0  0  0
  125.9945  135.2256  160.9555 C   0  0  0  0  0  0  0  0  0  0  0  0
  125.3888  135.3996  159.7252 C   0  0  0  0  0  0  0  0  0  0  0  0
  126.1541  135.7045  158.6151 C   0  0  0  0  0  0  0  0  0  0  0  0
  127.5249  135.8356  158.7354 C   0  0  0  0  0  0  0  0  0  0  0  0
  130.2039  138.1339  159.3882 C   0  0  0  0  0  0  0  0  0  0  0  0
  130.5130  139.4497  159.6784 C   0  0  0  0  0  0  0  0  0  0  0  0
  130.8415  140.8932  161.2207 H   0  0  0  0  0  0  0  0  0  0  0  0
  130.4290  139.2938  163.0468 H   0  0  0  0  0  0  0  0  0  0  0  0
  129.8693  136.9523  162.5298 H   0  0  0  0  0  0  0  0  0  0  0  0
  129.9825  135.1595  160.8999 H   0  0  0  0  0  0  0  0  0  0  0  0
  130.8122  136.0547  158.3544 H   0  0  0  0  0  0  0  0  0  0  0  0
  128.9708  131.0856  158.2840 H   0  0  0  0  0  0  0  0  0  0  0  0
  129.7263  132.7413  154.4097 H   0  0  0  0  0  0  0  0  0  0  0  0
  130.4056  131.2059  152.5797 H   0  0  0  0  0  0  0  0  0  0  0  0
  131.6326  129.1447  153.1269 H   0  0  0  0  0  0  0  0  0  0  0  0
  131.5725  130.0347  157.1790 H   0  0  0  0  0  0  0  0  0  0  0  0
  127.8395  135.2113  162.0353 H   0  0  0  0  0  0  0  0  0  0  0  0
  125.3967  134.9870  161.8228 H   0  0  0  0  0  0  0  0  0  0  0  0
  124.3179  135.2969  159.6311 H   0  0  0  0  0  0  0  0  0  0  0  0
  125.6810  135.8402  157.6537 H   0  0  0  0  0  0  0  0  0  0  0  0
  128.1228  136.0736  157.8680 H   0  0  0  0  0  0  0  0  0  0  0  0
  130.1437  137.8074  158.3605 H   0  0  0  0  0  0  0  0  0  0  0  0
  130.6942  140.1511  158.8775 H   0  0  0  0  0  0  0  0  0  0  0  0
  1 27  2  0
  1  2  1  0
  1 28  1  0
  2  3  2  0
  2 29  1  0
  3  4  1  0
  3 30  1  0
  4  5  1  0
  4 26  2  0
  5  6  1  0
  5 20  1  0
  5 31  1  0
  6 32  1  0
  7  6  1  0
  7 18  2  0
  7  8  1  0
  8  9  1  0
  8 10  1  0
 10 11  2  0
 10 33  1  0
 11 12  1  0
 11 18  1  0
 12 17  1  0
 12 13  2  0
 13 14  1  0
 13 34  1  0
 14 15  2  0
 14 35  1  0
 15 16  1  0
 15 36  1  0
 16 17  2  0
 17 37  1  0
 18 19  1  0
 20 25  1  0
 20 21  2  0
 21 22  1  0
 21 38  1  0
 22 23  2  0
 22 39  1  0
 23 24  1  0
 23 40  1  0
 24 25  2  0
 24 41  1  0
 25 42  1  0
 26 27  1  0
 26 43  1  0
 27 44  1  0
M  CHG  1  18   1
M  END
>  <DOCK_score>  (1) 
-58.216747

>  <SMILES>  (1) 
c1ccc(C(Nc2[nH]cc(-c3cccnc3)[nH+]2)c2ccccc2)cc1

$$$$
