O=C1CC[C@H](NC(NC2CC=CCC2)=[NH+][C@H]2CCC(=O)NC2)CN1
     RDKit          3D

 52 54  0  0  1  0  0  0  0  0999 V2000
  133.7401  138.3775  162.4821 O   0  0  0  0  0  0  0  0  0  0  0  0
  133.1307  137.5514  161.8365 C   0  0  0  0  0  0  0  0  0  0  0  0
  133.8283  136.2691  161.4835 C   0  0  0  0  0  0  0  0  0  0  0  0
  133.0906  135.5694  160.3399 C   0  0  0  0  0  0  0  0  0  0  0  0
  131.5963  135.5256  160.6816 C   0  0  2  0  0  0  0  0  0  0  0  0
  131.4603  135.0922  161.6725 H   0  0  0  0  0  0  0  0  0  0  0  0
  130.8887  134.7134  159.6887 N   0  0  0  0  0  0  0  0  0  0  0  0
  129.7931  134.0408  160.0370 C   0  0  0  0  0  0  0  0  0  0  0  0
  129.4788  132.8701  159.4031 N   0  0  0  0  0  0  0  0  0  0  0  0
  130.3472  132.3561  158.3412 C   0  0  1  0  0  0  0  0  0  0  0  0
  130.2586  130.8290  158.2984 C   0  0  0  0  0  0  0  0  0  0  0  0
  130.9312  130.3115  157.0548 C   0  0  0  0  0  0  0  0  0  0  0  0
  131.2131  131.0415  156.0238 C   0  0  0  0  0  0  0  0  0  0  0  0
  130.9170  132.5094  155.9264 C   0  0  0  0  0  0  0  0  0  0  0  0
  129.8893  132.9112  156.9865 C   0  0  0  0  0  0  0  0  0  0  0  0
  129.0034  134.5083  161.0023 N   0  0  0  0  0  0  0  0  0  0  0  0
  129.3799  135.0362  161.7239 H   0  0  0  0  0  0  0  0  0  0  0  0
  127.5662  134.2254  160.9746 C   0  0  1  0  0  0  0  0  0  0  0  0
  127.3290  133.6240  160.0970 H   0  0  0  0  0  0  0  0  0  0  0  0
  127.1673  133.4632  162.2439 C   0  0  0  0  0  0  0  0  0  0  0  0
  125.7073  133.0256  162.1069 C   0  0  0  0  0  0  0  0  0  0  0  0
  124.8624  134.1864  161.6665 C   0  0  0  0  0  0  0  0  0  0  0  0
  123.6612  134.1114  161.8161 O   0  0  0  0  0  0  0  0  0  0  0  0
  125.3623  135.2949  161.1194 N   0  0  0  0  0  0  0  0  0  0  0  0
  126.7856  135.5393  160.9226 C   0  0  0  0  0  0  0  0  0  0  0  0
  131.0447  136.9516  160.6651 C   0  0  0  0  0  0  0  0  0  0  0  0
  131.8767  137.8298  161.4783 N   0  0  0  0  0  0  0  0  0  0  0  0
  134.8512  136.4862  161.1763 H   0  0  0  0  0  0  0  0  0  0  0  0
  133.8446  135.6141  162.3547 H   0  0  0  0  0  0  0  0  0  0  0  0
  133.4701  134.5544  160.2224 H   0  0  0  0  0  0  0  0  0  0  0  0
  133.2393  136.1267  159.4149 H   0  0  0  0  0  0  0  0  0  0  0  0
  131.2180  134.6655  158.7776 H   0  0  0  0  0  0  0  0  0  0  0  0
  128.6808  132.3804  159.6566 H   0  0  0  0  0  0  0  0  0  0  0  0
  131.3770  132.6581  158.5317 H   0  0  0  0  0  0  0  0  0  0  0  0
  130.7484  130.4138  159.1793 H   0  0  0  0  0  0  0  0  0  0  0  0
  129.2111  130.5278  158.2944 H   0  0  0  0  0  0  0  0  0  0  0  0
  131.1960  129.2650  157.0222 H   0  0  0  0  0  0  0  0  0  0  0  0
  131.6910  130.5643  155.1809 H   0  0  0  0  0  0  0  0  0  0  0  0
  130.5208  132.7331  154.9360 H   0  0  0  0  0  0  0  0  0  0  0  0
  131.8369  133.0727  156.0832 H   0  0  0  0  0  0  0  0  0  0  0  0
  128.9156  132.4938  156.7298 H   0  0  0  0  0  0  0  0  0  0  0  0
  129.8231  133.9979  157.0394 H   0  0  0  0  0  0  0  0  0  0  0  0
  127.8054  132.5873  162.3618 H   0  0  0  0  0  0  0  0  0  0  0  0
  127.2731  134.1143  163.1116 H   0  0  0  0  0  0  0  0  0  0  0  0
  125.3467  132.6594  163.0682 H   0  0  0  0  0  0  0  0  0  0  0  0
  125.6391  132.2273  161.3680 H   0  0  0  0  0  0  0  0  0  0  0  0
  124.7394  135.9818  160.8339 H   0  0  0  0  0  0  0  0  0  0  0  0
  127.1485  136.2051  161.7055 H   0  0  0  0  0  0  0  0  0  0  0  0
  126.9364  136.0097  159.9510 H   0  0  0  0  0  0  0  0  0  0  0  0
  131.0278  137.3196  159.6393 H   0  0  0  0  0  0  0  0  0  0  0  0
  130.0304  136.9502  161.0641 H   0  0  0  0  0  0  0  0  0  0  0  0
  131.4942  138.6693  161.7780 H   0  0  0  0  0  0  0  0  0  0  0  0
  1  2  2  0
  2 27  1  0
  2  3  1  0
  3  4  1  0
  3 28  1  0
  3 29  1  0
  4  5  1  0
  4 30  1  0
  4 31  1  0
  5  6  1  1
  5  7  1  0
  5 26  1  0
  7 32  1  0
  8  7  1  0
  8  9  1  0
  8 16  2  0
  9 10  1  0
  9 33  1  0
 10 15  1  0
 10 11  1  0
 10 34  1  1
 11 12  1  0
 11 35  1  0
 11 36  1  0
 12 13  2  0
 12 37  1  0
 13 14  1  0
 13 38  1  0
 14 15  1  0
 14 39  1  0
 14 40  1  0
 15 41  1  0
 15 42  1  0
 16 17  1  0
 16 18  1  0
 18 19  1  6
 18 25  1  0
 18 20  1  0
 20 21  1  0
 20 43  1  0
 20 44  1  0
 21 22  1  0
 21 45  1  0
 21 46  1  0
 22 23  2  0
 22 24  1  0
 24 25  1  0
 24 47  1  0
 25 48  1  0
 25 49  1  0
 26 27  1  0
 26 50  1  0
 26 51  1  0
 27 52  1  0
M  CHG  1  16   1
M  END
>  <DOCK_score>  (1) 
-41.040012

>  <SMILES>  (1) 
O=C1CC[C@H](NC(NC2CC=CCC2)=[NH+][C@H]2CCC(=O)NC2)CN1

$$$$
