O=C1CC[C@H](NC(NC2CC=CC2)=[NH+]CCNCc2ccccc2)CN1
     RDKit          3D

 56 58  0  0  1  0  0  0  0  0999 V2000
  123.8193  133.5403  161.3915 O   0  0  0  0  0  0  0  0  0  0  0  0
  124.9660  133.8846  161.1980 C   0  0  0  0  0  0  0  0  0  0  0  0
  125.9569  132.8437  160.7616 C   0  0  0  0  0  0  0  0  0  0  0  0
  127.3815  133.3518  160.9972 C   0  0  0  0  0  0  0  0  0  0  0  0
  127.4962  134.7632  160.4087 C   0  0  2  0  0  0  0  0  0  0  0  0
  127.1525  134.7571  159.3743 H   0  0  0  0  0  0  0  0  0  0  0  0
  128.8914  135.2067  160.4637 N   0  0  0  0  0  0  0  0  0  0  0  0
  129.8658  134.4943  159.8054 C   0  0  0  0  0  0  0  0  0  0  0  0
  129.5547  133.8008  158.6597 N   0  0  0  0  0  0  0  0  0  0  0  0
  130.5930  133.0417  157.9583 C   0  0  0  0  0  0  0  0  0  0  0  0
  130.2090  132.8129  156.4780 C   0  0  0  0  0  0  0  0  0  0  0  0
  130.7030  131.4190  156.1648 C   0  0  0  0  0  0  0  0  0  0  0  0
  130.9543  130.7522  157.2585 C   0  0  0  0  0  0  0  0  0  0  0  0
  130.6693  131.5893  158.4837 C   0  0  0  0  0  0  0  0  0  0  0  0
  131.0843  134.4763  160.2674 N   0  0  0  0  0  0  0  0  0  0  0  0
  131.7718  133.9736  159.8030 H   0  0  0  0  0  0  0  0  0  0  0  0
  131.4158  135.2152  161.4883 C   0  0  0  0  0  0  0  0  0  0  0  0
  131.8483  136.6365  161.1228 C   0  0  0  0  0  0  0  0  0  0  0  0
  130.7515  137.3168  160.4214 N   0  0  0  0  0  0  0  0  0  0  0  0
  131.2507  138.4637  159.6508 C   0  0  0  0  0  0  0  0  0  0  0  0
  131.4564  139.6375  160.5733 C   0  0  0  0  0  0  0  0  0  0  0  0
  130.4270  140.5340  160.7910 C   0  0  0  0  0  0  0  0  0  0  0  0
  130.6143  141.6083  161.6407 C   0  0  0  0  0  0  0  0  0  0  0  0
  131.8338  141.7911  162.2653 C   0  0  0  0  0  0  0  0  0  0  0  0
  132.8648  140.8973  162.0435 C   0  0  0  0  0  0  0  0  0  0  0  0
  132.6762  139.8208  161.1972 C   0  0  0  0  0  0  0  0  0  0  0  0
  126.6239  135.7101  161.2337 C   0  0  0  0  0  0  0  0  0  0  0  0
  125.2786  135.1683  161.3787 N   0  0  0  0  0  0  0  0  0  0  0  0
  125.8196  132.6296  159.7017 H   0  0  0  0  0  0  0  0  0  0  0  0
  125.7974  131.9329  161.3387 H   0  0  0  0  0  0  0  0  0  0  0  0
  128.0934  132.6897  160.5044 H   0  0  0  0  0  0  0  0  0  0  0  0
  127.5886  133.3823  162.0670 H   0  0  0  0  0  0  0  0  0  0  0  0
  129.1277  136.0031  160.9646 H   0  0  0  0  0  0  0  0  0  0  0  0
  128.6478  133.8142  158.3158 H   0  0  0  0  0  0  0  0  0  0  0  0
  131.5599  133.5385  158.0394 H   0  0  0  0  0  0  0  0  0  0  0  0
  129.1275  132.8692  156.3533 H   0  0  0  0  0  0  0  0  0  0  0  0
  130.7043  133.5445  155.8397 H   0  0  0  0  0  0  0  0  0  0  0  0
  130.8319  131.0267  155.1669 H   0  0  0  0  0  0  0  0  0  0  0  0
  131.3179  129.7357  157.2842 H   0  0  0  0  0  0  0  0  0  0  0  0
  131.4774  131.4896  159.2082 H   0  0  0  0  0  0  0  0  0  0  0  0
  129.7198  131.2976  158.9325 H   0  0  0  0  0  0  0  0  0  0  0  0
  130.5405  135.2569  162.1365 H   0  0  0  0  0  0  0  0  0  0  0  0
  132.2297  134.7103  162.0088 H   0  0  0  0  0  0  0  0  0  0  0  0
  132.0950  137.1861  162.0312 H   0  0  0  0  0  0  0  0  0  0  0  0
  132.7235  136.5945  160.4745 H   0  0  0  0  0  0  0  0  0  0  0  0
  130.0307  137.6016  161.0674 H   0  0  0  0  0  0  0  0  0  0  0  0
  132.1983  138.2007  159.1807 H   0  0  0  0  0  0  0  0  0  0  0  0
  130.5248  138.7285  158.8820 H   0  0  0  0  0  0  0  0  0  0  0  0
  129.4754  140.3932  160.3001 H   0  0  0  0  0  0  0  0  0  0  0  0
  129.8087  142.3063  161.8142 H   0  0  0  0  0  0  0  0  0  0  0  0
  131.9809  142.6319  162.9270 H   0  0  0  0  0  0  0  0  0  0  0  0
  133.8176  141.0402  162.5315 H   0  0  0  0  0  0  0  0  0  0  0  0
  133.4817  139.1226  161.0239 H   0  0  0  0  0  0  0  0  0  0  0  0
  126.5708  136.6777  160.7347 H   0  0  0  0  0  0  0  0  0  0  0  0
  127.0679  135.8411  162.2206 H   0  0  0  0  0  0  0  0  0  0  0  0
  124.5668  135.7790  161.6260 H   0  0  0  0  0  0  0  0  0  0  0  0
  1  2  2  0
  2 28  1  0
  2  3  1  0
  3  4  1  0
  3 29  1  0
  3 30  1  0
  4  5  1  0
  4 31  1  0
  4 32  1  0
  5  6  1  6
  5  7  1  0
  5 27  1  0
  7 33  1  0
  8  7  1  0
  8  9  1  0
  8 15  2  0
  9 10  1  0
  9 34  1  0
 10 14  1  0
 10 11  1  0
 10 35  1  0
 11 12  1  0
 11 36  1  0
 11 37  1  0
 12 13  2  0
 12 38  1  0
 13 14  1  0
 13 39  1  0
 14 40  1  0
 14 41  1  0
 15 16  1  0
 15 17  1  0
 17 18  1  0
 17 42  1  0
 17 43  1  0
 18 19  1  0
 18 44  1  0
 18 45  1  0
 19 20  1  0
 19 46  1  0
 20 21  1  0
 20 47  1  0
 20 48  1  0
 21 26  1  0
 21 22  2  0
 22 23  1  0
 22 49  1  0
 23 24  2  0
 23 50  1  0
 24 25  1  0
 24 51  1  0
 25 26  2  0
 25 52  1  0
 26 53  1  0
 27 28  1  0
 27 54  1  0
 27 55  1  0
 28 56  1  0
M  CHG  1  15   1
M  END
>  <DOCK_score>  (1) 
-43.82589

>  <SMILES>  (1) 
O=C1CC[C@H](NC(NC2CC=CC2)=[NH+]CCNCc2ccccc2)CN1

$$$$
