CCc1ccc(-c2c[nH]c(Nc3ccc(N)nc3C)[nH+]2)cc1
     RDKit          3D

 42 44  0  0  1  0  0  0  0  0999 V2000
  130.1888  128.3889  151.5967 C   0  0  0  0  0  0  0  0  0  0  0  0
  131.2098  129.5190  151.7408 C   0  0  0  0  0  0  0  0  0  0  0  0
  130.9601  130.2605  153.0288 C   0  0  0  0  0  0  0  0  0  0  0  0
  131.5908  129.8543  154.1906 C   0  0  0  0  0  0  0  0  0  0  0  0
  131.3704  130.5330  155.3721 C   0  0  0  0  0  0  0  0  0  0  0  0
  130.5016  131.6226  155.3951 C   0  0  0  0  0  0  0  0  0  0  0  0
  130.2564  132.3524  156.6630 C   0  0  0  0  0  0  0  0  0  0  0  0
  129.7478  131.8228  157.8033 C   0  0  0  0  0  0  0  0  0  0  0  0
  129.6887  132.8403  158.7238 N   0  0  0  0  0  0  0  0  0  0  0  0
  129.3676  132.7714  159.6365 H   0  0  0  0  0  0  0  0  0  0  0  0
  130.1635  133.9634  158.1186 C   0  0  0  0  0  0  0  0  0  0  0  0
  130.2720  135.2124  158.7070 N   0  0  0  0  0  0  0  0  0  0  0  0
  129.3741  135.5934  159.7128 C   0  0  0  0  0  0  0  0  0  0  0  0
  129.8388  135.9274  160.9843 C   0  0  0  0  0  0  0  0  0  0  0  0
  128.9171  136.2980  161.9459 C   0  0  0  0  0  0  0  0  0  0  0  0
  127.5662  136.3250  161.6156 C   0  0  0  0  0  0  0  0  0  0  0  0
  126.6296  136.6963  162.5771 N   0  0  0  0  0  0  0  0  0  0  0  0
  127.1608  136.0014  160.3982 N   0  0  0  0  0  0  0  0  0  0  0  0
  128.0131  135.6483  159.4544 C   0  0  0  0  0  0  0  0  0  0  0  0
  127.5005  135.2948  158.0820 C   0  0  0  0  0  0  0  0  0  0  0  0
  130.5067  133.6663  156.8888 N   0  0  0  0  0  0  0  0  0  0  0  0
  130.8777  134.2873  156.2427 H   0  0  0  0  0  0  0  0  0  0  0  0
  129.8644  132.0241  154.2224 C   0  0  0  0  0  0  0  0  0  0  0  0
  130.0967  131.3414  153.0456 C   0  0  0  0  0  0  0  0  0  0  0  0
  129.1823  128.8072  151.5860 H   0  0  0  0  0  0  0  0  0  0  0  0
  130.3694  127.8527  150.6649 H   0  0  0  0  0  0  0  0  0  0  0  0
  130.2878  127.7012  152.4366 H   0  0  0  0  0  0  0  0  0  0  0  0
  132.2160  129.1013  151.7510 H   0  0  0  0  0  0  0  0  0  0  0  0
  131.1107  130.2072  150.9004 H   0  0  0  0  0  0  0  0  0  0  0  0
  132.2604  129.0072  154.1725 H   0  0  0  0  0  0  0  0  0  0  0  0
  131.8668  130.2175  156.2779 H   0  0  0  0  0  0  0  0  0  0  0  0
  129.4466  130.7972  157.9578 H   0  0  0  0  0  0  0  0  0  0  0  0
  130.9697  135.8235  158.4230 H   0  0  0  0  0  0  0  0  0  0  0  0
  130.8940  135.8978  161.2124 H   0  0  0  0  0  0  0  0  0  0  0  0
  129.2422  136.5634  162.9411 H   0  0  0  0  0  0  0  0  0  0  0  0
  126.9206  136.9343  163.4714 H   0  0  0  0  0  0  0  0  0  0  0  0
  125.6861  136.7171  162.3527 H   0  0  0  0  0  0  0  0  0  0  0  0
  127.2826  134.2276  158.0392 H   0  0  0  0  0  0  0  0  0  0  0  0
  126.5912  135.8598  157.8771 H   0  0  0  0  0  0  0  0  0  0  0  0
  128.2571  135.5412  157.3371 H   0  0  0  0  0  0  0  0  0  0  0  0
  129.1899  132.8674  154.2346 H   0  0  0  0  0  0  0  0  0  0  0  0
  129.6037  131.6520  152.1361 H   0  0  0  0  0  0  0  0  0  0  0  0
  1  2  1  0
  1 25  1  0
  1 26  1  0
  1 27  1  0
  2  3  1  0
  2 28  1  0
  2 29  1  0
  3 24  2  0
  3  4  1  0
  4  5  2  0
  4 30  1  0
  5  6  1  0
  5 31  1  0
  6  7  1  0
  6 23  2  0
  7 21  1  0
  7  8  2  0
  8  9  1  0
  8 32  1  0
  9 10  1  0
  9 11  1  0
 11 12  1  0
 11 21  2  0
 12 13  1  0
 12 33  1  0
 13 19  1  0
 13 14  2  0
 14 15  1  0
 14 34  1  0
 15 16  2  0
 15 35  1  0
 16 17  1  0
 16 18  1  0
 17 36  1  0
 17 37  1  0
 18 19  2  0
 19 20  1  0
 20 38  1  0
 20 39  1  0
 20 40  1  0
 21 22  1  0
 23 24  1  0
 23 41  1  0
 24 42  1  0
M  CHG  1  21   1
M  END
>  <DOCK_score>  (1) 
-55.176056

>  <SMILES>  (1) 
CCc1ccc(-c2c[nH]c(Nc3ccc(N)nc3C)[nH+]2)cc1

$$$$
