CCc1ccc(-c2c[nH]c(N[C@H](c3ccnn3C)C(c3ccccc3)c3ccccc3)[nH+]2)cc1
     RDKit          3D

 64 68  0  0  1  0  0  0  0  0999 V2000
  130.6104  128.4347  151.9323 C   0  0  0  0  0  0  0  0  0  0  0  0
  131.5717  129.5944  152.1993 C   0  0  0  0  0  0  0  0  0  0  0  0
  131.1427  130.3262  153.4448 C   0  0  0  0  0  0  0  0  0  0  0  0
  131.6367  129.9368  154.6768 C   0  0  0  0  0  0  0  0  0  0  0  0
  131.2519  130.6064  155.8205 C   0  0  0  0  0  0  0  0  0  0  0  0
  130.3548  131.6697  155.7338 C   0  0  0  0  0  0  0  0  0  0  0  0
  129.9331  132.3898  156.9601 C   0  0  0  0  0  0  0  0  0  0  0  0
  129.3036  131.8434  158.0297 C   0  0  0  0  0  0  0  0  0  0  0  0
  129.1005  132.8577  158.9337 N   0  0  0  0  0  0  0  0  0  0  0  0
  128.6711  132.7779  159.7998 H   0  0  0  0  0  0  0  0  0  0  0  0
  129.6124  133.9952  158.3895 C   0  0  0  0  0  0  0  0  0  0  0  0
  129.6091  135.2457  158.9836 N   0  0  0  0  0  0  0  0  0  0  0  0
  129.0181  135.4238  160.3122 C   0  0  2  0  0  0  0  0  0  0  0  0
  129.2753  134.5718  160.9415 H   0  0  0  0  0  0  0  0  0  0  0  0
  127.5195  135.5212  160.1865 C   0  0  0  0  0  0  0  0  0  0  0  0
  126.8382  136.0145  159.1265 C   0  0  0  0  0  0  0  0  0  0  0  0
  125.4721  135.9228  159.4124 C   0  0  0  0  0  0  0  0  0  0  0  0
  125.3381  135.3936  160.6014 N   0  0  0  0  0  0  0  0  0  0  0  0
  126.6164  135.1267  161.1084 N   0  0  0  0  0  0  0  0  0  0  0  0
  126.9195  134.5277  162.4106 C   0  0  0  0  0  0  0  0  0  0  0  0
  129.5612  136.7070  160.9440 C   0  0  0  0  0  0  0  0  0  0  0  0
  129.3668  136.6529  162.4375 C   0  0  0  0  0  0  0  0  0  0  0  0
  128.2059  137.1476  163.0018 C   0  0  0  0  0  0  0  0  0  0  0  0
  128.0255  137.0935  164.3712 C   0  0  0  0  0  0  0  0  0  0  0  0
  129.0106  136.5543  165.1773 C   0  0  0  0  0  0  0  0  0  0  0  0
  130.1738  136.0644  164.6135 C   0  0  0  0  0  0  0  0  0  0  0  0
  130.3519  136.1137  163.2436 C   0  0  0  0  0  0  0  0  0  0  0  0
  131.0301  136.8373  160.6331 C   0  0  0  0  0  0  0  0  0  0  0  0
  131.6032  138.0897  160.5150 C   0  0  0  0  0  0  0  0  0  0  0  0
  132.9515  138.2092  160.2347 C   0  0  0  0  0  0  0  0  0  0  0  0
  133.7245  137.0762  160.0618 C   0  0  0  0  0  0  0  0  0  0  0  0
  133.1503  135.8239  160.1747 C   0  0  0  0  0  0  0  0  0  0  0  0
  131.8031  135.7044  160.4602 C   0  0  0  0  0  0  0  0  0  0  0  0
  130.1143  133.7105  157.2127 N   0  0  0  0  0  0  0  0  0  0  0  0
  130.5444  134.3434  156.6164 H   0  0  0  0  0  0  0  0  0  0  0  0
  129.8559  132.0540  154.4905 C   0  0  0  0  0  0  0  0  0  0  0  0
  130.2521  131.3807  153.3527 C   0  0  0  0  0  0  0  0  0  0  0  0
  130.6252  127.7486  152.7793 H   0  0  0  0  0  0  0  0  0  0  0  0
  129.6010  128.8227  151.7966 H   0  0  0  0  0  0  0  0  0  0  0  0
  130.9205  127.9057  151.0311 H   0  0  0  0  0  0  0  0  0  0  0  0
  132.5809  129.2068  152.3345 H   0  0  0  0  0  0  0  0  0  0  0  0
  131.5566  130.2808  151.3518 H   0  0  0  0  0  0  0  0  0  0  0  0
  132.3281  129.1098  154.7433 H   0  0  0  0  0  0  0  0  0  0  0  0
  131.6419  130.3046  156.7813 H   0  0  0  0  0  0  0  0  0  0  0  0
  129.0165  130.8091  158.1480 H   0  0  0  0  0  0  0  0  0  0  0  0
  129.9980  136.0038  158.5202 H   0  0  0  0  0  0  0  0  0  0  0  0
  127.2725  136.4093  158.2199 H   0  0  0  0  0  0  0  0  0  0  0  0
  124.6671  136.2355  158.7641 H   0  0  0  0  0  0  0  0  0  0  0  0
  127.0193  135.3148  163.1581 H   0  0  0  0  0  0  0  0  0  0  0  0
  126.1119  133.8544  162.6975 H   0  0  0  0  0  0  0  0  0  0  0  0
  127.8528  133.9686  162.3450 H   0  0  0  0  0  0  0  0  0  0  0  0
  129.0265  137.5661  160.5390 H   0  0  0  0  0  0  0  0  0  0  0  0
  127.4382  137.5729  162.3723 H   0  0  0  0  0  0  0  0  0  0  0  0
  127.1169  137.4766  164.8118 H   0  0  0  0  0  0  0  0  0  0  0  0
  128.8716  136.5161  166.2476 H   0  0  0  0  0  0  0  0  0  0  0  0
  130.9435  135.6434  165.2434 H   0  0  0  0  0  0  0  0  0  0  0  0
  131.2608  135.7312  162.8031 H   0  0  0  0  0  0  0  0  0  0  0  0
  130.9983  138.9749  160.6457 H   0  0  0  0  0  0  0  0  0  0  0  0
  133.4001  139.1876  160.1462 H   0  0  0  0  0  0  0  0  0  0  0  0
  134.7771  137.1697  159.8383 H   0  0  0  0  0  0  0  0  0  0  0  0
  133.7542  134.9389  160.0393 H   0  0  0  0  0  0  0  0  0  0  0  0
  131.3544  134.7260  160.5481 H   0  0  0  0  0  0  0  0  0  0  0  0
  129.1602  132.8769  154.4175 H   0  0  0  0  0  0  0  0  0  0  0  0
  129.8658  131.6773  152.3888 H   0  0  0  0  0  0  0  0  0  0  0  0
  1  2  1  0
  1 38  1  0
  1 39  1  0
  1 40  1  0
  2  3  1  0
  2 41  1  0
  2 42  1  0
  3 37  2  0
  3  4  1  0
  4  5  2  0
  4 43  1  0
  5  6  1  0
  5 44  1  0
  6  7  1  0
  6 36  2  0
  7 34  1  0
  7  8  2  0
  8  9  1  0
  8 45  1  0
  9 10  1  0
  9 11  1  0
 11 12  1  0
 11 34  2  0
 12 13  1  0
 12 46  1  0
 13 14  1  1
 13 15  1  0
 13 21  1  0
 15 19  1  0
 15 16  2  0
 16 17  1  0
 16 47  1  0
 17 18  2  0
 17 48  1  0
 18 19  1  0
 19 20  1  0
 20 49  1  0
 20 50  1  0
 20 51  1  0
 21 22  1  0
 21 28  1  0
 21 52  1  0
 22 27  1  0
 22 23  2  0
 23 24  1  0
 23 53  1  0
 24 25  2  0
 24 54  1  0
 25 26  1  0
 25 55  1  0
 26 27  2  0
 26 56  1  0
 27 57  1  0
 28 33  1  0
 28 29  2  0
 29 30  1  0
 29 58  1  0
 30 31  2  0
 30 59  1  0
 31 32  1  0
 31 60  1  0
 32 33  2  0
 32 61  1  0
 33 62  1  0
 34 35  1  0
 36 37  1  0
 36 63  1  0
 37 64  1  0
M  CHG  1  34   1
M  END
>  <DOCK_score>  (1) 
-57.601433

>  <SMILES>  (1) 
CCc1ccc(-c2c[nH]c(N[C@H](c3ccnn3C)C(c3ccccc3)c3ccccc3)[nH+]2)cc1

$$$$
