CCc1ccc(-c2c[nH]c(N[C@H](c3ccc(F)cc3)c3nc(C4=COCCO4)no3)[nH+]2)cc1
     RDKit          3D

 56 60  0  0  1  0  0  0  0  0999 V2000
  130.2258  128.2039  151.8989 C   0  0  0  0  0  0  0  0  0  0  0  0
  131.2551  129.3300  152.0128 C   0  0  0  0  0  0  0  0  0  0  0  0
  130.9968  130.1216  153.2689 C   0  0  0  0  0  0  0  0  0  0  0  0
  131.6098  129.7545  154.4528 C   0  0  0  0  0  0  0  0  0  0  0  0
  131.3808  130.4785  155.6051 C   0  0  0  0  0  0  0  0  0  0  0  0
  130.5215  131.5755  155.5766 C   0  0  0  0  0  0  0  0  0  0  0  0
  130.2674  132.3546  156.8129 C   0  0  0  0  0  0  0  0  0  0  0  0
  129.7405  131.8726  157.9657 C   0  0  0  0  0  0  0  0  0  0  0  0
  129.6797  132.9248  158.8468 N   0  0  0  0  0  0  0  0  0  0  0  0
  129.3472  132.8930  159.7575 H   0  0  0  0  0  0  0  0  0  0  0  0
  130.1718  134.0200  158.2060 C   0  0  0  0  0  0  0  0  0  0  0  0
  130.2834  135.2890  158.7480 N   0  0  0  0  0  0  0  0  0  0  0  0
  129.8513  135.5377  160.1256 C   0  0  2  0  0  0  0  0  0  0  0  0
  130.4263  134.9093  160.8058 H   0  0  0  0  0  0  0  0  0  0  0  0
  128.3858  135.2124  160.2590 C   0  0  0  0  0  0  0  0  0  0  0  0
  127.8859  134.7595  161.4657 C   0  0  0  0  0  0  0  0  0  0  0  0
  126.5413  134.4655  161.5904 C   0  0  0  0  0  0  0  0  0  0  0  0
  125.6968  134.6145  160.5034 C   0  0  0  0  0  0  0  0  0  0  0  0
  124.3831  134.3229  160.6229 F   0  0  0  0  0  0  0  0  0  0  0  0
  126.1996  135.0633  159.2938 C   0  0  0  0  0  0  0  0  0  0  0  0
  127.5436  135.3616  159.1729 C   0  0  0  0  0  0  0  0  0  0  0  0
  130.0773  136.9875  160.4689 C   0  0  0  0  0  0  0  0  0  0  0  0
  130.3440  137.4724  161.6555 N   0  0  0  0  0  0  0  0  0  0  0  0
  130.4657  138.8100  161.4827 C   0  0  0  0  0  0  0  0  0  0  0  0
  130.7666  139.8061  162.5303 C   0  0  0  0  0  0  0  0  0  0  0  0
  130.8590  141.0918  162.1962 C   0  0  0  0  0  0  0  0  0  0  0  0
  131.1356  142.0488  163.1147 O   0  0  0  0  0  0  0  0  0  0  0  0
  130.9652  141.6907  164.4914 C   0  0  0  0  0  0  0  0  0  0  0  0
  131.5923  140.3052  164.7034 C   0  0  0  0  0  0  0  0  0  0  0  0
  130.9478  139.3865  163.8122 O   0  0  0  0  0  0  0  0  0  0  0  0
  130.2669  139.0538  160.2100 N   0  0  0  0  0  0  0  0  0  0  0  0
  130.0488  138.0181  159.6178 O   0  0  0  0  0  0  0  0  0  0  0  0
  130.5266  133.6741  156.9926 N   0  0  0  0  0  0  0  0  0  0  0  0
  130.9113  134.2673  156.3285 H   0  0  0  0  0  0  0  0  0  0  0  0
  129.9023  131.9380  154.3817 C   0  0  0  0  0  0  0  0  0  0  0  0
  130.1428  131.2098  153.2343 C   0  0  0  0  0  0  0  0  0  0  0  0
  129.2234  128.6300  151.8603 H   0  0  0  0  0  0  0  0  0  0  0  0
  130.4127  127.6314  150.9904 H   0  0  0  0  0  0  0  0  0  0  0  0
  130.3085  127.5476  152.7653 H   0  0  0  0  0  0  0  0  0  0  0  0
  132.2574  128.9044  152.0512 H   0  0  0  0  0  0  0  0  0  0  0  0
  131.1721  129.9868  151.1461 H   0  0  0  0  0  0  0  0  0  0  0  0
  132.2722  128.9016  154.4748 H   0  0  0  0  0  0  0  0  0  0  0  0
  131.8638  130.1935  156.5282 H   0  0  0  0  0  0  0  0  0  0  0  0
  129.4281  130.8562  158.1549 H   0  0  0  0  0  0  0  0  0  0  0  0
  130.6475  136.0134  158.2157 H   0  0  0  0  0  0  0  0  0  0  0  0
  128.5455  134.6393  162.3123 H   0  0  0  0  0  0  0  0  0  0  0  0
  126.1503  134.1156  162.5343 H   0  0  0  0  0  0  0  0  0  0  0  0
  125.5419  135.1794  158.4452 H   0  0  0  0  0  0  0  0  0  0  0  0
  127.9360  135.7118  158.2296 H   0  0  0  0  0  0  0  0  0  0  0  0
  130.7055  141.3799  161.1666 H   0  0  0  0  0  0  0  0  0  0  0  0
  129.9030  141.6552  164.7340 H   0  0  0  0  0  0  0  0  0  0  0  0
  131.4639  142.4219  165.1275 H   0  0  0  0  0  0  0  0  0  0  0  0
  131.4408  139.9859  165.7345 H   0  0  0  0  0  0  0  0  0  0  0  0
  132.6591  140.3450  164.4830 H   0  0  0  0  0  0  0  0  0  0  0  0
  129.2352  132.7869  154.3538 H   0  0  0  0  0  0  0  0  0  0  0  0
  129.6632  131.4895  152.3080 H   0  0  0  0  0  0  0  0  0  0  0  0
  1  2  1  0
  1 37  1  0
  1 38  1  0
  1 39  1  0
  2  3  1  0
  2 40  1  0
  2 41  1  0
  3 36  2  0
  3  4  1  0
  4  5  2  0
  4 42  1  0
  5  6  1  0
  5 43  1  0
  6  7  1  0
  6 35  2  0
  7 33  1  0
  7  8  2  0
  8  9  1  0
  8 44  1  0
  9 10  1  0
  9 11  1  0
 11 12  1  0
 11 33  2  0
 12 13  1  0
 12 45  1  0
 13 14  1  1
 13 15  1  0
 13 22  1  0
 15 21  1  0
 15 16  2  0
 16 17  1  0
 16 46  1  0
 17 18  2  0
 17 47  1  0
 18 19  1  0
 18 20  1  0
 20 21  2  0
 20 48  1  0
 21 49  1  0
 22 32  1  0
 22 23  2  0
 23 24  1  0
 24 25  1  0
 24 31  2  0
 25 30  1  0
 25 26  2  0
 26 27  1  0
 26 50  1  0
 27 28  1  0
 28 29  1  0
 28 51  1  0
 28 52  1  0
 29 30  1  0
 29 53  1  0
 29 54  1  0
 31 32  1  0
 33 34  1  0
 35 36  1  0
 35 55  1  0
 36 56  1  0
M  CHG  1  33   1
M  END
>  <DOCK_score>  (1) 
-57.153172

>  <SMILES>  (1) 
CCc1ccc(-c2c[nH]c(N[C@H](c3ccc(F)cc3)c3nc(C4=COCCO4)no3)[nH+]2)cc1

$$$$
