CCc1ccc(-c2c[nH]c(N[C@@H](NC(c3ccccc3)c3ccccc3)c3ccccc3)[nH+]2)cc1
     RDKit          3D

 66 70  0  0  1  0  0  0  0  0999 V2000
  130.2045  128.3806  151.7171 C   0  0  0  0  0  0  0  0  0  0  0  0
  131.3340  129.3803  151.9727 C   0  0  0  0  0  0  0  0  0  0  0  0
  131.0233  130.1842  153.2089 C   0  0  0  0  0  0  0  0  0  0  0  0
  131.4504  129.7379  154.4461 C   0  0  0  0  0  0  0  0  0  0  0  0
  131.1738  130.4727  155.5811 C   0  0  0  0  0  0  0  0  0  0  0  0
  130.4525  131.6610  155.4800 C   0  0  0  0  0  0  0  0  0  0  0  0
  130.1472  132.4524  156.6969 C   0  0  0  0  0  0  0  0  0  0  0  0
  129.4402  132.0231  157.7716 C   0  0  0  0  0  0  0  0  0  0  0  0
  129.3967  133.0673  158.6631 N   0  0  0  0  0  0  0  0  0  0  0  0
  128.9600  133.0654  159.5292 H   0  0  0  0  0  0  0  0  0  0  0  0
  130.0791  134.1051  158.1067 C   0  0  0  0  0  0  0  0  0  0  0  0
  130.2695  135.3479  158.6860 N   0  0  0  0  0  0  0  0  0  0  0  0
  129.7127  135.6315  160.0111 C   0  0  1  0  0  0  0  0  0  0  0  0
  130.1316  134.9353  160.7377 H   0  0  0  0  0  0  0  0  0  0  0  0
  130.0505  137.0072  160.3998 N   0  0  0  0  0  0  0  0  0  0  0  0
  129.9432  137.1846  161.8541 C   0  0  0  0  0  0  0  0  0  0  0  0
  131.1806  136.6391  162.5194 C   0  0  0  0  0  0  0  0  0  0  0  0
  131.2232  135.3172  162.9219 C   0  0  0  0  0  0  0  0  0  0  0  0
  132.3598  134.8156  163.5278 C   0  0  0  0  0  0  0  0  0  0  0  0
  133.4505  135.6391  163.7403 C   0  0  0  0  0  0  0  0  0  0  0  0
  133.4054  136.9616  163.3430 C   0  0  0  0  0  0  0  0  0  0  0  0
  132.2707  137.4619  162.7323 C   0  0  0  0  0  0  0  0  0  0  0  0
  129.8067  138.6512  162.1726 C   0  0  0  0  0  0  0  0  0  0  0  0
  129.0968  139.0530  163.2886 C   0  0  0  0  0  0  0  0  0  0  0  0
  128.9758  140.3981  163.5835 C   0  0  0  0  0  0  0  0  0  0  0  0
  129.5558  141.3419  162.7565 C   0  0  0  0  0  0  0  0  0  0  0  0
  130.2613  140.9402  161.6377 C   0  0  0  0  0  0  0  0  0  0  0  0
  130.3867  139.5950  161.3457 C   0  0  0  0  0  0  0  0  0  0  0  0
  128.2145  135.4744  159.9705 C   0  0  0  0  0  0  0  0  0  0  0  0
  127.5310  135.0705  161.1021 C   0  0  0  0  0  0  0  0  0  0  0  0
  126.1562  134.9305  161.0662 C   0  0  0  0  0  0  0  0  0  0  0  0
  125.4659  135.1858  159.8960 C   0  0  0  0  0  0  0  0  0  0  0  0
  126.1500  135.5846  158.7628 C   0  0  0  0  0  0  0  0  0  0  0  0
  127.5243  135.7286  158.8000 C   0  0  0  0  0  0  0  0  0  0  0  0
  130.5310  133.7319  156.9343 N   0  0  0  0  0  0  0  0  0  0  0  0
  131.0541  134.2832  156.3316 H   0  0  0  0  0  0  0  0  0  0  0  0
  130.0196  132.1033  154.2312 C   0  0  0  0  0  0  0  0  0  0  0  0
  130.3069  131.3633  153.1023 C   0  0  0  0  0  0  0  0  0  0  0  0
  130.4291  127.7992  150.8229 H   0  0  0  0  0  0  0  0  0  0  0  0
  130.1123  127.7109  152.5722 H   0  0  0  0  0  0  0  0  0  0  0  0
  129.2675  128.9189  151.5747 H   0  0  0  0  0  0  0  0  0  0  0  0
  132.2707  128.8425  152.1147 H   0  0  0  0  0  0  0  0  0  0  0  0
  131.4259  130.0506  151.1171 H   0  0  0  0  0  0  0  0  0  0  0  0
  132.0051  128.8145  154.5238 H   0  0  0  0  0  0  0  0  0  0  0  0
  131.5118  130.1255  156.5463 H   0  0  0  0  0  0  0  0  0  0  0  0
  128.9961  131.0473  157.9014 H   0  0  0  0  0  0  0  0  0  0  0  0
  130.7718  136.0309  158.2146 H   0  0  0  0  0  0  0  0  0  0  0  0
  130.9704  137.2603  160.0717 H   0  0  0  0  0  0  0  0  0  0  0  0
  129.0673  136.6499  162.2218 H   0  0  0  0  0  0  0  0  0  0  0  0
  130.3697  134.6757  162.7596 H   0  0  0  0  0  0  0  0  0  0  0  0
  132.3946  133.7820  163.8389 H   0  0  0  0  0  0  0  0  0  0  0  0
  134.3364  135.2476  164.2180 H   0  0  0  0  0  0  0  0  0  0  0  0
  134.2570  137.6045  163.5095 H   0  0  0  0  0  0  0  0  0  0  0  0
  132.2357  138.4957  162.4219 H   0  0  0  0  0  0  0  0  0  0  0  0
  128.6399  138.3159  163.9323 H   0  0  0  0  0  0  0  0  0  0  0  0
  128.4242  140.7119  164.4574 H   0  0  0  0  0  0  0  0  0  0  0  0
  129.4575  142.3930  162.9844 H   0  0  0  0  0  0  0  0  0  0  0  0
  130.7141  141.6777  160.9914 H   0  0  0  0  0  0  0  0  0  0  0  0
  130.9377  139.2812  160.4714 H   0  0  0  0  0  0  0  0  0  0  0  0
  128.0707  134.8676  162.0154 H   0  0  0  0  0  0  0  0  0  0  0  0
  125.6218  134.6193  161.9515 H   0  0  0  0  0  0  0  0  0  0  0  0
  124.3921  135.0738  159.8671 H   0  0  0  0  0  0  0  0  0  0  0  0
  125.6106  135.7839  157.8488 H   0  0  0  0  0  0  0  0  0  0  0  0
  128.0587  136.0401  157.9148 H   0  0  0  0  0  0  0  0  0  0  0  0
  129.4601  133.0234  154.1470 H   0  0  0  0  0  0  0  0  0  0  0  0
  129.9717  131.7049  152.1341 H   0  0  0  0  0  0  0  0  0  0  0  0
  1  2  1  0
  1 39  1  0
  1 40  1  0
  1 41  1  0
  2  3  1  0
  2 42  1  0
  2 43  1  0
  3 38  2  0
  3  4  1  0
  4  5  2  0
  4 44  1  0
  5  6  1  0
  5 45  1  0
  6  7  1  0
  6 37  2  0
  7 35  1  0
  7  8  2  0
  8  9  1  0
  8 46  1  0
  9 10  1  0
  9 11  1  0
 11 12  1  0
 11 35  2  0
 12 13  1  0
 12 47  1  0
 13 14  1  1
 13 15  1  0
 13 29  1  0
 15 16  1  0
 15 48  1  0
 16 17  1  0
 16 23  1  0
 16 49  1  0
 17 22  1  0
 17 18  2  0
 18 19  1  0
 18 50  1  0
 19 20  2  0
 19 51  1  0
 20 21  1  0
 20 52  1  0
 21 22  2  0
 21 53  1  0
 22 54  1  0
 23 28  1  0
 23 24  2  0
 24 25  1  0
 24 55  1  0
 25 26  2  0
 25 56  1  0
 26 27  1  0
 26 57  1  0
 27 28  2  0
 27 58  1  0
 28 59  1  0
 29 34  1  0
 29 30  2  0
 30 31  1  0
 30 60  1  0
 31 32  2  0
 31 61  1  0
 32 33  1  0
 32 62  1  0
 33 34  2  0
 33 63  1  0
 34 64  1  0
 35 36  1  0
 37 38  1  0
 37 65  1  0
 38 66  1  0
M  CHG  1  35   1
M  END
>  <DOCK_score>  (1) 
-66.143425

>  <SMILES>  (1) 
CCc1ccc(-c2c[nH]c(N[C@@H](NC(c3ccccc3)c3ccccc3)c3ccccc3)[nH+]2)cc1

$$$$
