O[C@@]1(C2=Cc3ccccc3C2)C=C([NH2+]C(Cc2ccccc2)Cc2ccccc2)CCC1
     RDKit          3D

 64 68  0  0  1  0  0  0  0  0999 V2000
  133.7659  135.5299  162.2073 O   0  0  0  0  0  0  0  0  0  0  0  0
  132.3749  135.7776  161.9931 C   0  0  1  0  0  0  0  0  0  0  0  0
  132.0452  137.1826  162.4269 C   0  0  0  0  0  0  0  0  0  0  0  0
  132.8985  138.0585  162.9282 C   0  0  0  0  0  0  0  0  0  0  0  0
  132.2267  139.3334  163.2415 C   0  0  0  0  0  0  0  0  0  0  0  0
  132.7033  140.5326  163.7773 C   0  0  0  0  0  0  0  0  0  0  0  0
  131.8398  141.5903  163.9705 C   0  0  0  0  0  0  0  0  0  0  0  0
  130.5021  141.4714  163.6367 C   0  0  0  0  0  0  0  0  0  0  0  0
  130.0205  140.2849  163.1103 C   0  0  0  0  0  0  0  0  0  0  0  0
  130.8750  139.2260  162.9088 C   0  0  0  0  0  0  0  0  0  0  0  0
  130.6822  137.8316  162.3643 C   0  0  0  0  0  0  0  0  0  0  0  0
  132.0606  135.6207  160.5341 C   0  0  0  0  0  0  0  0  0  0  0  0
  131.4743  134.5847  160.0259 C   0  0  0  0  0  0  0  0  0  0  0  0
  131.2525  134.5683  158.6457 N   0  0  0  0  0  0  0  0  0  0  0  0
  131.6069  135.4206  158.2380 H   0  0  0  0  0  0  0  0  0  0  0  0
  131.7279  133.7774  158.2380 H   0  0  0  0  0  0  0  0  0  0  0  0
  129.8111  134.4620  158.3827 C   0  0  0  0  0  0  0  0  0  0  0  0
  129.1615  135.8387  158.5377 C   0  0  0  0  0  0  0  0  0  0  0  0
  127.6829  135.7297  158.2679 C   0  0  0  0  0  0  0  0  0  0  0  0
  127.1994  135.9081  156.9852 C   0  0  0  0  0  0  0  0  0  0  0  0
  125.8435  135.8037  156.7370 C   0  0  0  0  0  0  0  0  0  0  0  0
  124.9701  135.5304  157.7730 C   0  0  0  0  0  0  0  0  0  0  0  0
  125.4531  135.3569  159.0565 C   0  0  0  0  0  0  0  0  0  0  0  0
  126.8095  135.4568  159.3040 C   0  0  0  0  0  0  0  0  0  0  0  0
  129.5891  133.9509  156.9578 C   0  0  0  0  0  0  0  0  0  0  0  0
  130.2288  132.5951  156.8050 C   0  0  0  0  0  0  0  0  0  0  0  0
  130.7126  132.1938  155.5737 C   0  0  0  0  0  0  0  0  0  0  0  0
  131.3034  130.9519  155.4346 C   0  0  0  0  0  0  0  0  0  0  0  0
  131.4019  130.1073  156.5246 C   0  0  0  0  0  0  0  0  0  0  0  0
  130.9139  130.5066  157.7547 C   0  0  0  0  0  0  0  0  0  0  0  0
  130.3270  131.7503  157.8948 C   0  0  0  0  0  0  0  0  0  0  0  0
  131.0183  133.3997  160.8260 C   0  0  0  0  0  0  0  0  0  0  0  0
  131.7031  133.3927  162.1943 C   0  0  0  0  0  0  0  0  0  0  0  0
  131.5504  134.7859  162.8166 C   0  0  0  0  0  0  0  0  0  0  0  0
  134.0316  135.5564  163.1367 H   0  0  0  0  0  0  0  0  0  0  0  0
  133.9492  137.8663  163.0867 H   0  0  0  0  0  0  0  0  0  0  0  0
  133.7464  140.6311  164.0393 H   0  0  0  0  0  0  0  0  0  0  0  0
  132.2095  142.5165  164.3852 H   0  0  0  0  0  0  0  0  0  0  0  0
  129.8319  142.3040  163.7914 H   0  0  0  0  0  0  0  0  0  0  0  0
  128.9754  140.1920  162.8543 H   0  0  0  0  0  0  0  0  0  0  0  0
  129.9732  137.2802  162.9818 H   0  0  0  0  0  0  0  0  0  0  0  0
  130.3319  137.8744  161.3330 H   0  0  0  0  0  0  0  0  0  0  0  0
  132.3408  136.4224  159.8667 H   0  0  0  0  0  0  0  0  0  0  0  0
  129.3626  133.7667  159.0921 H   0  0  0  0  0  0  0  0  0  0  0  0
  129.3199  136.2028  159.5528 H   0  0  0  0  0  0  0  0  0  0  0  0
  129.6101  136.5340  157.8282 H   0  0  0  0  0  0  0  0  0  0  0  0
  127.8813  136.1255  156.1764 H   0  0  0  0  0  0  0  0  0  0  0  0
  125.4661  135.9391  155.7340 H   0  0  0  0  0  0  0  0  0  0  0  0
  123.9105  135.4523  157.5797 H   0  0  0  0  0  0  0  0  0  0  0  0
  124.7708  135.1434  159.8660 H   0  0  0  0  0  0  0  0  0  0  0  0
  127.1868  135.3216  160.3069 H   0  0  0  0  0  0  0  0  0  0  0  0
  128.5197  133.8722  156.7625 H   0  0  0  0  0  0  0  0  0  0  0  0
  130.0377  134.6463  156.2483 H   0  0  0  0  0  0  0  0  0  0  0  0
  130.6319  132.8520  154.7213 H   0  0  0  0  0  0  0  0  0  0  0  0
  131.6850  130.6399  154.4736 H   0  0  0  0  0  0  0  0  0  0  0  0
  131.8605  129.1356  156.4151 H   0  0  0  0  0  0  0  0  0  0  0  0
  130.9909  129.8468  158.6062 H   0  0  0  0  0  0  0  0  0  0  0  0
  129.9453  132.0621  158.8558 H   0  0  0  0  0  0  0  0  0  0  0  0
  129.9381  133.4503  160.9627 H   0  0  0  0  0  0  0  0  0  0  0  0
  131.2702  132.4841  160.2910 H   0  0  0  0  0  0  0  0  0  0  0  0
  131.2299  132.6502  162.8369 H   0  0  0  0  0  0  0  0  0  0  0  0
  132.7597  133.1533  162.0741 H   0  0  0  0  0  0  0  0  0  0  0  0
  131.9165  134.7685  163.8432 H   0  0  0  0  0  0  0  0  0  0  0  0
  130.5014  135.0818  162.8036 H   0  0  0  0  0  0  0  0  0  0  0  0
  1 35  1  0
  2  1  1  6
  2 34  1  0
  2  3  1  0
  2 12  1  0
  3 11  1  0
  3  4  2  0
  4  5  1  0
  4 36  1  0
  5 10  2  0
  5  6  1  0
  6  7  2  0
  6 37  1  0
  7  8  1  0
  7 38  1  0
  8  9  2  0
  8 39  1  0
  9 10  1  0
  9 40  1  0
 10 11  1  0
 11 41  1  0
 11 42  1  0
 12 13  2  0
 12 43  1  0
 13 14  1  0
 13 32  1  0
 14 15  1  0
 14 16  1  0
 14 17  1  0
 17 18  1  0
 17 25  1  0
 17 44  1  0
 18 19  1  0
 18 45  1  0
 18 46  1  0
 19 24  1  0
 19 20  2  0
 20 21  1  0
 20 47  1  0
 21 22  2  0
 21 48  1  0
 22 23  1  0
 22 49  1  0
 23 24  2  0
 23 50  1  0
 24 51  1  0
 25 26  1  0
 25 52  1  0
 25 53  1  0
 26 31  1  0
 26 27  2  0
 27 28  1  0
 27 54  1  0
 28 29  2  0
 28 55  1  0
 29 30  1  0
 29 56  1  0
 30 31  2  0
 30 57  1  0
 31 58  1  0
 32 33  1  0
 32 59  1  0
 32 60  1  0
 33 34  1  0
 33 61  1  0
 33 62  1  0
 34 63  1  0
 34 64  1  0
M  CHG  1  14   1
M  END
>  <DOCK_score>  (1) 
-57.660763

>  <SMILES>  (1) 
O[C@@]1(C2=Cc3ccccc3C2)C=C([NH2+]C(Cc2ccccc2)Cc2ccccc2)CCC1

$$$$
