CCc1ccc(-c2c[nH]c(N[C@H](c3ccnn3C)C(C)c3ccnn3C)[nH+]2)cc1
     RDKit          3D

 57 60  0  0  1  0  0  0  0  0999 V2000
  130.1587  128.5189  151.8825 C   0  0  0  0  0  0  0  0  0  0  0  0
  131.1491  129.6722  152.0535 C   0  0  0  0  0  0  0  0  0  0  0  0
  130.8818  130.3746  153.3598 C   0  0  0  0  0  0  0  0  0  0  0  0
  131.5255  129.9566  154.5106 C   0  0  0  0  0  0  0  0  0  0  0  0
  131.2892  130.5994  155.7087 C   0  0  0  0  0  0  0  0  0  0  0  0
  130.3915  131.6642  155.7601 C   0  0  0  0  0  0  0  0  0  0  0  0
  130.1291  132.3555  157.0461 C   0  0  0  0  0  0  0  0  0  0  0  0
  129.6371  131.7843  158.1733 C   0  0  0  0  0  0  0  0  0  0  0  0
  129.5520  132.7771  159.1189 N   0  0  0  0  0  0  0  0  0  0  0  0
  129.2345  132.6771  160.0299 H   0  0  0  0  0  0  0  0  0  0  0  0
  129.9949  133.9271  158.5412 C   0  0  0  0  0  0  0  0  0  0  0  0
  130.0697  135.1633  159.1599 N   0  0  0  0  0  0  0  0  0  0  0  0
  129.6505  135.3104  160.5559 C   0  0  2  0  0  0  0  0  0  0  0  0
  129.9822  134.4439  161.1280 H   0  0  0  0  0  0  0  0  0  0  0  0
  128.1483  135.4106  160.6213 C   0  0  0  0  0  0  0  0  0  0  0  0
  127.3410  135.9286  159.6669 C   0  0  0  0  0  0  0  0  0  0  0  0
  126.0213  135.8303  160.1197 C   0  0  0  0  0  0  0  0  0  0  0  0
  126.0358  135.2736  161.3036 N   0  0  0  0  0  0  0  0  0  0  0  0
  127.3668  134.9947  161.6399 N   0  0  0  0  0  0  0  0  0  0  0  0
  127.8291  134.3657  162.8795 C   0  0  0  0  0  0  0  0  0  0  0  0
  130.2725  136.5784  161.1441 C   0  0  1  0  0  0  0  0  0  0  0  0
  129.8347  136.7321  162.6021 C   0  0  0  0  0  0  0  0  0  0  0  0
  131.7747  136.4781  161.0787 C   0  0  0  0  0  0  0  0  0  0  0  0
  132.5375  135.5292  161.6693 C   0  0  0  0  0  0  0  0  0  0  0  0
  133.8749  135.7984  161.3607 C   0  0  0  0  0  0  0  0  0  0  0  0
  133.9137  136.8705  160.6119 N   0  0  0  0  0  0  0  0  0  0  0  0
  132.5999  137.3152  160.4157 N   0  0  0  0  0  0  0  0  0  0  0  0
  132.1936  138.4843  159.6318 C   0  0  0  0  0  0  0  0  0  0  0  0
  130.3444  133.6699  157.3044 N   0  0  0  0  0  0  0  0  0  0  0  0
  130.6981  134.3165  156.6738 H   0  0  0  0  0  0  0  0  0  0  0  0
  129.7415  132.0775  154.5985 C   0  0  0  0  0  0  0  0  0  0  0  0
  129.9897  131.4310  153.4049 C   0  0  0  0  0  0  0  0  0  0  0  0
  130.2777  127.8133  152.7048 H   0  0  0  0  0  0  0  0  0  0  0  0
  129.1412  128.9099  151.8837 H   0  0  0  0  0  0  0  0  0  0  0  0
  130.3518  128.0112  150.9375 H   0  0  0  0  0  0  0  0  0  0  0  0
  132.1662  129.2818  152.0520 H   0  0  0  0  0  0  0  0  0  0  0  0
  131.0297  130.3783  151.2308 H   0  0  0  0  0  0  0  0  0  0  0  0
  132.2174  129.1283  154.4706 H   0  0  0  0  0  0  0  0  0  0  0  0
  131.7960  130.2752  156.6058 H   0  0  0  0  0  0  0  0  0  0  0  0
  129.3640  130.7474  158.3027 H   0  0  0  0  0  0  0  0  0  0  0  0
  130.3998  135.9321  158.6689 H   0  0  0  0  0  0  0  0  0  0  0  0
  127.6594  136.3446  158.7225 H   0  0  0  0  0  0  0  0  0  0  0  0
  125.1421  136.1582  159.5848 H   0  0  0  0  0  0  0  0  0  0  0  0
  128.1001  135.1376  163.5997 H   0  0  0  0  0  0  0  0  0  0  0  0
  127.0319  133.7474  163.2924 H   0  0  0  0  0  0  0  0  0  0  0  0
  128.6991  133.7437  162.6690 H   0  0  0  0  0  0  0  0  0  0  0  0
  129.9410  137.4449  160.5720 H   0  0  0  0  0  0  0  0  0  0  0  0
  130.1663  135.8656  163.1743 H   0  0  0  0  0  0  0  0  0  0  0  0
  130.2778  137.6354  163.0213 H   0  0  0  0  0  0  0  0  0  0  0  0
  128.7482  136.8046  162.6495 H   0  0  0  0  0  0  0  0  0  0  0  0
  132.1772  134.7086  162.2720 H   0  0  0  0  0  0  0  0  0  0  0  0
  134.7280  135.2208  161.6844 H   0  0  0  0  0  0  0  0  0  0  0  0
  132.1693  139.3631  160.2761 H   0  0  0  0  0  0  0  0  0  0  0  0
  132.9071  138.6458  158.8238 H   0  0  0  0  0  0  0  0  0  0  0  0
  131.2022  138.3137  159.2122 H   0  0  0  0  0  0  0  0  0  0  0  0
  129.0446  132.9017  154.6325 H   0  0  0  0  0  0  0  0  0  0  0  0
  129.4864  131.7500  152.5042 H   0  0  0  0  0  0  0  0  0  0  0  0
  1  2  1  0
  1 33  1  0
  1 34  1  0
  1 35  1  0
  2  3  1  0
  2 36  1  0
  2 37  1  0
  3 32  2  0
  3  4  1  0
  4  5  2  0
  4 38  1  0
  5  6  1  0
  5 39  1  0
  6  7  1  0
  6 31  2  0
  7 29  1  0
  7  8  2  0
  8  9  1  0
  8 40  1  0
  9 10  1  0
  9 11  1  0
 11 12  1  0
 11 29  2  0
 12 13  1  0
 12 41  1  0
 13 14  1  1
 13 15  1  0
 13 21  1  0
 15 19  1  0
 15 16  2  0
 16 17  1  0
 16 42  1  0
 17 18  2  0
 17 43  1  0
 18 19  1  0
 19 20  1  0
 20 44  1  0
 20 45  1  0
 20 46  1  0
 21 22  1  0
 21 23  1  0
 21 47  1  6
 22 48  1  0
 22 49  1  0
 22 50  1  0
 23 27  1  0
 23 24  2  0
 24 25  1  0
 24 51  1  0
 25 26  2  0
 25 52  1  0
 26 27  1  0
 27 28  1  0
 28 53  1  0
 28 54  1  0
 28 55  1  0
 29 30  1  0
 31 32  1  0
 31 56  1  0
 32 57  1  0
M  CHG  1  29   1
M  END
>  <DOCK_score>  (1) 
-57.284855

>  <SMILES>  (1) 
CCc1ccc(-c2c[nH]c(N[C@H](c3ccnn3C)C(C)c3ccnn3C)[nH+]2)cc1

$$$$
