Cc1cccc(-n2cc(C[NH2+]Cc3ccc(/C4=C/CC/C=C\CC4)cc3[N+](=O)[O-])cn2)c1
     RDKit          3D

 61 64  0  0  0  0  0  0  0  0999 V2000
  131.1548  133.0778  153.0012 C   0  0  0  0  0  0  0  0  0  0  0  0
  130.8999  132.3159  154.2762 C   0  0  0  0  0  0  0  0  0  0  0  0
  131.2742  130.9881  154.3741 C   0  0  0  0  0  0  0  0  0  0  0  0
  131.0416  130.2859  155.5421 C   0  0  0  0  0  0  0  0  0  0  0  0
  130.4339  130.9087  156.6149 C   0  0  0  0  0  0  0  0  0  0  0  0
  130.0571  132.2413  156.5196 C   0  0  0  0  0  0  0  0  0  0  0  0
  129.4403  132.8763  157.6067 N   0  0  0  0  0  0  0  0  0  0  0  0
  129.5235  134.1908  157.9125 C   0  0  0  0  0  0  0  0  0  0  0  0
  128.7890  134.4010  159.0294 C   0  0  0  0  0  0  0  0  0  0  0  0
  128.5981  135.7219  159.7293 C   0  0  0  0  0  0  0  0  0  0  0  0
  129.8920  136.4086  159.8405 N   0  0  0  0  0  0  0  0  0  0  0  0
  130.2686  136.5680  158.9180 H   0  0  0  0  0  0  0  0  0  0  0  0
  130.5320  135.8362  160.3707 H   0  0  0  0  0  0  0  0  0  0  0  0
  129.7062  137.6960  160.5228 C   0  0  0  0  0  0  0  0  0  0  0  0
  131.0335  138.4004  160.6369 C   0  0  0  0  0  0  0  0  0  0  0  0
  132.1750  137.8053  160.1295 C   0  0  0  0  0  0  0  0  0  0  0  0
  133.3930  138.4451  160.2303 C   0  0  0  0  0  0  0  0  0  0  0  0
  133.4724  139.6951  160.8456 C   0  0  0  0  0  0  0  0  0  0  0  0
  134.7777  140.3878  160.9578 C   0  0  0  0  0  0  0  0  0  0  0  0
  135.6763  140.1647  159.9989 C   0  0  0  0  0  0  0  0  0  0  0  0
  137.0201  140.8223  160.0545 C   0  0  0  0  0  0  0  0  0  0  0  0
  138.0281  140.0687  160.8901 C   0  0  0  0  0  0  0  0  0  0  0  0
  137.4234  139.1228  161.8643 C   0  0  0  0  0  0  0  0  0  0  0  0
  136.5901  139.5426  162.7824 C   0  0  0  0  0  0  0  0  0  0  0  0
  136.2546  141.0032  162.9016 C   0  0  0  0  0  0  0  0  0  0  0  0
  134.9836  141.2888  162.1198 C   0  0  0  0  0  0  0  0  0  0  0  0
  132.3178  140.2897  161.3552 C   0  0  0  0  0  0  0  0  0  0  0  0
  131.1054  139.6392  161.2480 C   0  0  0  0  0  0  0  0  0  0  0  0
  129.8796  140.2683  161.7885 N   0  0  0  0  0  0  0  0  0  0  0  0
  128.8089  139.6950  161.6949 O   0  0  0  0  0  0  0  0  0  0  0  0
  129.9413  141.3590  162.3269 O   0  0  0  0  0  0  0  0  0  0  0  0
  128.2427  133.1745  159.4229 C   0  0  0  0  0  0  0  0  0  0  0  0
  128.6279  132.2614  158.5681 N   0  0  0  0  0  0  0  0  0  0  0  0
  130.2872  132.9426  155.3434 C   0  0  0  0  0  0  0  0  0  0  0  0
  130.2951  132.9756  152.3388 H   0  0  0  0  0  0  0  0  0  0  0  0
  131.3119  134.1313  153.2326 H   0  0  0  0  0  0  0  0  0  0  0  0
  132.0416  132.6775  152.5098 H   0  0  0  0  0  0  0  0  0  0  0  0
  131.7489  130.4989  153.5365 H   0  0  0  0  0  0  0  0  0  0  0  0
  131.3350  129.2490  155.6157 H   0  0  0  0  0  0  0  0  0  0  0  0
  130.2519  130.3594  157.5269 H   0  0  0  0  0  0  0  0  0  0  0  0
  130.0769  134.9386  157.3638 H   0  0  0  0  0  0  0  0  0  0  0  0
  128.1914  135.5497  160.7258 H   0  0  0  0  0  0  0  0  0  0  0  0
  127.9069  136.3401  159.1567 H   0  0  0  0  0  0  0  0  0  0  0  0
  129.2994  137.5238  161.5194 H   0  0  0  0  0  0  0  0  0  0  0  0
  129.0148  138.3143  159.9501 H   0  0  0  0  0  0  0  0  0  0  0  0
  132.1129  136.8359  159.6575 H   0  0  0  0  0  0  0  0  0  0  0  0
  134.2833  137.9797  159.8335 H   0  0  0  0  0  0  0  0  0  0  0  0
  135.4337  139.5047  159.1761 H   0  0  0  0  0  0  0  0  0  0  0  0
  136.9059  141.8241  160.4638 H   0  0  0  0  0  0  0  0  0  0  0  0
  137.4084  140.9051  159.0392 H   0  0  0  0  0  0  0  0  0  0  0  0
  138.6364  140.7892  161.4331 H   0  0  0  0  0  0  0  0  0  0  0  0
  138.6747  139.5035  160.2191 H   0  0  0  0  0  0  0  0  0  0  0  0
  137.6642  138.0718  161.8046 H   0  0  0  0  0  0  0  0  0  0  0  0
  136.1402  138.8309  163.4608 H   0  0  0  0  0  0  0  0  0  0  0  0
  137.0747  141.6075  162.5126 H   0  0  0  0  0  0  0  0  0  0  0  0
  136.0995  141.2553  163.9545 H   0  0  0  0  0  0  0  0  0  0  0  0
  135.0139  142.3213  161.7633 H   0  0  0  0  0  0  0  0  0  0  0  0
  134.1282  141.1886  162.7937 H   0  0  0  0  0  0  0  0  0  0  0  0
  132.3727  141.2568  161.8329 H   0  0  0  0  0  0  0  0  0  0  0  0
  127.6099  133.0102  160.2824 H   0  0  0  0  0  0  0  0  0  0  0  0
  129.9908  133.9781  155.2647 H   0  0  0  0  0  0  0  0  0  0  0  0
  1  2  1  0
  1 35  1  0
  1 36  1  0
  1 37  1  0
  2 34  2  0
  2  3  1  0
  3  4  2  0
  3 38  1  0
  4  5  1  0
  4 39  1  0
  5  6  2  0
  5 40  1  0
  6  7  1  0
  6 34  1  0
  7 33  1  0
  7  8  1  0
  8  9  2  0
  8 41  1  0
  9 10  1  0
  9 32  1  0
 10 11  1  0
 10 42  1  0
 10 43  1  0
 11 12  1  0
 11 13  1  0
 11 14  1  0
 14 15  1  0
 14 44  1  0
 14 45  1  0
 15 28  1  0
 15 16  2  0
 16 17  1  0
 16 46  1  0
 17 18  2  0
 17 47  1  0
 18 19  1  0
 18 27  1  0
 19 26  1  0
 19 20  2  0
 20 21  1  0
 20 48  1  0
 21 22  1  0
 21 49  1  0
 21 50  1  0
 22 23  1  0
 22 51  1  0
 22 52  1  0
 23 24  2  0
 23 53  1  0
 24 25  1  0
 24 54  1  0
 25 26  1  0
 25 55  1  0
 25 56  1  0
 26 57  1  0
 26 58  1  0
 27 28  2  0
 27 59  1  0
 28 29  1  0
 29 30  2  0
 29 31  1  0
 32 33  2  0
 32 60  1  0
 34 61  1  0
M  CHG  3  11   1  29   1  31  -1
M  END
>  <DOCK_score>  (1) 
-56.678528

>  <SMILES>  (1) 
Cc1cccc(-n2cc(C[NH2+]Cc3ccc(/C4=C/CC/C=C\CC4)cc3[N+](=O)[O-])cn2)c1

$$$$
