CC1=CC[C@H](NC(N[C@H]2CCC(=O)NC2)=[NH+]C2CCOCC2)CC1
     RDKit          3D

 55 57  0  0  1  0  0  0  0  0999 V2000
  131.5836  129.8974  155.5377 C   0  0  0  0  0  0  0  0  0  0  0  0
  130.9052  131.0186  156.2819 C   0  0  0  0  0  0  0  0  0  0  0  0
  131.0699  131.0827  157.5642 C   0  0  0  0  0  0  0  0  0  0  0  0
  130.4512  132.1328  158.4399 C   0  0  0  0  0  0  0  0  0  0  0  0
  129.9797  133.3158  157.5914 C   0  0  2  0  0  0  0  0  0  0  0  0
  130.8434  133.8613  157.2112 H   0  0  0  0  0  0  0  0  0  0  0  0
  129.1533  134.2088  158.4075 N   0  0  0  0  0  0  0  0  0  0  0  0
  129.6821  134.7990  159.5310 C   0  0  0  0  0  0  0  0  0  0  0  0
  128.8680  135.1002  160.5972 N   0  0  0  0  0  0  0  0  0  0  0  0
  127.4371  134.7922  160.5361 C   0  0  1  0  0  0  0  0  0  0  0  0
  127.0952  134.8462  159.5026 H   0  0  0  0  0  0  0  0  0  0  0  0
  127.1897  133.3840  161.0906 C   0  0  0  0  0  0  0  0  0  0  0  0
  125.7231  133.0192  160.8476 C   0  0  0  0  0  0  0  0  0  0  0  0
  124.8350  134.1394  161.3072 C   0  0  0  0  0  0  0  0  0  0  0  0
  123.6602  133.9016  161.4923 O   0  0  0  0  0  0  0  0  0  0  0  0
  125.2703  135.3771  161.5229 N   0  0  0  0  0  0  0  0  0  0  0  0
  126.6593  135.7970  161.3869 C   0  0  0  0  0  0  0  0  0  0  0  0
  130.9553  135.0730  159.5854 N   0  0  0  0  0  0  0  0  0  0  0  0
  131.4416  135.2820  158.7725 H   0  0  0  0  0  0  0  0  0  0  0  0
  131.6518  135.0654  160.8744 C   0  0  0  0  0  0  0  0  0  0  0  0
  131.5963  136.4646  161.4950 C   0  0  0  0  0  0  0  0  0  0  0  0
  132.3930  136.4664  162.8023 C   0  0  0  0  0  0  0  0  0  0  0  0
  133.7377  136.0604  162.5396 O   0  0  0  0  0  0  0  0  0  0  0  0
  133.8546  134.7414  162.0022 C   0  0  0  0  0  0  0  0  0  0  0  0
  133.1167  134.6703  160.6629 C   0  0  0  0  0  0  0  0  0  0  0  0
  129.1507  132.7731  156.4204 C   0  0  0  0  0  0  0  0  0  0  0  0
  130.0813  131.9913  155.4903 C   0  0  0  0  0  0  0  0  0  0  0  0
  132.1406  129.2789  156.2414 H   0  0  0  0  0  0  0  0  0  0  0  0
  130.8324  129.2886  155.0345 H   0  0  0  0  0  0  0  0  0  0  0  0
  132.2682  130.3139  154.7988 H   0  0  0  0  0  0  0  0  0  0  0  0
  131.6915  130.3342  158.0331 H   0  0  0  0  0  0  0  0  0  0  0  0
  131.1881  132.4789  159.1647 H   0  0  0  0  0  0  0  0  0  0  0  0
  129.5992  131.7042  158.9676 H   0  0  0  0  0  0  0  0  0  0  0  0
  128.2333  134.3836  158.1552 H   0  0  0  0  0  0  0  0  0  0  0  0
  129.2412  135.5166  161.3899 H   0  0  0  0  0  0  0  0  0  0  0  0
  127.8352  132.6698  160.5794 H   0  0  0  0  0  0  0  0  0  0  0  0
  127.3999  133.3686  162.1600 H   0  0  0  0  0  0  0  0  0  0  0  0
  125.5649  132.8451  159.7833 H   0  0  0  0  0  0  0  0  0  0  0  0
  125.4789  132.1128  161.4016 H   0  0  0  0  0  0  0  0  0  0  0  0
  124.6177  136.0438  161.7885 H   0  0  0  0  0  0  0  0  0  0  0  0
  127.1148  135.8611  162.3751 H   0  0  0  0  0  0  0  0  0  0  0  0
  126.6945  136.7765  160.9098 H   0  0  0  0  0  0  0  0  0  0  0  0
  131.1738  134.3492  161.5428 H   0  0  0  0  0  0  0  0  0  0  0  0
  132.0294  137.1873  160.8035 H   0  0  0  0  0  0  0  0  0  0  0  0
  130.5594  136.7313  161.7000 H   0  0  0  0  0  0  0  0  0  0  0  0
  131.9352  135.7732  163.5079 H   0  0  0  0  0  0  0  0  0  0  0  0
  132.3927  137.4703  163.2270 H   0  0  0  0  0  0  0  0  0  0  0  0
  133.4159  134.0256  162.6974 H   0  0  0  0  0  0  0  0  0  0  0  0
  134.9071  134.5025  161.8504 H   0  0  0  0  0  0  0  0  0  0  0  0
  133.1669  133.6538  160.2727 H   0  0  0  0  0  0  0  0  0  0  0  0
  133.5801  135.3561  159.9538 H   0  0  0  0  0  0  0  0  0  0  0  0
  128.3709  132.1122  156.7989 H   0  0  0  0  0  0  0  0  0  0  0  0
  128.6999  133.6022  155.8753 H   0  0  0  0  0  0  0  0  0  0  0  0
  130.7419  132.6866  154.9721 H   0  0  0  0  0  0  0  0  0  0  0  0
  129.4839  131.4475  154.7587 H   0  0  0  0  0  0  0  0  0  0  0  0
  1  2  1  0
  1 28  1  0
  1 29  1  0
  1 30  1  0
  2 27  1  0
  2  3  2  0
  3  4  1  0
  3 31  1  0
  4  5  1  0
  4 32  1  0
  4 33  1  0
  5  6  1  6
  5  7  1  0
  5 26  1  0
  7 34  1  0
  8  7  1  0
  8  9  1  0
  8 18  2  0
  9 10  1  0
  9 35  1  0
 10 11  1  6
 10 17  1  0
 10 12  1  0
 12 13  1  0
 12 36  1  0
 12 37  1  0
 13 14  1  0
 13 38  1  0
 13 39  1  0
 14 15  2  0
 14 16  1  0
 16 17  1  0
 16 40  1  0
 17 41  1  0
 17 42  1  0
 18 19  1  0
 18 20  1  0
 20 25  1  0
 20 21  1  0
 20 43  1  0
 21 22  1  0
 21 44  1  0
 21 45  1  0
 22 23  1  0
 22 46  1  0
 22 47  1  0
 23 24  1  0
 24 25  1  0
 24 48  1  0
 24 49  1  0
 25 50  1  0
 25 51  1  0
 26 27  1  0
 26 52  1  0
 26 53  1  0
 27 54  1  0
 27 55  1  0
M  CHG  1  18   1
M  END
>  <DOCK_score>  (1) 
-46.73518

>  <SMILES>  (1) 
CC1=CC[C@H](NC(N[C@H]2CCC(=O)NC2)=[NH+]C2CCOCC2)CC1

$$$$
