FC(F)[C@@H](Nc1[nH]cc(-c2ccc(-c3ccccc3)cc2)[nH+]1)C1=COCCC1
     RDKit          3D

 50 53  0  0  1  0  0  0  0  0999 V2000
  130.8047  138.1144  160.6012 F   0  0  0  0  0  0  0  0  0  0  0  0
  130.5206  137.1085  161.5309 C   0  0  0  0  0  0  0  0  0  0  0  0
  129.1883  136.7057  161.3898 F   0  0  0  0  0  0  0  0  0  0  0  0
  131.4434  135.9127  161.2866 C   0  0  1  0  0  0  0  0  0  0  0  0
  131.0121  135.0217  161.7430 H   0  0  0  0  0  0  0  0  0  0  0  0
  131.5943  135.6988  159.8453 N   0  0  0  0  0  0  0  0  0  0  0  0
  131.2061  134.4964  159.2796 C   0  0  0  0  0  0  0  0  0  0  0  0
  130.6740  133.4394  159.9519 N   0  0  0  0  0  0  0  0  0  0  0  0
  130.4998  133.3936  160.9050 H   0  0  0  0  0  0  0  0  0  0  0  0
  130.4294  132.4495  159.0318 C   0  0  0  0  0  0  0  0  0  0  0  0
  130.8142  132.9313  157.8233 C   0  0  0  0  0  0  0  0  0  0  0  0
  130.7309  132.2114  156.5301 C   0  0  0  0  0  0  0  0  0  0  0  0
  129.9630  132.7338  155.4893 C   0  0  0  0  0  0  0  0  0  0  0  0
  129.8901  132.0675  154.2859 C   0  0  0  0  0  0  0  0  0  0  0  0
  130.5752  130.8653  154.1118 C   0  0  0  0  0  0  0  0  0  0  0  0
  130.4918  130.1452  152.8181 C   0  0  0  0  0  0  0  0  0  0  0  0
  130.6032  128.7562  152.7822 C   0  0  0  0  0  0  0  0  0  0  0  0
  130.5201  128.0910  151.5758 C   0  0  0  0  0  0  0  0  0  0  0  0
  130.3370  128.8012  150.4024 C   0  0  0  0  0  0  0  0  0  0  0  0
  130.2313  130.1797  150.4318 C   0  0  0  0  0  0  0  0  0  0  0  0
  130.3075  130.8552  151.6327 C   0  0  0  0  0  0  0  0  0  0  0  0
  131.3383  130.3401  155.1543 C   0  0  0  0  0  0  0  0  0  0  0  0
  131.4158  131.0087  156.3559 C   0  0  0  0  0  0  0  0  0  0  0  0
  131.2913  134.1881  158.0086 N   0  0  0  0  0  0  0  0  0  0  0  0
  131.6362  134.7674  157.3112 H   0  0  0  0  0  0  0  0  0  0  0  0
  132.7933  136.1869  161.8979 C   0  0  0  0  0  0  0  0  0  0  0  0
  133.7063  136.7723  161.1689 C   0  0  0  0  0  0  0  0  0  0  0  0
  134.9485  137.0546  161.6199 O   0  0  0  0  0  0  0  0  0  0  0  0
  135.1618  137.0326  163.0342 C   0  0  0  0  0  0  0  0  0  0  0  0
  134.5471  135.7418  163.5930 C   0  0  0  0  0  0  0  0  0  0  0  0
  133.0365  135.7818  163.3263 C   0  0  0  0  0  0  0  0  0  0  0  0
  130.6799  137.4903  162.5394 H   0  0  0  0  0  0  0  0  0  0  0  0
  131.9661  136.3997  159.2872 H   0  0  0  0  0  0  0  0  0  0  0  0
  130.0078  131.4753  159.2315 H   0  0  0  0  0  0  0  0  0  0  0  0
  129.4292  133.6627  155.6256 H   0  0  0  0  0  0  0  0  0  0  0  0
  129.2991  132.4742  153.4786 H   0  0  0  0  0  0  0  0  0  0  0  0
  130.7501  128.2014  153.6970 H   0  0  0  0  0  0  0  0  0  0  0  0
  130.6019  127.0145  151.5472 H   0  0  0  0  0  0  0  0  0  0  0  0
  130.2770  128.2772  149.4600 H   0  0  0  0  0  0  0  0  0  0  0  0
  130.0889  130.7289  149.5127 H   0  0  0  0  0  0  0  0  0  0  0  0
  130.2250  131.9318  151.6542 H   0  0  0  0  0  0  0  0  0  0  0  0
  131.8682  129.4087  155.0195 H   0  0  0  0  0  0  0  0  0  0  0  0
  132.0070  130.6021  157.1629 H   0  0  0  0  0  0  0  0  0  0  0  0
  133.4552  137.0447  160.1545 H   0  0  0  0  0  0  0  0  0  0  0  0
  136.2310  137.0517  163.2450 H   0  0  0  0  0  0  0  0  0  0  0  0
  134.6814  137.8974  163.4919 H   0  0  0  0  0  0  0  0  0  0  0  0
  134.9899  134.8784  163.0963 H   0  0  0  0  0  0  0  0  0  0  0  0
  134.7290  135.6822  164.6660 H   0  0  0  0  0  0  0  0  0  0  0  0
  132.5651  136.5028  163.9940 H   0  0  0  0  0  0  0  0  0  0  0  0
  132.6122  134.7931  163.5008 H   0  0  0  0  0  0  0  0  0  0  0  0
  1  2  1  0
  2  3  1  0
  2  4  1  0
  2 32  1  0
  4  5  1  1
  4  6  1  0
  4 26  1  0
  6 33  1  0
  7  6  1  0
  7 24  2  0
  7  8  1  0
  8  9  1  0
  8 10  1  0
 10 11  2  0
 10 34  1  0
 11 12  1  0
 11 24  1  0
 12 23  1  0
 12 13  2  0
 13 14  1  0
 13 35  1  0
 14 15  2  0
 14 36  1  0
 15 16  1  0
 15 22  1  0
 16 21  1  0
 16 17  2  0
 17 18  1  0
 17 37  1  0
 18 19  2  0
 18 38  1  0
 19 20  1  0
 19 39  1  0
 20 21  2  0
 20 40  1  0
 21 41  1  0
 22 23  2  0
 22 42  1  0
 23 43  1  0
 24 25  1  0
 26 31  1  0
 26 27  2  0
 27 28  1  0
 27 44  1  0
 28 29  1  0
 29 30  1  0
 29 45  1  0
 29 46  1  0
 30 31  1  0
 30 47  1  0
 30 48  1  0
 31 49  1  0
 31 50  1  0
M  CHG  1  24   1
M  END
>  <DOCK_score>  (1) 
-59.169441

>  <SMILES>  (1) 
FC(F)[C@@H](Nc1[nH]cc(-c2ccc(-c3ccccc3)cc2)[nH+]1)C1=COCCC1

$$$$
