C[C@]1(c2ccccc2)CC1[NH+]=C(NCC1Cc2ccccc2C1)NC1CCCOC1
     RDKit          3D

 64 68  0  0  1  0  0  0  0  0999 V2000
  130.3340  133.5922  160.0981 C   0  0  0  0  0  0  0  0  0  0  0  0
  129.1650  133.7700  159.1273 C   0  0  2  0  0  0  0  0  0  0  0  0
  127.9531  132.9185  159.4057 C   0  0  0  0  0  0  0  0  0  0  0  0
  126.9500  133.3925  160.2303 C   0  0  0  0  0  0  0  0  0  0  0  0
  125.8360  132.6135  160.4814 C   0  0  0  0  0  0  0  0  0  0  0  0
  125.7302  131.3562  159.9168 C   0  0  0  0  0  0  0  0  0  0  0  0
  126.7360  130.8799  159.0968 C   0  0  0  0  0  0  0  0  0  0  0  0
  127.8474  131.6612  158.8411 C   0  0  0  0  0  0  0  0  0  0  0  0
  129.5005  134.0641  157.6638 C   0  0  0  0  0  0  0  0  0  0  0  0
  128.9288  135.1690  158.5545 C   0  0  2  0  0  0  0  0  0  0  0  0
  129.8392  136.2358  158.9781 N   0  0  0  0  0  0  0  0  0  0  0  0
  130.6490  136.4110  158.4739 H   0  0  0  0  0  0  0  0  0  0  0  0
  129.5608  136.9496  160.0326 C   0  0  0  0  0  0  0  0  0  0  0  0
  130.4149  137.9507  160.4303 N   0  0  0  0  0  0  0  0  0  0  0  0
  131.6382  138.2155  159.6687 C   0  0  0  0  0  0  0  0  0  0  0  0
  132.4035  139.3702  160.3183 C   0  0  0  0  0  0  0  0  0  0  0  0
  133.7805  139.5616  159.6480 C   0  0  0  0  0  0  0  0  0  0  0  0
  134.7118  139.9757  160.7672 C   0  0  0  0  0  0  0  0  0  0  0  0
  135.9595  140.5749  160.7211 C   0  0  0  0  0  0  0  0  0  0  0  0
  136.6354  140.8640  161.8903 C   0  0  0  0  0  0  0  0  0  0  0  0
  136.0650  140.5551  163.1112 C   0  0  0  0  0  0  0  0  0  0  0  0
  134.8207  139.9580  163.1593 C   0  0  0  0  0  0  0  0  0  0  0  0
  134.1417  139.6668  161.9878 C   0  0  0  0  0  0  0  0  0  0  0  0
  132.7882  139.0241  161.7724 C   0  0  0  0  0  0  0  0  0  0  0  0
  128.4128  136.7012  160.7472 N   0  0  0  0  0  0  0  0  0  0  0  0
  128.3753  136.9647  162.1878 C   0  0  1  0  0  0  0  0  0  0  0  0
  126.9935  136.5999  162.7391 C   0  0  0  0  0  0  0  0  0  0  0  0
  126.9909  136.8056  164.2570 C   0  0  0  0  0  0  0  0  0  0  0  0
  128.1064  135.9626  164.8804 C   0  0  0  0  0  0  0  0  0  0  0  0
  129.3601  136.3307  164.3017 O   0  0  0  0  0  0  0  0  0  0  0  0
  129.4383  136.1167  162.8909 C   0  0  0  0  0  0  0  0  0  0  0  0
  130.1881  134.2373  160.9646 H   0  0  0  0  0  0  0  0  0  0  0  0
  130.3816  132.5529  160.4230 H   0  0  0  0  0  0  0  0  0  0  0  0
  131.2651  133.8598  159.5987 H   0  0  0  0  0  0  0  0  0  0  0  0
  127.0348  134.3730  160.6750 H   0  0  0  0  0  0  0  0  0  0  0  0
  125.0500  132.9857  161.1219 H   0  0  0  0  0  0  0  0  0  0  0  0
  124.8616  130.7461  160.1160 H   0  0  0  0  0  0  0  0  0  0  0  0
  126.6534  129.8977  158.6556 H   0  0  0  0  0  0  0  0  0  0  0  0
  128.6332  131.2891  158.2004 H   0  0  0  0  0  0  0  0  0  0  0  0
  130.5542  134.1310  157.3926 H   0  0  0  0  0  0  0  0  0  0  0  0
  128.8449  133.6417  156.9024 H   0  0  0  0  0  0  0  0  0  0  0  0
  127.8970  135.4735  158.3791 H   0  0  0  0  0  0  0  0  0  0  0  0
  130.2076  138.4819  161.2150 H   0  0  0  0  0  0  0  0  0  0  0  0
  132.2633  137.3226  159.6636 H   0  0  0  0  0  0  0  0  0  0  0  0
  131.3779  138.4827  158.6446 H   0  0  0  0  0  0  0  0  0  0  0  0
  131.8196  140.2897  160.2804 H   0  0  0  0  0  0  0  0  0  0  0  0
  134.1177  138.6257  159.2024 H   0  0  0  0  0  0  0  0  0  0  0  0
  133.7274  140.3441  158.8912 H   0  0  0  0  0  0  0  0  0  0  0  0
  136.4056  140.8166  159.7677 H   0  0  0  0  0  0  0  0  0  0  0  0
  137.6085  141.3307  161.8508 H   0  0  0  0  0  0  0  0  0  0  0  0
  136.5919  140.7809  164.0265 H   0  0  0  0  0  0  0  0  0  0  0  0
  134.3757  139.7173  164.1134 H   0  0  0  0  0  0  0  0  0  0  0  0
  132.0574  139.4398  162.4661 H   0  0  0  0  0  0  0  0  0  0  0  0
  132.8582  137.9436  161.8982 H   0  0  0  0  0  0  0  0  0  0  0  0
  127.6277  136.3515  160.2975 H   0  0  0  0  0  0  0  0  0  0  0  0
  128.5728  138.0210  162.3701 H   0  0  0  0  0  0  0  0  0  0  0  0
  126.2383  137.2399  162.2830 H   0  0  0  0  0  0  0  0  0  0  0  0
  126.7736  135.5570  162.5108 H   0  0  0  0  0  0  0  0  0  0  0  0
  127.1610  137.8585  164.4821 H   0  0  0  0  0  0  0  0  0  0  0  0
  126.0284  136.4969  164.6648 H   0  0  0  0  0  0  0  0  0  0  0  0
  128.1368  136.1379  165.9557 H   0  0  0  0  0  0  0  0  0  0  0  0
  127.9139  134.9068  164.6894 H   0  0  0  0  0  0  0  0  0  0  0  0
  129.2644  135.0627  162.6740 H   0  0  0  0  0  0  0  0  0  0  0  0
  130.4272  136.4033  162.5331 H   0  0  0  0  0  0  0  0  0  0  0  0
  1 32  1  0
  1 33  1  0
  1 34  1  0
  2  1  1  1
  2 10  1  0
  2  3  1  0
  2  9  1  0
  3  8  1  0
  3  4  2  0
  4  5  1  0
  4 35  1  0
  5  6  2  0
  5 36  1  0
  6  7  1  0
  6 37  1  0
  7  8  2  0
  7 38  1  0
  8 39  1  0
  9 10  1  0
  9 40  1  0
  9 41  1  0
 10 11  1  0
 10 42  1  6
 11 12  1  0
 13 11  2  0
 13 14  1  0
 13 25  1  0
 14 15  1  0
 14 43  1  0
 15 16  1  0
 15 44  1  0
 15 45  1  0
 16 24  1  0
 16 17  1  0
 16 46  1  0
 17 18  1  0
 17 47  1  0
 17 48  1  0
 18 23  2  0
 18 19  1  0
 19 20  2  0
 19 49  1  0
 20 21  1  0
 20 50  1  0
 21 22  2  0
 21 51  1  0
 22 23  1  0
 22 52  1  0
 23 24  1  0
 24 53  1  0
 24 54  1  0
 25 26  1  0
 25 55  1  0
 26 31  1  0
 26 27  1  0
 26 56  1  6
 27 28  1  0
 27 57  1  0
 27 58  1  0
 28 29  1  0
 28 59  1  0
 28 60  1  0
 29 30  1  0
 29 61  1  0
 29 62  1  0
 30 31  1  0
 31 63  1  0
 31 64  1  0
M  CHG  1  11   1
M  END
>  <DOCK_score>  (1) 
-47.370113

>  <SMILES>  (1) 
C[C@]1(c2ccccc2)CC1[NH+]=C(NCC1Cc2ccccc2C1)NC1CCCOC1

$$$$
