C[C@H]([NH2+][C@@H](C)c1ccc(NCCCc2cccc3ccccc23)o1)c1cnn(-c2ccccc2)c1
     RDKit          3D

 68 72  0  0  1  0  0  0  0  0999 V2000
  128.2388  134.8511  158.6093 C   0  0  0  0  0  0  0  0  0  0  0  0
  129.5035  134.2528  159.2285 C   0  0  2  0  0  0  0  0  0  0  0  0
  129.3031  133.9695  160.2617 H   0  0  0  0  0  0  0  0  0  0  0  0
  130.5835  135.2480  159.1941 N   0  0  0  0  0  0  0  0  0  0  0  0
  130.2095  136.1582  159.4171 H   0  0  0  0  0  0  0  0  0  0  0  0
  130.9923  135.2689  158.2719 H   0  0  0  0  0  0  0  0  0  0  0  0
  131.6131  134.8873  160.1780 C   0  0  1  0  0  0  0  0  0  0  0  0
  131.7627  133.8076  160.1681 H   0  0  0  0  0  0  0  0  0  0  0  0
  132.9261  135.5874  159.8222 C   0  0  0  0  0  0  0  0  0  0  0  0
  131.1691  135.3203  161.5514 C   0  0  0  0  0  0  0  0  0  0  0  0
  130.9830  134.5101  162.6080 C   0  0  0  0  0  0  0  0  0  0  0  0
  130.5758  135.3281  163.6875 C   0  0  0  0  0  0  0  0  0  0  0  0
  130.5284  136.5974  163.2197 C   0  0  0  0  0  0  0  0  0  0  0  0
  130.1697  137.7246  163.9542 N   0  0  0  0  0  0  0  0  0  0  0  0
  130.5662  139.0570  163.4918 C   0  0  0  0  0  0  0  0  0  0  0  0
  132.0922  139.1366  163.4140 C   0  0  0  0  0  0  0  0  0  0  0  0
  132.5064  140.5281  162.9312 C   0  0  0  0  0  0  0  0  0  0  0  0
  134.0093  140.6065  162.8547 C   0  0  0  0  0  0  0  0  0  0  0  0
  134.7289  141.0185  163.9344 C   0  0  0  0  0  0  0  0  0  0  0  0
  136.1189  141.0987  163.8819 C   0  0  0  0  0  0  0  0  0  0  0  0
  136.7980  140.7660  162.7500 C   0  0  0  0  0  0  0  0  0  0  0  0
  136.0896  140.3359  161.6154 C   0  0  0  0  0  0  0  0  0  0  0  0
  136.7556  139.9849  160.4286 C   0  0  0  0  0  0  0  0  0  0  0  0
  136.0360  139.5741  159.3490 C   0  0  0  0  0  0  0  0  0  0  0  0
  134.6455  139.4945  159.4014 C   0  0  0  0  0  0  0  0  0  0  0  0
  133.9667  139.8261  160.5333 C   0  0  0  0  0  0  0  0  0  0  0  0
  134.6754  140.2554  161.6685 C   0  0  0  0  0  0  0  0  0  0  0  0
  130.8926  136.5835  161.9263 O   0  0  0  0  0  0  0  0  0  0  0  0
  129.9184  133.0341  158.4449 C   0  0  0  0  0  0  0  0  0  0  0  0
  130.0344  131.7332  158.9467 C   0  0  0  0  0  0  0  0  0  0  0  0
  130.4157  130.9498  157.9700 N   0  0  0  0  0  0  0  0  0  0  0  0
  130.5548  131.7279  156.8135 N   0  0  0  0  0  0  0  0  0  0  0  0
  130.9469  131.2648  155.5498 C   0  0  0  0  0  0  0  0  0  0  0  0
  131.0389  132.1484  154.4828 C   0  0  0  0  0  0  0  0  0  0  0  0
  131.4306  131.6900  153.2401 C   0  0  0  0  0  0  0  0  0  0  0  0
  131.7203  130.3506  153.0555 C   0  0  0  0  0  0  0  0  0  0  0  0
  131.6241  129.4672  154.1149 C   0  0  0  0  0  0  0  0  0  0  0  0
  131.2386  129.9206  155.3612 C   0  0  0  0  0  0  0  0  0  0  0  0
  130.2386  133.0039  157.1305 C   0  0  0  0  0  0  0  0  0  0  0  0
  127.4375  134.1127  158.6346 H   0  0  0  0  0  0  0  0  0  0  0  0
  127.9388  135.7325  159.1761 H   0  0  0  0  0  0  0  0  0  0  0  0
  128.4391  135.1345  157.5760 H   0  0  0  0  0  0  0  0  0  0  0  0
  133.6900  135.3197  160.5522 H   0  0  0  0  0  0  0  0  0  0  0  0
  133.2473  135.2742  158.8288 H   0  0  0  0  0  0  0  0  0  0  0  0
  132.7765  136.6671  159.8320 H   0  0  0  0  0  0  0  0  0  0  0  0
  131.1227  133.4394  162.6297 H   0  0  0  0  0  0  0  0  0  0  0  0
  130.3445  135.0024  164.6910 H   0  0  0  0  0  0  0  0  0  0  0  0
  129.6572  137.6277  164.7720 H   0  0  0  0  0  0  0  0  0  0  0  0
  130.1983  139.8085  164.1903 H   0  0  0  0  0  0  0  0  0  0  0  0
  130.1422  139.2400  162.5044 H   0  0  0  0  0  0  0  0  0  0  0  0
  132.4602  138.3851  162.7155 H   0  0  0  0  0  0  0  0  0  0  0  0
  132.5163  138.9535  164.4014 H   0  0  0  0  0  0  0  0  0  0  0  0
  132.1384  141.2795  163.6296 H   0  0  0  0  0  0  0  0  0  0  0  0
  132.0823  140.7112  161.9438 H   0  0  0  0  0  0  0  0  0  0  0  0
  134.2145  141.2875  164.8451 H   0  0  0  0  0  0  0  0  0  0  0  0
  136.6658  141.4290  164.7527 H   0  0  0  0  0  0  0  0  0  0  0  0
  137.8759  140.8282  162.7258 H   0  0  0  0  0  0  0  0  0  0  0  0
  137.8326  140.0418  160.3733 H   0  0  0  0  0  0  0  0  0  0  0  0
  136.5502  139.3053  158.4381 H   0  0  0  0  0  0  0  0  0  0  0  0
  134.0985  139.1649  158.5304 H   0  0  0  0  0  0  0  0  0  0  0  0
  132.8891  139.7594  160.5591 H   0  0  0  0  0  0  0  0  0  0  0  0
  129.8422  131.4278  159.9646 H   0  0  0  0  0  0  0  0  0  0  0  0
  130.8083  133.1939  154.6253 H   0  0  0  0  0  0  0  0  0  0  0  0
  131.5068  132.3777  152.4109 H   0  0  0  0  0  0  0  0  0  0  0  0
  132.0227  129.9938  152.0820 H   0  0  0  0  0  0  0  0  0  0  0  0
  131.8511  128.4216  153.9676 H   0  0  0  0  0  0  0  0  0  0  0  0
  131.1643  129.2302  156.1884 H   0  0  0  0  0  0  0  0  0  0  0  0
  130.2432  133.8476  156.4564 H   0  0  0  0  0  0  0  0  0  0  0  0
  1  2  1  0
  1 40  1  0
  1 41  1  0
  1 42  1  0
  2  3  1  1
  2  4  1  0
  2 29  1  0
  4  5  1  0
  4  6  1  0
  4  7  1  0
  7  8  1  1
  7  9  1  0
  7 10  1  0
  9 43  1  0
  9 44  1  0
  9 45  1  0
 10 28  1  0
 10 11  2  0
 11 12  1  0
 11 46  1  0
 12 13  2  0
 12 47  1  0
 13 14  1  0
 13 28  1  0
 14 15  1  0
 14 48  1  0
 15 16  1  0
 15 49  1  0
 15 50  1  0
 16 17  1  0
 16 51  1  0
 16 52  1  0
 17 18  1  0
 17 53  1  0
 17 54  1  0
 18 27  1  0
 18 19  2  0
 19 20  1  0
 19 55  1  0
 20 21  2  0
 20 56  1  0
 21 22  1  0
 21 57  1  0
 22 27  2  0
 22 23  1  0
 23 24  2  0
 23 58  1  0
 24 25  1  0
 24 59  1  0
 25 26  2  0
 25 60  1  0
 26 27  1  0
 26 61  1  0
 29 39  2  0
 29 30  1  0
 30 31  2  0
 30 62  1  0
 31 32  1  0
 32 33  1  0
 32 39  1  0
 33 38  1  0
 33 34  2  0
 34 35  1  0
 34 63  1  0
 35 36  2  0
 35 64  1  0
 36 37  1  0
 36 65  1  0
 37 38  2  0
 37 66  1  0
 38 67  1  0
 39 68  1  0
M  CHG  1   4   1
M  END
>  <DOCK_score>  (1) 
-57.55777

>  <SMILES>  (1) 
C[C@H]([NH2+][C@@H](C)c1ccc(NCCCc2cccc3ccccc23)o1)c1cnn(-c2ccccc2)c1

$$$$
