O=C1CC[C@H](NC(NCc2ncccc2SC=CBr)=[NH+]C2CC2)CN1
     RDKit          3D

 48 50  0  0  1  0  0  0  0  0999 V2000
  123.8434  133.7000  161.8256 O   0  0  0  0  0  0  0  0  0  0  0  0
  125.0218  133.8301  161.5693 C   0  0  0  0  0  0  0  0  0  0  0  0
  125.9541  132.7070  161.9219 C   0  0  0  0  0  0  0  0  0  0  0  0
  127.3984  133.2134  161.9341 C   0  0  0  0  0  0  0  0  0  0  0  0
  127.6486  133.9963  160.6395 C   0  0  2  0  0  0  0  0  0  0  0  0
  127.3618  133.3869  159.7825 H   0  0  0  0  0  0  0  0  0  0  0  0
  129.0681  134.3445  160.5421 N   0  0  0  0  0  0  0  0  0  0  0  0
  129.6623  134.4693  159.3086 C   0  0  0  0  0  0  0  0  0  0  0  0
  128.9240  134.2673  158.1665 N   0  0  0  0  0  0  0  0  0  0  0  0
  129.5715  133.7521  156.9574 C   0  0  0  0  0  0  0  0  0  0  0  0
  130.1725  132.4006  157.2465 C   0  0  0  0  0  0  0  0  0  0  0  0
  130.0622  131.8820  158.4530 N   0  0  0  0  0  0  0  0  0  0  0  0
  130.5672  130.7007  158.7506 C   0  0  0  0  0  0  0  0  0  0  0  0
  131.2478  129.9591  157.8023 C   0  0  0  0  0  0  0  0  0  0  0  0
  131.3930  130.4674  156.5224 C   0  0  0  0  0  0  0  0  0  0  0  0
  130.8425  131.7162  156.2398 C   0  0  0  0  0  0  0  0  0  0  0  0
  130.9932  132.4164  154.6299 S   0  0  0  0  0  0  0  0  0  0  0  0
  130.1909  131.2290  153.6045 C   0  0  0  0  0  0  0  0  0  0  0  0
  130.1108  131.4284  152.3007 C   0  0  0  0  0  0  0  0  0  0  0  0
  129.2497  130.1541  151.2004 Br  0  0  0  0  0  0  0  0  0  0  0  0
  130.9255  134.7790  159.2220 N   0  0  0  0  0  0  0  0  0  0  0  0
  131.3446  134.8671  158.3517 H   0  0  0  0  0  0  0  0  0  0  0  0
  131.7120  134.9942  160.4389 C   0  0  0  0  0  0  0  0  0  0  0  0
  132.2479  133.7570  161.1623 C   0  0  0  0  0  0  0  0  0  0  0  0
  133.2045  134.6621  160.3834 C   0  0  0  0  0  0  0  0  0  0  0  0
  126.8078  135.2733  160.6696 C   0  0  0  0  0  0  0  0  0  0  0  0
  125.4201  134.9631  160.9898 N   0  0  0  0  0  0  0  0  0  0  0  0
  125.8560  131.9099  161.1848 H   0  0  0  0  0  0  0  0  0  0  0  0
  125.6978  132.3197  162.9082 H   0  0  0  0  0  0  0  0  0  0  0  0
  128.0836  132.3674  161.9895 H   0  0  0  0  0  0  0  0  0  0  0  0
  127.5511  133.8665  162.7933 H   0  0  0  0  0  0  0  0  0  0  0  0
  129.5889  134.4872  161.3479 H   0  0  0  0  0  0  0  0  0  0  0  0
  127.9747  134.4657  158.1612 H   0  0  0  0  0  0  0  0  0  0  0  0
  128.8328  133.6585  156.1614 H   0  0  0  0  0  0  0  0  0  0  0  0
  130.3572  134.4399  156.6450 H   0  0  0  0  0  0  0  0  0  0  0  0
  130.4515  130.3088  159.7503 H   0  0  0  0  0  0  0  0  0  0  0  0
  131.6617  128.9946  158.0571 H   0  0  0  0  0  0  0  0  0  0  0  0
  131.9201  129.9100  155.7621 H   0  0  0  0  0  0  0  0  0  0  0  0
  129.7645  130.3382  154.0419 H   0  0  0  0  0  0  0  0  0  0  0  0
  130.5372  132.3192  151.8635 H   0  0  0  0  0  0  0  0  0  0  0  0
  131.4078  135.8429  161.0515 H   0  0  0  0  0  0  0  0  0  0  0  0
  132.2960  133.7918  162.2507 H   0  0  0  0  0  0  0  0  0  0  0  0
  132.0150  132.7827  160.7328 H   0  0  0  0  0  0  0  0  0  0  0  0
  133.6010  134.2831  159.4415 H   0  0  0  0  0  0  0  0  0  0  0  0
  133.8822  135.2923  160.9594 H   0  0  0  0  0  0  0  0  0  0  0  0
  127.2087  135.9510  161.4233 H   0  0  0  0  0  0  0  0  0  0  0  0
  126.8529  135.7573  159.6940 H   0  0  0  0  0  0  0  0  0  0  0  0
  124.7440  135.6222  160.7675 H   0  0  0  0  0  0  0  0  0  0  0  0
  1  2  2  0
  2 27  1  0
  2  3  1  0
  3  4  1  0
  3 28  1  0
  3 29  1  0
  4  5  1  0
  4 30  1  0
  4 31  1  0
  5  6  1  6
  5  7  1  0
  5 26  1  0
  7 32  1  0
  8  7  1  0
  8  9  1  0
  8 21  2  0
  9 10  1  0
  9 33  1  0
 10 11  1  0
 10 34  1  0
 10 35  1  0
 11 16  1  0
 11 12  2  0
 12 13  1  0
 13 14  2  0
 13 36  1  0
 14 15  1  0
 14 37  1  0
 15 16  2  0
 15 38  1  0
 16 17  1  0
 17 18  1  0
 18 19  2  0
 18 39  1  0
 19 20  1  0
 19 40  1  0
 21 22  1  0
 21 23  1  0
 23 25  1  0
 23 24  1  0
 23 41  1  0
 24 25  1  0
 24 42  1  0
 24 43  1  0
 25 44  1  0
 25 45  1  0
 26 27  1  0
 26 46  1  0
 26 47  1  0
 27 48  1  0
M  CHG  1  21   1
M  END
>  <DOCK_score>  (1) 
-56.657806

>  <SMILES>  (1) 
O=C1CC[C@H](NC(NCc2ncccc2SC=CBr)=[NH+]C2CC2)CN1

$$$$
