CCc1ccc(-c2c[nH]c(N[C@@H](Cc3ccc(-c4cccc(O)c4)cc3)c3ccccc3)[nH+]2)cc1
     RDKit          3D

 65 69  0  0  1  0  0  0  0  0999 V2000
  130.5938  128.2189  151.5095 C   0  0  0  0  0  0  0  0  0  0  0  0
  131.6511  129.2784  151.8260 C   0  0  0  0  0  0  0  0  0  0  0  0
  131.2293  130.0616  153.0425 C   0  0  0  0  0  0  0  0  0  0  0  0
  131.6114  129.6367  154.3017 C   0  0  0  0  0  0  0  0  0  0  0  0
  131.2329  130.3529  155.4191 C   0  0  0  0  0  0  0  0  0  0  0  0
  130.4543  131.5002  155.2773 C   0  0  0  0  0  0  0  0  0  0  0  0
  130.0396  132.2711  156.4748 C   0  0  0  0  0  0  0  0  0  0  0  0
  129.2991  131.8015  157.5093 C   0  0  0  0  0  0  0  0  0  0  0  0
  129.1495  132.8399  158.3961 N   0  0  0  0  0  0  0  0  0  0  0  0
  128.6665  132.8123  159.2368 H   0  0  0  0  0  0  0  0  0  0  0  0
  129.8036  133.9146  157.8772 C   0  0  0  0  0  0  0  0  0  0  0  0
  129.8935  135.1648  158.4649 N   0  0  0  0  0  0  0  0  0  0  0  0
  128.8122  135.6485  159.3269 C   0  0  1  0  0  0  0  0  0  0  0  0
  128.6885  134.9692  160.1703 H   0  0  0  0  0  0  0  0  0  0  0  0
  129.1587  137.0461  159.8441 C   0  0  0  0  0  0  0  0  0  0  0  0
  130.1174  136.9303  161.0010 C   0  0  0  0  0  0  0  0  0  0  0  0
  131.4810  136.9297  160.7686 C   0  0  0  0  0  0  0  0  0  0  0  0
  132.3634  136.8287  161.8250 C   0  0  0  0  0  0  0  0  0  0  0  0
  131.8785  136.7161  163.1263 C   0  0  0  0  0  0  0  0  0  0  0  0
  132.8225  136.6006  164.2654 C   0  0  0  0  0  0  0  0  0  0  0  0
  132.4560  135.8906  165.4074 C   0  0  0  0  0  0  0  0  0  0  0  0
  133.3359  135.7841  166.4657 C   0  0  0  0  0  0  0  0  0  0  0  0
  134.5816  136.3799  166.3963 C   0  0  0  0  0  0  0  0  0  0  0  0
  134.9540  137.0891  165.2629 C   0  0  0  0  0  0  0  0  0  0  0  0
  136.1793  137.6735  165.1992 O   0  0  0  0  0  0  0  0  0  0  0  0
  134.0789  137.1964  164.1941 C   0  0  0  0  0  0  0  0  0  0  0  0
  130.5039  136.7120  163.3541 C   0  0  0  0  0  0  0  0  0  0  0  0
  129.6304  136.8193  162.2909 C   0  0  0  0  0  0  0  0  0  0  0  0
  127.5296  135.7085  158.5379 C   0  0  0  0  0  0  0  0  0  0  0  0
  126.3173  135.5157  159.1737 C   0  0  0  0  0  0  0  0  0  0  0  0
  125.1406  135.5748  158.4507 C   0  0  0  0  0  0  0  0  0  0  0  0
  125.1766  135.8184  157.0905 C   0  0  0  0  0  0  0  0  0  0  0  0
  126.3892  136.0060  156.4537 C   0  0  0  0  0  0  0  0  0  0  0  0
  127.5658  135.9508  157.1775 C   0  0  0  0  0  0  0  0  0  0  0  0
  130.3391  133.5692  156.7318 N   0  0  0  0  0  0  0  0  0  0  0  0
  130.8637  134.1496  156.1584 H   0  0  0  0  0  0  0  0  0  0  0  0
  130.0673  131.9207  154.0061 C   0  0  0  0  0  0  0  0  0  0  0  0
  130.4564  131.1999  152.8954 C   0  0  0  0  0  0  0  0  0  0  0  0
  129.6380  128.7055  151.3151 H   0  0  0  0  0  0  0  0  0  0  0  0
  130.8988  127.6526  150.6296 H   0  0  0  0  0  0  0  0  0  0  0  0
  130.4915  127.5434  152.3588 H   0  0  0  0  0  0  0  0  0  0  0  0
  132.6066  128.7924  152.0199 H   0  0  0  0  0  0  0  0  0  0  0  0
  131.7532  129.9545  150.9762 H   0  0  0  0  0  0  0  0  0  0  0  0
  132.2107  128.7449  154.4107 H   0  0  0  0  0  0  0  0  0  0  0  0
  131.5358  130.0227  156.4017 H   0  0  0  0  0  0  0  0  0  0  0  0
  128.9026  130.8026  157.6154 H   0  0  0  0  0  0  0  0  0  0  0  0
  130.6726  135.7204  158.3062 H   0  0  0  0  0  0  0  0  0  0  0  0
  129.6218  137.6248  159.0449 H   0  0  0  0  0  0  0  0  0  0  0  0
  128.2487  137.5469  160.1749 H   0  0  0  0  0  0  0  0  0  0  0  0
  131.8557  137.0122  159.7590 H   0  0  0  0  0  0  0  0  0  0  0  0
  133.4280  136.8329  161.6427 H   0  0  0  0  0  0  0  0  0  0  0  0
  131.4837  135.4241  165.4646 H   0  0  0  0  0  0  0  0  0  0  0  0
  133.0506  135.2337  167.3500 H   0  0  0  0  0  0  0  0  0  0  0  0
  135.2667  136.2935  167.2267 H   0  0  0  0  0  0  0  0  0  0  0  0
  136.3477  138.1445  164.3716 H   0  0  0  0  0  0  0  0  0  0  0  0
  134.3690  137.7442  163.3098 H   0  0  0  0  0  0  0  0  0  0  0  0
  130.1226  136.6247  164.3608 H   0  0  0  0  0  0  0  0  0  0  0  0
  128.5648  136.8161  162.4663 H   0  0  0  0  0  0  0  0  0  0  0  0
  126.2894  135.3221  160.2358 H   0  0  0  0  0  0  0  0  0  0  0  0
  124.1932  135.4279  158.9481 H   0  0  0  0  0  0  0  0  0  0  0  0
  124.2575  135.8619  156.5251 H   0  0  0  0  0  0  0  0  0  0  0  0
  126.4175  136.1959  155.3910 H   0  0  0  0  0  0  0  0  0  0  0  0
  128.5130  136.0974  156.6801 H   0  0  0  0  0  0  0  0  0  0  0  0
  129.4638  132.8090  153.8905 H   0  0  0  0  0  0  0  0  0  0  0  0
  130.1568  131.5247  151.9099 H   0  0  0  0  0  0  0  0  0  0  0  0
  1  2  1  0
  1 39  1  0
  1 40  1  0
  1 41  1  0
  2  3  1  0
  2 42  1  0
  2 43  1  0
  3 38  2  0
  3  4  1  0
  4  5  2  0
  4 44  1  0
  5  6  1  0
  5 45  1  0
  6  7  1  0
  6 37  2  0
  7 35  1  0
  7  8  2  0
  8  9  1  0
  8 46  1  0
  9 10  1  0
  9 11  1  0
 11 12  1  0
 11 35  2  0
 12 13  1  0
 12 47  1  0
 13 14  1  1
 13 15  1  0
 13 29  1  0
 15 16  1  0
 15 48  1  0
 15 49  1  0
 16 28  1  0
 16 17  2  0
 17 18  1  0
 17 50  1  0
 18 19  2  0
 18 51  1  0
 19 20  1  0
 19 27  1  0
 20 26  1  0
 20 21  2  0
 21 22  1  0
 21 52  1  0
 22 23  2  0
 22 53  1  0
 23 24  1  0
 23 54  1  0
 24 25  1  0
 24 26  2  0
 25 55  1  0
 26 56  1  0
 27 28  2  0
 27 57  1  0
 28 58  1  0
 29 34  1  0
 29 30  2  0
 30 31  1  0
 30 59  1  0
 31 32  2  0
 31 60  1  0
 32 33  1  0
 32 61  1  0
 33 34  2  0
 33 62  1  0
 34 63  1  0
 35 36  1  0
 37 38  1  0
 37 64  1  0
 38 65  1  0
M  CHG  1  35   1
M  END
>  <DOCK_score>  (1) 
-61.28373

>  <SMILES>  (1) 
CCc1ccc(-c2c[nH]c(N[C@@H](Cc3ccc(-c4cccc(O)c4)cc3)c3ccccc3)[nH+]2)cc1

$$$$
