Nc1ccccc1Nc1cccc(Nc2ccc(CNC3=[NH+]CCN3CCO)cc2)c1
     RDKit          3D

 60 63  0  0  1  0  0  0  0  0999 V2000
  127.7391  139.7033  168.5706 N   0  0  0  0  0  0  0  0  0  0  0  0
  128.6907  140.4030  167.8194 C   0  0  0  0  0  0  0  0  0  0  0  0
  129.6687  141.1502  168.4585 C   0  0  0  0  0  0  0  0  0  0  0  0
  130.6039  141.8454  167.7144 C   0  0  0  0  0  0  0  0  0  0  0  0
  130.5714  141.7940  166.3330 C   0  0  0  0  0  0  0  0  0  0  0  0
  129.6035  141.0469  165.6876 C   0  0  0  0  0  0  0  0  0  0  0  0
  128.6614  140.3463  166.4260 C   0  0  0  0  0  0  0  0  0  0  0  0
  127.6802  139.5891  165.7744 N   0  0  0  0  0  0  0  0  0  0  0  0
  128.0530  138.5370  164.9350 C   0  0  0  0  0  0  0  0  0  0  0  0
  129.2281  137.8352  165.1786 C   0  0  0  0  0  0  0  0  0  0  0  0
  129.5977  136.7947  164.3485 C   0  0  0  0  0  0  0  0  0  0  0  0
  128.8017  136.4480  163.2737 C   0  0  0  0  0  0  0  0  0  0  0  0
  127.6256  137.1453  163.0244 C   0  0  0  0  0  0  0  0  0  0  0  0
  126.8205  136.7934  161.9371 N   0  0  0  0  0  0  0  0  0  0  0  0
  127.3989  136.2472  160.7887 C   0  0  0  0  0  0  0  0  0  0  0  0
  127.0262  134.9794  160.3585 C   0  0  0  0  0  0  0  0  0  0  0  0
  127.5995  134.4412  159.2233 C   0  0  0  0  0  0  0  0  0  0  0  0
  128.5442  135.1618  158.5156 C   0  0  0  0  0  0  0  0  0  0  0  0
  129.1680  134.5710  157.2775 C   0  0  0  0  0  0  0  0  0  0  0  0
  129.5416  133.1781  157.5361 N   0  0  0  0  0  0  0  0  0  0  0  0
  130.1322  132.4297  156.5457 C   0  0  0  0  0  0  0  0  0  0  0  0
  130.3784  132.8969  155.3653 N   0  0  0  0  0  0  0  0  0  0  0  0
  130.1785  133.7997  155.0720 H   0  0  0  0  0  0  0  0  0  0  0  0
  131.0049  131.8606  154.5327 C   0  0  0  0  0  0  0  0  0  0  0  0
  131.0940  130.6362  155.4653 C   0  0  0  0  0  0  0  0  0  0  0  0
  130.5045  131.1255  156.7227 N   0  0  0  0  0  0  0  0  0  0  0  0
  130.3439  130.3478  157.9539 C   0  0  0  0  0  0  0  0  0  0  0  0
  131.5910  130.5090  158.8255 C   0  0  0  0  0  0  0  0  0  0  0  0
  131.7680  131.8887  159.1532 O   0  0  0  0  0  0  0  0  0  0  0  0
  128.9217  136.4211  158.9445 C   0  0  0  0  0  0  0  0  0  0  0  0
  128.3480  136.9679  160.0755 C   0  0  0  0  0  0  0  0  0  0  0  0
  127.2539  138.1946  163.8533 C   0  0  0  0  0  0  0  0  0  0  0  0
  127.0578  139.1782  168.1222 H   0  0  0  0  0  0  0  0  0  0  0  0
  127.7608  139.7437  169.5395 H   0  0  0  0  0  0  0  0  0  0  0  0
  129.6971  141.1926  169.5372 H   0  0  0  0  0  0  0  0  0  0  0  0
  131.3624  142.4302  168.2137 H   0  0  0  0  0  0  0  0  0  0  0  0
  131.3045  142.3386  165.7566 H   0  0  0  0  0  0  0  0  0  0  0  0
  129.5811  141.0087  164.6086 H   0  0  0  0  0  0  0  0  0  0  0  0
  126.7415  139.7954  165.9061 H   0  0  0  0  0  0  0  0  0  0  0  0
  129.8530  138.1040  166.0175 H   0  0  0  0  0  0  0  0  0  0  0  0
  130.5111  136.2512  164.5400 H   0  0  0  0  0  0  0  0  0  0  0  0
  129.0936  135.6340  162.6267 H   0  0  0  0  0  0  0  0  0  0  0  0
  125.8618  136.9301  161.9798 H   0  0  0  0  0  0  0  0  0  0  0  0
  126.2890  134.4158  160.9110 H   0  0  0  0  0  0  0  0  0  0  0  0
  127.3102  133.4561  158.8880 H   0  0  0  0  0  0  0  0  0  0  0  0
  130.0572  135.1422  157.0106 H   0  0  0  0  0  0  0  0  0  0  0  0
  128.4520  134.6087  156.4566 H   0  0  0  0  0  0  0  0  0  0  0  0
  129.3723  132.7841  158.4060 H   0  0  0  0  0  0  0  0  0  0  0  0
  132.0001  132.1738  154.2173 H   0  0  0  0  0  0  0  0  0  0  0  0
  130.3832  131.6363  153.6659 H   0  0  0  0  0  0  0  0  0  0  0  0
  132.1327  130.3425  155.6162 H   0  0  0  0  0  0  0  0  0  0  0  0
  130.5142  129.8034  155.0672 H   0  0  0  0  0  0  0  0  0  0  0  0
  129.4709  130.7067  158.4990 H   0  0  0  0  0  0  0  0  0  0  0  0
  130.2089  129.2955  157.7039 H   0  0  0  0  0  0  0  0  0  0  0  0
  131.4716  129.9306  159.7413 H   0  0  0  0  0  0  0  0  0  0  0  0
  132.4641  130.1504  158.2803 H   0  0  0  0  0  0  0  0  0  0  0  0
  131.8807  132.4643  158.3845 H   0  0  0  0  0  0  0  0  0  0  0  0
  129.6629  136.9794  158.3920 H   0  0  0  0  0  0  0  0  0  0  0  0
  128.6401  137.9533  160.4074 H   0  0  0  0  0  0  0  0  0  0  0  0
  126.3427  138.7411  163.6591 H   0  0  0  0  0  0  0  0  0  0  0  0
  1  2  1  0
  1 33  1  0
  1 34  1  0
  2  7  2  0
  2  3  1  0
  3  4  2  0
  3 35  1  0
  4  5  1  0
  4 36  1  0
  5  6  2  0
  5 37  1  0
  6  7  1  0
  6 38  1  0
  7  8  1  0
  8  9  1  0
  8 39  1  0
  9 32  1  0
  9 10  2  0
 10 11  1  0
 10 40  1  0
 11 12  2  0
 11 41  1  0
 12 13  1  0
 12 42  1  0
 13 14  1  0
 13 32  2  0
 14 15  1  0
 14 43  1  0
 15 31  1  0
 15 16  2  0
 16 17  1  0
 16 44  1  0
 17 18  2  0
 17 45  1  0
 18 19  1  0
 18 30  1  0
 19 20  1  0
 19 46  1  0
 19 47  1  0
 20 48  1  0
 21 20  1  0
 21 26  1  0
 21 22  2  0
 22 23  1  0
 22 24  1  0
 24 25  1  0
 24 49  1  0
 24 50  1  0
 25 26  1  0
 25 51  1  0
 25 52  1  0
 26 27  1  0
 27 28  1  0
 27 53  1  0
 27 54  1  0
 28 29  1  0
 28 55  1  0
 28 56  1  0
 29 57  1  0
 30 31  2  0
 30 58  1  0
 31 59  1  0
 32 60  1  0
M  CHG  1  22   1
M  END
>  <DOCK_score>  (1) 
-45.3596

>  <SMILES>  (1) 
Nc1ccccc1Nc1cccc(Nc2ccc(CNC3=[NH+]CCN3CCO)cc2)c1

$$$$
