Nc1ccc(C[NH+]=C(NCCc2cccs2)N[C@H]2C[C@@H](O)C2)cc1
     RDKit          3D

 49 51  0  0  1  0  0  0  0  0999 V2000
  134.9688  140.6736  160.0162 N   0  0  0  0  0  0  0  0  0  0  0  0
  133.9352  139.7911  160.3384 C   0  0  0  0  0  0  0  0  0  0  0  0
  134.0923  138.4276  160.1245 C   0  0  0  0  0  0  0  0  0  0  0  0
  133.0685  137.5576  160.4438 C   0  0  0  0  0  0  0  0  0  0  0  0
  131.8877  138.0425  160.9759 C   0  0  0  0  0  0  0  0  0  0  0  0
  130.7726  137.0901  161.3231 C   0  0  0  0  0  0  0  0  0  0  0  0
  130.5925  136.1302  160.2311 N   0  0  0  0  0  0  0  0  0  0  0  0
  131.1557  136.1810  159.4429 H   0  0  0  0  0  0  0  0  0  0  0  0
  129.6756  135.2079  160.3186 C   0  0  0  0  0  0  0  0  0  0  0  0
  129.5065  134.3072  159.2939 N   0  0  0  0  0  0  0  0  0  0  0  0
  130.3569  134.3838  158.1035 C   0  0  0  0  0  0  0  0  0  0  0  0
  129.9647  133.2756  157.1243 C   0  0  0  0  0  0  0  0  0  0  0  0
  130.1461  131.9336  157.7856 C   0  0  0  0  0  0  0  0  0  0  0  0
  129.8902  130.7549  157.2159 C   0  0  0  0  0  0  0  0  0  0  0  0
  130.1360  129.6539  158.0181 C   0  0  0  0  0  0  0  0  0  0  0  0
  130.5826  129.9388  159.2422 C   0  0  0  0  0  0  0  0  0  0  0  0
  130.7199  131.6823  159.4289 S   0  0  0  0  0  0  0  0  0  0  0  0
  128.8777  135.1359  161.4359 N   0  0  0  0  0  0  0  0  0  0  0  0
  127.8471  134.0993  161.5343 C   0  0  1  0  0  0  0  0  0  0  0  0
  128.2560  133.0900  161.4865 H   0  0  0  0  0  0  0  0  0  0  0  0
  126.8682  134.3127  162.7011 C   0  0  0  0  0  0  0  0  0  0  0  0
  125.7538  133.8512  161.7472 C   0  0  1  0  0  0  0  0  0  0  0  0
  125.5883  132.7738  161.7577 H   0  0  0  0  0  0  0  0  0  0  0  0
  124.5434  134.5998  161.8763 O   0  0  0  0  0  0  0  0  0  0  0  0
  126.6523  134.3271  160.5935 C   0  0  0  0  0  0  0  0  0  0  0  0
  131.7258  139.3999  161.1846 C   0  0  0  0  0  0  0  0  0  0  0  0
  132.7477  140.2748  160.8727 C   0  0  0  0  0  0  0  0  0  0  0  0
  135.7977  140.3348  159.6438 H   0  0  0  0  0  0  0  0  0  0  0  0
  134.8579  141.6257  160.1664 H   0  0  0  0  0  0  0  0  0  0  0  0
  135.0142  138.0483  159.7086 H   0  0  0  0  0  0  0  0  0  0  0  0
  133.1902  136.4974  160.2782 H   0  0  0  0  0  0  0  0  0  0  0  0
  129.8492  137.6502  161.4705 H   0  0  0  0  0  0  0  0  0  0  0  0
  131.0236  136.5554  162.2391 H   0  0  0  0  0  0  0  0  0  0  0  0
  128.8242  133.6207  159.3592 H   0  0  0  0  0  0  0  0  0  0  0  0
  131.4003  134.2597  158.3937 H   0  0  0  0  0  0  0  0  0  0  0  0
  130.2258  135.3545  157.6253 H   0  0  0  0  0  0  0  0  0  0  0  0
  130.5975  133.3327  156.2387 H   0  0  0  0  0  0  0  0  0  0  0  0
  128.9214  133.3996  156.8340 H   0  0  0  0  0  0  0  0  0  0  0  0
  129.5219  130.6662  156.2045 H   0  0  0  0  0  0  0  0  0  0  0  0
  129.9745  128.6410  157.6798 H   0  0  0  0  0  0  0  0  0  0  0  0
  130.8235  129.2103  160.0022 H   0  0  0  0  0  0  0  0  0  0  0  0
  128.9969  135.7714  162.1589 H   0  0  0  0  0  0  0  0  0  0  0  0
  127.0337  133.6357  163.5391 H   0  0  0  0  0  0  0  0  0  0  0  0
  126.7772  135.3540  163.0097 H   0  0  0  0  0  0  0  0  0  0  0  0
  124.6448  135.5450  161.6992 H   0  0  0  0  0  0  0  0  0  0  0  0
  126.5011  135.3727  160.3250 H   0  0  0  0  0  0  0  0  0  0  0  0
  126.6434  133.6618  159.7300 H   0  0  0  0  0  0  0  0  0  0  0  0
  130.8006  139.7756  161.5958 H   0  0  0  0  0  0  0  0  0  0  0  0
  132.6223  141.3344  161.0401 H   0  0  0  0  0  0  0  0  0  0  0  0
  1  2  1  0
  1 28  1  0
  1 29  1  0
  2 27  2  0
  2  3  1  0
  3  4  2  0
  3 30  1  0
  4  5  1  0
  4 31  1  0
  5  6  1  0
  5 26  2  0
  6  7  1  0
  6 32  1  0
  6 33  1  0
  7  8  1  0
  9  7  2  0
  9 10  1  0
  9 18  1  0
 10 11  1  0
 10 34  1  0
 11 12  1  0
 11 35  1  0
 11 36  1  0
 12 13  1  0
 12 37  1  0
 12 38  1  0
 13 17  1  0
 13 14  2  0
 14 15  1  0
 14 39  1  0
 15 16  2  0
 15 40  1  0
 16 17  1  0
 16 41  1  0
 18 19  1  0
 18 42  1  0
 19 20  1  1
 19 25  1  0
 19 21  1  0
 21 22  1  0
 21 43  1  0
 21 44  1  0
 22 23  1  6
 22 24  1  0
 22 25  1  0
 24 45  1  0
 25 46  1  0
 25 47  1  0
 26 27  1  0
 26 48  1  0
 27 49  1  0
M  CHG  1   7   1
M  END
>  <DOCK_score>  (1) 
-44.317543

>  <SMILES>  (1) 
Nc1ccc(C[NH+]=C(NCCc2cccs2)N[C@H]2C[C@@H](O)C2)cc1

$$$$
