Cc1cccc([C@H](Nc2[nH]cc(-c3ccc(N)cc3)[nH+]2)C2CC(O)C2)c1CCl
     RDKit          3D

 54 57  0  0  1  0  0  0  0  0999 V2000
  133.9632  135.8801  162.4537 C   0  0  0  0  0  0  0  0  0  0  0  0
  132.7845  136.3959  161.6687 C   0  0  0  0  0  0  0  0  0  0  0  0
  132.5350  137.7543  161.6089 C   0  0  0  0  0  0  0  0  0  0  0  0
  131.4543  138.2273  160.8886 C   0  0  0  0  0  0  0  0  0  0  0  0
  130.6246  137.3422  160.2256 C   0  0  0  0  0  0  0  0  0  0  0  0
  130.8711  135.9837  160.2898 C   0  0  0  0  0  0  0  0  0  0  0  0
  129.9644  135.0185  159.5706 C   0  0  2  0  0  0  0  0  0  0  0  0
  129.9422  134.0709  160.1088 H   0  0  0  0  0  0  0  0  0  0  0  0
  130.4660  134.7970  158.2122 N   0  0  0  0  0  0  0  0  0  0  0  0
  130.2464  133.5837  157.5825 C   0  0  0  0  0  0  0  0  0  0  0  0
  129.5771  132.5248  158.1137 N   0  0  0  0  0  0  0  0  0  0  0  0
  129.1717  132.4842  158.9939 H   0  0  0  0  0  0  0  0  0  0  0  0
  129.5821  131.5228  157.1723 C   0  0  0  0  0  0  0  0  0  0  0  0
  130.2537  131.9989  156.0950 C   0  0  0  0  0  0  0  0  0  0  0  0
  130.5113  131.2642  154.8321 C   0  0  0  0  0  0  0  0  0  0  0  0
  130.0260  131.7615  153.6237 C   0  0  0  0  0  0  0  0  0  0  0  0
  130.2713  131.0797  152.4504 C   0  0  0  0  0  0  0  0  0  0  0  0
  130.9914  129.8917  152.4734 C   0  0  0  0  0  0  0  0  0  0  0  0
  131.2336  129.1998  151.2842 N   0  0  0  0  0  0  0  0  0  0  0  0
  131.4720  129.3908  153.6781 C   0  0  0  0  0  0  0  0  0  0  0  0
  131.2339  130.0724  154.8530 C   0  0  0  0  0  0  0  0  0  0  0  0
  130.6443  133.2677  156.3741 N   0  0  0  0  0  0  0  0  0  0  0  0
  131.1408  133.8478  155.7759 H   0  0  0  0  0  0  0  0  0  0  0  0
  128.5508  135.6001  159.5038 C   0  0  2  0  0  0  0  0  0  0  0  0
  127.9067  135.8140  160.8838 C   0  0  0  0  0  0  0  0  0  0  0  0
  126.5947  135.3063  160.2630 C   0  0  2  0  0  0  0  0  0  0  0  0
  125.8447  134.4520  161.1289 O   0  0  0  0  0  0  0  0  0  0  0  0
  127.4620  134.5450  159.2465 C   0  0  0  0  0  0  0  0  0  0  0  0
  131.9530  135.5106  161.0092 C   0  0  0  0  0  0  0  0  0  0  0  0
  132.2250  134.0298  161.0744 C   0  0  0  0  0  0  0  0  0  0  0  0
  131.3587  133.3213  162.4879 Cl  0  0  0  0  0  0  0  0  0  0  0  0
  134.8369  135.8267  161.8042 H   0  0  0  0  0  0  0  0  0  0  0  0
  134.1691  136.5542  163.2850 H   0  0  0  0  0  0  0  0  0  0  0  0
  133.7360  134.8863  162.8396 H   0  0  0  0  0  0  0  0  0  0  0  0
  133.1848  138.4460  162.1245 H   0  0  0  0  0  0  0  0  0  0  0  0
  131.2597  139.2887  160.8414 H   0  0  0  0  0  0  0  0  0  0  0  0
  129.7822  137.7119  159.6600 H   0  0  0  0  0  0  0  0  0  0  0  0
  130.9520  135.5003  157.7540 H   0  0  0  0  0  0  0  0  0  0  0  0
  129.1364  130.5442  157.2719 H   0  0  0  0  0  0  0  0  0  0  0  0
  129.4620  132.6824  153.6057 H   0  0  0  0  0  0  0  0  0  0  0  0
  129.8992  131.4670  151.5135 H   0  0  0  0  0  0  0  0  0  0  0  0
  131.7368  128.3699  151.3000 H   0  0  0  0  0  0  0  0  0  0  0  0
  130.8990  129.5479  150.4437 H   0  0  0  0  0  0  0  0  0  0  0  0
  132.0315  128.4672  153.6937 H   0  0  0  0  0  0  0  0  0  0  0  0
  131.6077  129.6832  155.7886 H   0  0  0  0  0  0  0  0  0  0  0  0
  128.4808  136.4684  158.8485 H   0  0  0  0  0  0  0  0  0  0  0  0
  128.3058  135.1588  161.6581 H   0  0  0  0  0  0  0  0  0  0  0  0
  127.8688  136.8593  161.1905 H   0  0  0  0  0  0  0  0  0  0  0  0
  125.9891  136.0948  159.8161 H   0  0  0  0  0  0  0  0  0  0  0  0
  126.3891  133.8586  161.6640 H   0  0  0  0  0  0  0  0  0  0  0  0
  127.0650  134.5657  158.2316 H   0  0  0  0  0  0  0  0  0  0  0  0
  127.7399  133.5425  159.5719 H   0  0  0  0  0  0  0  0  0  0  0  0
  131.8741  133.5552  160.1581 H   0  0  0  0  0  0  0  0  0  0  0  0
  133.2964  133.8618  161.1833 H   0  0  0  0  0  0  0  0  0  0  0  0
  1  2  1  0
  1 32  1  0
  1 33  1  0
  1 34  1  0
  2 29  2  0
  2  3  1  0
  3  4  2  0
  3 35  1  0
  4  5  1  0
  4 36  1  0
  5  6  2  0
  5 37  1  0
  6  7  1  0
  6 29  1  0
  7  8  1  1
  7  9  1  0
  7 24  1  0
  9 38  1  0
 10  9  1  0
 10 22  2  0
 10 11  1  0
 11 12  1  0
 11 13  1  0
 13 14  2  0
 13 39  1  0
 14 15  1  0
 14 22  1  0
 15 21  1  0
 15 16  2  0
 16 17  1  0
 16 40  1  0
 17 18  2  0
 17 41  1  0
 18 19  1  0
 18 20  1  0
 19 42  1  0
 19 43  1  0
 20 21  2  0
 20 44  1  0
 21 45  1  0
 22 23  1  0
 24 28  1  0
 24 25  1  0
 24 46  1  6
 25 26  1  0
 25 47  1  0
 25 48  1  0
 26 27  1  0
 26 28  1  0
 26 49  1  6
 27 50  1  0
 28 51  1  0
 28 52  1  0
 29 30  1  0
 30 31  1  0
 30 53  1  0
 30 54  1  0
M  CHG  1  22   1
M  END
>  <DOCK_score>  (1) 
-57.797966

>  <SMILES>  (1) 
Cc1cccc([C@H](Nc2[nH]cc(-c3ccc(N)cc3)[nH+]2)C2CC(O)C2)c1CCl

$$$$
