CCc1ccc(-c2c[nH]c(N[C@@H](C3=CCCC3)c3cccc4ccccc34)[nH+]2)cc1
     RDKit          3D

 58 62  0  0  1  0  0  0  0  0999 V2000
  130.1918  128.9130  151.6755 C   0  0  0  0  0  0  0  0  0  0  0  0
  131.4372  129.6424  152.1838 C   0  0  0  0  0  0  0  0  0  0  0  0
  131.0925  130.4149  153.4309 C   0  0  0  0  0  0  0  0  0  0  0  0
  131.2201  129.8159  154.6705 C   0  0  0  0  0  0  0  0  0  0  0  0
  130.9115  130.5211  155.8160 C   0  0  0  0  0  0  0  0  0  0  0  0
  130.4598  131.8363  155.7211 C   0  0  0  0  0  0  0  0  0  0  0  0
  130.1212  132.5976  156.9482 C   0  0  0  0  0  0  0  0  0  0  0  0
  129.6573  132.0737  158.1098 C   0  0  0  0  0  0  0  0  0  0  0  0
  129.4770  133.1239  158.9767 N   0  0  0  0  0  0  0  0  0  0  0  0
  129.1531  133.0664  159.8893 H   0  0  0  0  0  0  0  0  0  0  0  0
  129.8362  134.2598  158.3189 C   0  0  0  0  0  0  0  0  0  0  0  0
  129.8013  135.5406  158.8434 N   0  0  0  0  0  0  0  0  0  0  0  0
  129.3479  135.7565  160.2197 C   0  0  1  0  0  0  0  0  0  0  0  0
  128.3229  135.4010  160.3245 H   0  0  0  0  0  0  0  0  0  0  0  0
  130.2417  134.9993  161.1676 C   0  0  0  0  0  0  0  0  0  0  0  0
  131.5036  134.7462  160.9492 C   0  0  0  0  0  0  0  0  0  0  0  0
  132.1089  133.9697  162.0955 C   0  0  0  0  0  0  0  0  0  0  0  0
  130.8961  133.4182  162.8806 C   0  0  0  0  0  0  0  0  0  0  0  0
  129.7967  134.4387  162.4984 C   0  0  0  0  0  0  0  0  0  0  0  0
  129.4049  137.2274  160.5424 C   0  0  0  0  0  0  0  0  0  0  0  0
  130.3316  138.0241  159.9426 C   0  0  0  0  0  0  0  0  0  0  0  0
  130.3990  139.3862  160.2281 C   0  0  0  0  0  0  0  0  0  0  0  0
  129.5405  139.9599  161.1150 C   0  0  0  0  0  0  0  0  0  0  0  0
  128.5702  139.1695  161.7539 C   0  0  0  0  0  0  0  0  0  0  0  0
  127.6663  139.7262  162.6750 C   0  0  0  0  0  0  0  0  0  0  0  0
  126.7291  138.9327  163.2619 C   0  0  0  0  0  0  0  0  0  0  0  0
  126.6618  137.5700  162.9766 C   0  0  0  0  0  0  0  0  0  0  0  0
  127.5237  136.9953  162.0941 C   0  0  0  0  0  0  0  0  0  0  0  0
  128.4982  137.7849  161.4595 C   0  0  0  0  0  0  0  0  0  0  0  0
  130.2261  133.9407  157.1090 N   0  0  0  0  0  0  0  0  0  0  0  0
  130.5375  134.5652  156.4353 H   0  0  0  0  0  0  0  0  0  0  0  0
  130.3281  132.4336  154.4687 C   0  0  0  0  0  0  0  0  0  0  0  0
  130.6449  131.7206  153.3302 C   0  0  0  0  0  0  0  0  0  0  0  0
  129.8352  128.2256  152.4424 H   0  0  0  0  0  0  0  0  0  0  0  0
  129.4123  129.6402  151.4483 H   0  0  0  0  0  0  0  0  0  0  0  0
  130.4411  128.3539  150.7737 H   0  0  0  0  0  0  0  0  0  0  0  0
  132.2167  128.9152  152.4109 H   0  0  0  0  0  0  0  0  0  0  0  0
  131.7939  130.3299  151.4167 H   0  0  0  0  0  0  0  0  0  0  0  0
  131.5655  128.7951  154.7426 H   0  0  0  0  0  0  0  0  0  0  0  0
  131.0158  130.0535  156.7839 H   0  0  0  0  0  0  0  0  0  0  0  0
  129.4661  131.0306  158.3141 H   0  0  0  0  0  0  0  0  0  0  0  0
  130.0771  136.2950  158.2997 H   0  0  0  0  0  0  0  0  0  0  0  0
  132.0438  135.0515  160.0653 H   0  0  0  0  0  0  0  0  0  0  0  0
  132.7210  133.1506  161.7179 H   0  0  0  0  0  0  0  0  0  0  0  0
  132.7033  134.6285  162.7286 H   0  0  0  0  0  0  0  0  0  0  0  0
  130.6368  132.4140  162.5452 H   0  0  0  0  0  0  0  0  0  0  0  0
  131.0850  133.4340  163.9540 H   0  0  0  0  0  0  0  0  0  0  0  0
  129.7361  135.2321  163.2433 H   0  0  0  0  0  0  0  0  0  0  0  0
  128.8341  133.9379  162.3967 H   0  0  0  0  0  0  0  0  0  0  0  0
  131.0250  137.5938  159.2352 H   0  0  0  0  0  0  0  0  0  0  0  0
  131.1441  139.9960  159.7386 H   0  0  0  0  0  0  0  0  0  0  0  0
  129.6049  141.0169  161.3267 H   0  0  0  0  0  0  0  0  0  0  0  0
  127.7070  140.7802  162.9064 H   0  0  0  0  0  0  0  0  0  0  0  0
  126.0327  139.3637  163.9659 H   0  0  0  0  0  0  0  0  0  0  0  0
  125.9140  136.9611  163.4628 H   0  0  0  0  0  0  0  0  0  0  0  0
  127.4597  135.9381  161.8829 H   0  0  0  0  0  0  0  0  0  0  0  0
  129.9782  133.4523  154.3892 H   0  0  0  0  0  0  0  0  0  0  0  0
  130.5428  132.1823  152.3594 H   0  0  0  0  0  0  0  0  0  0  0  0
  1  2  1  0
  1 34  1  0
  1 35  1  0
  1 36  1  0
  2  3  1  0
  2 37  1  0
  2 38  1  0
  3 33  2  0
  3  4  1  0
  4  5  2  0
  4 39  1  0
  5  6  1  0
  5 40  1  0
  6  7  1  0
  6 32  2  0
  7 30  1  0
  7  8  2  0
  8  9  1  0
  8 41  1  0
  9 10  1  0
  9 11  1  0
 11 12  1  0
 11 30  2  0
 12 13  1  0
 12 42  1  0
 13 14  1  6
 13 15  1  0
 13 20  1  0
 15 19  1  0
 15 16  2  0
 16 17  1  0
 16 43  1  0
 17 18  1  0
 17 44  1  0
 17 45  1  0
 18 19  1  0
 18 46  1  0
 18 47  1  0
 19 48  1  0
 19 49  1  0
 20 29  1  0
 20 21  2  0
 21 22  1  0
 21 50  1  0
 22 23  2  0
 22 51  1  0
 23 24  1  0
 23 52  1  0
 24 29  2  0
 24 25  1  0
 25 26  2  0
 25 53  1  0
 26 27  1  0
 26 54  1  0
 27 28  2  0
 27 55  1  0
 28 29  1  0
 28 56  1  0
 30 31  1  0
 32 33  1  0
 32 57  1  0
 33 58  1  0
M  CHG  1  30   1
M  END
>  <DOCK_score>  (1) 
-58.628052

>  <SMILES>  (1) 
CCc1ccc(-c2c[nH]c(N[C@@H](C3=CCCC3)c3cccc4ccccc34)[nH+]2)cc1

$$$$
