CCc1ccc(-c2c[nH]c(N[C@@H](CC3CC=CCC3)c3ccccc3)[nH+]2)cc1
     RDKit          3D

 58 61  0  0  1  0  0  0  0  0999 V2000
  130.5587  128.3955  151.6288 C   0  0  0  0  0  0  0  0  0  0  0  0
  131.6509  129.4045  151.9890 C   0  0  0  0  0  0  0  0  0  0  0  0
  131.2689  130.1281  153.2546 C   0  0  0  0  0  0  0  0  0  0  0  0
  131.6557  129.6207  154.4815 C   0  0  0  0  0  0  0  0  0  0  0  0
  131.3137  130.2820  155.6436 C   0  0  0  0  0  0  0  0  0  0  0  0
  130.5673  131.4572  155.5796 C   0  0  0  0  0  0  0  0  0  0  0  0
  130.1919  132.1695  156.8254 C   0  0  0  0  0  0  0  0  0  0  0  0
  129.4522  131.6625  157.8426 C   0  0  0  0  0  0  0  0  0  0  0  0
  129.3453  132.6520  158.7895 N   0  0  0  0  0  0  0  0  0  0  0  0
  128.8733  132.5898  159.6346 H   0  0  0  0  0  0  0  0  0  0  0  0
  130.0235  133.7357  158.3228 C   0  0  0  0  0  0  0  0  0  0  0  0
  130.1581  134.9468  158.9795 N   0  0  0  0  0  0  0  0  0  0  0  0
  129.1034  135.4108  159.8842 C   0  0  1  0  0  0  0  0  0  0  0  0
  128.9714  134.6880  160.6893 H   0  0  0  0  0  0  0  0  0  0  0  0
  129.4978  136.7659  160.4750 C   0  0  0  0  0  0  0  0  0  0  0  0
  128.6928  137.0197  161.7512 C   0  0  1  0  0  0  0  0  0  0  0  0
  129.3353  136.2719  162.9217 C   0  0  0  0  0  0  0  0  0  0  0  0
  128.7229  136.7167  164.2175 C   0  0  0  0  0  0  0  0  0  0  0  0
  128.0338  137.8034  164.3589 C   0  0  0  0  0  0  0  0  0  0  0  0
  127.7419  138.7646  163.2442 C   0  0  0  0  0  0  0  0  0  0  0  0
  128.6915  138.5200  162.0703 C   0  0  0  0  0  0  0  0  0  0  0  0
  127.8124  135.5527  159.1199 C   0  0  0  0  0  0  0  0  0  0  0  0
  126.6038  135.3582  159.7622 C   0  0  0  0  0  0  0  0  0  0  0  0
  125.4195  135.4923  159.0619 C   0  0  0  0  0  0  0  0  0  0  0  0
  125.4440  135.8127  157.7174 C   0  0  0  0  0  0  0  0  0  0  0  0
  126.6527  136.0019  157.0739 C   0  0  0  0  0  0  0  0  0  0  0  0
  127.8369  135.8717  157.7751 C   0  0  0  0  0  0  0  0  0  0  0  0
  130.5328  133.4415  157.1515 N   0  0  0  0  0  0  0  0  0  0  0  0
  131.0663  134.0388  156.6041 H   0  0  0  0  0  0  0  0  0  0  0  0
  130.1753  131.9611  154.3406 C   0  0  0  0  0  0  0  0  0  0  0  0
  130.5279  131.2945  153.1847 C   0  0  0  0  0  0  0  0  0  0  0  0
  129.6150  128.9195  151.4773 H   0  0  0  0  0  0  0  0  0  0  0  0
  130.8349  127.8723  150.7134 H   0  0  0  0  0  0  0  0  0  0  0  0
  130.4483  127.6755  152.4397 H   0  0  0  0  0  0  0  0  0  0  0  0
  132.5943  128.8811  152.1401 H   0  0  0  0  0  0  0  0  0  0  0  0
  131.7610  130.1252  151.1777 H   0  0  0  0  0  0  0  0  0  0  0  0
  132.2300  128.7074  154.5301 H   0  0  0  0  0  0  0  0  0  0  0  0
  131.6203  129.8873  156.6010 H   0  0  0  0  0  0  0  0  0  0  0  0
  129.0280  130.6708  157.8976 H   0  0  0  0  0  0  0  0  0  0  0  0
  130.9509  135.4883  158.8408 H   0  0  0  0  0  0  0  0  0  0  0  0
  130.5618  136.7637  160.7109 H   0  0  0  0  0  0  0  0  0  0  0  0
  129.2879  137.5530  159.7506 H   0  0  0  0  0  0  0  0  0  0  0  0
  127.6685  136.6735  161.6133 H   0  0  0  0  0  0  0  0  0  0  0  0
  129.1773  135.2007  162.7963 H   0  0  0  0  0  0  0  0  0  0  0  0
  130.4050  136.4797  162.9397 H   0  0  0  0  0  0  0  0  0  0  0  0
  128.8667  136.0915  165.0864 H   0  0  0  0  0  0  0  0  0  0  0  0
  127.6445  138.0320  165.3399 H   0  0  0  0  0  0  0  0  0  0  0  0
  126.7141  138.6270  162.9082 H   0  0  0  0  0  0  0  0  0  0  0  0
  127.8705  139.7854  163.6046 H   0  0  0  0  0  0  0  0  0  0  0  0
  129.6977  138.8371  162.3446 H   0  0  0  0  0  0  0  0  0  0  0  0
  128.3527  139.0797  161.1984 H   0  0  0  0  0  0  0  0  0  0  0  0
  126.5848  135.1047  160.8118 H   0  0  0  0  0  0  0  0  0  0  0  0
  124.4752  135.3441  159.5647 H   0  0  0  0  0  0  0  0  0  0  0  0
  124.5188  135.9147  157.1698 H   0  0  0  0  0  0  0  0  0  0  0  0
  126.6719  136.2518  156.0234 H   0  0  0  0  0  0  0  0  0  0  0  0
  128.7811  136.0195  157.2724 H   0  0  0  0  0  0  0  0  0  0  0  0
  129.5966  132.8713  154.2852 H   0  0  0  0  0  0  0  0  0  0  0  0
  130.2244  131.6839  152.2241 H   0  0  0  0  0  0  0  0  0  0  0  0
  1  2  1  0
  1 32  1  0
  1 33  1  0
  1 34  1  0
  2  3  1  0
  2 35  1  0
  2 36  1  0
  3 31  2  0
  3  4  1  0
  4  5  2  0
  4 37  1  0
  5  6  1  0
  5 38  1  0
  6  7  1  0
  6 30  2  0
  7 28  1  0
  7  8  2  0
  8  9  1  0
  8 39  1  0
  9 10  1  0
  9 11  1  0
 11 12  1  0
 11 28  2  0
 12 13  1  0
 12 40  1  0
 13 14  1  1
 13 15  1  0
 13 22  1  0
 15 16  1  0
 15 41  1  0
 15 42  1  0
 16 21  1  0
 16 17  1  0
 16 43  1  6
 17 18  1  0
 17 44  1  0
 17 45  1  0
 18 19  2  0
 18 46  1  0
 19 20  1  0
 19 47  1  0
 20 21  1  0
 20 48  1  0
 20 49  1  0
 21 50  1  0
 21 51  1  0
 22 27  1  0
 22 23  2  0
 23 24  1  0
 23 52  1  0
 24 25  2  0
 24 53  1  0
 25 26  1  0
 25 54  1  0
 26 27  2  0
 26 55  1  0
 27 56  1  0
 28 29  1  0
 30 31  1  0
 30 57  1  0
 31 58  1  0
M  CHG  1  28   1
M  END
>  <DOCK_score>  (1) 
-60.680466

>  <SMILES>  (1) 
CCc1ccc(-c2c[nH]c(N[C@@H](CC3CC=CCC3)c3ccccc3)[nH+]2)cc1

$$$$
