C[C@H](Cc1csc2ccc(O)cc12)[NH2+]CC1CC1
     RDKit          3D

 38 40  0  0  1  0  0  0  0  0999 V2000
  128.2894  136.2796  161.0037 C   0  0  0  0  0  0  0  0  0  0  0  0
  129.0093  136.5529  159.6815 C   0  0  2  0  0  0  0  0  0  0  0  0
  129.1948  137.6225  159.5831 H   0  0  0  0  0  0  0  0  0  0  0  0
  128.1368  136.0775  158.5181 C   0  0  0  0  0  0  0  0  0  0  0  0
  127.8802  134.5987  158.6540 C   0  0  0  0  0  0  0  0  0  0  0  0
  128.6717  133.6894  158.1205 C   0  0  0  0  0  0  0  0  0  0  0  0
  128.1000  132.0670  158.4576 S   0  0  0  0  0  0  0  0  0  0  0  0
  126.7196  132.6694  159.3671 C   0  0  0  0  0  0  0  0  0  0  0  0
  125.6926  131.9798  160.0193 C   0  0  0  0  0  0  0  0  0  0  0  0
  124.7021  132.6674  160.6778 C   0  0  0  0  0  0  0  0  0  0  0  0
  124.7132  134.0599  160.7001 C   0  0  0  0  0  0  0  0  0  0  0  0
  123.7325  134.7339  161.3583 O   0  0  0  0  0  0  0  0  0  0  0  0
  125.7143  134.7564  160.0645 C   0  0  0  0  0  0  0  0  0  0  0  0
  126.7405  134.0661  159.3831 C   0  0  0  0  0  0  0  0  0  0  0  0
  130.2881  135.8302  159.6618 N   0  0  0  0  0  0  0  0  0  0  0  0
  130.1642  134.9162  160.0706 H   0  0  0  0  0  0  0  0  0  0  0  0
  130.6043  135.7323  158.7086 H   0  0  0  0  0  0  0  0  0  0  0  0
  131.2867  136.5810  160.4343 C   0  0  0  0  0  0  0  0  0  0  0  0
  132.6187  135.8283  160.4137 C   0  0  0  0  0  0  0  0  0  0  0  0
  132.8848  134.8322  161.5440 C   0  0  0  0  0  0  0  0  0  0  0  0
  133.6368  136.1642  161.5053 C   0  0  0  0  0  0  0  0  0  0  0  0
  128.9110  136.6182  161.8325 H   0  0  0  0  0  0  0  0  0  0  0  0
  127.3405  136.8158  161.0183 H   0  0  0  0  0  0  0  0  0  0  0  0
  128.1040  135.2100  161.1021 H   0  0  0  0  0  0  0  0  0  0  0  0
  128.6496  136.2723  157.5762 H   0  0  0  0  0  0  0  0  0  0  0  0
  127.1879  136.6138  158.5328 H   0  0  0  0  0  0  0  0  0  0  0  0
  129.5595  133.9154  157.5485 H   0  0  0  0  0  0  0  0  0  0  0  0
  125.6784  130.9000  160.0057 H   0  0  0  0  0  0  0  0  0  0  0  0
  123.9129  132.1268  161.1792 H   0  0  0  0  0  0  0  0  0  0  0  0
  123.8224  135.6959  161.3197 H   0  0  0  0  0  0  0  0  0  0  0  0
  125.7156  135.8361  160.0869 H   0  0  0  0  0  0  0  0  0  0  0  0
  131.4206  137.5686  159.9925 H   0  0  0  0  0  0  0  0  0  0  0  0
  130.9452  136.6869  161.4640 H   0  0  0  0  0  0  0  0  0  0  0  0
  133.0043  135.5823  159.4244 H   0  0  0  0  0  0  0  0  0  0  0  0
  132.1111  134.7132  162.3024 H   0  0  0  0  0  0  0  0  0  0  0  0
  133.4455  133.9304  161.2985 H   0  0  0  0  0  0  0  0  0  0  0  0
  134.6923  136.1385  161.2342 H   0  0  0  0  0  0  0  0  0  0  0  0
  133.3578  136.9212  162.2382 H   0  0  0  0  0  0  0  0  0  0  0  0
  1  2  1  0
  1 22  1  0
  1 23  1  0
  1 24  1  0
  2  3  1  6
  2  4  1  0
  2 15  1  0
  4  5  1  0
  4 25  1  0
  4 26  1  0
  5 14  1  0
  5  6  2  0
  6  7  1  0
  6 27  1  0
  7  8  1  0
  8 14  2  0
  8  9  1  0
  9 10  2  0
  9 28  1  0
 10 11  1  0
 10 29  1  0
 11 12  1  0
 11 13  2  0
 12 30  1  0
 13 14  1  0
 13 31  1  0
 15 16  1  0
 15 17  1  0
 15 18  1  0
 18 19  1  0
 18 32  1  0
 18 33  1  0
 19 21  1  0
 19 20  1  0
 19 34  1  0
 20 21  1  0
 20 35  1  0
 20 36  1  0
 21 37  1  0
 21 38  1  0
M  CHG  1  15   1
M  END
>  <DOCK_score>  (1) 
-41.260834

>  <SMILES>  (1) 
C[C@H](Cc1csc2ccc(O)cc12)[NH2+]CC1CC1

$$$$
