O=C1CC[C@H]([NH+]=C(NCCc2cccc3ccccc23)NC2CC=CC2)CN1
     RDKit          3D

 57 60  0  0  1  0  0  0  0  0999 V2000
  124.1722  133.7845  160.6490 O   0  0  0  0  0  0  0  0  0  0  0  0
  125.3608  134.0032  160.5478 C   0  0  0  0  0  0  0  0  0  0  0  0
  126.2330  132.9317  159.9589 C   0  0  0  0  0  0  0  0  0  0  0  0
  127.6981  133.2015  160.3101 C   0  0  0  0  0  0  0  0  0  0  0  0
  128.0131  134.6664  159.9845 C   0  0  2  0  0  0  0  0  0  0  0  0
  127.7186  134.8871  158.9585 H   0  0  0  0  0  0  0  0  0  0  0  0
  129.4490  134.9081  160.1463 N   0  0  0  0  0  0  0  0  0  0  0  0
  129.7607  135.5677  160.7857 H   0  0  0  0  0  0  0  0  0  0  0  0
  130.3075  134.2369  159.4313 C   0  0  0  0  0  0  0  0  0  0  0  0
  131.5583  133.9663  159.9340 N   0  0  0  0  0  0  0  0  0  0  0  0
  131.7489  133.8088  161.3781 C   0  0  0  0  0  0  0  0  0  0  0  0
  132.7417  134.8596  161.8790 C   0  0  0  0  0  0  0  0  0  0  0  0
  132.2032  136.2372  161.5908 C   0  0  0  0  0  0  0  0  0  0  0  0
  132.5007  136.8563  160.4156 C   0  0  0  0  0  0  0  0  0  0  0  0
  132.0064  138.1270  160.1286 C   0  0  0  0  0  0  0  0  0  0  0  0
  131.2219  138.7916  161.0209 C   0  0  0  0  0  0  0  0  0  0  0  0
  130.8985  138.1873  162.2474 C   0  0  0  0  0  0  0  0  0  0  0  0
  130.0921  138.8427  163.1938 C   0  0  0  0  0  0  0  0  0  0  0  0
  129.8000  138.2266  164.3715 C   0  0  0  0  0  0  0  0  0  0  0  0
  130.2889  136.9526  164.6554 C   0  0  0  0  0  0  0  0  0  0  0  0
  131.0727  136.2878  163.7636 C   0  0  0  0  0  0  0  0  0  0  0  0
  131.3959  136.8919  162.5364 C   0  0  0  0  0  0  0  0  0  0  0  0
  129.9624  133.7994  158.1745 N   0  0  0  0  0  0  0  0  0  0  0  0
  130.9275  133.0449  157.3709 C   0  0  0  0  0  0  0  0  0  0  0  0
  131.1963  131.6530  157.9884 C   0  0  0  0  0  0  0  0  0  0  0  0
  131.3432  130.7264  156.8040 C   0  0  0  0  0  0  0  0  0  0  0  0
  130.8691  131.2733  155.7177 C   0  0  0  0  0  0  0  0  0  0  0  0
  130.3271  132.6559  155.9967 C   0  0  0  0  0  0  0  0  0  0  0  0
  127.2306  135.5611  160.9465 C   0  0  0  0  0  0  0  0  0  0  0  0
  125.8233  135.1823  160.9650 N   0  0  0  0  0  0  0  0  0  0  0  0
  125.9369  131.9626  160.3604 H   0  0  0  0  0  0  0  0  0  0  0  0
  126.1158  132.9245  158.8753 H   0  0  0  0  0  0  0  0  0  0  0  0
  128.3427  132.5480  159.7223 H   0  0  0  0  0  0  0  0  0  0  0  0
  127.8602  133.0186  161.3724 H   0  0  0  0  0  0  0  0  0  0  0  0
  132.3144  133.8798  159.3327 H   0  0  0  0  0  0  0  0  0  0  0  0
  130.7941  133.9393  161.8870 H   0  0  0  0  0  0  0  0  0  0  0  0
  132.1385  132.8123  161.5865 H   0  0  0  0  0  0  0  0  0  0  0  0
  132.8838  134.7424  162.9533 H   0  0  0  0  0  0  0  0  0  0  0  0
  133.6967  134.7290  161.3699 H   0  0  0  0  0  0  0  0  0  0  0  0
  133.1251  136.3528  159.6925 H   0  0  0  0  0  0  0  0  0  0  0  0
  132.2535  138.5938  159.1868 H   0  0  0  0  0  0  0  0  0  0  0  0
  130.8498  139.7781  160.7869 H   0  0  0  0  0  0  0  0  0  0  0  0
  129.7065  139.8302  162.9875 H   0  0  0  0  0  0  0  0  0  0  0  0
  129.1804  138.7325  165.0970 H   0  0  0  0  0  0  0  0  0  0  0  0
  130.0420  136.4860  165.5978 H   0  0  0  0  0  0  0  0  0  0  0  0
  131.4443  135.3010  163.9973 H   0  0  0  0  0  0  0  0  0  0  0  0
  129.0800  133.9902  157.8198 H   0  0  0  0  0  0  0  0  0  0  0  0
  131.8550  133.6046  157.2490 H   0  0  0  0  0  0  0  0  0  0  0  0
  130.3556  131.3445  158.6098 H   0  0  0  0  0  0  0  0  0  0  0  0
  132.1151  131.6685  158.5745 H   0  0  0  0  0  0  0  0  0  0  0  0
  131.7831  129.7411  156.8499 H   0  0  0  0  0  0  0  0  0  0  0  0
  130.8646  130.7998  154.7472 H   0  0  0  0  0  0  0  0  0  0  0  0
  130.6555  133.3549  155.2277 H   0  0  0  0  0  0  0  0  0  0  0  0
  129.2385  132.6337  156.0486 H   0  0  0  0  0  0  0  0  0  0  0  0
  127.6442  135.4597  161.9499 H   0  0  0  0  0  0  0  0  0  0  0  0
  127.3201  136.5992  160.6266 H   0  0  0  0  0  0  0  0  0  0  0  0
  125.1831  135.8282  161.3022 H   0  0  0  0  0  0  0  0  0  0  0  0
  1  2  2  0
  2 30  1  0
  2  3  1  0
  3  4  1  0
  3 31  1  0
  3 32  1  0
  4  5  1  0
  4 33  1  0
  4 34  1  0
  5  6  1  6
  5  7  1  0
  5 29  1  0
  7  8  1  0
  9  7  2  0
  9 10  1  0
  9 23  1  0
 10 11  1  0
 10 35  1  0
 11 12  1  0
 11 36  1  0
 11 37  1  0
 12 13  1  0
 12 38  1  0
 12 39  1  0
 13 22  1  0
 13 14  2  0
 14 15  1  0
 14 40  1  0
 15 16  2  0
 15 41  1  0
 16 17  1  0
 16 42  1  0
 17 22  2  0
 17 18  1  0
 18 19  2  0
 18 43  1  0
 19 20  1  0
 19 44  1  0
 20 21  2  0
 20 45  1  0
 21 22  1  0
 21 46  1  0
 23 24  1  0
 23 47  1  0
 24 28  1  0
 24 25  1  0
 24 48  1  0
 25 26  1  0
 25 49  1  0
 25 50  1  0
 26 27  2  0
 26 51  1  0
 27 28  1  0
 27 52  1  0
 28 53  1  0
 28 54  1  0
 29 30  1  0
 29 55  1  0
 29 56  1  0
 30 57  1  0
M  CHG  1   7   1
M  END
>  <DOCK_score>  (1) 
-41.167767

>  <SMILES>  (1) 
O=C1CC[C@H]([NH+]=C(NCCc2cccc3ccccc23)NC2CC=CC2)CN1

$$$$
