C=CCC[C@H](O)C[NH+]1CCC(C(=O)NCc2cccc3ccccc23)(c2ccccc2)CC1
     RDKit          3D

 68 71  0  0  1  0  0  0  0  0999 V2000
  132.4441  136.3172  165.4548 C   0  0  0  0  0  0  0  0  0  0  0  0
  133.1624  136.8137  164.4782 C   0  0  0  0  0  0  0  0  0  0  0  0
  132.9610  136.3206  163.0685 C   0  0  0  0  0  0  0  0  0  0  0  0
  132.5418  137.4893  162.1745 C   0  0  0  0  0  0  0  0  0  0  0  0
  132.3372  136.9886  160.7432 C   0  0  2  0  0  0  0  0  0  0  0  0
  133.1148  136.2657  160.4966 H   0  0  0  0  0  0  0  0  0  0  0  0
  132.4083  138.0919  159.8378 O   0  0  0  0  0  0  0  0  0  0  0  0
  130.9652  136.3215  160.6274 C   0  0  0  0  0  0  0  0  0  0  0  0
  130.9467  135.4405  159.4520 N   0  0  2  0  0  0  0  0  0  0  0  0
  131.4357  135.8870  158.6906 H   0  0  0  0  0  0  0  0  0  0  0  0
  129.5568  135.1849  159.0559 C   0  0  0  0  0  0  0  0  0  0  0  0
  129.5331  134.3343  157.7841 C   0  0  0  0  0  0  0  0  0  0  0  0
  130.2417  133.0036  158.0534 C   0  0  1  0  0  0  0  0  0  0  0  0
  129.4914  132.2385  159.1130 C   0  0  0  0  0  0  0  0  0  0  0  0
  130.0875  131.4859  159.8540 O   0  0  0  0  0  0  0  0  0  0  0  0
  128.1581  132.3906  159.2370 N   0  0  0  0  0  0  0  0  0  0  0  0
  127.4277  131.6422  160.2631 C   0  0  0  0  0  0  0  0  0  0  0  0
  126.7493  132.6069  161.2012 C   0  0  0  0  0  0  0  0  0  0  0  0
  125.4826  133.0346  160.9446 C   0  0  0  0  0  0  0  0  0  0  0  0
  124.8390  133.9255  161.8008 C   0  0  0  0  0  0  0  0  0  0  0  0
  125.4583  134.3950  162.9185 C   0  0  0  0  0  0  0  0  0  0  0  0
  126.7662  133.9766  163.2160 C   0  0  0  0  0  0  0  0  0  0  0  0
  127.4381  134.4398  164.3604 C   0  0  0  0  0  0  0  0  0  0  0  0
  128.7048  134.0129  164.6164 C   0  0  0  0  0  0  0  0  0  0  0  0
  129.3486  133.1218  163.7598 C   0  0  0  0  0  0  0  0  0  0  0  0
  128.7296  132.6526  162.6423 C   0  0  0  0  0  0  0  0  0  0  0  0
  127.4188  133.0655  162.3482 C   0  0  0  0  0  0  0  0  0  0  0  0
  130.2892  132.1922  156.7844 C   0  0  0  0  0  0  0  0  0  0  0  0
  129.7367  132.6951  155.6213 C   0  0  0  0  0  0  0  0  0  0  0  0
  129.7846  131.9529  154.4561 C   0  0  0  0  0  0  0  0  0  0  0  0
  130.3765  130.7029  154.4567 C   0  0  0  0  0  0  0  0  0  0  0  0
  130.9234  130.1981  155.6209 C   0  0  0  0  0  0  0  0  0  0  0  0
  130.8801  130.9425  156.7848 C   0  0  0  0  0  0  0  0  0  0  0  0
  131.6678  133.2827  158.5364 C   0  0  0  0  0  0  0  0  0  0  0  0
  131.6118  134.1741  159.7811 C   0  0  0  0  0  0  0  0  0  0  0  0
  131.7076  135.5544  165.2495 H   0  0  0  0  0  0  0  0  0  0  0  0
  132.5884  136.6705  166.4650 H   0  0  0  0  0  0  0  0  0  0  0  0
  133.8989  137.5764  164.6834 H   0  0  0  0  0  0  0  0  0  0  0  0
  132.1824  135.5577  163.0583 H   0  0  0  0  0  0  0  0  0  0  0  0
  133.8925  135.8941  162.6961 H   0  0  0  0  0  0  0  0  0  0  0  0
  133.3205  138.2521  162.1848 H   0  0  0  0  0  0  0  0  0  0  0  0
  131.6104  137.9157  162.5468 H   0  0  0  0  0  0  0  0  0  0  0  0
  132.2870  137.8477  158.9099 H   0  0  0  0  0  0  0  0  0  0  0  0
  130.1969  137.0871  160.5198 H   0  0  0  0  0  0  0  0  0  0  0  0
  130.7699  135.7343  161.5246 H   0  0  0  0  0  0  0  0  0  0  0  0
  129.0528  136.1330  158.8677 H   0  0  0  0  0  0  0  0  0  0  0  0
  129.0428  134.6541  159.8571 H   0  0  0  0  0  0  0  0  0  0  0  0
  130.0465  134.8643  156.9820 H   0  0  0  0  0  0  0  0  0  0  0  0
  128.5004  134.1440  157.4919 H   0  0  0  0  0  0  0  0  0  0  0  0
  127.6813  132.9925  158.6443 H   0  0  0  0  0  0  0  0  0  0  0  0
  126.6780  131.0101  159.7872 H   0  0  0  0  0  0  0  0  0  0  0  0
  128.1248  131.0196  160.8238 H   0  0  0  0  0  0  0  0  0  0  0  0
  124.9688  132.6773  160.0644 H   0  0  0  0  0  0  0  0  0  0  0  0
  123.8339  134.2491  161.5741 H   0  0  0  0  0  0  0  0  0  0  0  0
  124.9471  135.0857  163.5728 H   0  0  0  0  0  0  0  0  0  0  0  0
  126.9520  135.1311  165.0328 H   0  0  0  0  0  0  0  0  0  0  0  0
  129.2187  134.3703  165.4962 H   0  0  0  0  0  0  0  0  0  0  0  0
  130.3542  132.7990  163.9860 H   0  0  0  0  0  0  0  0  0  0  0  0
  129.2410  131.9623  161.9877 H   0  0  0  0  0  0  0  0  0  0  0  0
  129.2711  133.6696  155.6220 H   0  0  0  0  0  0  0  0  0  0  0  0
  129.3564  132.3474  153.5465 H   0  0  0  0  0  0  0  0  0  0  0  0
  130.4092  130.1214  153.5472 H   0  0  0  0  0  0  0  0  0  0  0  0
  131.3849  129.2216  155.6212 H   0  0  0  0  0  0  0  0  0  0  0  0
  131.3079  130.5478  157.6945 H   0  0  0  0  0  0  0  0  0  0  0  0
  132.1596  132.3415  158.7822 H   0  0  0  0  0  0  0  0  0  0  0  0
  132.2256  133.7911  157.7499 H   0  0  0  0  0  0  0  0  0  0  0  0
  132.6251  134.3759  160.1283 H   0  0  0  0  0  0  0  0  0  0  0  0
  131.0540  133.6648  160.5669 H   0  0  0  0  0  0  0  0  0  0  0  0
  1  2  2  0
  1 36  1  0
  1 37  1  0
  2  3  1  0
  2 38  1  0
  3  4  1  0
  3 39  1  0
  3 40  1  0
  4  5  1  0
  4 41  1  0
  4 42  1  0
  5  6  1  6
  5  7  1  0
  5  8  1  0
  7 43  1  0
  8  9  1  0
  8 44  1  0
  8 45  1  0
  9 10  1  6
  9 35  1  0
  9 11  1  0
 11 12  1  0
 11 46  1  0
 11 47  1  0
 12 13  1  0
 12 48  1  0
 12 49  1  0
 13 14  1  1
 13 28  1  0
 13 34  1  0
 14 15  2  0
 14 16  1  0
 16 17  1  0
 16 50  1  0
 17 18  1  0
 17 51  1  0
 17 52  1  0
 18 27  1  0
 18 19  2  0
 19 20  1  0
 19 53  1  0
 20 21  2  0
 20 54  1  0
 21 22  1  0
 21 55  1  0
 22 27  2  0
 22 23  1  0
 23 24  2  0
 23 56  1  0
 24 25  1  0
 24 57  1  0
 25 26  2  0
 25 58  1  0
 26 27  1  0
 26 59  1  0
 28 33  1  0
 28 29  2  0
 29 30  1  0
 29 60  1  0
 30 31  2  0
 30 61  1  0
 31 32  1  0
 31 62  1  0
 32 33  2  0
 32 63  1  0
 33 64  1  0
 34 35  1  0
 34 65  1  0
 34 66  1  0
 35 67  1  0
 35 68  1  0
M  CHG  1   9   1
M  END
>  <DOCK_score>  (1) 
-56.49976

>  <SMILES>  (1) 
C=CCC[C@H](O)C[NH+]1CCC(C(=O)NCc2cccc3ccccc23)(c2ccccc2)CC1

$$$$
