Nc1ccc(-c2c[nH]c(N[C@@H](CC3=CCCCC3)C3=CCCC3)[nH+]2)cc1
     RDKit          3D

 55 58  0  0  1  0  0  0  0  0999 V2000
  131.2150  130.1554  152.3607 N   0  0  0  0  0  0  0  0  0  0  0  0
  130.9896  130.7989  153.5800 C   0  0  0  0  0  0  0  0  0  0  0  0
  130.6825  132.1548  153.6026 C   0  0  0  0  0  0  0  0  0  0  0  0
  130.4592  132.7920  154.8049 C   0  0  0  0  0  0  0  0  0  0  0  0
  130.5420  132.0759  155.9980 C   0  0  0  0  0  0  0  0  0  0  0  0
  130.3026  132.7592  157.2928 C   0  0  0  0  0  0  0  0  0  0  0  0
  129.7942  132.1897  158.4135 C   0  0  0  0  0  0  0  0  0  0  0  0
  129.7415  133.1739  159.3720 N   0  0  0  0  0  0  0  0  0  0  0  0
  129.4223  133.0728  160.2824 H   0  0  0  0  0  0  0  0  0  0  0  0
  130.2196  134.3160  158.8075 C   0  0  0  0  0  0  0  0  0  0  0  0
  130.3348  135.5415  159.4410 N   0  0  0  0  0  0  0  0  0  0  0  0
  129.4002  135.9048  160.5090 C   0  0  1  0  0  0  0  0  0  0  0  0
  129.7997  135.5764  161.4685 H   0  0  0  0  0  0  0  0  0  0  0  0
  129.2122  137.4231  160.5276 C   0  0  0  0  0  0  0  0  0  0  0  0
  130.5406  138.0908  160.7740 C   0  0  0  0  0  0  0  0  0  0  0  0
  131.2658  138.3970  159.7463 C   0  0  0  0  0  0  0  0  0  0  0  0
  132.6120  139.0546  159.8332 C   0  0  0  0  0  0  0  0  0  0  0  0
  132.8045  139.6806  161.2162 C   0  0  0  0  0  0  0  0  0  0  0  0
  132.4435  138.6335  162.2774 C   0  0  0  0  0  0  0  0  0  0  0  0
  130.9378  138.3647  162.1949 C   0  0  0  0  0  0  0  0  0  0  0  0
  128.0718  135.2372  160.2627 C   0  0  0  0  0  0  0  0  0  0  0  0
  127.5038  134.3976  161.0850 C   0  0  0  0  0  0  0  0  0  0  0  0
  126.1808  133.9126  160.5394 C   0  0  0  0  0  0  0  0  0  0  0  0
  126.2179  134.2765  159.0370 C   0  0  0  0  0  0  0  0  0  0  0  0
  127.2195  135.4569  159.0346 C   0  0  0  0  0  0  0  0  0  0  0  0
  130.5537  134.0642  157.5652 N   0  0  0  0  0  0  0  0  0  0  0  0
  130.9216  134.7083  156.9403 H   0  0  0  0  0  0  0  0  0  0  0  0
  130.8558  130.7178  155.9730 C   0  0  0  0  0  0  0  0  0  0  0  0
  131.0732  130.0836  154.7681 C   0  0  0  0  0  0  0  0  0  0  0  0
  131.1573  130.6550  151.5307 H   0  0  0  0  0  0  0  0  0  0  0  0
  131.4302  129.2101  152.3437 H   0  0  0  0  0  0  0  0  0  0  0  0
  130.6188  132.7093  152.6780 H   0  0  0  0  0  0  0  0  0  0  0  0
  130.2198  133.8449  154.8222 H   0  0  0  0  0  0  0  0  0  0  0  0
  129.4931  131.1593  158.5319 H   0  0  0  0  0  0  0  0  0  0  0  0
  131.0344  136.1598  159.1775 H   0  0  0  0  0  0  0  0  0  0  0  0
  128.8130  137.7516  159.5680 H   0  0  0  0  0  0  0  0  0  0  0  0
  128.5169  137.6935  161.3222 H   0  0  0  0  0  0  0  0  0  0  0  0
  130.8778  138.1652  158.7655 H   0  0  0  0  0  0  0  0  0  0  0  0
  133.3896  138.3100  159.6622 H   0  0  0  0  0  0  0  0  0  0  0  0
  132.6845  139.8312  159.0718 H   0  0  0  0  0  0  0  0  0  0  0  0
  133.8441  139.9840  161.3396 H   0  0  0  0  0  0  0  0  0  0  0  0
  132.1519  140.5475  161.3200 H   0  0  0  0  0  0  0  0  0  0  0  0
  132.9947  137.7128  162.0860 H   0  0  0  0  0  0  0  0  0  0  0  0
  132.6964  139.0128  163.2674 H   0  0  0  0  0  0  0  0  0  0  0  0
  130.3916  139.2338  162.5617 H   0  0  0  0  0  0  0  0  0  0  0  0
  130.6927  137.4999  162.8117 H   0  0  0  0  0  0  0  0  0  0  0  0
  127.9243  134.0895  162.0308 H   0  0  0  0  0  0  0  0  0  0  0  0
  126.0899  132.8340  160.6668 H   0  0  0  0  0  0  0  0  0  0  0  0
  125.3554  134.4250  161.0340 H   0  0  0  0  0  0  0  0  0  0  0  0
  126.5889  133.4424  158.4416 H   0  0  0  0  0  0  0  0  0  0  0  0
  125.2368  134.5985  158.6880 H   0  0  0  0  0  0  0  0  0  0  0  0
  126.6903  136.4073  159.1046 H   0  0  0  0  0  0  0  0  0  0  0  0
  127.8348  135.4292  158.1354 H   0  0  0  0  0  0  0  0  0  0  0  0
  130.9249  130.1620  156.8965 H   0  0  0  0  0  0  0  0  0  0  0  0
  131.3126  129.0306  154.7480 H   0  0  0  0  0  0  0  0  0  0  0  0
  1  2  1  0
  1 30  1  0
  1 31  1  0
  2 29  2  0
  2  3  1  0
  3  4  2  0
  3 32  1  0
  4  5  1  0
  4 33  1  0
  5  6  1  0
  5 28  2  0
  6 26  1  0
  6  7  2  0
  7  8  1  0
  7 34  1  0
  8  9  1  0
  8 10  1  0
 10 11  1  0
 10 26  2  0
 11 12  1  0
 11 35  1  0
 12 13  1  1
 12 14  1  0
 12 21  1  0
 14 15  1  0
 14 36  1  0
 14 37  1  0
 15 20  1  0
 15 16  2  0
 16 17  1  0
 16 38  1  0
 17 18  1  0
 17 39  1  0
 17 40  1  0
 18 19  1  0
 18 41  1  0
 18 42  1  0
 19 20  1  0
 19 43  1  0
 19 44  1  0
 20 45  1  0
 20 46  1  0
 21 25  1  0
 21 22  2  0
 22 23  1  0
 22 47  1  0
 23 24  1  0
 23 48  1  0
 23 49  1  0
 24 25  1  0
 24 50  1  0
 24 51  1  0
 25 52  1  0
 25 53  1  0
 26 27  1  0
 28 29  1  0
 28 54  1  0
 29 55  1  0
M  CHG  1  26   1
M  END
>  <DOCK_score>  (1) 
-55.957073

>  <SMILES>  (1) 
Nc1ccc(-c2c[nH]c(N[C@@H](CC3=CCCCC3)C3=CCCC3)[nH+]2)cc1

$$$$
