O=C1CC[C@H](NC(N[C@H]2C=CCC2)=[NH+]Cc2ccc(F)cc2F)CN1
     RDKit          3D

 48 50  0  0  1  0  0  0  0  0999 V2000
  123.6707  133.6718  161.5347 O   0  0  0  0  0  0  0  0  0  0  0  0
  124.8607  133.8676  161.4076 C   0  0  0  0  0  0  0  0  0  0  0  0
  125.7215  132.7317  160.9342 C   0  0  0  0  0  0  0  0  0  0  0  0
  127.1901  133.0236  161.2519 C   0  0  0  0  0  0  0  0  0  0  0  0
  127.5172  134.4426  160.7712 C   0  0  2  0  0  0  0  0  0  0  0  0
  127.2218  134.5524  159.7278 H   0  0  0  0  0  0  0  0  0  0  0  0
  128.9556  134.6869  160.9033 N   0  0  0  0  0  0  0  0  0  0  0  0
  129.8021  134.3882  159.8618 C   0  0  0  0  0  0  0  0  0  0  0  0
  131.1518  134.6174  159.9857 N   0  0  0  0  0  0  0  0  0  0  0  0
  131.6348  135.7064  160.8384 C   0  0  1  0  0  0  0  0  0  0  0  0
  131.3091  135.5568  161.8678 H   0  0  0  0  0  0  0  0  0  0  0  0
  133.1415  135.7991  160.7713 C   0  0  0  0  0  0  0  0  0  0  0  0
  133.5308  137.0382  160.6422 C   0  0  0  0  0  0  0  0  0  0  0  0
  132.3489  137.9786  160.6018 C   0  0  0  0  0  0  0  0  0  0  0  0
  131.1331  137.0693  160.3074 C   0  0  0  0  0  0  0  0  0  0  0  0
  129.3246  133.8876  158.7570 N   0  0  0  0  0  0  0  0  0  0  0  0
  128.5277  133.3350  158.7796 H   0  0  0  0  0  0  0  0  0  0  0  0
  129.9915  134.1597  157.4814 C   0  0  0  0  0  0  0  0  0  0  0  0
  130.4318  132.8604  156.8577 C   0  0  0  0  0  0  0  0  0  0  0  0
  130.2172  132.6327  155.5113 C   0  0  0  0  0  0  0  0  0  0  0  0
  130.6205  131.4417  154.9380 C   0  0  0  0  0  0  0  0  0  0  0  0
  131.2402  130.4750  155.7119 C   0  0  0  0  0  0  0  0  0  0  0  0
  131.6342  129.3106  155.1514 F   0  0  0  0  0  0  0  0  0  0  0  0
  131.4566  130.7022  157.0600 C   0  0  0  0  0  0  0  0  0  0  0  0
  131.0564  131.8977  157.6322 C   0  0  0  0  0  0  0  0  0  0  0  0
  131.2707  132.1227  158.9470 F   0  0  0  0  0  0  0  0  0  0  0  0
  126.7456  135.4444  161.6310 C   0  0  0  0  0  0  0  0  0  0  0  0
  125.3351  135.0800  161.6961 N   0  0  0  0  0  0  0  0  0  0  0  0
  125.6010  132.6103  159.8577 H   0  0  0  0  0  0  0  0  0  0  0  0
  125.4179  131.8134  161.4370 H   0  0  0  0  0  0  0  0  0  0  0  0
  127.8270  132.3053  160.7356 H   0  0  0  0  0  0  0  0  0  0  0  0
  127.3540  132.9535  162.3273 H   0  0  0  0  0  0  0  0  0  0  0  0
  129.3109  135.0593  161.7254 H   0  0  0  0  0  0  0  0  0  0  0  0
  131.7847  134.0581  159.5085 H   0  0  0  0  0  0  0  0  0  0  0  0
  133.8085  134.9514  160.8234 H   0  0  0  0  0  0  0  0  0  0  0  0
  134.5625  137.3504  160.5738 H   0  0  0  0  0  0  0  0  0  0  0  0
  132.4750  138.7131  159.8065 H   0  0  0  0  0  0  0  0  0  0  0  0
  132.2256  138.4779  161.5629 H   0  0  0  0  0  0  0  0  0  0  0  0
  130.2528  137.4033  160.8566 H   0  0  0  0  0  0  0  0  0  0  0  0
  130.9301  137.0218  159.2375 H   0  0  0  0  0  0  0  0  0  0  0  0
  129.2993  134.6685  156.8106 H   0  0  0  0  0  0  0  0  0  0  0  0
  130.8617  134.7931  157.6541 H   0  0  0  0  0  0  0  0  0  0  0  0
  129.7336  133.3858  154.9070 H   0  0  0  0  0  0  0  0  0  0  0  0
  130.4515  131.2645  153.8861 H   0  0  0  0  0  0  0  0  0  0  0  0
  131.9400  129.9489  157.6643 H   0  0  0  0  0  0  0  0  0  0  0  0
  127.1610  135.4495  162.6387 H   0  0  0  0  0  0  0  0  0  0  0  0
  126.8437  136.4404  161.1993 H   0  0  0  0  0  0  0  0  0  0  0  0
  124.7017  135.7641  161.9640 H   0  0  0  0  0  0  0  0  0  0  0  0
  1  2  2  0
  2 28  1  0
  2  3  1  0
  3  4  1  0
  3 29  1  0
  3 30  1  0
  4  5  1  0
  4 31  1  0
  4 32  1  0
  5  6  1  6
  5  7  1  0
  5 27  1  0
  7 33  1  0
  8  7  1  0
  8  9  1  0
  8 16  2  0
  9 10  1  0
  9 34  1  0
 10 11  1  1
 10 15  1  0
 10 12  1  0
 12 13  2  0
 12 35  1  0
 13 14  1  0
 13 36  1  0
 14 15  1  0
 14 37  1  0
 14 38  1  0
 15 39  1  0
 15 40  1  0
 16 17  1  0
 16 18  1  0
 18 19  1  0
 18 41  1  0
 18 42  1  0
 19 25  1  0
 19 20  2  0
 20 21  1  0
 20 43  1  0
 21 22  2  0
 21 44  1  0
 22 23  1  0
 22 24  1  0
 24 25  2  0
 24 45  1  0
 25 26  1  0
 27 28  1  0
 27 46  1  0
 27 47  1  0
 28 48  1  0
M  CHG  1  16   1
M  END
>  <DOCK_score>  (1) 
-46.345303

>  <SMILES>  (1) 
O=C1CC[C@H](NC(N[C@H]2C=CCC2)=[NH+]Cc2ccc(F)cc2F)CN1

$$$$
