Oc1c(CCc2ccccn2)cccc1N1CC[NH+](C(c2ccccc2)c2ccccc2)CC1
     RDKit          3D

 66 70  0  0  0  0  0  0  0  0999 V2000
  133.7634  139.3430  162.8896 O   0  0  0  0  0  0  0  0  0  0  0  0
  134.1028  139.7538  161.6383 C   0  0  0  0  0  0  0  0  0  0  0  0
  134.9741  140.8171  161.4691 C   0  0  0  0  0  0  0  0  0  0  0  0
  135.5476  141.5198  162.6725 C   0  0  0  0  0  0  0  0  0  0  0  0
  136.8576  140.8436  163.0817 C   0  0  0  0  0  0  0  0  0  0  0  0
  136.5927  139.3996  163.4221 C   0  0  0  0  0  0  0  0  0  0  0  0
  136.2739  139.0514  164.7212 C   0  0  0  0  0  0  0  0  0  0  0  0
  136.0320  137.7203  165.0238 C   0  0  0  0  0  0  0  0  0  0  0  0
  136.1205  136.7851  164.0036 C   0  0  0  0  0  0  0  0  0  0  0  0
  136.4448  137.2078  162.7288 C   0  0  0  0  0  0  0  0  0  0  0  0
  136.6684  138.4830  162.4774 N   0  0  0  0  0  0  0  0  0  0  0  0
  135.3133  141.2377  160.1963 C   0  0  0  0  0  0  0  0  0  0  0  0
  134.7938  140.5923  159.0895 C   0  0  0  0  0  0  0  0  0  0  0  0
  133.9236  139.5303  159.2496 C   0  0  0  0  0  0  0  0  0  0  0  0
  133.5743  139.1065  160.5236 C   0  0  0  0  0  0  0  0  0  0  0  0
  132.6938  138.0311  160.6884 N   0  0  0  0  0  0  0  0  0  0  0  0
  133.2693  136.7914  160.1481 C   0  0  0  0  0  0  0  0  0  0  0  0
  132.3036  135.6316  160.4009 C   0  0  0  0  0  0  0  0  0  0  0  0
  131.0159  135.9166  159.7541 N   0  0  0  0  0  0  0  0  0  0  0  0
  131.1576  136.0389  158.7626 H   0  0  0  0  0  0  0  0  0  0  0  0
  130.0952  134.7949  159.9819 C   0  0  0  0  0  0  0  0  0  0  0  0
  128.7740  135.0870  159.3184 C   0  0  0  0  0  0  0  0  0  0  0  0
  127.6061  134.5673  159.8448 C   0  0  0  0  0  0  0  0  0  0  0  0
  126.3939  134.8394  159.2390 C   0  0  0  0  0  0  0  0  0  0  0  0
  126.3499  135.6223  158.1013 C   0  0  0  0  0  0  0  0  0  0  0  0
  127.5186  136.1378  157.5713 C   0  0  0  0  0  0  0  0  0  0  0  0
  128.7304  135.8702  158.1802 C   0  0  0  0  0  0  0  0  0  0  0  0
  130.6829  133.5360  159.3981 C   0  0  0  0  0  0  0  0  0  0  0  0
  130.4078  133.1872  158.0891 C   0  0  0  0  0  0  0  0  0  0  0  0
  130.9509  132.0349  157.5521 C   0  0  0  0  0  0  0  0  0  0  0  0
  131.7606  131.2259  158.3275 C   0  0  0  0  0  0  0  0  0  0  0  0
  132.0313  131.5721  159.6380 C   0  0  0  0  0  0  0  0  0  0  0  0
  131.4925  132.7271  160.1734 C   0  0  0  0  0  0  0  0  0  0  0  0
  130.4420  137.1438  160.3215 C   0  0  0  0  0  0  0  0  0  0  0  0
  131.3923  138.3161  160.0680 C   0  0  0  0  0  0  0  0  0  0  0  0
  133.1503  138.5954  162.9056 H   0  0  0  0  0  0  0  0  0  0  0  0
  134.8374  141.4656  163.4977 H   0  0  0  0  0  0  0  0  0  0  0  0
  135.7393  142.5641  162.4264 H   0  0  0  0  0  0  0  0  0  0  0  0
  137.2725  141.3519  163.9521 H   0  0  0  0  0  0  0  0  0  0  0  0
  137.5677  140.8980  162.2565 H   0  0  0  0  0  0  0  0  0  0  0  0
  136.2141  139.8066  165.4910 H   0  0  0  0  0  0  0  0  0  0  0  0
  135.7850  137.4182  166.0308 H   0  0  0  0  0  0  0  0  0  0  0  0
  135.9388  135.7393  164.2034 H   0  0  0  0  0  0  0  0  0  0  0  0
  136.5164  136.4855  161.9290 H   0  0  0  0  0  0  0  0  0  0  0  0
  135.9894  142.0698  160.0664 H   0  0  0  0  0  0  0  0  0  0  0  0
  135.0652  140.9214  158.0972 H   0  0  0  0  0  0  0  0  0  0  0  0
  133.5162  139.0304  158.3833 H   0  0  0  0  0  0  0  0  0  0  0  0
  133.4312  136.9027  159.0759 H   0  0  0  0  0  0  0  0  0  0  0  0
  134.2201  136.5870  160.6405 H   0  0  0  0  0  0  0  0  0  0  0  0
  132.1526  135.5119  161.4737 H   0  0  0  0  0  0  0  0  0  0  0  0
  132.7222  134.7138  159.9883 H   0  0  0  0  0  0  0  0  0  0  0  0
  129.9423  134.6619  161.0529 H   0  0  0  0  0  0  0  0  0  0  0  0
  127.6407  133.9518  160.7317 H   0  0  0  0  0  0  0  0  0  0  0  0
  125.4811  134.4362  159.6525 H   0  0  0  0  0  0  0  0  0  0  0  0
  125.4035  135.8313  157.6249 H   0  0  0  0  0  0  0  0  0  0  0  0
  127.4846  136.7494  156.6817 H   0  0  0  0  0  0  0  0  0  0  0  0
  129.6432  136.2726  157.7662 H   0  0  0  0  0  0  0  0  0  0  0  0
  129.7717  133.8168  157.4847 H   0  0  0  0  0  0  0  0  0  0  0  0
  130.7391  131.7643  156.5283 H   0  0  0  0  0  0  0  0  0  0  0  0
  132.1812  130.3235  157.9093 H   0  0  0  0  0  0  0  0  0  0  0  0
  132.6636  130.9399  160.2439 H   0  0  0  0  0  0  0  0  0  0  0  0
  131.7037  132.9972  161.1974 H   0  0  0  0  0  0  0  0  0  0  0  0
  130.3006  137.0163  161.3948 H   0  0  0  0  0  0  0  0  0  0  0  0
  129.4805  137.3470  159.8500 H   0  0  0  0  0  0  0  0  0  0  0  0
  130.9736  139.2241  160.5020 H   0  0  0  0  0  0  0  0  0  0  0  0
  131.5232  138.4526  158.9946 H   0  0  0  0  0  0  0  0  0  0  0  0
  1  2  1  0
  1 36  1  0
  2 15  2  0
  2  3  1  0
  3  4  1  0
  3 12  2  0
  4  5  1  0
  4 37  1  0
  4 38  1  0
  5  6  1  0
  5 39  1  0
  5 40  1  0
  6 11  1  0
  6  7  2  0
  7  8  1  0
  7 41  1  0
  8  9  2  0
  8 42  1  0
  9 10  1  0
  9 43  1  0
 10 11  2  0
 10 44  1  0
 12 13  1  0
 12 45  1  0
 13 14  2  0
 13 46  1  0
 14 15  1  0
 14 47  1  0
 15 16  1  0
 16 35  1  0
 16 17  1  0
 17 18  1  0
 17 48  1  0
 17 49  1  0
 18 19  1  0
 18 50  1  0
 18 51  1  0
 19 20  1  0
 19 21  1  0
 19 34  1  0
 21 22  1  0
 21 28  1  0
 21 52  1  0
 22 27  1  0
 22 23  2  0
 23 24  1  0
 23 53  1  0
 24 25  2  0
 24 54  1  0
 25 26  1  0
 25 55  1  0
 26 27  2  0
 26 56  1  0
 27 57  1  0
 28 33  1  0
 28 29  2  0
 29 30  1  0
 29 58  1  0
 30 31  2  0
 30 59  1  0
 31 32  1  0
 31 60  1  0
 32 33  2  0
 32 61  1  0
 33 62  1  0
 34 35  1  0
 34 63  1  0
 34 64  1  0
 35 65  1  0
 35 66  1  0
M  CHG  1  19   1
M  END
>  <DOCK_score>  (1) 
-57.179409

>  <SMILES>  (1) 
Oc1c(CCc2ccccn2)cccc1N1CC[NH+](C(c2ccccc2)c2ccccc2)CC1

$$$$
