O=C(N[C@H]1COc2cc(F)ccc2C1)C(Cc1ccccn1)[NH2+]C1CC(F)(F)C1
     RDKit          3D

 52 55  0  0  1  0  0  0  0  0999 V2000
  130.6183  137.6814  160.5087 O   0  0  0  0  0  0  0  0  0  0  0  0
  130.8870  136.9263  161.4191 C   0  0  0  0  0  0  0  0  0  0  0  0
  130.2967  137.0827  162.6206 N   0  0  0  0  0  0  0  0  0  0  0  0
  129.3306  138.1645  162.8270 C   0  0  1  0  0  0  0  0  0  0  0  0
  129.5798  139.0074  162.1824 H   0  0  0  0  0  0  0  0  0  0  0  0
  127.9172  137.6643  162.5022 C   0  0  0  0  0  0  0  0  0  0  0  0
  127.0138  138.7650  162.6120 O   0  0  0  0  0  0  0  0  0  0  0  0
  127.0769  139.5287  163.7337 C   0  0  0  0  0  0  0  0  0  0  0  0
  126.0018  140.3595  164.0319 C   0  0  0  0  0  0  0  0  0  0  0  0
  126.0310  141.1559  165.1608 C   0  0  0  0  0  0  0  0  0  0  0  0
  124.9856  141.9622  165.4471 F   0  0  0  0  0  0  0  0  0  0  0  0
  127.1341  141.1268  165.9981 C   0  0  0  0  0  0  0  0  0  0  0  0
  128.2009  140.3010  165.7045 C   0  0  0  0  0  0  0  0  0  0  0  0
  128.1761  139.5004  164.5743 C   0  0  0  0  0  0  0  0  0  0  0  0
  129.3585  138.6089  164.2915 C   0  0  0  0  0  0  0  0  0  0  0  0
  131.8809  135.8135  161.2069 C   0  0  2  0  0  0  0  0  0  0  0  0
  133.2865  136.3136  161.5463 C   0  0  0  0  0  0  0  0  0  0  0  0
  133.6355  137.4760  160.6530 C   0  0  0  0  0  0  0  0  0  0  0  0
  133.3338  138.7630  161.0573 C   0  0  0  0  0  0  0  0  0  0  0  0
  133.6594  139.8253  160.2283 C   0  0  0  0  0  0  0  0  0  0  0  0
  134.2791  139.5523  159.0182 C   0  0  0  0  0  0  0  0  0  0  0  0
  134.5496  138.2398  158.6812 C   0  0  0  0  0  0  0  0  0  0  0  0
  134.2300  137.2541  159.4972 N   0  0  0  0  0  0  0  0  0  0  0  0
  131.8404  135.3820  159.8033 N   0  0  0  0  0  0  0  0  0  0  0  0
  131.7450  136.1894  159.2057 H   0  0  0  0  0  0  0  0  0  0  0  0
  132.6944  134.8947  159.5766 H   0  0  0  0  0  0  0  0  0  0  0  0
  130.6956  134.4843  159.5999 C   0  0  0  0  0  0  0  0  0  0  0  0
  130.9742  133.0282  160.0087 C   0  0  0  0  0  0  0  0  0  0  0  0
  130.1823  132.6097  158.7565 C   0  0  0  0  0  0  0  0  0  0  0  0
  128.8104  132.4616  158.9867 F   0  0  0  0  0  0  0  0  0  0  0  0
  130.7409  131.5221  158.0764 F   0  0  0  0  0  0  0  0  0  0  0  0
  130.5625  133.9732  158.1557 C   0  0  0  0  0  0  0  0  0  0  0  0
  130.5115  136.4788  163.3488 H   0  0  0  0  0  0  0  0  0  0  0  0
  127.8921  137.2685  161.4868 H   0  0  0  0  0  0  0  0  0  0  0  0
  127.6326  136.8840  163.2080 H   0  0  0  0  0  0  0  0  0  0  0  0
  125.1418  140.3823  163.3790 H   0  0  0  0  0  0  0  0  0  0  0  0
  127.1599  141.7498  166.8799 H   0  0  0  0  0  0  0  0  0  0  0  0
  129.0575  140.2758  166.3619 H   0  0  0  0  0  0  0  0  0  0  0  0
  130.2805  139.1564  164.4867 H   0  0  0  0  0  0  0  0  0  0  0  0
  129.3144  137.7319  164.9374 H   0  0  0  0  0  0  0  0  0  0  0  0
  131.6284  134.9728  161.8530 H   0  0  0  0  0  0  0  0  0  0  0  0
  133.3167  136.6338  162.5878 H   0  0  0  0  0  0  0  0  0  0  0  0
  134.0054  135.5087  161.3928 H   0  0  0  0  0  0  0  0  0  0  0  0
  132.8508  138.9386  162.0071 H   0  0  0  0  0  0  0  0  0  0  0  0
  133.4354  140.8414  160.5180 H   0  0  0  0  0  0  0  0  0  0  0  0
  134.5466  140.3554  158.3474 H   0  0  0  0  0  0  0  0  0  0  0  0
  135.0319  138.0188  157.7405 H   0  0  0  0  0  0  0  0  0  0  0  0
  129.7673  134.8827  160.0094 H   0  0  0  0  0  0  0  0  0  0  0  0
  132.0294  132.7577  159.9687 H   0  0  0  0  0  0  0  0  0  0  0  0
  130.4973  132.7387  160.9451 H   0  0  0  0  0  0  0  0  0  0  0  0
  129.7536  134.4455  157.5981 H   0  0  0  0  0  0  0  0  0  0  0  0
  131.5046  133.9629  157.6075 H   0  0  0  0  0  0  0  0  0  0  0  0
  1  2  2  0
  2  3  1  0
  2 16  1  0
  3  4  1  0
  3 33  1  0
  4  5  1  6
  4 15  1  0
  4  6  1  0
  6  7  1  0
  6 34  1  0
  6 35  1  0
  7  8  1  0
  8 14  2  0
  8  9  1  0
  9 10  2  0
  9 36  1  0
 10 11  1  0
 10 12  1  0
 12 13  2  0
 12 37  1  0
 13 14  1  0
 13 38  1  0
 14 15  1  0
 15 39  1  0
 15 40  1  0
 16 17  1  0
 16 24  1  0
 16 41  1  1
 17 18  1  0
 17 42  1  0
 17 43  1  0
 18 23  1  0
 18 19  2  0
 19 20  1  0
 19 44  1  0
 20 21  2  0
 20 45  1  0
 21 22  1  0
 21 46  1  0
 22 23  2  0
 22 47  1  0
 24 25  1  0
 24 26  1  0
 24 27  1  0
 27 32  1  0
 27 28  1  0
 27 48  1  0
 28 29  1  0
 28 49  1  0
 28 50  1  0
 29 30  1  0
 29 31  1  0
 29 32  1  0
 32 51  1  0
 32 52  1  0
M  CHG  1  24   1
M  END
>  <DOCK_score>  (1) 
-41.332081

>  <SMILES>  (1) 
O=C(N[C@H]1COc2cc(F)ccc2C1)C(Cc1ccccn1)[NH2+]C1CC(F)(F)C1

$$$$
