CCc1ccc(-c2c[nH]c(N[C@@H](c3cccc(F)c3)c3cccc(-c4ccsc4)c3)[nH+]2)cc1
     RDKit          3D

 58 62  0  0  1  0  0  0  0  0999 V2000
  130.0541  128.5423  151.3740 C   0  0  0  0  0  0  0  0  0  0  0  0
  131.2317  129.4592  151.7107 C   0  0  0  0  0  0  0  0  0  0  0  0
  130.9070  130.2617  152.9442 C   0  0  0  0  0  0  0  0  0  0  0  0
  131.2342  129.7671  154.1935 C   0  0  0  0  0  0  0  0  0  0  0  0
  130.9444  130.5001  155.3264 C   0  0  0  0  0  0  0  0  0  0  0  0
  130.3105  131.7358  155.2104 C   0  0  0  0  0  0  0  0  0  0  0  0
  129.9914  132.5258  156.4247 C   0  0  0  0  0  0  0  0  0  0  0  0
  129.1989  132.1275  157.4505 C   0  0  0  0  0  0  0  0  0  0  0  0
  129.1755  133.1573  158.3593 N   0  0  0  0  0  0  0  0  0  0  0  0
  128.6922  133.1706  159.2002 H   0  0  0  0  0  0  0  0  0  0  0  0
  129.9552  134.1557  157.8619 C   0  0  0  0  0  0  0  0  0  0  0  0
  130.1954  135.3731  158.4757 N   0  0  0  0  0  0  0  0  0  0  0  0
  129.5860  135.6716  159.7741 C   0  0  1  0  0  0  0  0  0  0  0  0
  128.5004  135.6320  159.6835 H   0  0  0  0  0  0  0  0  0  0  0  0
  130.0431  134.6558  160.7890 C   0  0  0  0  0  0  0  0  0  0  0  0
  131.2881  134.0673  160.6653 C   0  0  0  0  0  0  0  0  0  0  0  0
  131.7089  133.1358  161.5958 C   0  0  0  0  0  0  0  0  0  0  0  0
  130.8853  132.7916  162.6511 C   0  0  0  0  0  0  0  0  0  0  0  0
  129.6383  133.3799  162.7757 C   0  0  0  0  0  0  0  0  0  0  0  0
  128.8323  133.0439  163.8065 F   0  0  0  0  0  0  0  0  0  0  0  0
  129.2201  134.3172  161.8461 C   0  0  0  0  0  0  0  0  0  0  0  0
  130.0028  137.0496  160.2196 C   0  0  0  0  0  0  0  0  0  0  0  0
  129.0446  138.0222  160.4436 C   0  0  0  0  0  0  0  0  0  0  0  0
  129.4200  139.2889  160.8525 C   0  0  0  0  0  0  0  0  0  0  0  0
  130.7541  139.5894  161.0400 C   0  0  0  0  0  0  0  0  0  0  0  0
  131.7234  138.6137  160.8163 C   0  0  0  0  0  0  0  0  0  0  0  0
  133.1590  138.9306  161.0165 C   0  0  0  0  0  0  0  0  0  0  0  0
  133.6020  139.8660  161.9500 C   0  0  0  0  0  0  0  0  0  0  0  0
  134.9218  140.0274  161.9988 C   0  0  0  0  0  0  0  0  0  0  0  0
  135.6986  138.9701  160.8285 S   0  0  0  0  0  0  0  0  0  0  0  0
  134.1412  138.3344  160.3160 C   0  0  0  0  0  0  0  0  0  0  0  0
  131.3390  137.3374  160.4089 C   0  0  0  0  0  0  0  0  0  0  0  0
  130.4456  133.7723  156.7084 N   0  0  0  0  0  0  0  0  0  0  0  0
  131.0369  134.2970  156.1463 H   0  0  0  0  0  0  0  0  0  0  0  0
  129.9779  132.2270  153.9491 C   0  0  0  0  0  0  0  0  0  0  0  0
  130.2776  131.4880  152.8227 C   0  0  0  0  0  0  0  0  0  0  0  0
  129.1644  129.1450  151.1918 H   0  0  0  0  0  0  0  0  0  0  0  0
  130.2889  127.9620  150.4817 H   0  0  0  0  0  0  0  0  0  0  0  0
  129.8703  127.8663  152.2091 H   0  0  0  0  0  0  0  0  0  0  0  0
  132.1212  128.8571  151.8923 H   0  0  0  0  0  0  0  0  0  0  0  0
  131.4153  130.1358  150.8751 H   0  0  0  0  0  0  0  0  0  0  0  0
  131.7211  128.8072  154.2825 H   0  0  0  0  0  0  0  0  0  0  0  0
  131.2045  130.1149  156.3013 H   0  0  0  0  0  0  0  0  0  0  0  0
  128.6843  131.1818  157.5363 H   0  0  0  0  0  0  0  0  0  0  0  0
  130.7673  136.0284  158.0461 H   0  0  0  0  0  0  0  0  0  0  0  0
  131.9324  134.3359  159.8413 H   0  0  0  0  0  0  0  0  0  0  0  0
  132.6817  132.6770  161.4984 H   0  0  0  0  0  0  0  0  0  0  0  0
  131.2145  132.0642  163.3784 H   0  0  0  0  0  0  0  0  0  0  0  0
  128.2496  134.7805  161.9450 H   0  0  0  0  0  0  0  0  0  0  0  0
  127.9997  137.7914  160.2982 H   0  0  0  0  0  0  0  0  0  0  0  0
  128.6680  140.0444  161.0259 H   0  0  0  0  0  0  0  0  0  0  0  0
  131.0463  140.5791  161.3589 H   0  0  0  0  0  0  0  0  0  0  0  0
  132.9252  140.4183  162.5852 H   0  0  0  0  0  0  0  0  0  0  0  0
  135.4392  140.7072  162.6595 H   0  0  0  0  0  0  0  0  0  0  0  0
  133.9952  137.5827  159.5543 H   0  0  0  0  0  0  0  0  0  0  0  0
  132.0859  136.5763  160.2377 H   0  0  0  0  0  0  0  0  0  0  0  0
  129.4864  133.1839  153.8534 H   0  0  0  0  0  0  0  0  0  0  0  0
  130.0208  131.8678  151.8449 H   0  0  0  0  0  0  0  0  0  0  0  0
  1  2  1  0
  1 37  1  0
  1 38  1  0
  1 39  1  0
  2  3  1  0
  2 40  1  0
  2 41  1  0
  3 36  2  0
  3  4  1  0
  4  5  2  0
  4 42  1  0
  5  6  1  0
  5 43  1  0
  6  7  1  0
  6 35  2  0
  7 33  1  0
  7  8  2  0
  8  9  1  0
  8 44  1  0
  9 10  1  0
  9 11  1  0
 11 12  1  0
 11 33  2  0
 12 13  1  0
 12 45  1  0
 13 14  1  6
 13 15  1  0
 13 22  1  0
 15 21  1  0
 15 16  2  0
 16 17  1  0
 16 46  1  0
 17 18  2  0
 17 47  1  0
 18 19  1  0
 18 48  1  0
 19 20  1  0
 19 21  2  0
 21 49  1  0
 22 32  1  0
 22 23  2  0
 23 24  1  0
 23 50  1  0
 24 25  2  0
 24 51  1  0
 25 26  1  0
 25 52  1  0
 26 27  1  0
 26 32  2  0
 27 31  2  0
 27 28  1  0
 28 29  2  0
 28 53  1  0
 29 30  1  0
 29 54  1  0
 30 31  1  0
 31 55  1  0
 32 56  1  0
 33 34  1  0
 35 36  1  0
 35 57  1  0
 36 58  1  0
M  CHG  1  33   1
M  END
>  <DOCK_score>  (1) 
-62.895477

>  <SMILES>  (1) 
CCc1ccc(-c2c[nH]c(N[C@@H](c3cccc(F)c3)c3cccc(-c4ccsc4)c3)[nH+]2)cc1

$$$$
