O=C1CC[C@H](NC(NC2CC(Cl)(Cl)C2)=[NH+][C@H]2COc3ccccc3C2)CN1
     RDKit          3D

 52 55  0  0  1  0  0  0  0  0999 V2000
  123.6775  133.6861  161.6798 O   0  0  0  0  0  0  0  0  0  0  0  0
  124.8203  133.9682  161.3874 C   0  0  0  0  0  0  0  0  0  0  0  0
  125.7510  132.8544  161.0024 C   0  0  0  0  0  0  0  0  0  0  0  0
  127.2026  133.3300  161.0941 C   0  0  0  0  0  0  0  0  0  0  0  0
  127.3198  134.6738  160.3646 C   0  0  2  0  0  0  0  0  0  0  0  0
  126.9112  134.5804  159.3584 H   0  0  0  0  0  0  0  0  0  0  0  0
  128.7280  135.0705  160.2884 N   0  0  0  0  0  0  0  0  0  0  0  0
  129.4940  134.6839  159.2142 C   0  0  0  0  0  0  0  0  0  0  0  0
  128.9384  133.9247  158.2116 N   0  0  0  0  0  0  0  0  0  0  0  0
  129.7547  133.5126  157.0669 C   0  0  0  0  0  0  0  0  0  0  0  0
  129.2112  132.2728  156.3374 C   0  0  0  0  0  0  0  0  0  0  0  0
  130.6730  131.8073  156.2082 C   0  0  0  0  0  0  0  0  0  0  0  0
  131.4891  132.4036  154.7151 Cl  0  0  0  0  0  0  0  0  0  0  0  0
  130.8971  130.0374  156.4693 Cl  0  0  0  0  0  0  0  0  0  0  0  0
  130.9721  132.6567  157.4546 C   0  0  0  0  0  0  0  0  0  0  0  0
  130.7469  135.0368  159.1465 N   0  0  0  0  0  0  0  0  0  0  0  0
  131.1677  135.1683  158.2824 H   0  0  0  0  0  0  0  0  0  0  0  0
  131.5194  135.2351  160.3752 C   0  0  1  0  0  0  0  0  0  0  0  0
  131.1367  134.5826  161.1600 H   0  0  0  0  0  0  0  0  0  0  0  0
  132.9974  134.9174  160.1138 C   0  0  0  0  0  0  0  0  0  0  0  0
  133.7052  135.0186  161.3501 O   0  0  0  0  0  0  0  0  0  0  0  0
  133.5115  136.1323  162.1033 C   0  0  0  0  0  0  0  0  0  0  0  0
  134.4317  136.4243  163.1055 C   0  0  0  0  0  0  0  0  0  0  0  0
  134.2672  137.5442  163.8944 C   0  0  0  0  0  0  0  0  0  0  0  0
  133.1845  138.3800  163.6899 C   0  0  0  0  0  0  0  0  0  0  0  0
  132.2702  138.0941  162.6952 C   0  0  0  0  0  0  0  0  0  0  0  0
  132.4309  136.9721  161.8992 C   0  0  0  0  0  0  0  0  0  0  0  0
  131.4137  136.6957  160.8212 C   0  0  0  0  0  0  0  0  0  0  0  0
  126.5311  135.7277  161.1429 C   0  0  0  0  0  0  0  0  0  0  0  0
  125.1828  135.2510  161.4244 N   0  0  0  0  0  0  0  0  0  0  0  0
  125.6028  132.0098  161.6753 H   0  0  0  0  0  0  0  0  0  0  0  0
  125.5400  132.5435  159.9792 H   0  0  0  0  0  0  0  0  0  0  0  0
  127.8608  132.5989  160.6246 H   0  0  0  0  0  0  0  0  0  0  0  0
  127.4799  133.4553  162.1408 H   0  0  0  0  0  0  0  0  0  0  0  0
  129.1199  135.6062  160.9957 H   0  0  0  0  0  0  0  0  0  0  0  0
  128.0061  133.6618  158.2620 H   0  0  0  0  0  0  0  0  0  0  0  0
  129.9973  134.3401  156.4002 H   0  0  0  0  0  0  0  0  0  0  0  0
  128.6015  131.6268  156.9691 H   0  0  0  0  0  0  0  0  0  0  0  0
  128.7384  132.5006  155.3821 H   0  0  0  0  0  0  0  0  0  0  0  0
  131.9188  133.1941  157.4000 H   0  0  0  0  0  0  0  0  0  0  0  0
  130.8453  132.1170  158.3931 H   0  0  0  0  0  0  0  0  0  0  0  0
  133.4052  135.6309  159.3977 H   0  0  0  0  0  0  0  0  0  0  0  0
  133.0917  133.9060  159.7184 H   0  0  0  0  0  0  0  0  0  0  0  0
  135.2775  135.7722  163.2663 H   0  0  0  0  0  0  0  0  0  0  0  0
  134.9835  137.7681  164.6710 H   0  0  0  0  0  0  0  0  0  0  0  0
  133.0541  139.2560  164.3081 H   0  0  0  0  0  0  0  0  0  0  0  0
  131.4255  138.7484  162.5374 H   0  0  0  0  0  0  0  0  0  0  0  0
  131.6009  137.3495  159.9695 H   0  0  0  0  0  0  0  0  0  0  0  0
  130.4130  136.8846  161.2097 H   0  0  0  0  0  0  0  0  0  0  0  0
  127.0420  135.9391  162.0822 H   0  0  0  0  0  0  0  0  0  0  0  0
  126.4708  136.6416  160.5519 H   0  0  0  0  0  0  0  0  0  0  0  0
  124.5068  135.9081  161.6526 H   0  0  0  0  0  0  0  0  0  0  0  0
  1  2  2  0
  2 30  1  0
  2  3  1  0
  3  4  1  0
  3 31  1  0
  3 32  1  0
  4  5  1  0
  4 33  1  0
  4 34  1  0
  5  6  1  6
  5  7  1  0
  5 29  1  0
  7 35  1  0
  8  7  1  0
  8  9  1  0
  8 16  2  0
  9 10  1  0
  9 36  1  0
 10 15  1  0
 10 11  1  0
 10 37  1  0
 11 12  1  0
 11 38  1  0
 11 39  1  0
 12 13  1  0
 12 14  1  0
 12 15  1  0
 15 40  1  0
 15 41  1  0
 16 17  1  0
 16 18  1  0
 18 19  1  1
 18 28  1  0
 18 20  1  0
 20 21  1  0
 20 42  1  0
 20 43  1  0
 21 22  1  0
 22 27  2  0
 22 23  1  0
 23 24  2  0
 23 44  1  0
 24 25  1  0
 24 45  1  0
 25 26  2  0
 25 46  1  0
 26 27  1  0
 26 47  1  0
 27 28  1  0
 28 48  1  0
 28 49  1  0
 29 30  1  0
 29 50  1  0
 29 51  1  0
 30 52  1  0
M  CHG  1  16   1
M  END
>  <DOCK_score>  (1) 
-47.498077

>  <SMILES>  (1) 
O=C1CC[C@H](NC(NC2CC(Cl)(Cl)C2)=[NH+][C@H]2COc3ccccc3C2)CN1

$$$$
