CSc1ccccc1C[NH2+]Cc1c[nH]nc1-c1ccc(N[C@H]2CC23CCOCC3)o1
     RDKit          3D

 59 63  0  0  1  0  0  0  0  0999 V2000
  134.7980  138.5177  157.7813 C   0  0  0  0  0  0  0  0  0  0  0  0
  133.7838  139.5110  158.9108 S   0  0  0  0  0  0  0  0  0  0  0  0
  134.0898  138.7655  160.4778 C   0  0  0  0  0  0  0  0  0  0  0  0
  135.3821  138.7211  160.9878 C   0  0  0  0  0  0  0  0  0  0  0  0
  135.6179  138.1367  162.2161 C   0  0  0  0  0  0  0  0  0  0  0  0
  134.5701  137.5957  162.9390 C   0  0  0  0  0  0  0  0  0  0  0  0
  133.2834  137.6376  162.4347 C   0  0  0  0  0  0  0  0  0  0  0  0
  133.0398  138.2211  161.2069 C   0  0  0  0  0  0  0  0  0  0  0  0
  131.6368  138.2667  160.6583 C   0  0  0  0  0  0  0  0  0  0  0  0
  131.3839  137.0598  159.8599 N   0  0  0  0  0  0  0  0  0  0  0  0
  130.4445  137.0904  159.4926 H   0  0  0  0  0  0  0  0  0  0  0  0
  132.0422  137.0174  159.0965 H   0  0  0  0  0  0  0  0  0  0  0  0
  131.5397  135.8703  160.7077 C   0  0  0  0  0  0  0  0  0  0  0  0
  131.2801  134.6322  159.8886 C   0  0  0  0  0  0  0  0  0  0  0  0
  132.2023  133.9273  159.1988 C   0  0  0  0  0  0  0  0  0  0  0  0
  131.5750  132.8916  158.6000 N   0  0  0  0  0  0  0  0  0  0  0  0
  131.9942  132.2201  158.0394 H   0  0  0  0  0  0  0  0  0  0  0  0
  130.2150  132.9548  158.9288 N   0  0  0  0  0  0  0  0  0  0  0  0
  130.0314  134.0001  159.7112 C   0  0  0  0  0  0  0  0  0  0  0  0
  128.7456  134.4346  160.2950 C   0  0  0  0  0  0  0  0  0  0  0  0
  127.5458  133.8186  160.1259 C   0  0  0  0  0  0  0  0  0  0  0  0
  126.5981  134.5641  160.8546 C   0  0  0  0  0  0  0  0  0  0  0  0
  127.2642  135.5956  161.4309 C   0  0  0  0  0  0  0  0  0  0  0  0
  126.7005  136.5755  162.2398 N   0  0  0  0  0  0  0  0  0  0  0  0
  127.5414  137.6369  162.7989 C   0  0  1  0  0  0  0  0  0  0  0  0
  128.3024  138.0362  162.1284 H   0  0  0  0  0  0  0  0  0  0  0  0
  126.8909  138.6073  163.7877 C   0  0  0  0  0  0  0  0  0  0  0  0
  127.8828  137.5569  164.2854 C   0  0  0  0  0  0  0  0  0  0  0  0
  129.2702  138.0344  164.7275 C   0  0  0  0  0  0  0  0  0  0  0  0
  130.2054  136.8208  164.7884 C   0  0  0  0  0  0  0  0  0  0  0  0
  129.6217  135.8156  165.6189 O   0  0  0  0  0  0  0  0  0  0  0  0
  128.3988  135.2707  165.1200 C   0  0  0  0  0  0  0  0  0  0  0  0
  127.3312  136.3706  165.0835 C   0  0  0  0  0  0  0  0  0  0  0  0
  128.5618  135.5078  161.0925 O   0  0  0  0  0  0  0  0  0  0  0  0
  135.8445  138.5836  158.0796 H   0  0  0  0  0  0  0  0  0  0  0  0
  134.4738  137.4779  157.8212 H   0  0  0  0  0  0  0  0  0  0  0  0
  134.6854  138.8949  156.7650 H   0  0  0  0  0  0  0  0  0  0  0  0
  136.1999  139.1474  160.4257 H   0  0  0  0  0  0  0  0  0  0  0  0
  136.6219  138.1016  162.6127 H   0  0  0  0  0  0  0  0  0  0  0  0
  134.7576  137.1391  163.8997 H   0  0  0  0  0  0  0  0  0  0  0  0
  132.4677  137.2139  163.0018 H   0  0  0  0  0  0  0  0  0  0  0  0
  130.9255  138.3125  161.4830 H   0  0  0  0  0  0  0  0  0  0  0  0
  131.5212  139.1493  160.0293 H   0  0  0  0  0  0  0  0  0  0  0  0
  132.5544  135.8374  161.1045 H   0  0  0  0  0  0  0  0  0  0  0  0
  130.8284  135.9161  161.5322 H   0  0  0  0  0  0  0  0  0  0  0  0
  133.2569  134.1518  159.1373 H   0  0  0  0  0  0  0  0  0  0  0  0
  127.3556  132.9286  159.5446 H   0  0  0  0  0  0  0  0  0  0  0  0
  125.5419  134.3546  160.9379 H   0  0  0  0  0  0  0  0  0  0  0  0
  125.7504  136.5565  162.4341 H   0  0  0  0  0  0  0  0  0  0  0  0
  127.2243  139.6449  163.7679 H   0  0  0  0  0  0  0  0  0  0  0  0
  125.8372  138.4560  164.0221 H   0  0  0  0  0  0  0  0  0  0  0  0
  129.6552  138.7576  164.0084 H   0  0  0  0  0  0  0  0  0  0  0  0
  129.2025  138.4943  165.7134 H   0  0  0  0  0  0  0  0  0  0  0  0
  131.1669  137.1229  165.2039 H   0  0  0  0  0  0  0  0  0  0  0  0
  130.3519  136.4230  163.7841 H   0  0  0  0  0  0  0  0  0  0  0  0
  128.0671  134.4633  165.7728 H   0  0  0  0  0  0  0  0  0  0  0  0
  128.5565  134.8833  164.1135 H   0  0  0  0  0  0  0  0  0  0  0  0
  127.0986  136.6893  166.0995 H   0  0  0  0  0  0  0  0  0  0  0  0
  126.4288  135.9935  164.6023 H   0  0  0  0  0  0  0  0  0  0  0  0
  1  2  1  0
  1 35  1  0
  1 36  1  0
  1 37  1  0
  2  3  1  0
  3  8  2  0
  3  4  1  0
  4  5  2  0
  4 38  1  0
  5  6  1  0
  5 39  1  0
  6  7  2  0
  6 40  1  0
  7  8  1  0
  7 41  1  0
  8  9  1  0
  9 10  1  0
  9 42  1  0
  9 43  1  0
 10 11  1  0
 10 12  1  0
 10 13  1  0
 13 14  1  0
 13 44  1  0
 13 45  1  0
 14 19  1  0
 14 15  2  0
 15 16  1  0
 15 46  1  0
 16 17  1  0
 16 18  1  0
 18 19  2  0
 19 20  1  0
 20 34  1  0
 20 21  2  0
 21 22  1  0
 21 47  1  0
 22 23  2  0
 22 48  1  0
 23 24  1  0
 23 34  1  0
 24 25  1  0
 24 49  1  0
 25 26  1  6
 25 28  1  0
 25 27  1  0
 27 28  1  0
 27 50  1  0
 27 51  1  0
 28 33  1  0
 28 29  1  0
 29 30  1  0
 29 52  1  0
 29 53  1  0
 30 31  1  0
 30 54  1  0
 30 55  1  0
 31 32  1  0
 32 33  1  0
 32 56  1  0
 32 57  1  0
 33 58  1  0
 33 59  1  0
M  CHG  1  10   1
M  END
>  <DOCK_score>  (1) 
-47.557194

>  <SMILES>  (1) 
CSc1ccccc1C[NH2+]Cc1c[nH]nc1-c1ccc(N[C@H]2CC23CCOCC3)o1

$$$$
