CC(C)n1ccc(CN(C(=O)c2c[nH]nc2[C@H]2CCC[NH2+]C2)C2CC=CC2)n1
     RDKit          3D

 59 62  0  0  1  0  0  0  0  0999 V2000
  135.8093  139.2040  158.4614 C   0  0  0  0  0  0  0  0  0  0  0  0
  135.6640  139.2816  159.9825 C   0  0  0  0  0  0  0  0  0  0  0  0
  135.5224  140.7446  160.4073 C   0  0  0  0  0  0  0  0  0  0  0  0
  134.4740  138.5350  160.3981 N   0  0  0  0  0  0  0  0  0  0  0  0
  133.9543  137.4576  159.7735 C   0  0  0  0  0  0  0  0  0  0  0  0
  132.8652  137.0615  160.4720 C   0  0  0  0  0  0  0  0  0  0  0  0
  132.7087  137.9320  161.5556 C   0  0  0  0  0  0  0  0  0  0  0  0
  131.6197  137.8623  162.5949 C   0  0  0  0  0  0  0  0  0  0  0  0
  130.3301  137.6386  161.9366 N   0  0  0  0  0  0  0  0  0  0  0  0
  129.8929  136.3823  161.7201 C   0  0  0  0  0  0  0  0  0  0  0  0
  130.5688  135.4342  162.0709 O   0  0  0  0  0  0  0  0  0  0  0  0
  128.5951  136.1575  161.0578 C   0  0  0  0  0  0  0  0  0  0  0  0
  127.3617  136.5869  161.5048 C   0  0  0  0  0  0  0  0  0  0  0  0
  126.4456  136.1759  160.6133 N   0  0  0  0  0  0  0  0  0  0  0  0
  125.4908  136.3377  160.6664 H   0  0  0  0  0  0  0  0  0  0  0  0
  127.1016  135.4799  159.5919 N   0  0  0  0  0  0  0  0  0  0  0  0
  128.3809  135.4629  159.8462 C   0  0  0  0  0  0  0  0  0  0  0  0
  129.4442  134.8154  158.9968 C   0  0  1  0  0  0  0  0  0  0  0  0
  130.3815  135.3604  159.1089 H   0  0  0  0  0  0  0  0  0  0  0  0
  129.6405  133.3634  159.4421 C   0  0  0  0  0  0  0  0  0  0  0  0
  130.6653  132.6921  158.5233 C   0  0  0  0  0  0  0  0  0  0  0  0
  130.1865  132.7944  157.0736 C   0  0  0  0  0  0  0  0  0  0  0  0
  130.0434  134.2066  156.7001 N   0  0  0  0  0  0  0  0  0  0  0  0
  130.9228  134.6811  156.8400 H   0  0  0  0  0  0  0  0  0  0  0  0
  129.7783  134.2714  155.7288 H   0  0  0  0  0  0  0  0  0  0  0  0
  129.0110  134.8399  157.5294 C   0  0  0  0  0  0  0  0  0  0  0  0
  129.5157  138.7807  161.5140 C   0  0  0  0  0  0  0  0  0  0  0  0
  130.3425  139.7636  160.6529 C   0  0  0  0  0  0  0  0  0  0  0  0
  129.8547  141.1349  161.0612 C   0  0  0  0  0  0  0  0  0  0  0  0
  129.1988  141.0844  162.1885 C   0  0  0  0  0  0  0  0  0  0  0  0
  129.1400  139.6715  162.7209 C   0  0  0  0  0  0  0  0  0  0  0  0
  133.6746  138.8136  161.5143 N   0  0  0  0  0  0  0  0  0  0  0  0
  136.6946  139.7594  158.1521 H   0  0  0  0  0  0  0  0  0  0  0  0
  135.9101  138.1616  158.1588 H   0  0  0  0  0  0  0  0  0  0  0  0
  134.9265  139.6356  157.9896 H   0  0  0  0  0  0  0  0  0  0  0  0
  136.5468  138.8501  160.4543 H   0  0  0  0  0  0  0  0  0  0  0  0
  135.4189  140.7999  161.4910 H   0  0  0  0  0  0  0  0  0  0  0  0
  136.4078  141.3000  160.0981 H   0  0  0  0  0  0  0  0  0  0  0  0
  134.6396  141.1761  159.9356 H   0  0  0  0  0  0  0  0  0  0  0  0
  134.3410  136.9923  158.8789 H   0  0  0  0  0  0  0  0  0  0  0  0
  132.2279  136.2227  160.2336 H   0  0  0  0  0  0  0  0  0  0  0  0
  131.5867  138.7997  163.1499 H   0  0  0  0  0  0  0  0  0  0  0  0
  131.8245  137.0406  163.2813 H   0  0  0  0  0  0  0  0  0  0  0  0
  127.1689  137.1503  162.4058 H   0  0  0  0  0  0  0  0  0  0  0  0
  130.0038  133.3432  160.4697 H   0  0  0  0  0  0  0  0  0  0  0  0
  128.6911  132.8314  159.3795 H   0  0  0  0  0  0  0  0  0  0  0  0
  131.6281  133.1927  158.6248 H   0  0  0  0  0  0  0  0  0  0  0  0
  130.7697  131.6429  158.7997 H   0  0  0  0  0  0  0  0  0  0  0  0
  130.9138  132.3172  156.4167 H   0  0  0  0  0  0  0  0  0  0  0  0
  129.2235  132.2935  156.9733 H   0  0  0  0  0  0  0  0  0  0  0  0
  128.0733  134.2956  157.4187 H   0  0  0  0  0  0  0  0  0  0  0  0
  128.8708  135.8725  157.2096 H   0  0  0  0  0  0  0  0  0  0  0  0
  128.6251  138.4475  160.9812 H   0  0  0  0  0  0  0  0  0  0  0  0
  131.4053  139.6584  160.8711 H   0  0  0  0  0  0  0  0  0  0  0  0
  130.1527  139.5924  159.5933 H   0  0  0  0  0  0  0  0  0  0  0  0
  130.0262  142.0379  160.4941 H   0  0  0  0  0  0  0  0  0  0  0  0
  128.7557  141.9401  162.6764 H   0  0  0  0  0  0  0  0  0  0  0  0
  128.1331  139.4376  163.0665 H   0  0  0  0  0  0  0  0  0  0  0  0
  129.8598  139.5399  163.5286 H   0  0  0  0  0  0  0  0  0  0  0  0
  1  2  1  0
  1 33  1  0
  1 34  1  0
  1 35  1  0
  2  3  1  0
  2  4  1  0
  2 36  1  0
  3 37  1  0
  3 38  1  0
  3 39  1  0
  4 32  1  0
  4  5  1  0
  5  6  2  0
  5 40  1  0
  6  7  1  0
  6 41  1  0
  7  8  1  0
  7 32  2  0
  8  9  1  0
  8 42  1  0
  8 43  1  0
  9 10  1  0
  9 27  1  0
 10 11  2  0
 10 12  1  0
 12 17  1  0
 12 13  2  0
 13 14  1  0
 13 44  1  0
 14 15  1  0
 14 16  1  0
 16 17  2  0
 17 18  1  0
 18 19  1  6
 18 26  1  0
 18 20  1  0
 20 21  1  0
 20 45  1  0
 20 46  1  0
 21 22  1  0
 21 47  1  0
 21 48  1  0
 22 23  1  0
 22 49  1  0
 22 50  1  0
 23 24  1  0
 23 25  1  0
 23 26  1  0
 26 51  1  0
 26 52  1  0
 27 31  1  0
 27 28  1  0
 27 53  1  0
 28 29  1  0
 28 54  1  0
 28 55  1  0
 29 30  2  0
 29 56  1  0
 30 31  1  0
 30 57  1  0
 31 58  1  0
 31 59  1  0
M  CHG  1  23   1
M  END
>  <DOCK_score>  (1) 
-44.820538

>  <SMILES>  (1) 
CC(C)n1ccc(CN(C(=O)c2c[nH]nc2[C@H]2CCC[NH2+]C2)C2CC=CC2)n1

$$$$
