CC(O)[C@H](O)C[NH+]=C(NC1CC=CC1)N[C@H]1C[C@@H](O)C1
     RDKit          3D

 46 47  0  0  1  0  0  0  0  0999 V2000
  131.1865  139.5749  159.1413 C   0  0  0  0  0  0  0  0  0  0  0  0
  131.6375  138.7037  160.3154 C   0  0  2  0  0  0  0  0  0  0  0  0
  132.7278  137.8767  159.9038 O   0  0  0  0  0  0  0  0  0  0  0  0
  130.4735  137.8225  160.7732 C   0  0  2  0  0  0  0  0  0  0  0  0
  129.5490  138.3993  160.7467 H   0  0  0  0  0  0  0  0  0  0  0  0
  130.7145  137.3699  162.1070 O   0  0  0  0  0  0  0  0  0  0  0  0
  130.3491  136.6165  159.8400 C   0  0  0  0  0  0  0  0  0  0  0  0
  129.2347  135.7727  160.2783 N   0  0  0  0  0  0  0  0  0  0  0  0
  128.7122  136.0246  161.0557 H   0  0  0  0  0  0  0  0  0  0  0  0
  128.9453  134.6834  159.6236 C   0  0  0  0  0  0  0  0  0  0  0  0
  129.6860  134.3261  158.5219 N   0  0  0  0  0  0  0  0  0  0  0  0
  129.3607  133.1018  157.7861 C   0  0  0  0  0  0  0  0  0  0  0  0
  129.6636  131.8462  158.6366 C   0  0  0  0  0  0  0  0  0  0  0  0
  130.1992  130.8345  157.6493 C   0  0  0  0  0  0  0  0  0  0  0  0
  130.5569  131.4100  156.5336 C   0  0  0  0  0  0  0  0  0  0  0  0
  130.3203  132.9012  156.5904 C   0  0  0  0  0  0  0  0  0  0  0  0
  127.8994  133.8916  160.0350 N   0  0  0  0  0  0  0  0  0  0  0  0
  127.1100  134.2723  161.2090 C   0  0  1  0  0  0  0  0  0  0  0  0
  127.7087  134.3411  162.1173 H   0  0  0  0  0  0  0  0  0  0  0  0
  126.2052  135.4931  160.9736 C   0  0  0  0  0  0  0  0  0  0  0  0
  125.1336  134.7590  161.7967 C   0  0  1  0  0  0  0  0  0  0  0  0
  125.1899  134.9615  162.8663 H   0  0  0  0  0  0  0  0  0  0  0  0
  123.8116  134.9030  161.2735 O   0  0  0  0  0  0  0  0  0  0  0  0
  125.8236  133.4473  161.3801 C   0  0  0  0  0  0  0  0  0  0  0  0
  130.3549  140.2057  159.4552 H   0  0  0  0  0  0  0  0  0  0  0  0
  132.0158  140.2027  158.8152 H   0  0  0  0  0  0  0  0  0  0  0  0
  130.8678  138.9371  158.3169 H   0  0  0  0  0  0  0  0  0  0  0  0
  131.9562  139.3416  161.1397 H   0  0  0  0  0  0  0  0  0  0  0  0
  132.5155  137.2816  159.1718 H   0  0  0  0  0  0  0  0  0  0  0  0
  131.5230  136.8485  162.2053 H   0  0  0  0  0  0  0  0  0  0  0  0
  130.1652  136.9618  158.8226 H   0  0  0  0  0  0  0  0  0  0  0  0
  131.2737  136.0398  159.8664 H   0  0  0  0  0  0  0  0  0  0  0  0
  130.4239  134.8848  158.2316 H   0  0  0  0  0  0  0  0  0  0  0  0
  128.3217  133.1101  157.4569 H   0  0  0  0  0  0  0  0  0  0  0  0
  130.4146  132.0724  159.3934 H   0  0  0  0  0  0  0  0  0  0  0  0
  128.7515  131.4753  159.1043 H   0  0  0  0  0  0  0  0  0  0  0  0
  130.2757  129.7745  157.8419 H   0  0  0  0  0  0  0  0  0  0  0  0
  130.9675  130.8885  155.6817 H   0  0  0  0  0  0  0  0  0  0  0  0
  129.8546  133.2471  155.6676 H   0  0  0  0  0  0  0  0  0  0  0  0
  131.2587  133.4281  156.7639 H   0  0  0  0  0  0  0  0  0  0  0  0
  127.6839  133.0810  159.5478 H   0  0  0  0  0  0  0  0  0  0  0  0
  126.5703  136.4048  161.4464 H   0  0  0  0  0  0  0  0  0  0  0  0
  125.9302  135.6378  159.9288 H   0  0  0  0  0  0  0  0  0  0  0  0
  123.5042  135.8187  161.2282 H   0  0  0  0  0  0  0  0  0  0  0  0
  125.4440  133.0316  160.4467 H   0  0  0  0  0  0  0  0  0  0  0  0
  125.8810  132.7098  162.1806 H   0  0  0  0  0  0  0  0  0  0  0  0
  1  2  1  0
  1 25  1  0
  1 26  1  0
  1 27  1  0
  2  3  1  0
  2  4  1  0
  2 28  1  1
  3 29  1  0
  4  5  1  1
  4  6  1  0
  4  7  1  0
  6 30  1  0
  7  8  1  0
  7 31  1  0
  7 32  1  0
  8  9  1  0
 10  8  2  0
 10 11  1  0
 10 17  1  0
 11 12  1  0
 11 33  1  0
 12 16  1  0
 12 13  1  0
 12 34  1  0
 13 14  1  0
 13 35  1  0
 13 36  1  0
 14 15  2  0
 14 37  1  0
 15 16  1  0
 15 38  1  0
 16 39  1  0
 16 40  1  0
 17 18  1  0
 17 41  1  0
 18 19  1  1
 18 24  1  0
 18 20  1  0
 20 21  1  0
 20 42  1  0
 20 43  1  0
 21 22  1  1
 21 23  1  0
 21 24  1  0
 23 44  1  0
 24 45  1  0
 24 46  1  0
M  CHG  1   8   1
M  END
>  <DOCK_score>  (1) 
-47.873016

>  <SMILES>  (1) 
CC(O)[C@H](O)C[NH+]=C(NC1CC=CC1)N[C@H]1C[C@@H](O)C1

$$$$
