Cc1cc(O)cc(C[NH+]=C(NCc2ccc3ccccc3c2F)NC2CC=CC2)c1
     RDKit          3D

 57 60  0  0  1  0  0  0  0  0999 V2000
  127.3905  135.0232  167.2814 C   0  0  0  0  0  0  0  0  0  0  0  0
  127.2193  135.4414  165.8438 C   0  0  0  0  0  0  0  0  0  0  0  0
  125.9635  135.4346  165.2677 C   0  0  0  0  0  0  0  0  0  0  0  0
  125.8067  135.8197  163.9445 C   0  0  0  0  0  0  0  0  0  0  0  0
  124.5724  135.8143  163.3757 O   0  0  0  0  0  0  0  0  0  0  0  0
  126.9113  136.2156  163.2040 C   0  0  0  0  0  0  0  0  0  0  0  0
  128.1655  136.2153  163.7828 C   0  0  0  0  0  0  0  0  0  0  0  0
  129.3664  136.6397  162.9775 C   0  0  0  0  0  0  0  0  0  0  0  0
  129.3136  136.0125  161.6546 N   0  0  0  0  0  0  0  0  0  0  0  0
  128.5755  135.4268  161.4245 H   0  0  0  0  0  0  0  0  0  0  0  0
  130.2616  136.2371  160.7886 C   0  0  0  0  0  0  0  0  0  0  0  0
  131.3109  137.0626  161.1166 N   0  0  0  0  0  0  0  0  0  0  0  0
  132.3764  137.3150  160.1433 C   0  0  0  0  0  0  0  0  0  0  0  0
  133.3974  138.2453  160.7460 C   0  0  0  0  0  0  0  0  0  0  0  0
  133.8379  138.0289  162.0499 C   0  0  0  0  0  0  0  0  0  0  0  0
  134.7631  138.8469  162.6224 C   0  0  0  0  0  0  0  0  0  0  0  0
  135.2762  139.9345  161.8950 C   0  0  0  0  0  0  0  0  0  0  0  0
  136.2282  140.8031  162.4558 C   0  0  0  0  0  0  0  0  0  0  0  0
  136.7032  141.8459  161.7216 C   0  0  0  0  0  0  0  0  0  0  0  0
  136.2598  142.0671  160.4190 C   0  0  0  0  0  0  0  0  0  0  0  0
  135.3392  141.2462  159.8433 C   0  0  0  0  0  0  0  0  0  0  0  0
  134.8256  140.1595  160.5706 C   0  0  0  0  0  0  0  0  0  0  0  0
  133.8723  139.2894  160.0093 C   0  0  0  0  0  0  0  0  0  0  0  0
  133.4310  139.4875  158.7479 F   0  0  0  0  0  0  0  0  0  0  0  0
  130.2121  135.6485  159.5471 N   0  0  0  0  0  0  0  0  0  0  0  0
  129.0940  134.7688  159.1976 C   0  0  0  0  0  0  0  0  0  0  0  0
  129.1341  133.4639  160.0264 C   0  0  0  0  0  0  0  0  0  0  0  0
  128.6790  132.3868  159.0693 C   0  0  0  0  0  0  0  0  0  0  0  0
  128.7401  132.8005  157.8328 C   0  0  0  0  0  0  0  0  0  0  0  0
  129.2462  134.2223  157.7591 C   0  0  0  0  0  0  0  0  0  0  0  0
  128.3191  135.8312  165.1024 C   0  0  0  0  0  0  0  0  0  0  0  0
  127.2892  135.8948  167.9280 H   0  0  0  0  0  0  0  0  0  0  0  0
  126.6274  134.2888  167.5395 H   0  0  0  0  0  0  0  0  0  0  0  0
  128.3786  134.5832  167.4167 H   0  0  0  0  0  0  0  0  0  0  0  0
  125.1048  135.1293  165.8472 H   0  0  0  0  0  0  0  0  0  0  0  0
  124.5640  136.0981  162.4514 H   0  0  0  0  0  0  0  0  0  0  0  0
  126.7912  136.5198  162.1747 H   0  0  0  0  0  0  0  0  0  0  0  0
  130.2764  136.3291  163.4909 H   0  0  0  0  0  0  0  0  0  0  0  0
  129.3643  137.7240  162.8659 H   0  0  0  0  0  0  0  0  0  0  0  0
  131.3459  137.4778  161.9925 H   0  0  0  0  0  0  0  0  0  0  0  0
  132.8556  136.3730  159.8768 H   0  0  0  0  0  0  0  0  0  0  0  0
  131.9513  137.7719  159.2496 H   0  0  0  0  0  0  0  0  0  0  0  0
  133.4423  137.1970  162.6136 H   0  0  0  0  0  0  0  0  0  0  0  0
  135.0974  138.6638  163.6329 H   0  0  0  0  0  0  0  0  0  0  0  0
  136.5811  140.6438  163.4641 H   0  0  0  0  0  0  0  0  0  0  0  0
  137.4344  142.5122  162.1550 H   0  0  0  0  0  0  0  0  0  0  0  0
  136.6526  142.9022  159.8580 H   0  0  0  0  0  0  0  0  0  0  0  0
  135.0048  141.4298  158.8330 H   0  0  0  0  0  0  0  0  0  0  0  0
  130.9175  135.8155  158.9027 H   0  0  0  0  0  0  0  0  0  0  0  0
  128.1409  135.2829  159.3220 H   0  0  0  0  0  0  0  0  0  0  0  0
  130.1491  133.2630  160.3693 H   0  0  0  0  0  0  0  0  0  0  0  0
  128.4523  133.5314  160.8741 H   0  0  0  0  0  0  0  0  0  0  0  0
  128.3465  131.4041  159.3689 H   0  0  0  0  0  0  0  0  0  0  0  0
  128.4649  132.2048  156.9750 H   0  0  0  0  0  0  0  0  0  0  0  0
  128.6407  134.8054  157.0653 H   0  0  0  0  0  0  0  0  0  0  0  0
  130.2928  134.2393  157.4552 H   0  0  0  0  0  0  0  0  0  0  0  0
  129.2999  135.8356  165.5544 H   0  0  0  0  0  0  0  0  0  0  0  0
  1  2  1  0
  1 32  1  0
  1 33  1  0
  1 34  1  0
  2 31  2  0
  2  3  1  0
  3  4  2  0
  3 35  1  0
  4  5  1  0
  4  6  1  0
  5 36  1  0
  6  7  2  0
  6 37  1  0
  7  8  1  0
  7 31  1  0
  8  9  1  0
  8 38  1  0
  8 39  1  0
  9 10  1  0
 11  9  2  0
 11 12  1  0
 11 25  1  0
 12 13  1  0
 12 40  1  0
 13 14  1  0
 13 41  1  0
 13 42  1  0
 14 23  1  0
 14 15  2  0
 15 16  1  0
 15 43  1  0
 16 17  2  0
 16 44  1  0
 17 22  1  0
 17 18  1  0
 18 19  2  0
 18 45  1  0
 19 20  1  0
 19 46  1  0
 20 21  2  0
 20 47  1  0
 21 22  1  0
 21 48  1  0
 22 23  2  0
 23 24  1  0
 25 26  1  0
 25 49  1  0
 26 30  1  0
 26 27  1  0
 26 50  1  0
 27 28  1  0
 27 51  1  0
 27 52  1  0
 28 29  2  0
 28 53  1  0
 29 30  1  0
 29 54  1  0
 30 55  1  0
 30 56  1  0
 31 57  1  0
M  CHG  1   9   1
M  END
>  <DOCK_score>  (1) 
-46.320381

>  <SMILES>  (1) 
Cc1cc(O)cc(C[NH+]=C(NCc2ccc3ccccc3c2F)NC2CC=CC2)c1

$$$$
