C[C@@H]1Cc2ncccc2C(c2cncn2C)N1C(=O)c1c[nH]nc1C1CCC[NH2+]C1
     RDKit          3D

 58 62  0  0  1  0  0  0  0  0999 V2000
  130.3647  139.9121  160.5154 C   0  0  0  0  0  0  0  0  0  0  0  0
  129.6883  139.1494  161.6562 C   0  0  2  0  0  0  0  0  0  0  0  0
  128.7404  138.7355  161.3118 H   0  0  0  0  0  0  0  0  0  0  0  0
  129.4432  140.0915  162.8335 C   0  0  0  0  0  0  0  0  0  0  0  0
  130.7381  140.4362  163.5228 C   0  0  0  0  0  0  0  0  0  0  0  0
  130.7555  141.5244  164.2832 N   0  0  0  0  0  0  0  0  0  0  0  0
  131.8246  141.9029  164.9485 C   0  0  0  0  0  0  0  0  0  0  0  0
  132.9943  141.1693  164.8797 C   0  0  0  0  0  0  0  0  0  0  0  0
  133.0219  140.0308  164.0926 C   0  0  0  0  0  0  0  0  0  0  0  0
  131.8716  139.6654  163.4010 C   0  0  0  0  0  0  0  0  0  0  0  0
  131.9248  138.4297  162.5406 C   0  0  2  0  0  0  0  0  0  0  0  0
  132.7717  138.7015  161.3241 C   0  0  0  0  0  0  0  0  0  0  0  0
  133.3969  139.8555  161.0227 C   0  0  0  0  0  0  0  0  0  0  0  0
  134.0433  139.6859  159.8598 N   0  0  0  0  0  0  0  0  0  0  0  0
  133.8472  138.4686  159.4320 C   0  0  0  0  0  0  0  0  0  0  0  0
  133.0540  137.8225  160.3134 N   0  0  0  0  0  0  0  0  0  0  0  0
  132.5880  136.4375  160.2104 C   0  0  0  0  0  0  0  0  0  0  0  0
  130.5681  138.0634  162.1192 N   0  0  0  0  0  0  0  0  0  0  0  0
  130.1442  136.7844  162.1540 C   0  0  0  0  0  0  0  0  0  0  0  0
  130.8915  135.9065  162.5409 O   0  0  0  0  0  0  0  0  0  0  0  0
  128.7746  136.4497  161.7229 C   0  0  0  0  0  0  0  0  0  0  0  0
  127.6023  136.9236  162.2767 C   0  0  0  0  0  0  0  0  0  0  0  0
  126.5848  136.3781  161.5916 N   0  0  0  0  0  0  0  0  0  0  0  0
  125.6419  136.5333  161.7577 H   0  0  0  0  0  0  0  0  0  0  0  0
  127.1140  135.5439  160.6004 N   0  0  0  0  0  0  0  0  0  0  0  0
  128.4161  135.5791  160.6695 C   0  0  0  0  0  0  0  0  0  0  0  0
  129.3708  134.8233  159.7814 C   0  0  1  0  0  0  0  0  0  0  0  0
  129.1160  133.3196  159.9193 C   0  0  0  0  0  0  0  0  0  0  0  0
  130.0367  132.5654  158.9557 C   0  0  0  0  0  0  0  0  0  0  0  0
  129.7943  133.0662  157.5302 C   0  0  0  0  0  0  0  0  0  0  0  0
  130.0801  134.5042  157.4578 N   0  0  0  0  0  0  0  0  0  0  0  0
  131.0279  134.6733  157.7597 H   0  0  0  0  0  0  0  0  0  0  0  0
  129.9699  134.8204  156.5060 H   0  0  0  0  0  0  0  0  0  0  0  0
  129.1531  135.2405  158.3253 C   0  0  0  0  0  0  0  0  0  0  0  0
  131.2692  140.3940  160.8864 H   0  0  0  0  0  0  0  0  0  0  0  0
  130.6248  139.2166  159.7173 H   0  0  0  0  0  0  0  0  0  0  0  0
  129.6819  140.6691  160.1293 H   0  0  0  0  0  0  0  0  0  0  0  0
  128.7751  139.6082  163.5465 H   0  0  0  0  0  0  0  0  0  0  0  0
  128.9762  141.0066  162.4694 H   0  0  0  0  0  0  0  0  0  0  0  0
  131.7884  142.7957  165.5552 H   0  0  0  0  0  0  0  0  0  0  0  0
  133.8707  141.4790  165.4297 H   0  0  0  0  0  0  0  0  0  0  0  0
  133.9208  139.4369  164.0168 H   0  0  0  0  0  0  0  0  0  0  0  0
  132.3611  137.6093  163.1105 H   0  0  0  0  0  0  0  0  0  0  0  0
  133.3806  140.7593  161.6138 H   0  0  0  0  0  0  0  0  0  0  0  0
  134.2504  138.0486  158.5224 H   0  0  0  0  0  0  0  0  0  0  0  0
  131.6108  136.4179  159.7277 H   0  0  0  0  0  0  0  0  0  0  0  0
  133.2971  135.8585  159.6187 H   0  0  0  0  0  0  0  0  0  0  0  0
  132.5091  136.0054  161.2080 H   0  0  0  0  0  0  0  0  0  0  0  0
  127.5191  137.6094  163.1069 H   0  0  0  0  0  0  0  0  0  0  0  0
  130.3961  135.0473  160.0754 H   0  0  0  0  0  0  0  0  0  0  0  0
  129.3245  133.0070  160.9425 H   0  0  0  0  0  0  0  0  0  0  0  0
  128.0758  133.1024  159.6767 H   0  0  0  0  0  0  0  0  0  0  0  0
  131.0761  132.7424  159.2318 H   0  0  0  0  0  0  0  0  0  0  0  0
  129.8222  131.4979  159.0077 H   0  0  0  0  0  0  0  0  0  0  0  0
  130.4482  132.5311  156.8415 H   0  0  0  0  0  0  0  0  0  0  0  0
  128.7545  132.8891  157.2551 H   0  0  0  0  0  0  0  0  0  0  0  0
  128.1271  135.0166  158.0332 H   0  0  0  0  0  0  0  0  0  0  0  0
  129.3334  136.3107  158.2237 H   0  0  0  0  0  0  0  0  0  0  0  0
  1  2  1  0
  1 35  1  0
  1 36  1  0
  1 37  1  0
  2  3  1  6
  2 18  1  0
  2  4  1  0
  4  5  1  0
  4 38  1  0
  4 39  1  0
  5 10  2  0
  5  6  1  0
  6  7  2  0
  7  8  1  0
  7 40  1  0
  8  9  2  0
  8 41  1  0
  9 10  1  0
  9 42  1  0
 10 11  1  0
 11 12  1  0
 11 18  1  0
 11 43  1  1
 12 16  1  0
 12 13  2  0
 13 14  1  0
 13 44  1  0
 14 15  2  0
 15 16  1  0
 15 45  1  0
 16 17  1  0
 17 46  1  0
 17 47  1  0
 17 48  1  0
 18 19  1  0
 19 20  2  0
 19 21  1  0
 21 26  1  0
 21 22  2  0
 22 23  1  0
 22 49  1  0
 23 24  1  0
 23 25  1  0
 25 26  2  0
 26 27  1  0
 27 34  1  0
 27 28  1  0
 27 50  1  1
 28 29  1  0
 28 51  1  0
 28 52  1  0
 29 30  1  0
 29 53  1  0
 29 54  1  0
 30 31  1  0
 30 55  1  0
 30 56  1  0
 31 32  1  0
 31 33  1  0
 31 34  1  0
 34 57  1  0
 34 58  1  0
M  CHG  1  31   1
M  END
>  <DOCK_score>  (1) 
-44.270424

>  <SMILES>  (1) 
C[C@@H]1Cc2ncccc2C(c2cncn2C)N1C(=O)c1c[nH]nc1C1CCC[NH2+]C1

$$$$
