CC([C@@H](C)[NH+]=C(NCC1CC(O)C1(C)C)NC1CCC(=O)NC1)n1cccn1
     RDKit          3D

 63 65  0  0  1  0  0  0  0  0999 V2000
  133.7744  138.5281  159.1183 C   0  0  0  0  0  0  0  0  0  0  0  0
  132.3929  138.3463  159.7504 C   0  0  1  0  0  0  0  0  0  0  0  0
  132.4068  137.1175  160.6618 C   0  0  1  0  0  0  0  0  0  0  0  0
  132.6573  136.2332  160.0758 H   0  0  0  0  0  0  0  0  0  0  0  0
  133.4502  137.3116  161.7638 C   0  0  0  0  0  0  0  0  0  0  0  0
  131.0840  136.9436  161.2670 N   0  0  0  0  0  0  0  0  0  0  0  0
  130.8787  137.3685  162.1145 H   0  0  0  0  0  0  0  0  0  0  0  0
  130.1829  136.2179  160.6668 C   0  0  0  0  0  0  0  0  0  0  0  0
  128.9415  136.0546  161.2348 N   0  0  0  0  0  0  0  0  0  0  0  0
  128.6315  136.6962  162.5148 C   0  0  0  0  0  0  0  0  0  0  0  0
  127.1960  136.3569  162.9209 C   0  0  2  0  0  0  0  0  0  0  0  0
  126.7883  136.9370  164.2854 C   0  0  0  0  0  0  0  0  0  0  0  0
  126.0612  135.6049  164.5443 C   0  0  1  0  0  0  0  0  0  0  0  0
  124.7067  135.5962  164.0889 O   0  0  0  0  0  0  0  0  0  0  0  0
  127.0480  134.9635  163.5544 C   0  0  0  0  0  0  0  0  0  0  0  0
  126.4020  133.9335  162.6258 C   0  0  0  0  0  0  0  0  0  0  0  0
  128.3302  134.4503  164.2129 C   0  0  0  0  0  0  0  0  0  0  0  0
  130.4738  135.6156  159.4657 N   0  0  0  0  0  0  0  0  0  0  0  0
  129.8260  134.3524  159.1037 C   0  0  1  0  0  0  0  0  0  0  0  0
  130.3323  133.8890  157.7324 C   0  0  0  0  0  0  0  0  0  0  0  0
  129.5104  132.6726  157.2990 C   0  0  0  0  0  0  0  0  0  0  0  0
  129.4479  131.6731  158.4180 C   0  0  0  0  0  0  0  0  0  0  0  0
  129.1260  130.5342  158.1531 O   0  0  0  0  0  0  0  0  0  0  0  0
  129.7278  131.9708  159.6875 N   0  0  0  0  0  0  0  0  0  0  0  0
  130.1686  133.2840  160.1427 C   0  0  0  0  0  0  0  0  0  0  0  0
  132.0561  139.5348  160.5379 N   0  0  0  0  0  0  0  0  0  0  0  0
  130.8145  140.0148  160.7595 C   0  0  0  0  0  0  0  0  0  0  0  0
  130.9312  141.1190  161.5329 C   0  0  0  0  0  0  0  0  0  0  0  0
  132.2913  141.3263  161.7848 C   0  0  0  0  0  0  0  0  0  0  0  0
  132.9666  140.3773  161.1888 N   0  0  0  0  0  0  0  0  0  0  0  0
  134.5177  138.6663  159.9032 H   0  0  0  0  0  0  0  0  0  0  0  0
  134.0248  137.6437  158.5322 H   0  0  0  0  0  0  0  0  0  0  0  0
  133.7644  139.4035  158.4690 H   0  0  0  0  0  0  0  0  0  0  0  0
  131.6494  138.2081  158.9653 H   0  0  0  0  0  0  0  0  0  0  0  0
  134.4318  137.4584  161.3130 H   0  0  0  0  0  0  0  0  0  0  0  0
  133.1902  138.1859  162.3605 H   0  0  0  0  0  0  0  0  0  0  0  0
  133.4723  136.4290  162.4029 H   0  0  0  0  0  0  0  0  0  0  0  0
  128.2711  135.5145  160.7881 H   0  0  0  0  0  0  0  0  0  0  0  0
  129.3201  136.3349  163.2785 H   0  0  0  0  0  0  0  0  0  0  0  0
  128.7350  137.7766  162.4141 H   0  0  0  0  0  0  0  0  0  0  0  0
  126.4740  136.5553  162.1287 H   0  0  0  0  0  0  0  0  0  0  0  0
  127.6306  137.1120  164.9548 H   0  0  0  0  0  0  0  0  0  0  0  0
  126.1186  137.7941  164.2132 H   0  0  0  0  0  0  0  0  0  0  0  0
  126.1670  135.2384  165.5654 H   0  0  0  0  0  0  0  0  0  0  0  0
  124.5681  136.0718  163.2584 H   0  0  0  0  0  0  0  0  0  0  0  0
  127.0113  133.8200  161.7291 H   0  0  0  0  0  0  0  0  0  0  0  0
  126.3303  132.9751  163.1399 H   0  0  0  0  0  0  0  0  0  0  0  0
  125.4040  134.2715  162.3464 H   0  0  0  0  0  0  0  0  0  0  0  0
  128.6324  135.1367  165.0037 H   0  0  0  0  0  0  0  0  0  0  0  0
  128.1502  133.4629  164.6379 H   0  0  0  0  0  0  0  0  0  0  0  0
  129.1214  134.3857  163.4659 H   0  0  0  0  0  0  0  0  0  0  0  0
  131.1079  136.0271  158.8578 H   0  0  0  0  0  0  0  0  0  0  0  0
  128.7458  134.4931  159.0662 H   0  0  0  0  0  0  0  0  0  0  0  0
  130.2105  134.6921  157.0056 H   0  0  0  0  0  0  0  0  0  0  0  0
  131.3848  133.6143  157.8035 H   0  0  0  0  0  0  0  0  0  0  0  0
  128.5004  132.9914  157.0414 H   0  0  0  0  0  0  0  0  0  0  0  0
  129.9767  132.2123  156.4279 H   0  0  0  0  0  0  0  0  0  0  0  0
  129.6296  131.2700  160.3510 H   0  0  0  0  0  0  0  0  0  0  0  0
  131.2473  133.2656  160.2983 H   0  0  0  0  0  0  0  0  0  0  0  0
  129.6760  133.5262  161.0844 H   0  0  0  0  0  0  0  0  0  0  0  0
  129.8927  139.5917  160.3884 H   0  0  0  0  0  0  0  0  0  0  0  0
  130.1180  141.7342  161.8890 H   0  0  0  0  0  0  0  0  0  0  0  0
  132.7114  142.1306  162.3703 H   0  0  0  0  0  0  0  0  0  0  0  0
  1  2  1  0
  1 31  1  0
  1 32  1  0
  1 33  1  0
  2  3  1  0
  2 26  1  0
  2 34  1  6
  3  4  1  6
  3  5  1  0
  3  6  1  0
  5 35  1  0
  5 36  1  0
  5 37  1  0
  6  7  1  0
  8  6  2  0
  8  9  1  0
  8 18  1  0
  9 10  1  0
  9 38  1  0
 10 11  1  0
 10 39  1  0
 10 40  1  0
 11 15  1  0
 11 12  1  0
 11 41  1  6
 12 13  1  0
 12 42  1  0
 12 43  1  0
 13 14  1  0
 13 15  1  0
 13 44  1  1
 14 45  1  0
 15 16  1  0
 15 17  1  0
 16 46  1  0
 16 47  1  0
 16 48  1  0
 17 49  1  0
 17 50  1  0
 17 51  1  0
 18 19  1  0
 18 52  1  0
 19 25  1  0
 19 20  1  0
 19 53  1  6
 20 21  1  0
 20 54  1  0
 20 55  1  0
 21 22  1  0
 21 56  1  0
 21 57  1  0
 22 23  2  0
 22 24  1  0
 24 25  1  0
 24 58  1  0
 25 59  1  0
 25 60  1  0
 26 30  1  0
 26 27  1  0
 27 28  2  0
 27 61  1  0
 28 29  1  0
 28 62  1  0
 29 30  2  0
 29 63  1  0
M  CHG  1   6   1
M  END
>  <DOCK_score>  (1) 
-41.546585

>  <SMILES>  (1) 
CC([C@@H](C)[NH+]=C(NCC1CC(O)C1(C)C)NC1CCC(=O)NC1)n1cccn1

$$$$
