C[C@@H](O)c1ccc(Cl)cc1Nc1ncc(Nc2[nH]cc(C3=CCC=CC3)[nH+]2)cn1
     RDKit          3D

 51 54  0  0  1  0  0  0  0  0999 V2000
  124.6041  140.0645  164.1674 C   0  0  0  0  0  0  0  0  0  0  0  0
  125.8895  139.5372  163.5267 C   0  0  1  0  0  0  0  0  0  0  0  0
  125.6641  139.1333  162.5396 H   0  0  0  0  0  0  0  0  0  0  0  0
  126.8316  140.6043  163.4010 O   0  0  0  0  0  0  0  0  0  0  0  0
  126.4736  138.4509  164.3927 C   0  0  0  0  0  0  0  0  0  0  0  0
  126.8397  138.7275  165.6955 C   0  0  0  0  0  0  0  0  0  0  0  0
  127.3809  137.7334  166.4893 C   0  0  0  0  0  0  0  0  0  0  0  0
  127.5531  136.4566  165.9830 C   0  0  0  0  0  0  0  0  0  0  0  0
  128.2336  135.2114  166.9831 Cl  0  0  0  0  0  0  0  0  0  0  0  0
  127.1834  136.1722  164.6821 C   0  0  0  0  0  0  0  0  0  0  0  0
  126.6391  137.1694  163.8830 C   0  0  0  0  0  0  0  0  0  0  0  0
  126.2639  136.8855  162.5666 N   0  0  0  0  0  0  0  0  0  0  0  0
  127.2089  136.4280  161.6591 C   0  0  0  0  0  0  0  0  0  0  0  0
  126.8347  136.1642  160.4165 N   0  0  0  0  0  0  0  0  0  0  0  0
  127.7076  135.7267  159.5243 C   0  0  0  0  0  0  0  0  0  0  0  0
  129.0336  135.5450  159.9069 C   0  0  0  0  0  0  0  0  0  0  0  0
  129.9866  135.0779  158.9922 N   0  0  0  0  0  0  0  0  0  0  0  0
  129.8219  133.8411  158.3916 C   0  0  0  0  0  0  0  0  0  0  0  0
  129.1941  132.7678  158.9464 N   0  0  0  0  0  0  0  0  0  0  0  0
  128.7858  132.7327  159.8255 H   0  0  0  0  0  0  0  0  0  0  0  0
  129.2425  131.7457  158.0314 C   0  0  0  0  0  0  0  0  0  0  0  0
  129.9071  132.2202  156.9456 C   0  0  0  0  0  0  0  0  0  0  0  0
  130.2047  131.4669  155.7099 C   0  0  0  0  0  0  0  0  0  0  0  0
  129.7360  131.9184  154.5668 C   0  0  0  0  0  0  0  0  0  0  0  0
  129.9842  131.2247  153.2609 C   0  0  0  0  0  0  0  0  0  0  0  0
  131.1587  130.2983  153.3540 C   0  0  0  0  0  0  0  0  0  0  0  0
  131.6211  129.8530  154.4815 C   0  0  0  0  0  0  0  0  0  0  0  0
  131.0341  130.2217  155.8082 C   0  0  0  0  0  0  0  0  0  0  0  0
  130.2496  133.5095  157.1980 N   0  0  0  0  0  0  0  0  0  0  0  0
  130.7336  134.0919  156.5919 H   0  0  0  0  0  0  0  0  0  0  0  0
  129.3890  135.8332  161.2217 C   0  0  0  0  0  0  0  0  0  0  0  0
  128.4615  136.2675  162.0585 N   0  0  0  0  0  0  0  0  0  0  0  0
  124.8295  140.4685  165.1545 H   0  0  0  0  0  0  0  0  0  0  0  0
  124.1817  140.8503  163.5411 H   0  0  0  0  0  0  0  0  0  0  0  0
  123.8855  139.2506  164.2634 H   0  0  0  0  0  0  0  0  0  0  0  0
  127.0788  141.0119  164.2424 H   0  0  0  0  0  0  0  0  0  0  0  0
  126.7070  139.7227  166.0933 H   0  0  0  0  0  0  0  0  0  0  0  0
  127.6701  137.9533  167.5062 H   0  0  0  0  0  0  0  0  0  0  0  0
  127.3171  135.1758  164.2875 H   0  0  0  0  0  0  0  0  0  0  0  0
  125.3431  137.0080  162.2876 H   0  0  0  0  0  0  0  0  0  0  0  0
  127.3958  135.5129  158.5127 H   0  0  0  0  0  0  0  0  0  0  0  0
  130.7619  135.6209  158.7796 H   0  0  0  0  0  0  0  0  0  0  0  0
  128.8349  130.7531  158.1534 H   0  0  0  0  0  0  0  0  0  0  0  0
  129.1492  132.8250  154.5687 H   0  0  0  0  0  0  0  0  0  0  0  0
  129.0983  130.6519  152.9866 H   0  0  0  0  0  0  0  0  0  0  0  0
  130.1793  131.9713  152.4912 H   0  0  0  0  0  0  0  0  0  0  0  0
  131.6429  129.9873  152.4400 H   0  0  0  0  0  0  0  0  0  0  0  0
  132.4720  129.1882  154.4625 H   0  0  0  0  0  0  0  0  0  0  0  0
  131.8394  130.3844  156.5245 H   0  0  0  0  0  0  0  0  0  0  0  0
  130.4070  129.4015  156.1576 H   0  0  0  0  0  0  0  0  0  0  0  0
  130.4085  135.7036  161.5540 H   0  0  0  0  0  0  0  0  0  0  0  0
  1  2  1  0
  1 33  1  0
  1 34  1  0
  1 35  1  0
  2  3  1  6
  2  4  1  0
  2  5  1  0
  4 36  1  0
  5 11  2  0
  5  6  1  0
  6  7  2  0
  6 37  1  0
  7  8  1  0
  7 38  1  0
  8  9  1  0
  8 10  2  0
 10 11  1  0
 10 39  1  0
 11 12  1  0
 12 13  1  0
 12 40  1  0
 13 32  1  0
 13 14  2  0
 14 15  1  0
 15 16  2  0
 15 41  1  0
 16 17  1  0
 16 31  1  0
 17 42  1  0
 18 17  1  0
 18 29  2  0
 18 19  1  0
 19 20  1  0
 19 21  1  0
 21 22  2  0
 21 43  1  0
 22 23  1  0
 22 29  1  0
 23 28  1  0
 23 24  2  0
 24 25  1  0
 24 44  1  0
 25 26  1  0
 25 45  1  0
 25 46  1  0
 26 27  2  0
 26 47  1  0
 27 28  1  0
 27 48  1  0
 28 49  1  0
 28 50  1  0
 29 30  1  0
 31 32  2  0
 31 51  1  0
M  CHG  1  29   1
M  END
>  <DOCK_score>  (1) 
-54.623608

>  <SMILES>  (1) 
C[C@@H](O)c1ccc(Cl)cc1Nc1ncc(Nc2[nH]cc(C3=CCC=CC3)[nH+]2)cn1

$$$$
