[NH3+][C@@H](C(=O)Nc1cccc(O)c1)c1cccc(Oc2cccc(-c3cccnc3)n2)c1
     RDKit          3D

 52 55  0  0  1  0  0  0  0  0999 V2000
  130.5634  134.3348  157.4946 N   0  0  0  0  0  0  0  0  0  0  0  0
  131.4532  134.7837  157.3367 H   0  0  0  0  0  0  0  0  0  0  0  0
  130.6996  133.3383  157.5771 H   0  0  0  0  0  0  0  0  0  0  0  0
  129.9474  134.5270  156.7190 H   0  0  0  0  0  0  0  0  0  0  0  0
  129.9671  134.8518  158.7335 C   0  0  1  0  0  0  0  0  0  0  0  0
  129.8202  135.9280  158.6443 H   0  0  0  0  0  0  0  0  0  0  0  0
  128.6382  134.1812  158.9693 C   0  0  0  0  0  0  0  0  0  0  0  0
  128.2284  133.3539  158.1827 O   0  0  0  0  0  0  0  0  0  0  0  0
  127.9054  134.5006  160.0543 N   0  0  0  0  0  0  0  0  0  0  0  0
  126.6717  133.8779  160.2734 C   0  0  0  0  0  0  0  0  0  0  0  0
  126.4547  132.5840  159.8163 C   0  0  0  0  0  0  0  0  0  0  0  0
  125.2387  131.9673  160.0376 C   0  0  0  0  0  0  0  0  0  0  0  0
  124.2313  132.6392  160.7037 C   0  0  0  0  0  0  0  0  0  0  0  0
  124.4404  133.9338  161.1575 C   0  0  0  0  0  0  0  0  0  0  0  0
  123.4488  134.5935  161.8120 O   0  0  0  0  0  0  0  0  0  0  0  0
  125.6614  134.5540  160.9423 C   0  0  0  0  0  0  0  0  0  0  0  0
  130.8873  134.5646  159.8920 C   0  0  0  0  0  0  0  0  0  0  0  0
  130.7611  133.3822  160.5977 C   0  0  0  0  0  0  0  0  0  0  0  0
  131.6032  133.1161  161.6615 C   0  0  0  0  0  0  0  0  0  0  0  0
  132.5772  134.0288  162.0181 C   0  0  0  0  0  0  0  0  0  0  0  0
  132.7023  135.2182  161.3149 C   0  0  0  0  0  0  0  0  0  0  0  0
  133.6563  136.1198  161.6670 O   0  0  0  0  0  0  0  0  0  0  0  0
  133.3306  137.0671  162.5819 C   0  0  0  0  0  0  0  0  0  0  0  0
  134.2145  137.3575  163.6147 C   0  0  0  0  0  0  0  0  0  0  0  0
  133.8759  138.3259  164.5449 C   0  0  0  0  0  0  0  0  0  0  0  0
  132.6589  138.9759  164.4122 C   0  0  0  0  0  0  0  0  0  0  0  0
  131.8201  138.6372  163.3547 C   0  0  0  0  0  0  0  0  0  0  0  0
  130.5150  139.3259  163.2023 C   0  0  0  0  0  0  0  0  0  0  0  0
  129.5546  139.2603  164.2159 C   0  0  0  0  0  0  0  0  0  0  0  0
  128.3530  139.9201  164.0252 C   0  0  0  0  0  0  0  0  0  0  0  0
  128.1428  140.6166  162.8488 C   0  0  0  0  0  0  0  0  0  0  0  0
  129.0681  140.6605  161.9100 N   0  0  0  0  0  0  0  0  0  0  0  0
  130.2290  140.0533  162.0490 C   0  0  0  0  0  0  0  0  0  0  0  0
  132.1790  137.7071  162.4780 N   0  0  0  0  0  0  0  0  0  0  0  0
  131.8556  135.4830  160.2479 C   0  0  0  0  0  0  0  0  0  0  0  0
  128.2332  135.1622  160.6833 H   0  0  0  0  0  0  0  0  0  0  0  0
  127.2389  132.0585  159.2915 H   0  0  0  0  0  0  0  0  0  0  0  0
  125.0733  130.9599  159.6851 H   0  0  0  0  0  0  0  0  0  0  0  0
  123.2802  132.1559  160.8717 H   0  0  0  0  0  0  0  0  0  0  0  0
  123.6881  135.4885  162.0891 H   0  0  0  0  0  0  0  0  0  0  0  0
  125.8262  135.5614  161.2951 H   0  0  0  0  0  0  0  0  0  0  0  0
  130.0035  132.6654  160.3178 H   0  0  0  0  0  0  0  0  0  0  0  0
  131.5025  132.1922  162.2113 H   0  0  0  0  0  0  0  0  0  0  0  0
  133.2379  133.8184  162.8461 H   0  0  0  0  0  0  0  0  0  0  0  0
  135.1558  136.8335  163.6906 H   0  0  0  0  0  0  0  0  0  0  0  0
  134.5458  138.5697  165.3561 H   0  0  0  0  0  0  0  0  0  0  0  0
  132.3654  139.7362  165.1209 H   0  0  0  0  0  0  0  0  0  0  0  0
  129.7456  138.7092  165.1249 H   0  0  0  0  0  0  0  0  0  0  0  0
  127.5878  139.8916  164.7868 H   0  0  0  0  0  0  0  0  0  0  0  0
  127.2062  141.1322  162.6964 H   0  0  0  0  0  0  0  0  0  0  0  0
  130.9636  140.1160  161.2599 H   0  0  0  0  0  0  0  0  0  0  0  0
  131.9539  136.4061  159.6962 H   0  0  0  0  0  0  0  0  0  0  0  0
  1  2  1  0
  1  3  1  0
  1  4  1  0
  1  5  1  0
  5  6  1  6
  5  7  1  0
  5 17  1  0
  7  8  2  0
  7  9  1  0
  9 10  1  0
  9 36  1  0
 10 16  1  0
 10 11  2  0
 11 12  1  0
 11 37  1  0
 12 13  2  0
 12 38  1  0
 13 14  1  0
 13 39  1  0
 14 15  1  0
 14 16  2  0
 15 40  1  0
 16 41  1  0
 17 35  1  0
 17 18  2  0
 18 19  1  0
 18 42  1  0
 19 20  2  0
 19 43  1  0
 20 21  1  0
 20 44  1  0
 21 22  1  0
 21 35  2  0
 22 23  1  0
 23 34  1  0
 23 24  2  0
 24 25  1  0
 24 45  1  0
 25 26  2  0
 25 46  1  0
 26 27  1  0
 26 47  1  0
 27 28  1  0
 27 34  2  0
 28 33  1  0
 28 29  2  0
 29 30  1  0
 29 48  1  0
 30 31  2  0
 30 49  1  0
 31 32  1  0
 31 50  1  0
 32 33  2  0
 33 51  1  0
 35 52  1  0
M  CHG  1   1   1
M  END
>  <DOCK_score>  (1) 
-43.078369

>  <SMILES>  (1) 
[NH3+][C@@H](C(=O)Nc1cccc(O)c1)c1cccc(Oc2cccc(-c3cccnc3)n2)c1

$$$$
