Cc1cccc([C@H](C)[NH2+][C@@H](C)c2cccc(N3CCC(Cc4cccnc4)C3)c2)c1
     RDKit          3D

 64 67  0  0  1  0  0  0  0  0999 V2000
  128.0873  130.2797  159.6700 C   0  0  0  0  0  0  0  0  0  0  0  0
  128.8272  131.3372  158.8920 C   0  0  0  0  0  0  0  0  0  0  0  0
  129.4918  131.0005  157.7274 C   0  0  0  0  0  0  0  0  0  0  0  0
  130.1709  131.9704  157.0142 C   0  0  0  0  0  0  0  0  0  0  0  0
  130.1853  133.2773  157.4654 C   0  0  0  0  0  0  0  0  0  0  0  0
  129.5202  133.6139  158.6293 C   0  0  0  0  0  0  0  0  0  0  0  0
  129.5361  135.0383  159.1210 C   0  0  2  0  0  0  0  0  0  0  0  0
  128.9626  135.1100  160.0452 H   0  0  0  0  0  0  0  0  0  0  0  0
  128.9131  135.9504  158.0623 C   0  0  0  0  0  0  0  0  0  0  0  0
  130.9224  135.4545  159.3714 N   0  0  0  0  0  0  0  0  0  0  0  0
  130.9330  136.4082  159.7007 H   0  0  0  0  0  0  0  0  0  0  0  0
  131.4533  135.3881  158.5159 H   0  0  0  0  0  0  0  0  0  0  0  0
  131.5205  134.5789  160.3880 C   0  0  1  0  0  0  0  0  0  0  0  0
  131.5090  133.5486  160.0322 H   0  0  0  0  0  0  0  0  0  0  0  0
  132.9644  135.0122  160.6489 C   0  0  0  0  0  0  0  0  0  0  0  0
  130.7277  134.6778  161.6657 C   0  0  0  0  0  0  0  0  0  0  0  0
  130.1281  133.5499  162.1958 C   0  0  0  0  0  0  0  0  0  0  0  0
  129.3997  133.6363  163.3678 C   0  0  0  0  0  0  0  0  0  0  0  0
  129.2731  134.8493  164.0162 C   0  0  0  0  0  0  0  0  0  0  0  0
  129.8699  135.9850  163.4842 C   0  0  0  0  0  0  0  0  0  0  0  0
  129.7402  137.2140  164.1350 N   0  0  0  0  0  0  0  0  0  0  0  0
  130.2051  137.1225  165.5431 C   0  0  0  0  0  0  0  0  0  0  0  0
  129.5266  138.3126  166.2549 C   0  0  0  0  0  0  0  0  0  0  0  0
  128.2816  138.6329  165.4022 C   0  0  2  0  0  0  0  0  0  0  0  0
  127.0089  138.4579  166.2332 C   0  0  0  0  0  0  0  0  0  0  0  0
  125.8670  139.1746  165.5602 C   0  0  0  0  0  0  0  0  0  0  0  0
  125.5979  140.5020  165.8584 C   0  0  0  0  0  0  0  0  0  0  0  0
  124.5406  141.1224  165.2109 C   0  0  0  0  0  0  0  0  0  0  0  0
  123.7918  140.4010  164.3001 C   0  0  0  0  0  0  0  0  0  0  0  0
  124.0733  139.1382  164.0453 N   0  0  0  0  0  0  0  0  0  0  0  0
  125.0713  138.5161  164.6423 C   0  0  0  0  0  0  0  0  0  0  0  0
  128.3126  137.6092  164.2470 C   0  0  0  0  0  0  0  0  0  0  0  0
  130.6011  135.8946  162.3062 C   0  0  0  0  0  0  0  0  0  0  0  0
  128.8450  132.6428  159.3452 C   0  0  0  0  0  0  0  0  0  0  0  0
  128.7596  129.8284  160.3997 H   0  0  0  0  0  0  0  0  0  0  0  0
  127.2418  130.7337  160.1869 H   0  0  0  0  0  0  0  0  0  0  0  0
  127.7253  129.5120  158.9861 H   0  0  0  0  0  0  0  0  0  0  0  0
  129.4807  129.9797  157.3752 H   0  0  0  0  0  0  0  0  0  0  0  0
  130.6903  131.7074  156.1046 H   0  0  0  0  0  0  0  0  0  0  0  0
  130.7162  134.0350  156.9083 H   0  0  0  0  0  0  0  0  0  0  0  0
  129.4865  135.8787  157.1380 H   0  0  0  0  0  0  0  0  0  0  0  0
  127.8845  135.6416  157.8763 H   0  0  0  0  0  0  0  0  0  0  0  0
  128.9246  136.9806  158.4179 H   0  0  0  0  0  0  0  0  0  0  0  0
  132.9759  136.0424  161.0047 H   0  0  0  0  0  0  0  0  0  0  0  0
  133.4082  134.3624  161.4032 H   0  0  0  0  0  0  0  0  0  0  0  0
  133.5379  134.9406  159.7247 H   0  0  0  0  0  0  0  0  0  0  0  0
  130.2287  132.5995  161.6929 H   0  0  0  0  0  0  0  0  0  0  0  0
  128.9328  132.7536  163.7792 H   0  0  0  0  0  0  0  0  0  0  0  0
  128.7078  134.9154  164.9342 H   0  0  0  0  0  0  0  0  0  0  0  0
  131.2896  137.2182  165.5923 H   0  0  0  0  0  0  0  0  0  0  0  0
  129.8850  136.1805  165.9886 H   0  0  0  0  0  0  0  0  0  0  0  0
  130.1982  139.1707  166.2814 H   0  0  0  0  0  0  0  0  0  0  0  0
  129.2312  138.0325  167.2660 H   0  0  0  0  0  0  0  0  0  0  0  0
  128.3413  139.6488  165.0116 H   0  0  0  0  0  0  0  0  0  0  0  0
  127.1643  138.8756  167.2280 H   0  0  0  0  0  0  0  0  0  0  0  0
  126.7730  137.3971  166.3173 H   0  0  0  0  0  0  0  0  0  0  0  0
  126.2004  141.0409  166.5745 H   0  0  0  0  0  0  0  0  0  0  0  0
  124.3052  142.1563  165.4153 H   0  0  0  0  0  0  0  0  0  0  0  0
  122.9665  140.8771  163.7914 H   0  0  0  0  0  0  0  0  0  0  0  0
  125.2717  137.4811  164.4075 H   0  0  0  0  0  0  0  0  0  0  0  0
  127.6963  136.7434  164.4895 H   0  0  0  0  0  0  0  0  0  0  0  0
  127.9723  138.0714  163.3203 H   0  0  0  0  0  0  0  0  0  0  0  0
  131.0696  136.7751  161.8918 H   0  0  0  0  0  0  0  0  0  0  0  0
  128.3289  132.9051  160.2570 H   0  0  0  0  0  0  0  0  0  0  0  0
  1  2  1  0
  1 35  1  0
  1 36  1  0
  1 37  1  0
  2 34  2  0
  2  3  1  0
  3  4  2  0
  3 38  1  0
  4  5  1  0
  4 39  1  0
  5  6  2  0
  5 40  1  0
  6  7  1  0
  6 34  1  0
  7  8  1  1
  7  9  1  0
  7 10  1  0
  9 41  1  0
  9 42  1  0
  9 43  1  0
 10 11  1  0
 10 12  1  0
 10 13  1  0
 13 14  1  6
 13 15  1  0
 13 16  1  0
 15 44  1  0
 15 45  1  0
 15 46  1  0
 16 33  1  0
 16 17  2  0
 17 18  1  0
 17 47  1  0
 18 19  2  0
 18 48  1  0
 19 20  1  0
 19 49  1  0
 20 21  1  0
 20 33  2  0
 21 32  1  0
 21 22  1  0
 22 23  1  0
 22 50  1  0
 22 51  1  0
 23 24  1  0
 23 52  1  0
 23 53  1  0
 24 25  1  0
 24 32  1  0
 24 54  1  6
 25 26  1  0
 25 55  1  0
 25 56  1  0
 26 31  1  0
 26 27  2  0
 27 28  1  0
 27 57  1  0
 28 29  2  0
 28 58  1  0
 29 30  1  0
 29 59  1  0
 30 31  2  0
 31 60  1  0
 32 61  1  0
 32 62  1  0
 33 63  1  0
 34 64  1  0
M  CHG  1  10   1
M  END
>  <DOCK_score>  (1) 
-42.514923

>  <SMILES>  (1) 
Cc1cccc([C@H](C)[NH2+][C@@H](C)c2cccc(N3CCC(Cc4cccnc4)C3)c2)c1

$$$$
