Cc1cccc(-c2ccc([C@@H](Cc3ccccc3)Nc3[nH]cc(-c4ccc(N)cc4)[nH+]3)cc2)c1
     RDKit          3D

 63 67  0  0  1  0  0  0  0  0999 V2000
  137.7867  134.0162  163.6830 C   0  0  0  0  0  0  0  0  0  0  0  0
  136.4289  134.3581  164.2402 C   0  0  0  0  0  0  0  0  0  0  0  0
  136.2638  134.5265  165.6042 C   0  0  0  0  0  0  0  0  0  0  0  0
  135.0212  134.8410  166.1215 C   0  0  0  0  0  0  0  0  0  0  0  0
  133.9369  134.9874  165.2798 C   0  0  0  0  0  0  0  0  0  0  0  0
  134.0968  134.8186  163.9061 C   0  0  0  0  0  0  0  0  0  0  0  0
  132.9345  134.9744  162.9968 C   0  0  0  0  0  0  0  0  0  0  0  0
  133.1239  135.4244  161.6915 C   0  0  0  0  0  0  0  0  0  0  0  0
  132.0397  135.5673  160.8495 C   0  0  0  0  0  0  0  0  0  0  0  0
  130.7671  135.2650  161.2993 C   0  0  0  0  0  0  0  0  0  0  0  0
  129.5871  135.4231  160.3753 C   0  0  1  0  0  0  0  0  0  0  0  0
  128.8177  134.6982  160.6411 H   0  0  0  0  0  0  0  0  0  0  0  0
  129.0216  136.8386  160.5078 C   0  0  0  0  0  0  0  0  0  0  0  0
  130.0853  137.8408  160.1402 C   0  0  0  0  0  0  0  0  0  0  0  0
  130.9332  138.3369  161.1129 C   0  0  0  0  0  0  0  0  0  0  0  0
  131.9055  139.2601  160.7766 C   0  0  0  0  0  0  0  0  0  0  0  0
  132.0363  139.6800  159.4661 C   0  0  0  0  0  0  0  0  0  0  0  0
  131.1890  139.1833  158.4933 C   0  0  0  0  0  0  0  0  0  0  0  0
  130.2135  138.2636  158.8305 C   0  0  0  0  0  0  0  0  0  0  0  0
  130.0155  135.1958  158.9929 N   0  0  0  0  0  0  0  0  0  0  0  0
  129.9712  133.9208  158.4552 C   0  0  0  0  0  0  0  0  0  0  0  0
  129.5462  132.8020  159.1026 N   0  0  0  0  0  0  0  0  0  0  0  0
  129.2232  132.7543  160.0159 H   0  0  0  0  0  0  0  0  0  0  0  0
  129.6597  131.7515  158.2229 C   0  0  0  0  0  0  0  0  0  0  0  0
  130.1502  132.2592  157.0653 C   0  0  0  0  0  0  0  0  0  0  0  0
  130.4373  131.4925  155.8282 C   0  0  0  0  0  0  0  0  0  0  0  0
  129.7793  131.8109  154.6412 C   0  0  0  0  0  0  0  0  0  0  0  0
  130.0519  131.1006  153.4910 C   0  0  0  0  0  0  0  0  0  0  0  0
  130.9736  130.0605  153.5174 C   0  0  0  0  0  0  0  0  0  0  0  0
  131.2445  129.3387  152.3525 N   0  0  0  0  0  0  0  0  0  0  0  0
  131.6265  129.7377  154.7011 C   0  0  0  0  0  0  0  0  0  0  0  0
  131.3612  130.4489  155.8522 C   0  0  0  0  0  0  0  0  0  0  0  0
  130.3263  133.5934  157.2366 N   0  0  0  0  0  0  0  0  0  0  0  0
  130.6633  134.2068  156.5651 H   0  0  0  0  0  0  0  0  0  0  0  0
  130.5728  134.8234  162.5956 C   0  0  0  0  0  0  0  0  0  0  0  0
  131.6505  134.6714  163.4444 C   0  0  0  0  0  0  0  0  0  0  0  0
  135.3505  134.4965  163.3902 C   0  0  0  0  0  0  0  0  0  0  0  0
  137.9023  132.9329  163.6468 H   0  0  0  0  0  0  0  0  0  0  0  0
  137.8801  134.4254  162.6770 H   0  0  0  0  0  0  0  0  0  0  0  0
  138.5596  134.4429  164.3221 H   0  0  0  0  0  0  0  0  0  0  0  0
  137.1100  134.4126  166.2655 H   0  0  0  0  0  0  0  0  0  0  0  0
  134.8984  134.9717  167.1866 H   0  0  0  0  0  0  0  0  0  0  0  0
  132.9665  135.2328  165.6855 H   0  0  0  0  0  0  0  0  0  0  0  0
  134.1172  135.6603  161.3392 H   0  0  0  0  0  0  0  0  0  0  0  0
  132.1852  135.9154  159.8375 H   0  0  0  0  0  0  0  0  0  0  0  0
  128.7027  137.0077  161.5362 H   0  0  0  0  0  0  0  0  0  0  0  0
  128.1683  136.9529  159.8393 H   0  0  0  0  0  0  0  0  0  0  0  0
  130.8330  138.0065  162.1362 H   0  0  0  0  0  0  0  0  0  0  0  0
  132.5651  139.6510  161.5372 H   0  0  0  0  0  0  0  0  0  0  0  0
  132.7982  140.3986  159.2028 H   0  0  0  0  0  0  0  0  0  0  0  0
  131.2889  139.5138  157.4700 H   0  0  0  0  0  0  0  0  0  0  0  0
  129.5513  137.8759  158.0705 H   0  0  0  0  0  0  0  0  0  0  0  0
  130.3304  135.9386  158.4543 H   0  0  0  0  0  0  0  0  0  0  0  0
  129.4067  130.7196  158.4169 H   0  0  0  0  0  0  0  0  0  0  0  0
  129.0596  132.6159  154.6214 H   0  0  0  0  0  0  0  0  0  0  0  0
  129.5455  131.3496  152.5703 H   0  0  0  0  0  0  0  0  0  0  0  0
  131.8875  128.6131  152.3698 H   0  0  0  0  0  0  0  0  0  0  0  0
  130.7889  129.5637  151.5258 H   0  0  0  0  0  0  0  0  0  0  0  0
  132.3419  128.9290  154.7193 H   0  0  0  0  0  0  0  0  0  0  0  0
  131.8691  130.1979  156.7717 H   0  0  0  0  0  0  0  0  0  0  0  0
  129.5765  134.5931  162.9430 H   0  0  0  0  0  0  0  0  0  0  0  0
  131.4982  134.3224  164.4550 H   0  0  0  0  0  0  0  0  0  0  0  0
  135.4789  134.3596  162.3266 H   0  0  0  0  0  0  0  0  0  0  0  0
  1  2  1  0
  1 38  1  0
  1 39  1  0
  1 40  1  0
  2 37  2  0
  2  3  1  0
  3  4  2  0
  3 41  1  0
  4  5  1  0
  4 42  1  0
  5  6  2  0
  5 43  1  0
  6  7  1  0
  6 37  1  0
  7 36  1  0
  7  8  2  0
  8  9  1  0
  8 44  1  0
  9 10  2  0
  9 45  1  0
 10 11  1  0
 10 35  1  0
 11 12  1  1
 11 13  1  0
 11 20  1  0
 13 14  1  0
 13 46  1  0
 13 47  1  0
 14 19  1  0
 14 15  2  0
 15 16  1  0
 15 48  1  0
 16 17  2  0
 16 49  1  0
 17 18  1  0
 17 50  1  0
 18 19  2  0
 18 51  1  0
 19 52  1  0
 20 53  1  0
 21 20  1  0
 21 33  2  0
 21 22  1  0
 22 23  1  0
 22 24  1  0
 24 25  2  0
 24 54  1  0
 25 26  1  0
 25 33  1  0
 26 32  1  0
 26 27  2  0
 27 28  1  0
 27 55  1  0
 28 29  2  0
 28 56  1  0
 29 30  1  0
 29 31  1  0
 30 57  1  0
 30 58  1  0
 31 32  2  0
 31 59  1  0
 32 60  1  0
 33 34  1  0
 35 36  2  0
 35 61  1  0
 36 62  1  0
 37 63  1  0
M  CHG  1  33   1
M  END
>  <DOCK_score>  (1) 
-64.246803

>  <SMILES>  (1) 
Cc1cccc(-c2ccc([C@@H](Cc3ccccc3)Nc3[nH]cc(-c4ccc(N)cc4)[nH+]3)cc2)c1

$$$$
