CCC[C@H](C)Nc1ccc(Nc2[nH]cc(C3CC3)[nH+]2)cc1
     RDKit          3D

 46 48  0  0  1  0  0  0  0  0999 V2000
  126.3837  135.4744  166.7627 C   0  0  0  0  0  0  0  0  0  0  0  0
  126.9847  136.4023  165.7051 C   0  0  0  0  0  0  0  0  0  0  0  0
  126.1430  136.3339  164.4292 C   0  0  0  0  0  0  0  0  0  0  0  0
  126.7439  137.2619  163.3715 C   0  0  2  0  0  0  0  0  0  0  0  0
  127.8313  137.1924  163.4027 H   0  0  0  0  0  0  0  0  0  0  0  0
  126.3168  138.7034  163.6556 C   0  0  0  0  0  0  0  0  0  0  0  0
  126.2671  136.8637  162.0448 N   0  0  0  0  0  0  0  0  0  0  0  0
  127.1824  136.4750  161.0597 C   0  0  0  0  0  0  0  0  0  0  0  0
  128.4629  137.0123  161.0508 C   0  0  0  0  0  0  0  0  0  0  0  0
  129.3658  136.6288  160.0791 C   0  0  0  0  0  0  0  0  0  0  0  0
  128.9933  135.7054  159.1109 C   0  0  0  0  0  0  0  0  0  0  0  0
  129.9090  135.3165  158.1252 N   0  0  0  0  0  0  0  0  0  0  0  0
  129.8381  134.0465  157.5760 C   0  0  0  0  0  0  0  0  0  0  0  0
  129.3883  132.9296  158.2096 N   0  0  0  0  0  0  0  0  0  0  0  0
  129.0609  132.8756  159.1212 H   0  0  0  0  0  0  0  0  0  0  0  0
  129.4803  131.8919  157.3102 C   0  0  0  0  0  0  0  0  0  0  0  0
  129.9857  132.4019  156.1740 C   0  0  0  0  0  0  0  0  0  0  0  0
  130.2659  131.6317  154.9093 C   0  0  0  0  0  0  0  0  0  0  0  0
  129.9626  132.3232  153.5786 C   0  0  0  0  0  0  0  0  0  0  0  0
  131.4126  132.1219  154.0230 C   0  0  0  0  0  0  0  0  0  0  0  0
  130.1931  133.7166  156.3566 N   0  0  0  0  0  0  0  0  0  0  0  0
  130.5488  134.3263  155.6914 H   0  0  0  0  0  0  0  0  0  0  0  0
  127.7111  135.1722  159.1166 C   0  0  0  0  0  0  0  0  0  0  0  0
  126.8100  135.5516  160.0915 C   0  0  0  0  0  0  0  0  0  0  0  0
  126.3763  134.4513  166.3866 H   0  0  0  0  0  0  0  0  0  0  0  0
  126.9834  135.5230  167.6716 H   0  0  0  0  0  0  0  0  0  0  0  0
  125.3633  135.7877  166.9834 H   0  0  0  0  0  0  0  0  0  0  0  0
  128.0051  136.0890  165.4843 H   0  0  0  0  0  0  0  0  0  0  0  0
  126.9920  137.4253  166.0811 H   0  0  0  0  0  0  0  0  0  0  0  0
  125.1226  136.6472  164.6499 H   0  0  0  0  0  0  0  0  0  0  0  0
  126.1357  135.3110  164.0530 H   0  0  0  0  0  0  0  0  0  0  0  0
  125.2295  138.7728  163.6242 H   0  0  0  0  0  0  0  0  0  0  0  0
  126.6716  138.9995  164.6426 H   0  0  0  0  0  0  0  0  0  0  0  0
  126.7450  139.3643  162.9020 H   0  0  0  0  0  0  0  0  0  0  0  0
  125.3171  136.8694  161.8489 H   0  0  0  0  0  0  0  0  0  0  0  0
  128.7525  137.7304  161.8038 H   0  0  0  0  0  0  0  0  0  0  0  0
  130.3616  137.0468  160.0722 H   0  0  0  0  0  0  0  0  0  0  0  0
  130.5930  135.9363  157.8269 H   0  0  0  0  0  0  0  0  0  0  0  0
  129.2013  130.8632  157.4848 H   0  0  0  0  0  0  0  0  0  0  0  0
  130.0989  130.5562  154.9672 H   0  0  0  0  0  0  0  0  0  0  0  0
  129.5960  131.7024  152.7610 H   0  0  0  0  0  0  0  0  0  0  0  0
  129.5600  133.3353  153.6177 H   0  0  0  0  0  0  0  0  0  0  0  0
  131.9642  133.0016  154.3544 H   0  0  0  0  0  0  0  0  0  0  0  0
  132.0001  131.3688  153.4978 H   0  0  0  0  0  0  0  0  0  0  0  0
  127.4201  134.4574  158.3610 H   0  0  0  0  0  0  0  0  0  0  0  0
  125.8141  135.1338  160.0986 H   0  0  0  0  0  0  0  0  0  0  0  0
  1  2  1  0
  1 25  1  0
  1 26  1  0
  1 27  1  0
  2  3  1  0
  2 28  1  0
  2 29  1  0
  3  4  1  0
  3 30  1  0
  3 31  1  0
  4  5  1  6
  4  6  1  0
  4  7  1  0
  6 32  1  0
  6 33  1  0
  6 34  1  0
  7  8  1  0
  7 35  1  0
  8 24  2  0
  8  9  1  0
  9 10  2  0
  9 36  1  0
 10 11  1  0
 10 37  1  0
 11 12  1  0
 11 23  2  0
 12 38  1  0
 13 12  1  0
 13 21  2  0
 13 14  1  0
 14 15  1  0
 14 16  1  0
 16 17  2  0
 16 39  1  0
 17 18  1  0
 17 21  1  0
 18 20  1  0
 18 19  1  0
 18 40  1  0
 19 20  1  0
 19 41  1  0
 19 42  1  0
 20 43  1  0
 20 44  1  0
 21 22  1  0
 23 24  1  0
 23 45  1  0
 24 46  1  0
M  CHG  1  21   1
M  END
>  <DOCK_score>  (1) 
-50.716961

>  <SMILES>  (1) 
CCC[C@H](C)Nc1ccc(Nc2[nH]cc(C3CC3)[nH+]2)cc1

$$$$
