COc1ccccc1CS[C@H](Nc1[nH]cc(-c2ccc(N)cc2)[nH+]1)c1ccccc1
     RDKit          3D

 55 58  0  0  1  0  0  0  0  0999 V2000
  133.2551  133.6810  160.9775 C   0  0  0  0  0  0  0  0  0  0  0  0
  132.9065  135.0578  160.8203 O   0  0  0  0  0  0  0  0  0  0  0  0
  133.2322  135.8969  161.8384 C   0  0  0  0  0  0  0  0  0  0  0  0
  133.8752  135.4052  162.9654 C   0  0  0  0  0  0  0  0  0  0  0  0
  134.2056  136.2603  163.9987 C   0  0  0  0  0  0  0  0  0  0  0  0
  133.8962  137.6052  163.9107 C   0  0  0  0  0  0  0  0  0  0  0  0
  133.2557  138.0975  162.7888 C   0  0  0  0  0  0  0  0  0  0  0  0
  132.9234  137.2465  161.7523 C   0  0  0  0  0  0  0  0  0  0  0  0
  132.2253  137.7837  160.5297 C   0  0  0  0  0  0  0  0  0  0  0  0
  130.4295  137.6993  160.7726 S   0  0  0  0  0  0  0  0  0  0  0  0
  130.0505  135.9618  160.4146 C   0  0  2  0  0  0  0  0  0  0  0  0
  130.5974  135.3207  161.1058 H   0  0  0  0  0  0  0  0  0  0  0  0
  130.4481  135.6487  159.0397 N   0  0  0  0  0  0  0  0  0  0  0  0
  130.2553  134.3734  158.5367 C   0  0  0  0  0  0  0  0  0  0  0  0
  129.7040  133.3296  159.2135 N   0  0  0  0  0  0  0  0  0  0  0  0
  129.3785  133.3448  160.1271 H   0  0  0  0  0  0  0  0  0  0  0  0
  129.6940  132.2493  158.3632 C   0  0  0  0  0  0  0  0  0  0  0  0
  130.2390  132.6648  157.1933 C   0  0  0  0  0  0  0  0  0  0  0  0
  130.4354  131.8359  155.9786 C   0  0  0  0  0  0  0  0  0  0  0  0
  129.8177  132.1945  154.7815 C   0  0  0  0  0  0  0  0  0  0  0  0
  130.0061  131.4256  153.6525 C   0  0  0  0  0  0  0  0  0  0  0  0
  130.8015  130.2873  153.7103 C   0  0  0  0  0  0  0  0  0  0  0  0
  130.9859  129.5072  152.5663 N   0  0  0  0  0  0  0  0  0  0  0  0
  131.4141  129.9250  154.9041 C   0  0  0  0  0  0  0  0  0  0  0  0
  131.2333  130.6942  156.0342 C   0  0  0  0  0  0  0  0  0  0  0  0
  130.5685  133.9738  157.3283 N   0  0  0  0  0  0  0  0  0  0  0  0
  130.9734  134.5256  156.6409 H   0  0  0  0  0  0  0  0  0  0  0  0
  128.5707  135.7271  160.5754 C   0  0  0  0  0  0  0  0  0  0  0  0
  128.0614  135.3394  161.8007 C   0  0  0  0  0  0  0  0  0  0  0  0
  126.7034  135.1279  161.9491 C   0  0  0  0  0  0  0  0  0  0  0  0
  125.8558  135.2962  160.8702 C   0  0  0  0  0  0  0  0  0  0  0  0
  126.3656  135.6787  159.6436 C   0  0  0  0  0  0  0  0  0  0  0  0
  127.7231  135.8940  159.4962 C   0  0  0  0  0  0  0  0  0  0  0  0
  132.9396  133.1232  160.0958 H   0  0  0  0  0  0  0  0  0  0  0  0
  134.3348  133.5909  161.0971 H   0  0  0  0  0  0  0  0  0  0  0  0
  132.7571  133.2784  161.8596 H   0  0  0  0  0  0  0  0  0  0  0  0
  134.1209  134.3558  163.0328 H   0  0  0  0  0  0  0  0  0  0  0  0
  134.7057  135.8780  164.8763 H   0  0  0  0  0  0  0  0  0  0  0  0
  134.1551  138.2721  164.7197 H   0  0  0  0  0  0  0  0  0  0  0  0
  133.0151  139.1483  162.7224 H   0  0  0  0  0  0  0  0  0  0  0  0
  132.5217  138.8201  160.3679 H   0  0  0  0  0  0  0  0  0  0  0  0
  132.5028  137.1867  159.6610 H   0  0  0  0  0  0  0  0  0  0  0  0
  130.8464  136.3350  158.4818 H   0  0  0  0  0  0  0  0  0  0  0  0
  129.3232  131.2595  158.5847 H   0  0  0  0  0  0  0  0  0  0  0  0
  129.1957  133.0763  154.7373 H   0  0  0  0  0  0  0  0  0  0  0  0
  129.5314  131.7055  152.7236 H   0  0  0  0  0  0  0  0  0  0  0  0
  131.5415  128.7123  152.6062 H   0  0  0  0  0  0  0  0  0  0  0  0
  130.5590  129.7589  151.7330 H   0  0  0  0  0  0  0  0  0  0  0  0
  132.0319  129.0402  154.9467 H   0  0  0  0  0  0  0  0  0  0  0  0
  131.7098  130.4124  156.9616 H   0  0  0  0  0  0  0  0  0  0  0  0
  128.7242  135.2048  162.6426 H   0  0  0  0  0  0  0  0  0  0  0  0
  126.3051  134.8287  162.9073 H   0  0  0  0  0  0  0  0  0  0  0  0
  124.7951  135.1284  160.9856 H   0  0  0  0  0  0  0  0  0  0  0  0
  125.7033  135.8098  158.8007 H   0  0  0  0  0  0  0  0  0  0  0  0
  128.1214  136.1928  158.5378 H   0  0  0  0  0  0  0  0  0  0  0  0
  1  2  1  0
  1 34  1  0
  1 35  1  0
  1 36  1  0
  2  3  1  0
  3  8  2  0
  3  4  1  0
  4  5  2  0
  4 37  1  0
  5  6  1  0
  5 38  1  0
  6  7  2  0
  6 39  1  0
  7  8  1  0
  7 40  1  0
  8  9  1  0
  9 10  1  0
  9 41  1  0
  9 42  1  0
 10 11  1  0
 11 12  1  1
 11 13  1  0
 11 28  1  0
 13 43  1  0
 14 13  1  0
 14 26  2  0
 14 15  1  0
 15 16  1  0
 15 17  1  0
 17 18  2  0
 17 44  1  0
 18 19  1  0
 18 26  1  0
 19 25  1  0
 19 20  2  0
 20 21  1  0
 20 45  1  0
 21 22  2  0
 21 46  1  0
 22 23  1  0
 22 24  1  0
 23 47  1  0
 23 48  1  0
 24 25  2  0
 24 49  1  0
 25 50  1  0
 26 27  1  0
 28 33  1  0
 28 29  2  0
 29 30  1  0
 29 51  1  0
 30 31  2  0
 30 52  1  0
 31 32  1  0
 31 53  1  0
 32 33  2  0
 32 54  1  0
 33 55  1  0
M  CHG  1  26   1
M  END
>  <DOCK_score>  (1) 
-58.129971

>  <SMILES>  (1) 
COc1ccccc1CS[C@H](Nc1[nH]cc(-c2ccc(N)cc2)[nH+]1)c1ccccc1

$$$$
