Nc1ccc(Nc2ccc(-c3n[nH]cc3C[NH2+]CC=CC3CC3)o2)cc1
     RDKit          3D

 50 53  0  0  0  0  0  0  0  0999 V2000
  128.9578  139.0041  165.8131 N   0  0  0  0  0  0  0  0  0  0  0  0
  128.2503  138.3079  164.8264 C   0  0  0  0  0  0  0  0  0  0  0  0
  128.6166  137.0101  164.4944 C   0  0  0  0  0  0  0  0  0  0  0  0
  127.9188  136.3236  163.5206 C   0  0  0  0  0  0  0  0  0  0  0  0
  126.8504  136.9307  162.8734 C   0  0  0  0  0  0  0  0  0  0  0  0
  126.1434  136.2349  161.8858 N   0  0  0  0  0  0  0  0  0  0  0  0
  126.7897  135.2777  161.1126 C   0  0  0  0  0  0  0  0  0  0  0  0
  126.2144  134.1730  160.5744 C   0  0  0  0  0  0  0  0  0  0  0  0
  127.2235  133.4845  159.8731 C   0  0  0  0  0  0  0  0  0  0  0  0
  128.3667  134.2052  160.0188 C   0  0  0  0  0  0  0  0  0  0  0  0
  129.6857  133.8602  159.4497 C   0  0  0  0  0  0  0  0  0  0  0  0
  129.9607  132.8018  158.7130 N   0  0  0  0  0  0  0  0  0  0  0  0
  131.3199  132.8470  158.3777 N   0  0  0  0  0  0  0  0  0  0  0  0
  131.7954  132.1934  157.8414 H   0  0  0  0  0  0  0  0  0  0  0  0
  131.8540  133.9575  158.9305 C   0  0  0  0  0  0  0  0  0  0  0  0
  130.8750  134.6048  159.5981 C   0  0  0  0  0  0  0  0  0  0  0  0
  131.0257  135.8930  160.3653 C   0  0  0  0  0  0  0  0  0  0  0  0
  130.7682  137.0290  159.4701 N   0  0  0  0  0  0  0  0  0  0  0  0
  131.4285  137.0125  158.7074 H   0  0  0  0  0  0  0  0  0  0  0  0
  129.8301  136.9632  159.1043 H   0  0  0  0  0  0  0  0  0  0  0  0
  130.9151  138.2849  160.2179 C   0  0  0  0  0  0  0  0  0  0  0  0
  132.3161  138.3833  160.7642 C   0  0  0  0  0  0  0  0  0  0  0  0
  133.0871  139.3829  160.4138 C   0  0  0  0  0  0  0  0  0  0  0  0
  134.5236  139.4214  160.8676 C   0  0  0  0  0  0  0  0  0  0  0  0
  134.7979  139.2341  162.3611 C   0  0  0  0  0  0  0  0  0  0  0  0
  134.9636  140.6138  161.7192 C   0  0  0  0  0  0  0  0  0  0  0  0
  128.0914  135.2871  160.7773 O   0  0  0  0  0  0  0  0  0  0  0  0
  126.4873  138.2305  163.2021 C   0  0  0  0  0  0  0  0  0  0  0  0
  127.1818  138.9150  164.1795 C   0  0  0  0  0  0  0  0  0  0  0  0
  129.6557  138.5563  166.3166 H   0  0  0  0  0  0  0  0  0  0  0  0
  128.7505  139.9342  165.9936 H   0  0  0  0  0  0  0  0  0  0  0  0
  129.4474  136.5380  164.9977 H   0  0  0  0  0  0  0  0  0  0  0  0
  128.2042  135.3145  163.2620 H   0  0  0  0  0  0  0  0  0  0  0  0
  125.2025  136.4209  161.7409 H   0  0  0  0  0  0  0  0  0  0  0  0
  125.1797  133.8778  160.6663 H   0  0  0  0  0  0  0  0  0  0  0  0
  127.1105  132.5606  159.3252 H   0  0  0  0  0  0  0  0  0  0  0  0
  132.8840  134.2726  158.8525 H   0  0  0  0  0  0  0  0  0  0  0  0
  130.3121  135.9108  161.1893 H   0  0  0  0  0  0  0  0  0  0  0  0
  132.0390  135.9643  160.7605 H   0  0  0  0  0  0  0  0  0  0  0  0
  130.7240  139.1277  159.5536 H   0  0  0  0  0  0  0  0  0  0  0  0
  130.2017  138.3026  161.0419 H   0  0  0  0  0  0  0  0  0  0  0  0
  132.6845  137.6300  161.4447 H   0  0  0  0  0  0  0  0  0  0  0  0
  132.6931  140.1790  159.7994 H   0  0  0  0  0  0  0  0  0  0  0  0
  135.2492  139.0083  160.1669 H   0  0  0  0  0  0  0  0  0  0  0  0
  133.9392  139.0831  163.0154 H   0  0  0  0  0  0  0  0  0  0  0  0
  135.7041  138.6981  162.6430 H   0  0  0  0  0  0  0  0  0  0  0  0
  135.9789  140.9849  161.5792 H   0  0  0  0  0  0  0  0  0  0  0  0
  134.2142  141.3707  161.9509 H   0  0  0  0  0  0  0  0  0  0  0  0
  125.6593  138.7043  162.6958 H   0  0  0  0  0  0  0  0  0  0  0  0
  126.8966  139.9241  164.4380 H   0  0  0  0  0  0  0  0  0  0  0  0
  1  2  1  0
  1 30  1  0
  1 31  1  0
  2 29  2  0
  2  3  1  0
  3  4  2  0
  3 32  1  0
  4  5  1  0
  4 33  1  0
  5  6  1  0
  5 28  2  0
  6  7  1  0
  6 34  1  0
  7 27  1  0
  7  8  2  0
  8  9  1  0
  8 35  1  0
  9 10  2  0
  9 36  1  0
 10 11  1  0
 10 27  1  0
 11 16  1  0
 11 12  2  0
 12 13  1  0
 13 14  1  0
 13 15  1  0
 15 16  2  0
 15 37  1  0
 16 17  1  0
 17 18  1  0
 17 38  1  0
 17 39  1  0
 18 19  1  0
 18 20  1  0
 18 21  1  0
 21 22  1  0
 21 40  1  0
 21 41  1  0
 22 23  2  0
 22 42  1  0
 23 24  1  0
 23 43  1  0
 24 26  1  0
 24 25  1  0
 24 44  1  0
 25 26  1  0
 25 45  1  0
 25 46  1  0
 26 47  1  0
 26 48  1  0
 28 29  1  0
 28 49  1  0
 29 50  1  0
M  CHG  1  18   1
M  END
>  <DOCK_score>  (1) 
-41.765137

>  <SMILES>  (1) 
Nc1ccc(Nc2ccc(-c3n[nH]cc3C[NH2+]CC=CC3CC3)o2)cc1

$$$$
