Cc1ccc(C(C)(O)C[C@H](Nc2[nH]cc(-c3ccc(N)cc3)[nH+]2)c2ccccc2)cc1
     RDKit          3D

 60 63  0  0  1  0  0  0  0  0999 V2000
  132.0895  141.9515  163.0324 C   0  0  0  0  0  0  0  0  0  0  0  0
  131.7397  140.5966  162.4732 C   0  0  0  0  0  0  0  0  0  0  0  0
  130.5499  139.9884  162.8279 C   0  0  0  0  0  0  0  0  0  0  0  0
  130.2291  138.7457  162.3149 C   0  0  0  0  0  0  0  0  0  0  0  0
  131.0975  138.1112  161.4463 C   0  0  0  0  0  0  0  0  0  0  0  0
  130.7476  136.7563  160.8870 C   0  0  2  0  0  0  0  0  0  0  0  0
  130.5785  135.7589  162.0346 C   0  0  0  0  0  0  0  0  0  0  0  0
  131.7948  136.3135  160.0213 O   0  0  0  0  0  0  0  0  0  0  0  0
  129.4403  136.8525  160.0980 C   0  0  0  0  0  0  0  0  0  0  0  0
  129.0851  135.4769  159.5301 C   0  0  2  0  0  0  0  0  0  0  0  0
  128.9646  134.7663  160.3477 H   0  0  0  0  0  0  0  0  0  0  0  0
  130.1587  135.0229  158.6427 N   0  0  0  0  0  0  0  0  0  0  0  0
  130.0601  133.7965  158.0081 C   0  0  0  0  0  0  0  0  0  0  0  0
  129.4051  132.7053  158.4898 N   0  0  0  0  0  0  0  0  0  0  0  0
  128.9275  132.6471  159.3321 H   0  0  0  0  0  0  0  0  0  0  0  0
  129.5448  131.7006  157.5617 C   0  0  0  0  0  0  0  0  0  0  0  0
  130.2805  132.2073  156.5416 C   0  0  0  0  0  0  0  0  0  0  0  0
  130.6848  131.4817  155.3123 C   0  0  0  0  0  0  0  0  0  0  0  0
  130.2797  131.9468  154.0622 C   0  0  0  0  0  0  0  0  0  0  0  0
  130.6615  131.2740  152.9207 C   0  0  0  0  0  0  0  0  0  0  0  0
  131.4398  130.1264  153.0166 C   0  0  0  0  0  0  0  0  0  0  0  0
  131.8210  129.4438  151.8589 N   0  0  0  0  0  0  0  0  0  0  0  0
  131.8400  129.6579  154.2622 C   0  0  0  0  0  0  0  0  0  0  0  0
  131.4655  130.3306  155.4061 C   0  0  0  0  0  0  0  0  0  0  0  0
  130.5818  133.4950  156.8440 N   0  0  0  0  0  0  0  0  0  0  0  0
  131.1009  134.0965  156.2877 H   0  0  0  0  0  0  0  0  0  0  0  0
  127.7974  135.5717  158.7529 C   0  0  0  0  0  0  0  0  0  0  0  0
  126.5888  135.3588  159.3894 C   0  0  0  0  0  0  0  0  0  0  0  0
  125.4073  135.4501  158.6774 C   0  0  0  0  0  0  0  0  0  0  0  0
  125.4351  135.7450  157.3272 C   0  0  0  0  0  0  0  0  0  0  0  0
  126.6439  135.9527  156.6897 C   0  0  0  0  0  0  0  0  0  0  0  0
  127.8251  135.8658  157.4025 C   0  0  0  0  0  0  0  0  0  0  0  0
  132.2894  138.7172  161.0954 C   0  0  0  0  0  0  0  0  0  0  0  0
  132.6083  139.9619  161.6050 C   0  0  0  0  0  0  0  0  0  0  0  0
  132.6413  141.8285  163.9644 H   0  0  0  0  0  0  0  0  0  0  0  0
  132.7052  142.4930  162.3145 H   0  0  0  0  0  0  0  0  0  0  0  0
  131.1749  142.5130  163.2233 H   0  0  0  0  0  0  0  0  0  0  0  0
  129.8714  140.4843  163.5062 H   0  0  0  0  0  0  0  0  0  0  0  0
  129.2999  138.2704  162.5924 H   0  0  0  0  0  0  0  0  0  0  0  0
  130.3255  134.7789  161.6301 H   0  0  0  0  0  0  0  0  0  0  0  0
  131.5099  135.6904  162.5967 H   0  0  0  0  0  0  0  0  0  0  0  0
  129.7797  136.0967  162.6949 H   0  0  0  0  0  0  0  0  0  0  0  0
  131.9578  136.8993  159.2695 H   0  0  0  0  0  0  0  0  0  0  0  0
  129.5607  137.5631  159.2803 H   0  0  0  0  0  0  0  0  0  0  0  0
  128.6415  137.1903  160.7581 H   0  0  0  0  0  0  0  0  0  0  0  0
  130.9386  135.5817  158.4996 H   0  0  0  0  0  0  0  0  0  0  0  0
  129.1487  130.6984  157.6336 H   0  0  0  0  0  0  0  0  0  0  0  0
  129.6709  132.8358  153.9876 H   0  0  0  0  0  0  0  0  0  0  0  0
  130.3514  131.6364  151.9517 H   0  0  0  0  0  0  0  0  0  0  0  0
  132.3644  128.6430  151.9250 H   0  0  0  0  0  0  0  0  0  0  0  0
  131.5421  129.7702  150.9892 H   0  0  0  0  0  0  0  0  0  0  0  0
  132.4446  128.7659  154.3343 H   0  0  0  0  0  0  0  0  0  0  0  0
  131.7769  129.9662  156.3739 H   0  0  0  0  0  0  0  0  0  0  0  0
  126.5673  135.1248  160.4434 H   0  0  0  0  0  0  0  0  0  0  0  0
  124.4629  135.2882  159.1755 H   0  0  0  0  0  0  0  0  0  0  0  0
  124.5122  135.8137  156.7704 H   0  0  0  0  0  0  0  0  0  0  0  0
  126.6655  136.1832  155.6348 H   0  0  0  0  0  0  0  0  0  0  0  0
  128.7695  136.0279  156.9044 H   0  0  0  0  0  0  0  0  0  0  0  0
  132.9698  138.2195  160.4202 H   0  0  0  0  0  0  0  0  0  0  0  0
  133.5376  140.4372  161.3276 H   0  0  0  0  0  0  0  0  0  0  0  0
  1  2  1  0
  1 35  1  0
  1 36  1  0
  1 37  1  0
  2 34  2  0
  2  3  1  0
  3  4  2  0
  3 38  1  0
  4  5  1  0
  4 39  1  0
  5  6  1  0
  5 33  2  0
  6  7  1  0
  6  8  1  6
  6  9  1  0
  7 40  1  0
  7 41  1  0
  7 42  1  0
  8 43  1  0
  9 10  1  0
  9 44  1  0
  9 45  1  0
 10 11  1  1
 10 12  1  0
 10 27  1  0
 12 46  1  0
 13 12  1  0
 13 25  2  0
 13 14  1  0
 14 15  1  0
 14 16  1  0
 16 17  2  0
 16 47  1  0
 17 18  1  0
 17 25  1  0
 18 24  1  0
 18 19  2  0
 19 20  1  0
 19 48  1  0
 20 21  2  0
 20 49  1  0
 21 22  1  0
 21 23  1  0
 22 50  1  0
 22 51  1  0
 23 24  2  0
 23 52  1  0
 24 53  1  0
 25 26  1  0
 27 32  1  0
 27 28  2  0
 28 29  1  0
 28 54  1  0
 29 30  2  0
 29 55  1  0
 30 31  1  0
 30 56  1  0
 31 32  2  0
 31 57  1  0
 32 58  1  0
 33 34  1  0
 33 59  1  0
 34 60  1  0
M  CHG  1  25   1
M  END
>  <DOCK_score>  (1) 
-67.554832

>  <SMILES>  (1) 
Cc1ccc(C(C)(O)C[C@H](Nc2[nH]cc(-c3ccc(N)cc3)[nH+]2)c2ccccc2)cc1

$$$$
