F[C@@H]1C[C@H]([NH2+]Cc2c[nH]nc2-c2ccc(NC3CC(C4CC4)C3)o2)C[C@@H]1F
     RDKit          3D

 54 58  0  0  1  0  0  0  0  0999 V2000
  128.7655  140.4576  160.8315 F   0  0  0  0  0  0  0  0  0  0  0  0
  130.1522  140.3595  160.9892 C   0  0  2  0  0  0  0  0  0  0  0  0
  130.6029  141.3512  160.9527 H   0  0  0  0  0  0  0  0  0  0  0  0
  130.7464  139.4683  159.8845 C   0  0  0  0  0  0  0  0  0  0  0  0
  131.4190  138.2755  160.5949 C   0  0  2  0  0  0  0  0  0  0  0  0
  132.4826  138.4668  160.7375 H   0  0  0  0  0  0  0  0  0  0  0  0
  131.2187  137.0398  159.8262 N   0  0  0  0  0  0  0  0  0  0  0  0
  130.2796  137.0214  159.4577 H   0  0  0  0  0  0  0  0  0  0  0  0
  131.8796  137.0067  159.0644 H   0  0  0  0  0  0  0  0  0  0  0  0
  131.4235  135.8790  160.7029 C   0  0  0  0  0  0  0  0  0  0  0  0
  131.2181  134.6114  159.9143 C   0  0  0  0  0  0  0  0  0  0  0  0
  132.1680  133.9361  159.2328 C   0  0  0  0  0  0  0  0  0  0  0  0
  131.5878  132.8566  158.6648 N   0  0  0  0  0  0  0  0  0  0  0  0
  132.0351  132.1923  158.1175 H   0  0  0  0  0  0  0  0  0  0  0  0
  130.2272  132.8658  158.9974 N   0  0  0  0  0  0  0  0  0  0  0  0
  129.9976  133.9227  159.7516 C   0  0  0  0  0  0  0  0  0  0  0  0
  128.6935  134.3161  160.3241 C   0  0  0  0  0  0  0  0  0  0  0  0
  127.5212  133.6460  160.1693 C   0  0  0  0  0  0  0  0  0  0  0  0
  126.5415  134.3684  160.8784 C   0  0  0  0  0  0  0  0  0  0  0  0
  127.1622  135.4411  161.4297 C   0  0  0  0  0  0  0  0  0  0  0  0
  126.5559  136.4160  162.2132 N   0  0  0  0  0  0  0  0  0  0  0  0
  127.3264  137.1055  163.2510 C   0  0  2  0  0  0  0  0  0  0  0  0
  128.0460  136.1522  164.2197 C   0  0  0  0  0  0  0  0  0  0  0  0
  126.7649  136.1843  165.0746 C   0  0  1  0  0  0  0  0  0  0  0  0
  127.0317  136.2389  166.5801 C   0  0  0  0  0  0  0  0  0  0  0  0
  127.1215  134.9084  167.3303 C   0  0  0  0  0  0  0  0  0  0  0  0
  125.8986  135.8093  167.5144 C   0  0  0  0  0  0  0  0  0  0  0  0
  126.4768  137.5596  164.4498 C   0  0  0  0  0  0  0  0  0  0  0  0
  128.4632  135.3996  161.0953 O   0  0  0  0  0  0  0  0  0  0  0  0
  130.6921  138.1872  161.9637 C   0  0  0  0  0  0  0  0  0  0  0  0
  130.4843  139.6772  162.3322 C   0  0  2  0  0  0  0  0  0  0  0  0
  131.3965  140.0958  162.7575 H   0  0  0  0  0  0  0  0  0  0  0  0
  129.4190  139.8159  163.2285 F   0  0  0  0  0  0  0  0  0  0  0  0
  129.9546  139.1122  159.2256 H   0  0  0  0  0  0  0  0  0  0  0  0
  131.4859  140.0275  159.3111 H   0  0  0  0  0  0  0  0  0  0  0  0
  132.4381  135.8989  161.1010 H   0  0  0  0  0  0  0  0  0  0  0  0
  130.7096  135.9147  161.5258 H   0  0  0  0  0  0  0  0  0  0  0  0
  133.2100  134.2096  159.1571 H   0  0  0  0  0  0  0  0  0  0  0  0
  127.3699  132.7347  159.6096 H   0  0  0  0  0  0  0  0  0  0  0  0
  125.4951  134.1159  160.9667 H   0  0  0  0  0  0  0  0  0  0  0  0
  125.6225  136.6400  162.0728 H   0  0  0  0  0  0  0  0  0  0  0  0
  127.9702  137.8885  162.8504 H   0  0  0  0  0  0  0  0  0  0  0  0
  128.2614  135.1738  163.7899 H   0  0  0  0  0  0  0  0  0  0  0  0
  128.9102  136.5993  164.7111 H   0  0  0  0  0  0  0  0  0  0  0  0
  126.0381  135.4195  164.8009 H   0  0  0  0  0  0  0  0  0  0  0  0
  127.6790  137.0498  166.9139 H   0  0  0  0  0  0  0  0  0  0  0  0
  126.9906  133.9943  166.7513 H   0  0  0  0  0  0  0  0  0  0  0  0
  127.8282  134.8438  168.1577 H   0  0  0  0  0  0  0  0  0  0  0  0
  125.8008  136.3375  168.4629 H   0  0  0  0  0  0  0  0  0  0  0  0
  124.9633  135.4878  167.0563 H   0  0  0  0  0  0  0  0  0  0  0  0
  126.9128  138.3909  165.0039 H   0  0  0  0  0  0  0  0  0  0  0  0
  125.4265  137.7183  164.2053 H   0  0  0  0  0  0  0  0  0  0  0  0
  131.3177  137.6897  162.7047 H   0  0  0  0  0  0  0  0  0  0  0  0
  129.7341  137.6776  161.8604 H   0  0  0  0  0  0  0  0  0  0  0  0
  1  2  1  0
  2  3  1  1
  2 31  1  0
  2  4  1  0
  4  5  1  0
  4 34  1  0
  4 35  1  0
  5  6  1  1
  5  7  1  0
  5 30  1  0
  7  8  1  0
  7  9  1  0
  7 10  1  0
 10 11  1  0
 10 36  1  0
 10 37  1  0
 11 16  1  0
 11 12  2  0
 12 13  1  0
 12 38  1  0
 13 14  1  0
 13 15  1  0
 15 16  2  0
 16 17  1  0
 17 29  1  0
 17 18  2  0
 18 19  1  0
 18 39  1  0
 19 20  2  0
 19 40  1  0
 20 21  1  0
 20 29  1  0
 21 22  1  0
 21 41  1  0
 22 28  1  0
 22 23  1  0
 22 42  1  6
 23 24  1  0
 23 43  1  0
 23 44  1  0
 24 25  1  0
 24 28  1  0
 24 45  1  1
 25 27  1  0
 25 26  1  0
 25 46  1  0
 26 27  1  0
 26 47  1  0
 26 48  1  0
 27 49  1  0
 27 50  1  0
 28 51  1  0
 28 52  1  0
 30 31  1  0
 30 53  1  0
 30 54  1  0
 31 32  1  1
 31 33  1  0
M  CHG  1   7   1
M  END
>  <DOCK_score>  (1) 
-43.619598

>  <SMILES>  (1) 
F[C@@H]1C[C@H]([NH2+]Cc2c[nH]nc2-c2ccc(NC3CC(C4CC4)C3)o2)C[C@@H]1F

$$$$
