Nc1ccc(-c2c[nH]c(N[C@@H](CC3CCCC3)c3ccccc3)[nH+]2)cc1
     RDKit          3D

 53 56  0  0  1  0  0  0  0  0999 V2000
  131.2256  129.6889  150.7143 N   0  0  0  0  0  0  0  0  0  0  0  0
  131.0358  130.2464  151.9809 C   0  0  0  0  0  0  0  0  0  0  0  0
  130.3263  131.4337  152.1171 C   0  0  0  0  0  0  0  0  0  0  0  0
  130.1377  131.9859  153.3664 C   0  0  0  0  0  0  0  0  0  0  0  0
  130.6592  131.3524  154.4934 C   0  0  0  0  0  0  0  0  0  0  0  0
  130.4575  131.9445  155.8386 C   0  0  0  0  0  0  0  0  0  0  0  0
  129.8256  131.3548  156.8833 C   0  0  0  0  0  0  0  0  0  0  0  0
  129.8602  132.2495  157.9267 N   0  0  0  0  0  0  0  0  0  0  0  0
  129.4857  132.1153  158.8113 H   0  0  0  0  0  0  0  0  0  0  0  0
  130.5170  133.3578  157.4890 C   0  0  0  0  0  0  0  0  0  0  0  0
  130.7667  134.4954  158.2374 N   0  0  0  0  0  0  0  0  0  0  0  0
  129.8382  134.8922  159.2989 C   0  0  1  0  0  0  0  0  0  0  0  0
  129.7744  134.0970  160.0417 H   0  0  0  0  0  0  0  0  0  0  0  0
  130.3431  136.1734  159.9655 C   0  0  0  0  0  0  0  0  0  0  0  0
  131.7281  135.9242  160.5661 C   0  0  0  0  0  0  0  0  0  0  0  0
  131.6399  134.8500  161.6698 C   0  0  0  0  0  0  0  0  0  0  0  0
  132.6458  135.3280  162.7463 C   0  0  0  0  0  0  0  0  0  0  0  0
  132.4585  136.8655  162.7304 C   0  0  0  0  0  0  0  0  0  0  0  0
  132.2486  137.2057  161.2404 C   0  0  0  0  0  0  0  0  0  0  0  0
  128.4740  135.1376  158.7074 C   0  0  0  0  0  0  0  0  0  0  0  0
  127.3408  134.9085  159.4652 C   0  0  0  0  0  0  0  0  0  0  0  0
  126.0895  135.1373  158.9239 C   0  0  0  0  0  0  0  0  0  0  0  0
  125.9714  135.5873  157.6222 C   0  0  0  0  0  0  0  0  0  0  0  0
  127.1045  135.8115  156.8628 C   0  0  0  0  0  0  0  0  0  0  0  0
  128.3559  135.5864  157.4053 C   0  0  0  0  0  0  0  0  0  0  0  0
  130.8751  133.1706  156.2419 N   0  0  0  0  0  0  0  0  0  0  0  0
  131.3578  133.8087  155.6936 H   0  0  0  0  0  0  0  0  0  0  0  0
  131.3754  130.1647  154.3539 C   0  0  0  0  0  0  0  0  0  0  0  0
  131.5564  129.6128  153.1032 C   0  0  0  0  0  0  0  0  0  0  0  0
  130.8627  130.1302  149.9306 H   0  0  0  0  0  0  0  0  0  0  0  0
  131.7210  128.8602  150.6184 H   0  0  0  0  0  0  0  0  0  0  0  0
  129.9228  131.9243  151.2437 H   0  0  0  0  0  0  0  0  0  0  0  0
  129.5859  132.9084  153.4718 H   0  0  0  0  0  0  0  0  0  0  0  0
  129.3771  130.3723  156.8926 H   0  0  0  0  0  0  0  0  0  0  0  0
  131.5562  135.0298  158.0590 H   0  0  0  0  0  0  0  0  0  0  0  0
  130.4070  136.9685  159.2227 H   0  0  0  0  0  0  0  0  0  0  0  0
  129.6524  136.4686  160.7553 H   0  0  0  0  0  0  0  0  0  0  0  0
  132.4205  135.6045  159.7874 H   0  0  0  0  0  0  0  0  0  0  0  0
  130.6317  134.8081  162.0817 H   0  0  0  0  0  0  0  0  0  0  0  0
  131.9341  133.8760  161.2785 H   0  0  0  0  0  0  0  0  0  0  0  0
  133.6653  135.0602  162.4684 H   0  0  0  0  0  0  0  0  0  0  0  0
  132.3901  134.9178  163.7232 H   0  0  0  0  0  0  0  0  0  0  0  0
  133.3499  137.3623  163.1132 H   0  0  0  0  0  0  0  0  0  0  0  0
  131.5824  137.1490  163.3136 H   0  0  0  0  0  0  0  0  0  0  0  0
  133.1939  137.5074  160.7895 H   0  0  0  0  0  0  0  0  0  0  0  0
  131.5145  138.0050  161.1399 H   0  0  0  0  0  0  0  0  0  0  0  0
  127.4331  134.5536  160.4810 H   0  0  0  0  0  0  0  0  0  0  0  0
  125.2043  134.9619  159.5171 H   0  0  0  0  0  0  0  0  0  0  0  0
  124.9937  135.7636  157.1984 H   0  0  0  0  0  0  0  0  0  0  0  0
  127.0121  136.1627  155.8457 H   0  0  0  0  0  0  0  0  0  0  0  0
  129.2411  135.7615  156.8119 H   0  0  0  0  0  0  0  0  0  0  0  0
  131.7844  129.6746  155.2250 H   0  0  0  0  0  0  0  0  0  0  0  0
  132.1071  128.6901  152.9951 H   0  0  0  0  0  0  0  0  0  0  0  0
  1  2  1  0
  1 30  1  0
  1 31  1  0
  2 29  2  0
  2  3  1  0
  3  4  2  0
  3 32  1  0
  4  5  1  0
  4 33  1  0
  5  6  1  0
  5 28  2  0
  6 26  1  0
  6  7  2  0
  7  8  1  0
  7 34  1  0
  8  9  1  0
  8 10  1  0
 10 11  1  0
 10 26  2  0
 11 12  1  0
 11 35  1  0
 12 13  1  1
 12 14  1  0
 12 20  1  0
 14 15  1  0
 14 36  1  0
 14 37  1  0
 15 19  1  0
 15 16  1  0
 15 38  1  0
 16 17  1  0
 16 39  1  0
 16 40  1  0
 17 18  1  0
 17 41  1  0
 17 42  1  0
 18 19  1  0
 18 43  1  0
 18 44  1  0
 19 45  1  0
 19 46  1  0
 20 25  1  0
 20 21  2  0
 21 22  1  0
 21 47  1  0
 22 23  2  0
 22 48  1  0
 23 24  1  0
 23 49  1  0
 24 25  2  0
 24 50  1  0
 25 51  1  0
 26 27  1  0
 28 29  1  0
 28 52  1  0
 29 53  1  0
M  CHG  1  26   1
M  END
>  <DOCK_score>  (1) 
-60.823601

>  <SMILES>  (1) 
Nc1ccc(-c2c[nH]c(N[C@@H](CC3CCCC3)c3ccccc3)[nH+]2)cc1

$$$$
