O=C1CC[C@H](NC(NC2CC=CC2)=[NH+][C@H]2[C@@H]3CC=CC[C@@H]32)CN1
     RDKit          3D

 50 53  0  0  1  0  0  0  0  0999 V2000
  124.2977  133.8113  161.9783 O   0  0  0  0  0  0  0  0  0  0  0  0
  125.4513  134.1048  161.7460 C   0  0  0  0  0  0  0  0  0  0  0  0
  126.4442  132.9933  161.5616 C   0  0  0  0  0  0  0  0  0  0  0  0
  127.8674  133.5353  161.7157 C   0  0  0  0  0  0  0  0  0  0  0  0
  128.0034  134.7930  160.8489 C   0  0  2  0  0  0  0  0  0  0  0  0
  127.6828  134.5719  159.8309 H   0  0  0  0  0  0  0  0  0  0  0  0
  129.4004  135.2345  160.8393 N   0  0  0  0  0  0  0  0  0  0  0  0
  130.2642  134.7611  159.8801 C   0  0  0  0  0  0  0  0  0  0  0  0
  129.8171  133.8735  158.9301 N   0  0  0  0  0  0  0  0  0  0  0  0
  130.7381  132.8892  158.3563 C   0  0  0  0  0  0  0  0  0  0  0  0
  129.9829  131.8760  157.4652 C   0  0  0  0  0  0  0  0  0  0  0  0
  130.6724  130.5547  157.7177 C   0  0  0  0  0  0  0  0  0  0  0  0
  131.3988  130.6028  158.8011 C   0  0  0  0  0  0  0  0  0  0  0  0
  131.3147  131.9635  159.4527 C   0  0  0  0  0  0  0  0  0  0  0  0
  131.5070  135.1539  159.8714 N   0  0  0  0  0  0  0  0  0  0  0  0
  132.1165  134.8199  159.1948 H   0  0  0  0  0  0  0  0  0  0  0  0
  131.9835  136.0996  160.8839 C   0  0  1  0  0  0  0  0  0  0  0  0
  131.8961  135.7646  161.9175 H   0  0  0  0  0  0  0  0  0  0  0  0
  133.1887  136.9705  160.5240 C   0  0  2  0  0  0  0  0  0  0  0  0
  133.6404  136.8438  159.5402 H   0  0  0  0  0  0  0  0  0  0  0  0
  134.1388  137.3574  161.6690 C   0  0  0  0  0  0  0  0  0  0  0  0
  133.9685  138.8292  161.9551 C   0  0  0  0  0  0  0  0  0  0  0  0
  132.7720  139.3576  162.0252 C   0  0  0  0  0  0  0  0  0  0  0  0
  131.5453  138.5025  161.8206 C   0  0  0  0  0  0  0  0  0  0  0  0
  131.7827  137.5907  160.6062 C   0  0  2  0  0  0  0  0  0  0  0  0
  131.2763  137.8797  159.6853 H   0  0  0  0  0  0  0  0  0  0  0  0
  127.1212  135.8949  161.4370 C   0  0  0  0  0  0  0  0  0  0  0  0
  125.7701  135.3973  161.6675 N   0  0  0  0  0  0  0  0  0  0  0  0
  126.3262  132.5636  160.5669 H   0  0  0  0  0  0  0  0  0  0  0  0
  126.2675  132.2219  162.3112 H   0  0  0  0  0  0  0  0  0  0  0  0
  128.5842  132.7832  161.3863 H   0  0  0  0  0  0  0  0  0  0  0  0
  128.0530  133.7875  162.7598 H   0  0  0  0  0  0  0  0  0  0  0  0
  129.7158  135.8606  161.5096 H   0  0  0  0  0  0  0  0  0  0  0  0
  128.8920  133.8991  158.6398 H   0  0  0  0  0  0  0  0  0  0  0  0
  131.5360  133.3810  157.8001 H   0  0  0  0  0  0  0  0  0  0  0  0
  128.9347  131.8194  157.7589 H   0  0  0  0  0  0  0  0  0  0  0  0
  130.0693  132.1556  156.4153 H   0  0  0  0  0  0  0  0  0  0  0  0
  130.5768  129.6851  157.0844 H   0  0  0  0  0  0  0  0  0  0  0  0
  131.9829  129.7781  159.1821 H   0  0  0  0  0  0  0  0  0  0  0  0
  132.3059  132.3026  159.7532 H   0  0  0  0  0  0  0  0  0  0  0  0
  130.6470  131.9334  160.3139 H   0  0  0  0  0  0  0  0  0  0  0  0
  135.1689  137.1587  161.3736 H   0  0  0  0  0  0  0  0  0  0  0  0
  133.8960  136.7804  162.5613 H   0  0  0  0  0  0  0  0  0  0  0  0
  134.8390  139.4512  162.1033 H   0  0  0  0  0  0  0  0  0  0  0  0
  132.6625  140.4121  162.2306 H   0  0  0  0  0  0  0  0  0  0  0  0
  130.6811  139.1404  161.6360 H   0  0  0  0  0  0  0  0  0  0  0  0
  131.3717  137.8932  162.7076 H   0  0  0  0  0  0  0  0  0  0  0  0
  127.5458  136.2298  162.3833 H   0  0  0  0  0  0  0  0  0  0  0  0
  127.0853  136.7357  160.7442 H   0  0  0  0  0  0  0  0  0  0  0  0
  125.0579  136.0481  161.7675 H   0  0  0  0  0  0  0  0  0  0  0  0
  1  2  2  0
  2 28  1  0
  2  3  1  0
  3  4  1  0
  3 29  1  0
  3 30  1  0
  4  5  1  0
  4 31  1  0
  4 32  1  0
  5  6  1  6
  5  7  1  0
  5 27  1  0
  7 33  1  0
  8  7  1  0
  8  9  1  0
  8 15  2  0
  9 10  1  0
  9 34  1  0
 10 14  1  0
 10 11  1  0
 10 35  1  0
 11 12  1  0
 11 36  1  0
 11 37  1  0
 12 13  2  0
 12 38  1  0
 13 14  1  0
 13 39  1  0
 14 40  1  0
 14 41  1  0
 15 16  1  0
 15 17  1  0
 17 18  1  1
 17 25  1  0
 17 19  1  0
 19 20  1  6
 19 25  1  0
 19 21  1  0
 21 22  1  0
 21 42  1  0
 21 43  1  0
 22 23  2  0
 22 44  1  0
 23 24  1  0
 23 45  1  0
 24 25  1  0
 24 46  1  0
 24 47  1  0
 25 26  1  6
 27 28  1  0
 27 48  1  0
 27 49  1  0
 28 50  1  0
M  CHG  1  15   1
M  END
>  <DOCK_score>  (1) 
-43.455997

>  <SMILES>  (1) 
O=C1CC[C@H](NC(NC2CC=CC2)=[NH+][C@H]2[C@@H]3CC=CC[C@@H]32)CN1

$$$$
