O=C(C1=COCCC1)c1ccc([C@H](Nc2[nH]cc(-c3cccnc3)[nH+]2)c2ccccc2)cc1
     RDKit          3D

 58 62  0  0  1  0  0  0  0  0999 V2000
  132.3516  140.9717  161.7627 O   0  0  0  0  0  0  0  0  0  0  0  0
  131.6212  140.2414  162.4075 C   0  0  0  0  0  0  0  0  0  0  0  0
  131.1962  140.6286  163.7014 C   0  0  0  0  0  0  0  0  0  0  0  0
  131.9408  140.2791  164.7557 C   0  0  0  0  0  0  0  0  0  0  0  0
  131.6109  140.5896  166.0199 O   0  0  0  0  0  0  0  0  0  0  0  0
  130.6160  141.6306  166.2172 C   0  0  0  0  0  0  0  0  0  0  0  0
  129.4286  141.3456  165.2876 C   0  0  0  0  0  0  0  0  0  0  0  0
  129.9238  141.4195  163.8395 C   0  0  0  0  0  0  0  0  0  0  0  0
  131.1786  138.9492  161.8384 C   0  0  0  0  0  0  0  0  0  0  0  0
  130.9132  137.8676  162.6801 C   0  0  0  0  0  0  0  0  0  0  0  0
  130.4946  136.6672  162.1443 C   0  0  0  0  0  0  0  0  0  0  0  0
  130.3476  136.5310  160.7751 C   0  0  0  0  0  0  0  0  0  0  0  0
  129.8957  135.2150  160.1964 C   0  0  2  0  0  0  0  0  0  0  0  0
  130.2320  134.4010  160.8384 H   0  0  0  0  0  0  0  0  0  0  0  0
  130.4664  135.0486  158.8574 N   0  0  0  0  0  0  0  0  0  0  0  0
  130.1896  133.9077  158.1239 C   0  0  0  0  0  0  0  0  0  0  0  0
  129.4104  132.8705  158.5352 N   0  0  0  0  0  0  0  0  0  0  0  0
  128.9531  132.7982  159.3875 H   0  0  0  0  0  0  0  0  0  0  0  0
  129.3888  131.9460  157.5192 C   0  0  0  0  0  0  0  0  0  0  0  0
  130.1616  132.4405  156.5206 C   0  0  0  0  0  0  0  0  0  0  0  0
  130.4364  131.7805  155.2210 C   0  0  0  0  0  0  0  0  0  0  0  0
  130.0713  132.3963  154.0202 C   0  0  0  0  0  0  0  0  0  0  0  0
  130.3551  131.7420  152.8341 C   0  0  0  0  0  0  0  0  0  0  0  0
  130.9745  130.5059  152.8748 C   0  0  0  0  0  0  0  0  0  0  0  0
  131.3024  129.9470  154.0236 N   0  0  0  0  0  0  0  0  0  0  0  0
  131.0575  130.5339  155.1773 C   0  0  0  0  0  0  0  0  0  0  0  0
  130.6392  133.6457  156.9209 N   0  0  0  0  0  0  0  0  0  0  0  0
  131.2203  134.2217  156.3998 H   0  0  0  0  0  0  0  0  0  0  0  0
  128.3914  135.1956  160.1070 C   0  0  0  0  0  0  0  0  0  0  0  0
  127.6424  134.7172  161.1658 C   0  0  0  0  0  0  0  0  0  0  0  0
  126.2623  134.7034  161.0856 C   0  0  0  0  0  0  0  0  0  0  0  0
  125.6318  135.1596  159.9431 C   0  0  0  0  0  0  0  0  0  0  0  0
  126.3811  135.6331  158.8823 C   0  0  0  0  0  0  0  0  0  0  0  0
  127.7609  135.6509  158.9642 C   0  0  0  0  0  0  0  0  0  0  0  0
  130.6144  137.5977  159.9351 C   0  0  0  0  0  0  0  0  0  0  0  0
  131.0280  138.8051  160.4586 C   0  0  0  0  0  0  0  0  0  0  0  0
  132.8490  139.7209  164.5825 H   0  0  0  0  0  0  0  0  0  0  0  0
  130.2801  141.6260  167.2542 H   0  0  0  0  0  0  0  0  0  0  0  0
  131.0474  142.6018  165.9751 H   0  0  0  0  0  0  0  0  0  0  0  0
  129.0340  140.3499  165.4902 H   0  0  0  0  0  0  0  0  0  0  0  0
  128.6490  142.0903  165.4484 H   0  0  0  0  0  0  0  0  0  0  0  0
  130.1119  142.4595  163.5731 H   0  0  0  0  0  0  0  0  0  0  0  0
  129.1652  141.0060  163.1750 H   0  0  0  0  0  0  0  0  0  0  0  0
  131.0318  137.9713  163.7484 H   0  0  0  0  0  0  0  0  0  0  0  0
  130.2848  135.8308  162.7944 H   0  0  0  0  0  0  0  0  0  0  0  0
  131.0384  135.7379  158.4849 H   0  0  0  0  0  0  0  0  0  0  0  0
  128.8608  131.0039  157.5177 H   0  0  0  0  0  0  0  0  0  0  0  0
  129.5840  133.3602  154.0180 H   0  0  0  0  0  0  0  0  0  0  0  0
  130.0918  132.1897  151.8873 H   0  0  0  0  0  0  0  0  0  0  0  0
  131.1935  129.9904  151.9514 H   0  0  0  0  0  0  0  0  0  0  0  0
  131.3410  130.0446  156.0974 H   0  0  0  0  0  0  0  0  0  0  0  0
  128.1350  134.3575  162.0569 H   0  0  0  0  0  0  0  0  0  0  0  0
  125.6770  134.3338  161.9144 H   0  0  0  0  0  0  0  0  0  0  0  0
  124.5538  135.1464  159.8794 H   0  0  0  0  0  0  0  0  0  0  0  0
  125.8885  135.9894  157.9897 H   0  0  0  0  0  0  0  0  0  0  0  0
  128.3463  136.0209  158.1354 H   0  0  0  0  0  0  0  0  0  0  0  0
  130.4981  137.4847  158.8673 H   0  0  0  0  0  0  0  0  0  0  0  0
  131.2352  139.6371  159.8020 H   0  0  0  0  0  0  0  0  0  0  0  0
  1  2  2  0
  2  3  1  0
  2  9  1  0
  3  8  1  0
  3  4  2  0
  4  5  1  0
  4 37  1  0
  5  6  1  0
  6  7  1  0
  6 38  1  0
  6 39  1  0
  7  8  1  0
  7 40  1  0
  7 41  1  0
  8 42  1  0
  8 43  1  0
  9 36  1  0
  9 10  2  0
 10 11  1  0
 10 44  1  0
 11 12  2  0
 11 45  1  0
 12 13  1  0
 12 35  1  0
 13 14  1  1
 13 15  1  0
 13 29  1  0
 15 46  1  0
 16 15  1  0
 16 27  2  0
 16 17  1  0
 17 18  1  0
 17 19  1  0
 19 20  2  0
 19 47  1  0
 20 21  1  0
 20 27  1  0
 21 26  1  0
 21 22  2  0
 22 23  1  0
 22 48  1  0
 23 24  2  0
 23 49  1  0
 24 25  1  0
 24 50  1  0
 25 26  2  0
 26 51  1  0
 27 28  1  0
 29 34  1  0
 29 30  2  0
 30 31  1  0
 30 52  1  0
 31 32  2  0
 31 53  1  0
 32 33  1  0
 32 54  1  0
 33 34  2  0
 33 55  1  0
 34 56  1  0
 35 36  2  0
 35 57  1  0
 36 58  1  0
M  CHG  1  27   1
M  END
>  <DOCK_score>  (1) 
-58.354317

>  <SMILES>  (1) 
O=C(C1=COCCC1)c1ccc([C@H](Nc2[nH]cc(-c3cccnc3)[nH+]2)c2ccccc2)cc1

$$$$
