O=C1CC[C@H](NC(NC2CC=CC2)=[NH+]Cc2ccnnc2)CN1
     RDKit          3D

 46 48  0  0  1  0  0  0  0  0999 V2000
  123.6698  133.6822  161.6488 O   0  0  0  0  0  0  0  0  0  0  0  0
  124.8450  133.9123  161.4571 C   0  0  0  0  0  0  0  0  0  0  0  0
  125.7321  132.7762  161.0354 C   0  0  0  0  0  0  0  0  0  0  0  0
  127.1989  133.1470  161.2676 C   0  0  0  0  0  0  0  0  0  0  0  0
  127.4487  134.5356  160.6670 C   0  0  2  0  0  0  0  0  0  0  0  0
  127.1083  134.5530  159.6317 H   0  0  0  0  0  0  0  0  0  0  0  0
  128.8801  134.8433  160.7190 N   0  0  0  0  0  0  0  0  0  0  0  0
  129.6964  134.4968  159.6684 C   0  0  0  0  0  0  0  0  0  0  0  0
  131.0396  134.7856  159.7172 N   0  0  0  0  0  0  0  0  0  0  0  0
  131.6011  135.4626  160.8888 C   0  0  0  0  0  0  0  0  0  0  0  0
  131.0918  136.9194  160.9852 C   0  0  0  0  0  0  0  0  0  0  0  0
  132.1422  137.7441  160.2781 C   0  0  0  0  0  0  0  0  0  0  0  0
  133.2515  137.0708  160.1370 C   0  0  0  0  0  0  0  0  0  0  0  0
  133.1257  135.6851  160.7262 C   0  0  0  0  0  0  0  0  0  0  0  0
  129.1967  133.8945  158.6262 N   0  0  0  0  0  0  0  0  0  0  0  0
  128.4247  133.3155  158.7243 H   0  0  0  0  0  0  0  0  0  0  0  0
  129.8015  134.0916  157.3063 C   0  0  0  0  0  0  0  0  0  0  0  0
  130.2695  132.7653  156.7650 C   0  0  0  0  0  0  0  0  0  0  0  0
  130.9719  131.8732  157.5654 C   0  0  0  0  0  0  0  0  0  0  0  0
  131.3681  130.6697  157.0044 C   0  0  0  0  0  0  0  0  0  0  0  0
  131.0829  130.4078  155.7429 N   0  0  0  0  0  0  0  0  0  0  0  0
  130.4382  131.2341  155.0021 N   0  0  0  0  0  0  0  0  0  0  0  0
  130.0174  132.4009  155.4520 C   0  0  0  0  0  0  0  0  0  0  0  0
  126.6713  135.5715  161.4801 C   0  0  0  0  0  0  0  0  0  0  0  0
  125.2806  135.1605  161.6323 N   0  0  0  0  0  0  0  0  0  0  0  0
  125.5744  132.5672  159.9773 H   0  0  0  0  0  0  0  0  0  0  0  0
  125.4861  131.8890  161.6189 H   0  0  0  0  0  0  0  0  0  0  0  0
  127.8438  132.4153  160.7808 H   0  0  0  0  0  0  0  0  0  0  0  0
  127.4076  133.1667  162.3372 H   0  0  0  0  0  0  0  0  0  0  0  0
  129.2519  135.2917  161.4946 H   0  0  0  0  0  0  0  0  0  0  0  0
  131.6156  134.5412  158.9761 H   0  0  0  0  0  0  0  0  0  0  0  0
  131.3800  134.9096  161.8017 H   0  0  0  0  0  0  0  0  0  0  0  0
  131.0082  137.2244  162.0283 H   0  0  0  0  0  0  0  0  0  0  0  0
  130.1294  137.0192  160.4831 H   0  0  0  0  0  0  0  0  0  0  0  0
  131.9947  138.7574  159.9350 H   0  0  0  0  0  0  0  0  0  0  0  0
  134.1423  137.4541  159.6616 H   0  0  0  0  0  0  0  0  0  0  0  0
  133.5470  134.9440  160.0469 H   0  0  0  0  0  0  0  0  0  0  0  0
  133.6238  135.6378  161.6947 H   0  0  0  0  0  0  0  0  0  0  0  0
  129.0631  134.5204  156.6289 H   0  0  0  0  0  0  0  0  0  0  0  0
  130.6512  134.7686  157.3934 H   0  0  0  0  0  0  0  0  0  0  0  0
  131.1988  132.1088  158.5947 H   0  0  0  0  0  0  0  0  0  0  0  0
  131.9122  129.9492  157.5971 H   0  0  0  0  0  0  0  0  0  0  0  0
  129.4779  133.0706  154.7986 H   0  0  0  0  0  0  0  0  0  0  0  0
  127.1255  135.6702  162.4660 H   0  0  0  0  0  0  0  0  0  0  0  0
  126.7118  136.5340  160.9702 H   0  0  0  0  0  0  0  0  0  0  0  0
  124.6309  135.8389  161.8740 H   0  0  0  0  0  0  0  0  0  0  0  0
  1  2  2  0
  2 25  1  0
  2  3  1  0
  3  4  1  0
  3 26  1  0
  3 27  1  0
  4  5  1  0
  4 28  1  0
  4 29  1  0
  5  6  1  6
  5  7  1  0
  5 24  1  0
  7 30  1  0
  8  7  1  0
  8  9  1  0
  8 15  2  0
  9 10  1  0
  9 31  1  0
 10 14  1  0
 10 11  1  0
 10 32  1  0
 11 12  1  0
 11 33  1  0
 11 34  1  0
 12 13  2  0
 12 35  1  0
 13 14  1  0
 13 36  1  0
 14 37  1  0
 14 38  1  0
 15 16  1  0
 15 17  1  0
 17 18  1  0
 17 39  1  0
 17 40  1  0
 18 23  1  0
 18 19  2  0
 19 20  1  0
 19 41  1  0
 20 21  2  0
 20 42  1  0
 21 22  1  0
 22 23  2  0
 23 43  1  0
 24 25  1  0
 24 44  1  0
 24 45  1  0
 25 46  1  0
M  CHG  1  15   1
M  END
>  <DOCK_score>  (1) 
-42.092434

>  <SMILES>  (1) 
O=C1CC[C@H](NC(NC2CC=CC2)=[NH+]Cc2ccnnc2)CN1

$$$$
