CCc1ccc(-c2c[nH]c(Nc3ccncc3-c3ccc(CC)cc3)[nH+]2)cc1
     RDKit          3D

 53 56  0  0  1  0  0  0  0  0999 V2000
  130.4314  128.2846  151.7108 C   0  0  0  0  0  0  0  0  0  0  0  0
  131.5028  129.3520  151.9468 C   0  0  0  0  0  0  0  0  0  0  0  0
  131.1586  130.1438  153.1818 C   0  0  0  0  0  0  0  0  0  0  0  0
  131.6247  129.7311  154.4174 C   0  0  0  0  0  0  0  0  0  0  0  0
  131.3125  130.4526  155.5516 C   0  0  0  0  0  0  0  0  0  0  0  0
  130.5262  131.5990  155.4507 C   0  0  0  0  0  0  0  0  0  0  0  0
  130.1872  132.3787  156.6662 C   0  0  0  0  0  0  0  0  0  0  0  0
  129.5029  131.9199  157.7438 C   0  0  0  0  0  0  0  0  0  0  0  0
  129.4129  132.9628  158.6323 N   0  0  0  0  0  0  0  0  0  0  0  0
  128.9792  132.9427  159.4996 H   0  0  0  0  0  0  0  0  0  0  0  0
  130.0453  134.0298  158.0715 C   0  0  0  0  0  0  0  0  0  0  0  0
  130.1794  135.2829  158.6479 N   0  0  0  0  0  0  0  0  0  0  0  0
  129.2051  135.7545  159.5219 C   0  0  0  0  0  0  0  0  0  0  0  0
  127.8838  135.9067  159.1066 C   0  0  0  0  0  0  0  0  0  0  0  0
  126.9480  136.3825  160.0012 C   0  0  0  0  0  0  0  0  0  0  0  0
  127.2835  136.6899  161.2409 N   0  0  0  0  0  0  0  0  0  0  0  0
  128.5181  136.5593  161.6839 C   0  0  0  0  0  0  0  0  0  0  0  0
  129.5253  136.0862  160.8493 C   0  0  0  0  0  0  0  0  0  0  0  0
  130.9138  135.9404  161.3496 C   0  0  0  0  0  0  0  0  0  0  0  0
  131.6036  137.0513  161.8321 C   0  0  0  0  0  0  0  0  0  0  0  0
  132.8954  136.9096  162.2968 C   0  0  0  0  0  0  0  0  0  0  0  0
  133.5057  135.6683  162.2841 C   0  0  0  0  0  0  0  0  0  0  0  0
  134.9167  135.5203  162.7921 C   0  0  0  0  0  0  0  0  0  0  0  0
  134.8893  135.2015  164.2882 C   0  0  0  0  0  0  0  0  0  0  0  0
  132.8275  134.5634  161.8014 C   0  0  0  0  0  0  0  0  0  0  0  0
  131.5335  134.6921  161.3395 C   0  0  0  0  0  0  0  0  0  0  0  0
  130.5016  133.6781  156.8944 N   0  0  0  0  0  0  0  0  0  0  0  0
  130.9884  134.2544  156.2847 H   0  0  0  0  0  0  0  0  0  0  0  0
  130.0549  132.0068  154.2040 C   0  0  0  0  0  0  0  0  0  0  0  0
  130.3782  131.2807  153.0758 C   0  0  0  0  0  0  0  0  0  0  0  0
  130.3879  127.6164  152.5709 H   0  0  0  0  0  0  0  0  0  0  0  0
  129.4630  128.7660  151.5754 H   0  0  0  0  0  0  0  0  0  0  0  0
  130.6802  127.7114  150.8176 H   0  0  0  0  0  0  0  0  0  0  0  0
  131.5461  130.0192  151.0871 H   0  0  0  0  0  0  0  0  0  0  0  0
  132.4711  128.8696  152.0826 H   0  0  0  0  0  0  0  0  0  0  0  0
  132.2339  128.8428  154.4945 H   0  0  0  0  0  0  0  0  0  0  0  0
  131.6769  130.1297  156.5157 H   0  0  0  0  0  0  0  0  0  0  0  0
  129.1048  130.9249  157.8772 H   0  0  0  0  0  0  0  0  0  0  0  0
  130.9526  135.8312  158.4419 H   0  0  0  0  0  0  0  0  0  0  0  0
  127.5967  135.6588  158.0954 H   0  0  0  0  0  0  0  0  0  0  0  0
  125.9234  136.5056  159.6825 H   0  0  0  0  0  0  0  0  0  0  0  0
  128.7499  136.8225  162.7054 H   0  0  0  0  0  0  0  0  0  0  0  0
  131.1281  138.0209  161.8425 H   0  0  0  0  0  0  0  0  0  0  0  0
  133.4309  137.7697  162.6711 H   0  0  0  0  0  0  0  0  0  0  0  0
  135.4611  136.4503  162.6287 H   0  0  0  0  0  0  0  0  0  0  0  0
  135.4123  134.7102  162.2571 H   0  0  0  0  0  0  0  0  0  0  0  0
  134.3449  134.2714  164.4517 H   0  0  0  0  0  0  0  0  0  0  0  0
  134.3936  136.0115  164.8233 H   0  0  0  0  0  0  0  0  0  0  0  0
  135.9099  135.0945  164.6556 H   0  0  0  0  0  0  0  0  0  0  0  0
  133.3103  133.5974  161.7901 H   0  0  0  0  0  0  0  0  0  0  0  0
  131.0037  133.8280  160.9667 H   0  0  0  0  0  0  0  0  0  0  0  0
  129.4413  132.8917  154.1206 H   0  0  0  0  0  0  0  0  0  0  0  0
  130.0170  131.5981  152.1087 H   0  0  0  0  0  0  0  0  0  0  0  0
  1  2  1  0
  1 31  1  0
  1 32  1  0
  1 33  1  0
  2  3  1  0
  2 34  1  0
  2 35  1  0
  3 30  2  0
  3  4  1  0
  4  5  2  0
  4 36  1  0
  5  6  1  0
  5 37  1  0
  6  7  1  0
  6 29  2  0
  7 27  1  0
  7  8  2  0
  8  9  1  0
  8 38  1  0
  9 10  1  0
  9 11  1  0
 11 12  1  0
 11 27  2  0
 12 13  1  0
 12 39  1  0
 13 18  1  0
 13 14  2  0
 14 15  1  0
 14 40  1  0
 15 16  2  0
 15 41  1  0
 16 17  1  0
 17 18  2  0
 17 42  1  0
 18 19  1  0
 19 26  1  0
 19 20  2  0
 20 21  1  0
 20 43  1  0
 21 22  2  0
 21 44  1  0
 22 23  1  0
 22 25  1  0
 23 24  1  0
 23 45  1  0
 23 46  1  0
 24 47  1  0
 24 48  1  0
 24 49  1  0
 25 26  2  0
 25 50  1  0
 26 51  1  0
 27 28  1  0
 29 30  1  0
 29 52  1  0
 30 53  1  0
M  CHG  1  27   1
M  END
>  <DOCK_score>  (1) 
-55.485043

>  <SMILES>  (1) 
CCc1ccc(-c2c[nH]c(Nc3ccncc3-c3ccc(CC)cc3)[nH+]2)cc1

$$$$
