Cn1nccc1C[C@@H](Nc1[nH]cc(-c2cccnc2)[nH+]1)C1=CCCCC1
     RDKit          3D

 51 54  0  0  1  0  0  0  0  0999 V2000
  126.6181  135.0873  161.0527 C   0  0  0  0  0  0  0  0  0  0  0  0
  127.0022  135.5483  159.7163 N   0  0  0  0  0  0  0  0  0  0  0  0
  126.2303  135.4369  158.5526 N   0  0  0  0  0  0  0  0  0  0  0  0
  126.9076  135.9566  157.5614 C   0  0  0  0  0  0  0  0  0  0  0  0
  128.1270  136.4236  158.0629 C   0  0  0  0  0  0  0  0  0  0  0  0
  128.1597  136.1602  159.3897 C   0  0  0  0  0  0  0  0  0  0  0  0
  129.2867  136.4916  160.3339 C   0  0  0  0  0  0  0  0  0  0  0  0
  130.2704  135.3208  160.3848 C   0  0  1  0  0  0  0  0  0  0  0  0
  129.7538  134.4272  160.7350 H   0  0  0  0  0  0  0  0  0  0  0  0
  130.8110  135.0787  159.0449 N   0  0  0  0  0  0  0  0  0  0  0  0
  130.6202  133.8517  158.4327 C   0  0  0  0  0  0  0  0  0  0  0  0
  129.9565  132.7922  158.9705 N   0  0  0  0  0  0  0  0  0  0  0  0
  129.5358  132.7612  159.8439 H   0  0  0  0  0  0  0  0  0  0  0  0
  129.9901  131.7759  158.0469 C   0  0  0  0  0  0  0  0  0  0  0  0
  130.6800  132.2402  156.9758 C   0  0  0  0  0  0  0  0  0  0  0  0
  130.9742  131.4856  155.7330 C   0  0  0  0  0  0  0  0  0  0  0  0
  131.1022  132.1520  154.5107 C   0  0  0  0  0  0  0  0  0  0  0  0
  131.3830  131.4032  153.3812 C   0  0  0  0  0  0  0  0  0  0  0  0
  131.5152  130.0310  153.4946 C   0  0  0  0  0  0  0  0  0  0  0  0
  131.3836  129.4292  154.6608 N   0  0  0  0  0  0  0  0  0  0  0  0
  131.1218  130.1003  155.7638 C   0  0  0  0  0  0  0  0  0  0  0  0
  131.0538  133.5170  157.2420 N   0  0  0  0  0  0  0  0  0  0  0  0
  131.5605  134.0906  156.6461 H   0  0  0  0  0  0  0  0  0  0  0  0
  131.3973  135.6521  161.3289 C   0  0  0  0  0  0  0  0  0  0  0  0
  132.6009  135.6740  160.8533 C   0  0  0  0  0  0  0  0  0  0  0  0
  133.8221  135.9814  161.6695 C   0  0  0  0  0  0  0  0  0  0  0  0
  133.4229  136.6527  162.9854 C   0  0  0  0  0  0  0  0  0  0  0  0
  132.3081  135.8228  163.6348 C   0  0  0  0  0  0  0  0  0  0  0  0
  131.0548  135.9301  162.7632 C   0  0  0  0  0  0  0  0  0  0  0  0
  126.0939  135.8868  161.5763 H   0  0  0  0  0  0  0  0  0  0  0  0
  125.9631  134.2208  160.9639 H   0  0  0  0  0  0  0  0  0  0  0  0
  127.5118  134.8113  161.6126 H   0  0  0  0  0  0  0  0  0  0  0  0
  126.5800  136.0187  156.5341 H   0  0  0  0  0  0  0  0  0  0  0  0
  128.9052  136.9084  157.4920 H   0  0  0  0  0  0  0  0  0  0  0  0
  129.8034  137.3852  159.9836 H   0  0  0  0  0  0  0  0  0  0  0  0
  128.8844  136.6717  161.3308 H   0  0  0  0  0  0  0  0  0  0  0  0
  131.3028  135.7780  158.5867 H   0  0  0  0  0  0  0  0  0  0  0  0
  129.5542  130.7937  158.1548 H   0  0  0  0  0  0  0  0  0  0  0  0
  130.9891  133.2244  154.4503 H   0  0  0  0  0  0  0  0  0  0  0  0
  131.4933  131.8847  152.4207 H   0  0  0  0  0  0  0  0  0  0  0  0
  131.7299  129.4432  152.6145 H   0  0  0  0  0  0  0  0  0  0  0  0
  131.0211  129.5722  156.7005 H   0  0  0  0  0  0  0  0  0  0  0  0
  132.7344  135.4612  159.8029 H   0  0  0  0  0  0  0  0  0  0  0  0
  134.4766  136.6480  161.1078 H   0  0  0  0  0  0  0  0  0  0  0  0
  134.3526  135.0536  161.8837 H   0  0  0  0  0  0  0  0  0  0  0  0
  133.0606  137.6614  162.7870 H   0  0  0  0  0  0  0  0  0  0  0  0
  134.2845  136.6940  163.6518 H   0  0  0  0  0  0  0  0  0  0  0  0
  132.0957  136.2105  164.6311 H   0  0  0  0  0  0  0  0  0  0  0  0
  132.6193  134.7805  163.7024 H   0  0  0  0  0  0  0  0  0  0  0  0
  130.6408  136.9350  162.8477 H   0  0  0  0  0  0  0  0  0  0  0  0
  130.3144  135.2067  163.1048 H   0  0  0  0  0  0  0  0  0  0  0  0
  1  2  1  0
  1 30  1  0
  1 31  1  0
  1 32  1  0
  2  6  1  0
  2  3  1  0
  3  4  2  0
  4  5  1  0
  4 33  1  0
  5  6  2  0
  5 34  1  0
  6  7  1  0
  7  8  1  0
  7 35  1  0
  7 36  1  0
  8  9  1  1
  8 10  1  0
  8 24  1  0
 10 37  1  0
 11 10  1  0
 11 22  2  0
 11 12  1  0
 12 13  1  0
 12 14  1  0
 14 15  2  0
 14 38  1  0
 15 16  1  0
 15 22  1  0
 16 21  1  0
 16 17  2  0
 17 18  1  0
 17 39  1  0
 18 19  2  0
 18 40  1  0
 19 20  1  0
 19 41  1  0
 20 21  2  0
 21 42  1  0
 22 23  1  0
 24 29  1  0
 24 25  2  0
 25 26  1  0
 25 43  1  0
 26 27  1  0
 26 44  1  0
 26 45  1  0
 27 28  1  0
 27 46  1  0
 27 47  1  0
 28 29  1  0
 28 48  1  0
 28 49  1  0
 29 50  1  0
 29 51  1  0
M  CHG  1  22   1
M  END
>  <DOCK_score>  (1) 
-57.991371

>  <SMILES>  (1) 
Cn1nccc1C[C@@H](Nc1[nH]cc(-c2cccnc2)[nH+]1)C1=CCCCC1

$$$$
