Cn1cccc1[C@H](CSCc1ccccc1F)Nc1[nH]cc(-c2ccc(N)cc2)[nH+]1
     RDKit          3D

 55 58  0  0  1  0  0  0  0  0999 V2000
  128.4143  134.9413  162.8623 C   0  0  0  0  0  0  0  0  0  0  0  0
  127.7626  135.1804  161.5722 N   0  0  0  0  0  0  0  0  0  0  0  0
  126.4304  135.0415  161.3174 C   0  0  0  0  0  0  0  0  0  0  0  0
  126.2154  135.3435  160.0209 C   0  0  0  0  0  0  0  0  0  0  0  0
  127.4595  135.6871  159.4561 C   0  0  0  0  0  0  0  0  0  0  0  0
  128.3874  135.5819  160.4289 C   0  0  0  0  0  0  0  0  0  0  0  0
  129.8617  135.8550  160.2770 C   0  0  2  0  0  0  0  0  0  0  0  0
  130.4213  135.2229  160.9666 H   0  0  0  0  0  0  0  0  0  0  0  0
  130.1429  137.3258  160.5909 C   0  0  0  0  0  0  0  0  0  0  0  0
  131.9176  137.6544  160.4080 S   0  0  0  0  0  0  0  0  0  0  0  0
  132.0500  139.4173  160.8145 C   0  0  0  0  0  0  0  0  0  0  0  0
  133.4894  139.8509  160.7066 C   0  0  0  0  0  0  0  0  0  0  0  0
  134.2477  139.4652  159.6173 C   0  0  0  0  0  0  0  0  0  0  0  0
  135.5677  139.8630  159.5178 C   0  0  0  0  0  0  0  0  0  0  0  0
  136.1310  140.6473  160.5081 C   0  0  0  0  0  0  0  0  0  0  0  0
  135.3750  141.0334  161.5978 C   0  0  0  0  0  0  0  0  0  0  0  0
  134.0507  140.6405  161.6954 C   0  0  0  0  0  0  0  0  0  0  0  0
  133.3087  141.0227  162.7578 F   0  0  0  0  0  0  0  0  0  0  0  0
  130.2735  135.5616  158.9020 N   0  0  0  0  0  0  0  0  0  0  0  0
  130.1151  134.2854  158.3893 C   0  0  0  0  0  0  0  0  0  0  0  0
  129.5871  133.2233  159.0561 N   0  0  0  0  0  0  0  0  0  0  0  0
  129.2570  133.2239  159.9682 H   0  0  0  0  0  0  0  0  0  0  0  0
  129.6083  132.1492  158.1983 C   0  0  0  0  0  0  0  0  0  0  0  0
  130.1483  132.5865  157.0339 C   0  0  0  0  0  0  0  0  0  0  0  0
  130.3712  131.7714  155.8146 C   0  0  0  0  0  0  0  0  0  0  0  0
  129.7502  132.1227  154.6170 C   0  0  0  0  0  0  0  0  0  0  0  0
  129.9630  131.3666  153.4836 C   0  0  0  0  0  0  0  0  0  0  0  0
  130.7867  130.2488  153.5371 C   0  0  0  0  0  0  0  0  0  0  0  0
  130.9961  129.4813  152.3889 N   0  0  0  0  0  0  0  0  0  0  0  0
  131.4028  129.8933  154.7317 C   0  0  0  0  0  0  0  0  0  0  0  0
  131.1974  130.6498  155.8662 C   0  0  0  0  0  0  0  0  0  0  0  0
  130.4440  133.9025  157.1796 N   0  0  0  0  0  0  0  0  0  0  0  0
  130.8382  134.4690  156.4981 H   0  0  0  0  0  0  0  0  0  0  0  0
  128.4210  135.8640  163.4426 H   0  0  0  0  0  0  0  0  0  0  0  0
  127.8678  134.1725  163.4086 H   0  0  0  0  0  0  0  0  0  0  0  0
  129.4391  134.6095  162.6957 H   0  0  0  0  0  0  0  0  0  0  0  0
  125.6778  134.7378  162.0300 H   0  0  0  0  0  0  0  0  0  0  0  0
  125.2644  135.3251  159.5093 H   0  0  0  0  0  0  0  0  0  0  0  0
  127.6376  135.9805  158.4320 H   0  0  0  0  0  0  0  0  0  0  0  0
  129.5835  137.9580  159.9013 H   0  0  0  0  0  0  0  0  0  0  0  0
  129.8366  137.5441  161.6140 H   0  0  0  0  0  0  0  0  0  0  0  0
  131.4428  139.9971  160.1193 H   0  0  0  0  0  0  0  0  0  0  0  0
  131.6959  139.5832  161.8320 H   0  0  0  0  0  0  0  0  0  0  0  0
  133.8087  138.8528  158.8435 H   0  0  0  0  0  0  0  0  0  0  0  0
  136.1596  139.5612  158.6664 H   0  0  0  0  0  0  0  0  0  0  0  0
  137.1626  140.9570  160.4290 H   0  0  0  0  0  0  0  0  0  0  0  0
  135.8155  141.6455  162.3709 H   0  0  0  0  0  0  0  0  0  0  0  0
  130.6571  136.2618  158.3508 H   0  0  0  0  0  0  0  0  0  0  0  0
  129.2616  131.1488  158.4111 H   0  0  0  0  0  0  0  0  0  0  0  0
  129.1063  132.9887  154.5758 H   0  0  0  0  0  0  0  0  0  0  0  0
  129.4859  131.6410  152.5544 H   0  0  0  0  0  0  0  0  0  0  0  0
  131.5715  128.7003  152.4261 H   0  0  0  0  0  0  0  0  0  0  0  0
  130.5669  129.7278  151.5556 H   0  0  0  0  0  0  0  0  0  0  0  0
  132.0424  129.0240  154.7713 H   0  0  0  0  0  0  0  0  0  0  0  0
  131.6765  130.3737  156.7939 H   0  0  0  0  0  0  0  0  0  0  0  0
  1  2  1  0
  1 34  1  0
  1 35  1  0
  1 36  1  0
  2  6  1  0
  2  3  1  0
  3  4  2  0
  3 37  1  0
  4  5  1  0
  4 38  1  0
  5  6  2  0
  5 39  1  0
  6  7  1  0
  7  8  1  1
  7  9  1  0
  7 19  1  0
  9 10  1  0
  9 40  1  0
  9 41  1  0
 10 11  1  0
 11 12  1  0
 11 42  1  0
 11 43  1  0
 12 17  1  0
 12 13  2  0
 13 14  1  0
 13 44  1  0
 14 15  2  0
 14 45  1  0
 15 16  1  0
 15 46  1  0
 16 17  2  0
 16 47  1  0
 17 18  1  0
 19 48  1  0
 20 19  1  0
 20 32  2  0
 20 21  1  0
 21 22  1  0
 21 23  1  0
 23 24  2  0
 23 49  1  0
 24 25  1  0
 24 32  1  0
 25 31  1  0
 25 26  2  0
 26 27  1  0
 26 50  1  0
 27 28  2  0
 27 51  1  0
 28 29  1  0
 28 30  1  0
 29 52  1  0
 29 53  1  0
 30 31  2  0
 30 54  1  0
 31 55  1  0
 32 33  1  0
M  CHG  1  32   1
M  END
>  <DOCK_score>  (1) 
-61.247482

>  <SMILES>  (1) 
Cn1cccc1[C@H](CSCc1ccccc1F)Nc1[nH]cc(-c2ccc(N)cc2)[nH+]1

$$$$
