CC(C)n1nccc1C([C@H](Nc1[nH]cc(-c2ccc(N)cc2)[nH+]1)c1ccnn1C)C(F)(F)F
     RDKit          3D

 59 62  0  0  1  0  0  0  0  0999 V2000
  131.4010  140.1523  161.6504 C   0  0  0  0  0  0  0  0  0  0  0  0
  130.8266  139.2484  160.5578 C   0  0  0  0  0  0  0  0  0  0  0  0
  130.8275  139.9972  159.2235 C   0  0  0  0  0  0  0  0  0  0  0  0
  131.6481  138.0412  160.4408 N   0  0  0  0  0  0  0  0  0  0  0  0
  133.0115  137.9999  160.1213 N   0  0  0  0  0  0  0  0  0  0  0  0
  133.3901  136.7475  160.1065 C   0  0  0  0  0  0  0  0  0  0  0  0
  132.2830  135.9526  160.4207 C   0  0  0  0  0  0  0  0  0  0  0  0
  131.2260  136.7726  160.6246 C   0  0  0  0  0  0  0  0  0  0  0  0
  129.8267  136.3454  160.9857 C   0  0  1  0  0  0  0  0  0  0  0  0
  129.5494  134.9595  160.3998 C   0  0  2  0  0  0  0  0  0  0  0  0
  129.9974  134.1986  161.0388 H   0  0  0  0  0  0  0  0  0  0  0  0
  130.1285  134.8722  159.0569 N   0  0  0  0  0  0  0  0  0  0  0  0
  130.0041  133.7043  158.3240 C   0  0  0  0  0  0  0  0  0  0  0  0
  129.3713  132.5729  158.7373 N   0  0  0  0  0  0  0  0  0  0  0  0
  128.9299  132.4405  159.5909 H   0  0  0  0  0  0  0  0  0  0  0  0
  129.4736  131.6518  157.7219 C   0  0  0  0  0  0  0  0  0  0  0  0
  130.1602  132.2493  156.7168 C   0  0  0  0  0  0  0  0  0  0  0  0
  130.5070  131.6359  155.4113 C   0  0  0  0  0  0  0  0  0  0  0  0
  130.0434  132.2064  154.2269 C   0  0  0  0  0  0  0  0  0  0  0  0
  130.3716  131.6380  153.0143 C   0  0  0  0  0  0  0  0  0  0  0  0
  131.1545  130.4906  152.9727 C   0  0  0  0  0  0  0  0  0  0  0  0
  131.4806  129.9124  151.7436 N   0  0  0  0  0  0  0  0  0  0  0  0
  131.6133  129.9166  154.1528 C   0  0  0  0  0  0  0  0  0  0  0  0
  131.2921  130.4850  155.3674 C   0  0  0  0  0  0  0  0  0  0  0  0
  130.4772  133.5060  157.1177 N   0  0  0  0  0  0  0  0  0  0  0  0
  130.9714  134.1555  156.5937 H   0  0  0  0  0  0  0  0  0  0  0  0
  128.0612  134.7362  160.3204 C   0  0  0  0  0  0  0  0  0  0  0  0
  127.1784  135.4845  159.6191 C   0  0  0  0  0  0  0  0  0  0  0  0
  125.9043  134.9407  159.8122 C   0  0  0  0  0  0  0  0  0  0  0  0
  126.0179  133.9031  160.6012 N   0  0  0  0  0  0  0  0  0  0  0  0
  127.3708  133.7507  160.9315 N   0  0  0  0  0  0  0  0  0  0  0  0
  127.9359  132.7076  161.7911 C   0  0  0  0  0  0  0  0  0  0  0  0
  129.6865  136.2927  162.5082 C   0  0  0  0  0  0  0  0  0  0  0  0
  129.9402  137.5599  163.0441 F   0  0  0  0  0  0  0  0  0  0  0  0
  128.3874  135.8962  162.8436 F   0  0  0  0  0  0  0  0  0  0  0  0
  130.6037  135.3740  163.0296 F   0  0  0  0  0  0  0  0  0  0  0  0
  132.4222  140.4316  161.3911 H   0  0  0  0  0  0  0  0  0  0  0  0
  130.7897  141.0506  161.7374 H   0  0  0  0  0  0  0  0  0  0  0  0
  131.4003  139.6188  162.6009 H   0  0  0  0  0  0  0  0  0  0  0  0
  129.8053  138.9691  160.8169 H   0  0  0  0  0  0  0  0  0  0  0  0
  130.4182  139.3533  158.4452 H   0  0  0  0  0  0  0  0  0  0  0  0
  130.2162  140.8954  159.3106 H   0  0  0  0  0  0  0  0  0  0  0  0
  131.8486  140.2765  158.9644 H   0  0  0  0  0  0  0  0  0  0  0  0
  134.3855  136.3894  159.8888 H   0  0  0  0  0  0  0  0  0  0  0  0
  132.2733  134.8747  160.4883 H   0  0  0  0  0  0  0  0  0  0  0  0
  129.1120  137.0612  160.5795 H   0  0  0  0  0  0  0  0  0  0  0  0
  130.5992  135.6328  158.6814 H   0  0  0  0  0  0  0  0  0  0  0  0
  129.0785  130.6467  157.7225 H   0  0  0  0  0  0  0  0  0  0  0  0
  129.4307  133.0954  154.2587 H   0  0  0  0  0  0  0  0  0  0  0  0
  130.0163  132.0821  152.0963 H   0  0  0  0  0  0  0  0  0  0  0  0
  132.0270  129.1115  151.7139 H   0  0  0  0  0  0  0  0  0  0  0  0
  131.1606  130.3120  150.9197 H   0  0  0  0  0  0  0  0  0  0  0  0
  132.2217  129.0249  154.1183 H   0  0  0  0  0  0  0  0  0  0  0  0
  131.6492  130.0389  156.2839 H   0  0  0  0  0  0  0  0  0  0  0  0
  127.4157  136.3491  159.0169 H   0  0  0  0  0  0  0  0  0  0  0  0
  124.9853  135.3133  159.3844 H   0  0  0  0  0  0  0  0  0  0  0  0
  127.8541  133.0127  162.8343 H   0  0  0  0  0  0  0  0  0  0  0  0
  127.3886  131.7771  161.6408 H   0  0  0  0  0  0  0  0  0  0  0  0
  128.9852  132.5570  161.5377 H   0  0  0  0  0  0  0  0  0  0  0  0
  1  2  1  0
  1 37  1  0
  1 38  1  0
  1 39  1  0
  2  3  1  0
  2  4  1  0
  2 40  1  0
  3 41  1  0
  3 42  1  0
  3 43  1  0
  4  8  1  0
  4  5  1  0
  5  6  2  0
  6  7  1  0
  6 44  1  0
  7  8  2  0
  7 45  1  0
  8  9  1  0
  9 10  1  0
  9 33  1  0
  9 46  1  6
 10 11  1  1
 10 12  1  0
 10 27  1  0
 12 47  1  0
 13 12  1  0
 13 25  2  0
 13 14  1  0
 14 15  1  0
 14 16  1  0
 16 17  2  0
 16 48  1  0
 17 18  1  0
 17 25  1  0
 18 24  1  0
 18 19  2  0
 19 20  1  0
 19 49  1  0
 20 21  2  0
 20 50  1  0
 21 22  1  0
 21 23  1  0
 22 51  1  0
 22 52  1  0
 23 24  2  0
 23 53  1  0
 24 54  1  0
 25 26  1  0
 27 31  1  0
 27 28  2  0
 28 29  1  0
 28 55  1  0
 29 30  2  0
 29 56  1  0
 30 31  1  0
 31 32  1  0
 32 57  1  0
 32 58  1  0
 32 59  1  0
 33 34  1  0
 33 35  1  0
 33 36  1  0
M  CHG  1  25   1
M  END
>  <DOCK_score>  (1) 
-56.507999

>  <SMILES>  (1) 
CC(C)n1nccc1C([C@H](Nc1[nH]cc(-c2ccc(N)cc2)[nH+]1)c1ccnn1C)C(F)(F)F

$$$$
