O=C1CC[C@H]([NH+]=C(NC2CCCCC2)N[C@@H]2C[C@H]2c2ccccc2)CN1
     RDKit          3D

 57 60  0  0  1  0  0  0  0  0999 V2000
  124.8738  136.5204  164.5192 O   0  0  0  0  0  0  0  0  0  0  0  0
  125.9917  136.4842  164.0502 C   0  0  0  0  0  0  0  0  0  0  0  0
  127.1323  136.1254  164.9587 C   0  0  0  0  0  0  0  0  0  0  0  0
  128.4582  136.5504  164.3229 C   0  0  0  0  0  0  0  0  0  0  0  0
  128.4855  136.0454  162.8753 C   0  0  2  0  0  0  0  0  0  0  0  0
  128.2656  134.9779  162.8562 H   0  0  0  0  0  0  0  0  0  0  0  0
  129.8097  136.2848  162.2960 N   0  0  0  0  0  0  0  0  0  0  0  0
  130.5026  136.7066  162.8279 H   0  0  0  0  0  0  0  0  0  0  0  0
  130.0565  135.9310  161.0660 C   0  0  0  0  0  0  0  0  0  0  0  0
  129.4032  134.8535  160.5163 N   0  0  0  0  0  0  0  0  0  0  0  0
  130.0591  134.0484  159.4831 C   0  0  0  0  0  0  0  0  0  0  0  0
  129.1230  132.9202  159.0447 C   0  0  0  0  0  0  0  0  0  0  0  0
  129.8082  132.0793  157.9657 C   0  0  0  0  0  0  0  0  0  0  0  0
  131.0990  131.4811  158.5283 C   0  0  0  0  0  0  0  0  0  0  0  0
  132.0352  132.6092  158.9666 C   0  0  0  0  0  0  0  0  0  0  0  0
  131.3500  133.4501  160.0457 C   0  0  0  0  0  0  0  0  0  0  0  0
  130.9703  136.6355  160.3184 N   0  0  0  0  0  0  0  0  0  0  0  0
  131.6664  137.7837  160.9042 C   0  0  2  0  0  0  0  0  0  0  0  0
  132.2679  137.5683  161.7873 H   0  0  0  0  0  0  0  0  0  0  0  0
  130.9659  139.1424  160.8402 C   0  0  0  0  0  0  0  0  0  0  0  0
  132.1770  138.8635  159.9479 C   0  0  1  0  0  0  0  0  0  0  0  0
  131.9952  138.7192  158.8829 H   0  0  0  0  0  0  0  0  0  0  0  0
  133.4727  139.5481  160.2993 C   0  0  0  0  0  0  0  0  0  0  0  0
  134.2980  140.0221  159.2967 C   0  0  0  0  0  0  0  0  0  0  0  0
  135.4838  140.6550  159.6193 C   0  0  0  0  0  0  0  0  0  0  0  0
  135.8468  140.8094  160.9442 C   0  0  0  0  0  0  0  0  0  0  0  0
  135.0243  140.3303  161.9465 C   0  0  0  0  0  0  0  0  0  0  0  0
  133.8383  139.6976  161.6241 C   0  0  0  0  0  0  0  0  0  0  0  0
  127.4285  136.8013  162.0693 C   0  0  0  0  0  0  0  0  0  0  0  0
  126.1422  136.7650  162.7552 N   0  0  0  0  0  0  0  0  0  0  0  0
  127.1388  135.0479  165.1235 H   0  0  0  0  0  0  0  0  0  0  0  0
  127.0088  136.6358  165.9140 H   0  0  0  0  0  0  0  0  0  0  0  0
  129.2883  136.1150  164.8792 H   0  0  0  0  0  0  0  0  0  0  0  0
  128.5394  137.6374  164.3339 H   0  0  0  0  0  0  0  0  0  0  0  0
  128.5078  134.6264  160.8126 H   0  0  0  0  0  0  0  0  0  0  0  0
  130.2944  134.6789  158.6257 H   0  0  0  0  0  0  0  0  0  0  0  0
  128.8878  132.2896  159.9021 H   0  0  0  0  0  0  0  0  0  0  0  0
  128.2034  133.3463  158.6440 H   0  0  0  0  0  0  0  0  0  0  0  0
  130.0434  132.7099  157.1083 H   0  0  0  0  0  0  0  0  0  0  0  0
  129.1412  131.2757  157.6534 H   0  0  0  0  0  0  0  0  0  0  0  0
  131.5872  130.8820  157.7596 H   0  0  0  0  0  0  0  0  0  0  0  0
  130.8638  130.8505  159.3857 H   0  0  0  0  0  0  0  0  0  0  0  0
  132.2704  133.2398  158.1093 H   0  0  0  0  0  0  0  0  0  0  0  0
  132.9548  132.1830  159.3675 H   0  0  0  0  0  0  0  0  0  0  0  0
  132.0170  134.2538  160.3579 H   0  0  0  0  0  0  0  0  0  0  0  0
  131.1148  132.8195  160.9030 H   0  0  0  0  0  0  0  0  0  0  0  0
  131.1542  136.3721  159.4031 H   0  0  0  0  0  0  0  0  0  0  0  0
  131.1063  139.8211  161.6815 H   0  0  0  0  0  0  0  0  0  0  0  0
  129.9870  139.1819  160.3623 H   0  0  0  0  0  0  0  0  0  0  0  0
  134.0142  139.9018  158.2617 H   0  0  0  0  0  0  0  0  0  0  0  0
  136.1265  141.0294  158.8362 H   0  0  0  0  0  0  0  0  0  0  0  0
  136.7732  141.3040  161.1962 H   0  0  0  0  0  0  0  0  0  0  0  0
  135.3081  140.4505  162.9816 H   0  0  0  0  0  0  0  0  0  0  0  0
  133.1955  139.3237  162.4072 H   0  0  0  0  0  0  0  0  0  0  0  0
  127.7409  137.8386  161.9491 H   0  0  0  0  0  0  0  0  0  0  0  0
  127.3287  136.3421  161.0858 H   0  0  0  0  0  0  0  0  0  0  0  0
  125.3454  136.9546  162.2356 H   0  0  0  0  0  0  0  0  0  0  0  0
  1  2  2  0
  2 30  1  0
  2  3  1  0
  3  4  1  0
  3 31  1  0
  3 32  1  0
  4  5  1  0
  4 33  1  0
  4 34  1  0
  5  6  1  1
  5  7  1  0
  5 29  1  0
  7  8  1  0
  9  7  2  0
  9 10  1  0
  9 17  1  0
 10 11  1  0
 10 35  1  0
 11 16  1  0
 11 12  1  0
 11 36  1  0
 12 13  1  0
 12 37  1  0
 12 38  1  0
 13 14  1  0
 13 39  1  0
 13 40  1  0
 14 15  1  0
 14 41  1  0
 14 42  1  0
 15 16  1  0
 15 43  1  0
 15 44  1  0
 16 45  1  0
 16 46  1  0
 17 18  1  0
 17 47  1  0
 18 19  1  1
 18 21  1  0
 18 20  1  0
 20 21  1  0
 20 48  1  0
 20 49  1  0
 21 22  1  6
 21 23  1  0
 23 28  1  0
 23 24  2  0
 24 25  1  0
 24 50  1  0
 25 26  2  0
 25 51  1  0
 26 27  1  0
 26 52  1  0
 27 28  2  0
 27 53  1  0
 28 54  1  0
 29 30  1  0
 29 55  1  0
 29 56  1  0
 30 57  1  0
M  CHG  1   7   1
M  END
>  <DOCK_score>  (1) 
-43.816837

>  <SMILES>  (1) 
O=C1CC[C@H]([NH+]=C(NC2CCCCC2)N[C@@H]2C[C@H]2c2ccccc2)CN1

$$$$
