C=C/C=C/CNc1ccc(-c2n[nH]cc2C[NH2+]C[C@H]2CC2(Br)Br)o1
     RDKit          3D

 45 47  0  0  1  0  0  0  0  0999 V2000
  130.3991  137.4154  166.5750 C   0  0  0  0  0  0  0  0  0  0  0  0
  129.9385  136.8028  165.4896 C   0  0  0  0  0  0  0  0  0  0  0  0
  128.9779  137.4873  164.6105 C   0  0  0  0  0  0  0  0  0  0  0  0
  128.5172  136.8747  163.5251 C   0  0  0  0  0  0  0  0  0  0  0  0
  127.5331  137.5759  162.6245 C   0  0  0  0  0  0  0  0  0  0  0  0
  126.6636  136.5849  161.9859 N   0  0  0  0  0  0  0  0  0  0  0  0
  127.2130  135.5962  161.1778 C   0  0  0  0  0  0  0  0  0  0  0  0
  126.5205  134.6247  160.5326 C   0  0  0  0  0  0  0  0  0  0  0  0
  127.4615  133.8471  159.8291 C   0  0  0  0  0  0  0  0  0  0  0  0
  128.6847  134.3802  160.0879 C   0  0  0  0  0  0  0  0  0  0  0  0
  129.9734  133.8858  159.5605 C   0  0  0  0  0  0  0  0  0  0  0  0
  130.1389  132.8527  158.7581 N   0  0  0  0  0  0  0  0  0  0  0  0
  131.5085  132.7212  158.4959 N   0  0  0  0  0  0  0  0  0  0  0  0
  131.9177  132.0441  157.9344 H   0  0  0  0  0  0  0  0  0  0  0  0
  132.1604  133.7032  159.1553 C   0  0  0  0  0  0  0  0  0  0  0  0
  131.2453  134.4354  159.8259 C   0  0  0  0  0  0  0  0  0  0  0  0
  131.5312  135.6310  160.6978 C   0  0  0  0  0  0  0  0  0  0  0  0
  132.4892  136.5140  160.0190 N   0  0  0  0  0  0  0  0  0  0  0  0
  132.0981  136.8233  159.1417 H   0  0  0  0  0  0  0  0  0  0  0  0
  133.3465  136.0108  159.8463 H   0  0  0  0  0  0  0  0  0  0  0  0
  132.7679  137.6794  160.8687 C   0  0  0  0  0  0  0  0  0  0  0  0
  133.7655  138.5992  160.1617 C   0  0  1  0  0  0  0  0  0  0  0  0
  134.7317  138.1527  159.9267 H   0  0  0  0  0  0  0  0  0  0  0  0
  133.2039  139.6269  159.1773 C   0  0  0  0  0  0  0  0  0  0  0  0
  133.7448  140.0830  160.5339 C   0  0  0  0  0  0  0  0  0  0  0  0
  135.4628  141.0386  160.5513 Br  0  0  0  0  0  0  0  0  0  0  0  0
  132.4381  140.6621  161.8841 Br  0  0  0  0  0  0  0  0  0  0  0  0
  128.5198  135.4420  160.9044 O   0  0  0  0  0  0  0  0  0  0  0  0
  130.0683  138.4159  166.8118 H   0  0  0  0  0  0  0  0  0  0  0  0
  131.1043  136.9129  167.2203 H   0  0  0  0  0  0  0  0  0  0  0  0
  130.2694  135.8024  165.2528 H   0  0  0  0  0  0  0  0  0  0  0  0
  128.6469  138.4877  164.8473 H   0  0  0  0  0  0  0  0  0  0  0  0
  128.8481  135.8743  163.2883 H   0  0  0  0  0  0  0  0  0  0  0  0
  128.0739  138.1321  161.8588 H   0  0  0  0  0  0  0  0  0  0  0  0
  126.9277  138.2644  163.2142 H   0  0  0  0  0  0  0  0  0  0  0  0
  125.7045  136.6186  162.1268 H   0  0  0  0  0  0  0  0  0  0  0  0
  125.4507  134.4775  160.5513 H   0  0  0  0  0  0  0  0  0  0  0  0
  127.2515  132.9906  159.2058 H   0  0  0  0  0  0  0  0  0  0  0  0
  133.2271  133.8719  159.1491 H   0  0  0  0  0  0  0  0  0  0  0  0
  131.9535  135.2969  161.6454 H   0  0  0  0  0  0  0  0  0  0  0  0
  130.6050  136.1745  160.8842 H   0  0  0  0  0  0  0  0  0  0  0  0
  133.1904  137.3453  161.8164 H   0  0  0  0  0  0  0  0  0  0  0  0
  131.8418  138.2229  161.0552 H   0  0  0  0  0  0  0  0  0  0  0  0
  132.1236  139.6478  159.0334 H   0  0  0  0  0  0  0  0  0  0  0  0
  133.8004  139.8569  158.2945 H   0  0  0  0  0  0  0  0  0  0  0  0
  1  2  2  0
  1 29  1  0
  1 30  1  0
  2  3  1  0
  2 31  1  0
  3  4  2  0
  3 32  1  0
  4  5  1  0
  4 33  1  0
  5  6  1  0
  5 34  1  0
  5 35  1  0
  6  7  1  0
  6 36  1  0
  7 28  1  0
  7  8  2  0
  8  9  1  0
  8 37  1  0
  9 10  2  0
  9 38  1  0
 10 11  1  0
 10 28  1  0
 11 16  1  0
 11 12  2  0
 12 13  1  0
 13 14  1  0
 13 15  1  0
 15 16  2  0
 15 39  1  0
 16 17  1  0
 17 18  1  0
 17 40  1  0
 17 41  1  0
 18 19  1  0
 18 20  1  0
 18 21  1  0
 21 22  1  0
 21 42  1  0
 21 43  1  0
 22 23  1  6
 22 25  1  0
 22 24  1  0
 24 25  1  0
 24 44  1  0
 24 45  1  0
 25 26  1  0
 25 27  1  0
M  CHG  1  18   1
M  END
>  <DOCK_score>  (1) 
-44.304878

>  <SMILES>  (1) 
C=C/C=C/CNc1ccc(-c2n[nH]cc2C[NH2+]C[C@H]2CC2(Br)Br)o1

$$$$
