CC1=C(C)C[C@H]2CC(NC(N[C@H]3CCC(=O)NC3)=[NH+]C3COC3)CC2C1
     RDKit          3D

 59 62  0  0  1  0  0  0  0  0999 V2000
  136.8957  138.0790  163.6732 C   0  0  0  0  0  0  0  0  0  0  0  0
  135.6326  137.8985  162.8712 C   0  0  0  0  0  0  0  0  0  0  0  0
  135.2389  138.8877  162.1299 C   0  0  0  0  0  0  0  0  0  0  0  0
  136.0845  140.1350  162.1145 C   0  0  0  0  0  0  0  0  0  0  0  0
  133.9895  138.8727  161.2819 C   0  0  0  0  0  0  0  0  0  0  0  0
  133.0948  137.7509  161.7705 C   0  0  1  0  0  0  0  0  0  0  0  0
  132.7072  137.9838  162.7624 H   0  0  0  0  0  0  0  0  0  0  0  0
  131.9715  137.3488  160.8039 C   0  0  0  0  0  0  0  0  0  0  0  0
  131.6578  135.8863  161.2142 C   0  0  0  0  0  0  0  0  0  0  0  0
  131.3407  135.0883  160.0273 N   0  0  0  0  0  0  0  0  0  0  0  0
  130.0409  134.9942  159.5894 C   0  0  0  0  0  0  0  0  0  0  0  0
  129.0386  135.6488  160.2654 N   0  0  0  0  0  0  0  0  0  0  0  0
  127.6812  135.0981  160.2760 C   0  0  1  0  0  0  0  0  0  0  0  0
  127.3065  135.0294  159.2547 H   0  0  0  0  0  0  0  0  0  0  0  0
  127.6967  133.7035  160.9134 C   0  0  0  0  0  0  0  0  0  0  0  0
  126.3084  133.0811  160.7511 C   0  0  0  0  0  0  0  0  0  0  0  0
  125.2533  134.0595  161.1809 C   0  0  0  0  0  0  0  0  0  0  0  0
  124.1426  133.6365  161.4229 O   0  0  0  0  0  0  0  0  0  0  0  0
  125.4721  135.3686  161.3104 N   0  0  0  0  0  0  0  0  0  0  0  0
  126.7656  136.0058  161.0983 C   0  0  0  0  0  0  0  0  0  0  0  0
  129.7587  134.2843  158.5332 N   0  0  0  0  0  0  0  0  0  0  0  0
  128.8417  134.2179  158.2243 H   0  0  0  0  0  0  0  0  0  0  0  0
  130.8267  133.5867  157.8128 C   0  0  0  0  0  0  0  0  0  0  0  0
  130.3610  132.9168  156.5063 C   0  0  0  0  0  0  0  0  0  0  0  0
  130.1353  131.7453  157.3159 O   0  0  0  0  0  0  0  0  0  0  0  0
  131.0880  132.1562  158.3207 C   0  0  0  0  0  0  0  0  0  0  0  0
  132.9347  135.3400  161.8955 C   0  0  0  0  0  0  0  0  0  0  0  0
  133.9673  136.4621  161.7947 C   0  0  2  0  0  0  0  0  0  0  0  0
  134.9081  136.5781  162.9836 C   0  0  0  0  0  0  0  0  0  0  0  0
  137.1015  137.1689  164.2365 H   0  0  0  0  0  0  0  0  0  0  0  0
  137.7275  138.2853  162.9996 H   0  0  0  0  0  0  0  0  0  0  0  0
  136.7717  138.9134  164.3635 H   0  0  0  0  0  0  0  0  0  0  0  0
  136.9906  139.9669  162.6965 H   0  0  0  0  0  0  0  0  0  0  0  0
  136.3530  140.3792  161.0867 H   0  0  0  0  0  0  0  0  0  0  0  0
  135.5216  140.9611  162.5489 H   0  0  0  0  0  0  0  0  0  0  0  0
  133.4714  139.8275  161.3713 H   0  0  0  0  0  0  0  0  0  0  0  0
  134.2529  138.6917  160.2398 H   0  0  0  0  0  0  0  0  0  0  0  0
  132.3182  137.3930  159.7716 H   0  0  0  0  0  0  0  0  0  0  0  0
  131.0970  137.9840  160.9447 H   0  0  0  0  0  0  0  0  0  0  0  0
  130.8221  135.8642  161.9135 H   0  0  0  0  0  0  0  0  0  0  0  0
  132.0478  134.6263  159.5502 H   0  0  0  0  0  0  0  0  0  0  0  0
  129.2304  136.4755  160.7354 H   0  0  0  0  0  0  0  0  0  0  0  0
  128.4407  133.0811  160.4162 H   0  0  0  0  0  0  0  0  0  0  0  0
  127.9366  133.7871  161.9734 H   0  0  0  0  0  0  0  0  0  0  0  0
  126.2399  132.1823  161.3639 H   0  0  0  0  0  0  0  0  0  0  0  0
  126.1537  132.8184  159.7045 H   0  0  0  0  0  0  0  0  0  0  0  0
  124.7235  135.9320  161.5616 H   0  0  0  0  0  0  0  0  0  0  0  0
  127.2305  136.2073  162.0634 H   0  0  0  0  0  0  0  0  0  0  0  0
  126.6181  136.9458  160.5664 H   0  0  0  0  0  0  0  0  0  0  0  0
  131.7301  134.1863  157.7023 H   0  0  0  0  0  0  0  0  0  0  0  0
  129.4502  133.3475  156.0903 H   0  0  0  0  0  0  0  0  0  0  0  0
  131.1523  132.7959  155.7663 H   0  0  0  0  0  0  0  0  0  0  0  0
  132.1018  131.8008  158.1357 H   0  0  0  0  0  0  0  0  0  0  0  0
  130.7560  131.9841  159.3447 H   0  0  0  0  0  0  0  0  0  0  0  0
  132.7333  135.1061  162.9408 H   0  0  0  0  0  0  0  0  0  0  0  0
  133.2906  134.4525  161.3721 H   0  0  0  0  0  0  0  0  0  0  0  0
  134.5365  136.3712  160.8696 H   0  0  0  0  0  0  0  0  0  0  0  0
  134.3363  136.5486  163.9111 H   0  0  0  0  0  0  0  0  0  0  0  0
  135.6277  135.7596  162.9663 H   0  0  0  0  0  0  0  0  0  0  0  0
  1  2  1  0
  1 30  1  0
  1 31  1  0
  1 32  1  0
  2 29  1  0
  2  3  2  0
  3  4  1  0
  3  5  1  0
  4 33  1  0
  4 34  1  0
  4 35  1  0
  5  6  1  0
  5 36  1  0
  5 37  1  0
  6  7  1  1
  6 28  1  0
  6  8  1  0
  8  9  1  0
  8 38  1  0
  8 39  1  0
  9 10  1  0
  9 27  1  0
  9 40  1  0
 10 41  1  0
 11 10  1  0
 11 12  1  0
 11 21  2  0
 12 13  1  0
 12 42  1  0
 13 14  1  6
 13 20  1  0
 13 15  1  0
 15 16  1  0
 15 43  1  0
 15 44  1  0
 16 17  1  0
 16 45  1  0
 16 46  1  0
 17 18  2  0
 17 19  1  0
 19 20  1  0
 19 47  1  0
 20 48  1  0
 20 49  1  0
 21 22  1  0
 21 23  1  0
 23 26  1  0
 23 24  1  0
 23 50  1  0
 24 25  1  0
 24 51  1  0
 24 52  1  0
 25 26  1  0
 26 53  1  0
 26 54  1  0
 27 28  1  0
 27 55  1  0
 27 56  1  0
 28 29  1  0
 28 57  1  6
 29 58  1  0
 29 59  1  0
M  CHG  1  21   1
M  END
>  <DOCK_score>  (1) 
-42.428387

>  <SMILES>  (1) 
CC1=C(C)C[C@H]2CC(NC(N[C@H]3CCC(=O)NC3)=[NH+]C3COC3)CC2C1

$$$$
