N#Cc1cccc([C@H](O)C[NH+]=C(NCCO)N[C@@H]2C[C@H](O)C[C@H](O)C2)c1
     RDKit          3D

 53 54  0  0  1  0  0  0  0  0999 V2000
  131.0985  133.4826  153.0084 N   0  0  0  0  0  0  0  0  0  0  0  0
  130.9697  133.0157  154.0360 C   0  0  0  0  0  0  0  0  0  0  0  0
  130.8073  132.4271  155.3313 C   0  0  0  0  0  0  0  0  0  0  0  0
  131.2484  131.1236  155.5697 C   0  0  0  0  0  0  0  0  0  0  0  0
  131.0885  130.5627  156.8195 C   0  0  0  0  0  0  0  0  0  0  0  0
  130.4926  131.2884  157.8361 C   0  0  0  0  0  0  0  0  0  0  0  0
  130.0534  132.5801  157.6068 C   0  0  0  0  0  0  0  0  0  0  0  0
  129.4055  133.3625  158.7199 C   0  0  2  0  0  0  0  0  0  0  0  0
  129.3714  132.7512  159.6217 H   0  0  0  0  0  0  0  0  0  0  0  0
  128.0763  133.7225  158.3380 O   0  0  0  0  0  0  0  0  0  0  0  0
  130.2185  134.6295  158.9931 C   0  0  0  0  0  0  0  0  0  0  0  0
  129.5886  135.3901  160.0752 N   0  0  0  0  0  0  0  0  0  0  0  0
  128.7789  135.0582  160.4939 H   0  0  0  0  0  0  0  0  0  0  0  0
  130.1163  136.5127  160.4756 C   0  0  0  0  0  0  0  0  0  0  0  0
  131.2639  136.9830  159.8824 N   0  0  0  0  0  0  0  0  0  0  0  0
  131.8569  138.2448  160.3325 C   0  0  0  0  0  0  0  0  0  0  0  0
  131.2694  139.4021  159.5224 C   0  0  0  0  0  0  0  0  0  0  0  0
  129.8539  139.4465  159.7127 O   0  0  0  0  0  0  0  0  0  0  0  0
  129.5251  137.2265  161.4911 N   0  0  0  0  0  0  0  0  0  0  0  0
  128.7730  136.5275  162.5361 C   0  0  2  0  0  0  0  0  0  0  0  0
  129.1933  135.5326  162.6826 H   0  0  0  0  0  0  0  0  0  0  0  0
  127.3074  136.4048  162.1142 C   0  0  0  0  0  0  0  0  0  0  0  0
  126.5218  135.6748  163.2054 C   0  0  2  0  0  0  0  0  0  0  0  0
  126.9423  134.6798  163.3520 H   0  0  0  0  0  0  0  0  0  0  0  0
  125.1530  135.5603  162.8114 O   0  0  0  0  0  0  0  0  0  0  0  0
  126.6118  136.4641  164.5131 C   0  0  0  0  0  0  0  0  0  0  0  0
  128.0773  136.5868  164.9350 C   0  0  2  0  0  0  0  0  0  0  0  0
  128.4976  135.5918  165.0816 H   0  0  0  0  0  0  0  0  0  0  0  0
  128.1613  137.3240  166.1564 O   0  0  0  0  0  0  0  0  0  0  0  0
  128.8629  137.3168  163.8437 C   0  0  0  0  0  0  0  0  0  0  0  0
  130.2019  133.1515  156.3598 C   0  0  0  0  0  0  0  0  0  0  0  0
  131.7133  130.5561  154.7772 H   0  0  0  0  0  0  0  0  0  0  0  0
  131.4288  129.5547  157.0053 H   0  0  0  0  0  0  0  0  0  0  0  0
  130.3694  130.8442  158.8127 H   0  0  0  0  0  0  0  0  0  0  0  0
  127.5981  134.2293  159.0084 H   0  0  0  0  0  0  0  0  0  0  0  0
  130.2525  135.2409  158.0913 H   0  0  0  0  0  0  0  0  0  0  0  0
  131.2323  134.3549  159.2842 H   0  0  0  0  0  0  0  0  0  0  0  0
  131.6811  136.4793  159.1660 H   0  0  0  0  0  0  0  0  0  0  0  0
  132.9367  138.2110  160.1873 H   0  0  0  0  0  0  0  0  0  0  0  0
  131.6369  138.3928  161.3897 H   0  0  0  0  0  0  0  0  0  0  0  0
  131.4894  139.2540  158.4651 H   0  0  0  0  0  0  0  0  0  0  0  0
  131.7108  140.3408  159.8572 H   0  0  0  0  0  0  0  0  0  0  0  0
  129.3943  138.6421  159.4355 H   0  0  0  0  0  0  0  0  0  0  0  0
  129.6061  138.1927  161.5158 H   0  0  0  0  0  0  0  0  0  0  0  0
  126.8870  137.3998  161.9677 H   0  0  0  0  0  0  0  0  0  0  0  0
  127.2434  135.8424  161.1826 H   0  0  0  0  0  0  0  0  0  0  0  0
  124.7141  136.4091  162.6631 H   0  0  0  0  0  0  0  0  0  0  0  0
  126.1914  137.4591  164.3666 H   0  0  0  0  0  0  0  0  0  0  0  0
  126.0521  135.9441  165.2906 H   0  0  0  0  0  0  0  0  0  0  0  0
  129.0636  137.4409  166.4839 H   0  0  0  0  0  0  0  0  0  0  0  0
  129.9069  137.4041  164.1443 H   0  0  0  0  0  0  0  0  0  0  0  0
  128.4425  138.3116  163.6972 H   0  0  0  0  0  0  0  0  0  0  0  0
  129.8546  134.1583  156.1810 H   0  0  0  0  0  0  0  0  0  0  0  0
  1  2  3  0
  2  3  1  0
  3 31  2  0
  3  4  1  0
  4  5  2  0
  4 32  1  0
  5  6  1  0
  5 33  1  0
  6  7  2  0
  6 34  1  0
  7  8  1  0
  7 31  1  0
  8  9  1  1
  8 10  1  0
  8 11  1  0
 10 35  1  0
 11 12  1  0
 11 36  1  0
 11 37  1  0
 12 13  1  0
 14 12  2  0
 14 15  1  0
 14 19  1  0
 15 16  1  0
 15 38  1  0
 16 17  1  0
 16 39  1  0
 16 40  1  0
 17 18  1  0
 17 41  1  0
 17 42  1  0
 18 43  1  0
 19 20  1  0
 19 44  1  0
 20 21  1  1
 20 30  1  0
 20 22  1  0
 22 23  1  0
 22 45  1  0
 22 46  1  0
 23 24  1  1
 23 25  1  0
 23 26  1  0
 25 47  1  0
 26 27  1  0
 26 48  1  0
 26 49  1  0
 27 28  1  1
 27 29  1  0
 27 30  1  0
 29 50  1  0
 30 51  1  0
 30 52  1  0
 31 53  1  0
M  CHG  1  12   1
M  END
>  <DOCK_score>  (1) 
-41.36993

>  <SMILES>  (1) 
N#Cc1cccc([C@H](O)C[NH+]=C(NCCO)N[C@@H]2C[C@H](O)C[C@H](O)C2)c1

$$$$
