CCc1ccc(-c2c[nH]c(N[C@H](c3ccccc3F)c3coc4ccccc34)[nH+]2)cc1
     RDKit          3D

 54 58  0  0  1  0  0  0  0  0999 V2000
  130.6135  128.4535  151.6088 C   0  0  0  0  0  0  0  0  0  0  0  0
  131.6958  129.4720  151.9719 C   0  0  0  0  0  0  0  0  0  0  0  0
  131.3068  130.1882  153.2396 C   0  0  0  0  0  0  0  0  0  0  0  0
  131.6985  129.6811  154.4650 C   0  0  0  0  0  0  0  0  0  0  0  0
  131.3500  130.3357  155.6290 C   0  0  0  0  0  0  0  0  0  0  0  0
  130.5922  131.5038  155.5683 C   0  0  0  0  0  0  0  0  0  0  0  0
  130.2098  132.2089  156.8161 C   0  0  0  0  0  0  0  0  0  0  0  0
  129.4751  131.6918  157.8318 C   0  0  0  0  0  0  0  0  0  0  0  0
  129.3585  132.6775  158.7814 N   0  0  0  0  0  0  0  0  0  0  0  0
  128.8871  132.6084  159.6264 H   0  0  0  0  0  0  0  0  0  0  0  0
  130.0261  133.7691  158.3179 C   0  0  0  0  0  0  0  0  0  0  0  0
  130.1490  134.9796  158.9781 N   0  0  0  0  0  0  0  0  0  0  0  0
  129.0897  135.4307  159.8840 C   0  0  2  0  0  0  0  0  0  0  0  0
  128.9648  134.7044  160.6870 H   0  0  0  0  0  0  0  0  0  0  0  0
  127.7975  135.5622  159.1200 C   0  0  0  0  0  0  0  0  0  0  0  0
  126.5906  135.3598  159.7628 C   0  0  0  0  0  0  0  0  0  0  0  0
  125.4051  135.4808  159.0622 C   0  0  0  0  0  0  0  0  0  0  0  0
  125.4251  135.8039  157.7180 C   0  0  0  0  0  0  0  0  0  0  0  0
  126.6303  136.0064  157.0733 C   0  0  0  0  0  0  0  0  0  0  0  0
  127.8183  135.8914  157.7755 C   0  0  0  0  0  0  0  0  0  0  0  0
  128.9971  136.0951  157.1477 F   0  0  0  0  0  0  0  0  0  0  0  0
  129.4652  136.7675  160.4698 C   0  0  0  0  0  0  0  0  0  0  0  0
  129.7015  137.9026  159.7980 C   0  0  0  0  0  0  0  0  0  0  0  0
  130.0088  138.8923  160.6544 O   0  0  0  0  0  0  0  0  0  0  0  0
  129.9877  138.4500  161.9278 C   0  0  0  0  0  0  0  0  0  0  0  0
  130.2254  139.0568  163.1549 C   0  0  0  0  0  0  0  0  0  0  0  0
  130.1228  138.3196  164.3153 C   0  0  0  0  0  0  0  0  0  0  0  0
  129.7840  136.9749  164.2722 C   0  0  0  0  0  0  0  0  0  0  0  0
  129.5464  136.3587  163.0749 C   0  0  0  0  0  0  0  0  0  0  0  0
  129.6392  137.0896  161.8911 C   0  0  0  0  0  0  0  0  0  0  0  0
  130.5384  133.4832  157.1458 N   0  0  0  0  0  0  0  0  0  0  0  0
  131.0660  134.0872  156.6002 H   0  0  0  0  0  0  0  0  0  0  0  0
  130.1954  132.0074  154.3307 C   0  0  0  0  0  0  0  0  0  0  0  0
  130.5545  131.3475  153.1729 C   0  0  0  0  0  0  0  0  0  0  0  0
  129.6648  128.9687  151.4587 H   0  0  0  0  0  0  0  0  0  0  0  0
  130.8948  127.9356  150.6919 H   0  0  0  0  0  0  0  0  0  0  0  0
  130.5101  127.7300  152.4176 H   0  0  0  0  0  0  0  0  0  0  0  0
  132.6443  128.9573  152.1216 H   0  0  0  0  0  0  0  0  0  0  0  0
  131.7990  130.1960  151.1627 H   0  0  0  0  0  0  0  0  0  0  0  0
  132.2816  128.7733  154.5111 H   0  0  0  0  0  0  0  0  0  0  0  0
  131.6604  129.9413  156.5853 H   0  0  0  0  0  0  0  0  0  0  0  0
  129.0606  130.6959  157.8839 H   0  0  0  0  0  0  0  0  0  0  0  0
  130.9365  135.5291  158.8409 H   0  0  0  0  0  0  0  0  0  0  0  0
  126.5739  135.1065  160.8124 H   0  0  0  0  0  0  0  0  0  0  0  0
  124.4627  135.3225  159.5652 H   0  0  0  0  0  0  0  0  0  0  0  0
  124.4983  135.8979  157.1716 H   0  0  0  0  0  0  0  0  0  0  0  0
  126.6457  136.2585  156.0233 H   0  0  0  0  0  0  0  0  0  0  0  0
  129.6519  138.0073  158.7242 H   0  0  0  0  0  0  0  0  0  0  0  0
  130.4902  140.1029  163.1995 H   0  0  0  0  0  0  0  0  0  0  0  0
  130.3085  138.7938  165.2677 H   0  0  0  0  0  0  0  0  0  0  0  0
  129.7075  136.4111  165.1902 H   0  0  0  0  0  0  0  0  0  0  0  0
  129.2830  135.3118  163.0464 H   0  0  0  0  0  0  0  0  0  0  0  0
  129.6079  132.9121  154.2778 H   0  0  0  0  0  0  0  0  0  0  0  0
  130.2473  131.7367  152.2134 H   0  0  0  0  0  0  0  0  0  0  0  0
  1  2  1  0
  1 35  1  0
  1 36  1  0
  1 37  1  0
  2  3  1  0
  2 38  1  0
  2 39  1  0
  3 34  2  0
  3  4  1  0
  4  5  2  0
  4 40  1  0
  5  6  1  0
  5 41  1  0
  6  7  1  0
  6 33  2  0
  7 31  1  0
  7  8  2  0
  8  9  1  0
  8 42  1  0
  9 10  1  0
  9 11  1  0
 11 12  1  0
 11 31  2  0
 12 13  1  0
 12 43  1  0
 13 14  1  1
 13 15  1  0
 13 22  1  0
 15 20  1  0
 15 16  2  0
 16 17  1  0
 16 44  1  0
 17 18  2  0
 17 45  1  0
 18 19  1  0
 18 46  1  0
 19 20  2  0
 19 47  1  0
 20 21  1  0
 22 30  1  0
 22 23  2  0
 23 24  1  0
 23 48  1  0
 24 25  1  0
 25 30  2  0
 25 26  1  0
 26 27  2  0
 26 49  1  0
 27 28  1  0
 27 50  1  0
 28 29  2  0
 28 51  1  0
 29 30  1  0
 29 52  1  0
 31 32  1  0
 33 34  1  0
 33 53  1  0
 34 54  1  0
M  CHG  1  31   1
M  END
>  <DOCK_score>  (1) 
-59.740597

>  <SMILES>  (1) 
CCc1ccc(-c2c[nH]c(N[C@H](c3ccccc3F)c3coc4ccccc34)[nH+]2)cc1

$$$$
