Nc1ccc(-c2c[nH]c(Nc3ccc(O)cc3Cl)[nH+]2)cc1
     RDKit          3D

 35 37  0  0  1  0  0  0  0  0999 V2000
  131.2556  129.7119  151.9029 N   0  0  0  0  0  0  0  0  0  0  0  0
  130.9764  130.3758  153.1000 C   0  0  0  0  0  0  0  0  0  0  0  0
  130.1940  131.5241  153.0904 C   0  0  0  0  0  0  0  0  0  0  0  0
  129.9172  132.1811  154.2708 C   0  0  0  0  0  0  0  0  0  0  0  0
  130.4227  131.6923  155.4743 C   0  0  0  0  0  0  0  0  0  0  0  0
  130.1262  132.3973  156.7456 C   0  0  0  0  0  0  0  0  0  0  0  0
  129.4830  131.8724  157.8179 C   0  0  0  0  0  0  0  0  0  0  0  0
  129.4180  132.8632  158.7682 N   0  0  0  0  0  0  0  0  0  0  0  0
  129.0122  132.7916  159.6463 H   0  0  0  0  0  0  0  0  0  0  0  0
  130.0288  133.9634  158.2494 C   0  0  0  0  0  0  0  0  0  0  0  0
  130.1780  135.1815  158.8916 N   0  0  0  0  0  0  0  0  0  0  0  0
  129.2248  135.6007  159.8285 C   0  0  0  0  0  0  0  0  0  0  0  0
  129.6042  135.8548  161.1397 C   0  0  0  0  0  0  0  0  0  0  0  0
  128.6640  136.2681  162.0628 C   0  0  0  0  0  0  0  0  0  0  0  0
  127.3403  136.4299  161.6809 C   0  0  0  0  0  0  0  0  0  0  0  0
  126.4155  136.8378  162.5907 O   0  0  0  0  0  0  0  0  0  0  0  0
  126.9594  136.1766  160.3715 C   0  0  0  0  0  0  0  0  0  0  0  0
  127.8998  135.7680  159.4449 C   0  0  0  0  0  0  0  0  0  0  0  0
  127.4247  135.4582  157.8040 Cl  0  0  0  0  0  0  0  0  0  0  0  0
  130.4534  133.6796  157.0420 N   0  0  0  0  0  0  0  0  0  0  0  0
  130.9228  134.2908  156.4529 H   0  0  0  0  0  0  0  0  0  0  0  0
  131.2121  130.5433  155.4810 C   0  0  0  0  0  0  0  0  0  0  0  0
  131.4813  129.8861  154.2990 C   0  0  0  0  0  0  0  0  0  0  0  0
  130.9034  130.0523  151.0660 H   0  0  0  0  0  0  0  0  0  0  0  0
  131.8016  128.9098  151.9091 H   0  0  0  0  0  0  0  0  0  0  0  0
  129.8028  131.9026  152.1576 H   0  0  0  0  0  0  0  0  0  0  0  0
  129.3088  133.0734  154.2627 H   0  0  0  0  0  0  0  0  0  0  0  0
  129.0924  130.8694  157.9063 H   0  0  0  0  0  0  0  0  0  0  0  0
  130.9424  135.7442  158.6925 H   0  0  0  0  0  0  0  0  0  0  0  0
  130.6348  135.7296  161.4375 H   0  0  0  0  0  0  0  0  0  0  0  0
  128.9594  136.4657  163.0826 H   0  0  0  0  0  0  0  0  0  0  0  0
  125.5214  136.9220  162.2320 H   0  0  0  0  0  0  0  0  0  0  0  0
  125.9285  136.3028  160.0751 H   0  0  0  0  0  0  0  0  0  0  0  0
  131.6088  130.1656  156.4118 H   0  0  0  0  0  0  0  0  0  0  0  0
  132.0888  128.9932  154.3043 H   0  0  0  0  0  0  0  0  0  0  0  0
  1  2  1  0
  1 24  1  0
  1 25  1  0
  2 23  2  0
  2  3  1  0
  3  4  2  0
  3 26  1  0
  4  5  1  0
  4 27  1  0
  5  6  1  0
  5 22  2  0
  6 20  1  0
  6  7  2  0
  7  8  1  0
  7 28  1  0
  8  9  1  0
  8 10  1  0
 10 11  1  0
 10 20  2  0
 11 12  1  0
 11 29  1  0
 12 18  1  0
 12 13  2  0
 13 14  1  0
 13 30  1  0
 14 15  2  0
 14 31  1  0
 15 16  1  0
 15 17  1  0
 16 32  1  0
 17 18  2  0
 17 33  1  0
 18 19  1  0
 20 21  1  0
 22 23  1  0
 22 34  1  0
 23 35  1  0
M  CHG  1  20   1
M  END
>  <DOCK_score>  (1) 
-55.013508

>  <SMILES>  (1) 
Nc1ccc(-c2c[nH]c(Nc3ccc(O)cc3Cl)[nH+]2)cc1

$$$$
