C[C@](CNC1COc2cc(Cl)ccc21)([NH2+]Cc1cccc2c1NC(=O)CO2)c1ccccc1
     RDKit          3D

 60 64  0  0  1  0  0  0  0  0999 V2000
  128.4966  136.7435  159.2280 C   0  0  0  0  0  0  0  0  0  0  0  0
  129.1214  135.5294  159.9183 C   0  0  2  0  0  0  0  0  0  0  0  0
  130.0738  136.0022  161.0184 C   0  0  0  0  0  0  0  0  0  0  0  0
  131.1343  136.8284  160.4264 N   0  0  0  0  0  0  0  0  0  0  0  0
  132.0697  137.3013  161.4556 C   0  0  2  0  0  0  0  0  0  0  0  0
  131.3801  138.3040  162.4108 C   0  0  0  0  0  0  0  0  0  0  0  0
  131.6808  139.5747  161.8094 O   0  0  0  0  0  0  0  0  0  0  0  0
  132.8500  139.4787  161.1185 C   0  0  0  0  0  0  0  0  0  0  0  0
  133.7085  140.4804  160.6727 C   0  0  0  0  0  0  0  0  0  0  0  0
  134.8467  140.1550  159.9626 C   0  0  0  0  0  0  0  0  0  0  0  0
  135.9095  141.4120  159.4111 Cl  0  0  0  0  0  0  0  0  0  0  0  0
  135.1448  138.8316  159.6884 C   0  0  0  0  0  0  0  0  0  0  0  0
  134.2985  137.8312  160.1316 C   0  0  0  0  0  0  0  0  0  0  0  0
  133.1638  138.1540  160.8428 C   0  0  0  0  0  0  0  0  0  0  0  0
  129.8677  134.7359  158.9324 N   0  0  0  0  0  0  0  0  0  0  0  0
  130.3571  135.3550  158.3036 H   0  0  0  0  0  0  0  0  0  0  0  0
  130.5330  134.1462  159.4094 H   0  0  0  0  0  0  0  0  0  0  0  0
  128.9326  133.9001  158.1676 C   0  0  0  0  0  0  0  0  0  0  0  0
  129.6980  133.0862  157.1563 C   0  0  0  0  0  0  0  0  0  0  0  0
  129.9274  133.5918  155.8894 C   0  0  0  0  0  0  0  0  0  0  0  0
  130.6297  132.8473  154.9602 C   0  0  0  0  0  0  0  0  0  0  0  0
  131.1082  131.5918  155.2906 C   0  0  0  0  0  0  0  0  0  0  0  0
  130.8826  131.0793  156.5557 C   0  0  0  0  0  0  0  0  0  0  0  0
  130.1786  131.8325  157.4945 C   0  0  0  0  0  0  0  0  0  0  0  0
  129.9497  131.2976  158.7703 N   0  0  0  0  0  0  0  0  0  0  0  0
  130.6774  130.2328  159.1723 C   0  0  0  0  0  0  0  0  0  0  0  0
  130.4801  129.7366  160.2613 O   0  0  0  0  0  0  0  0  0  0  0  0
  131.7361  129.6643  158.2620 C   0  0  0  0  0  0  0  0  0  0  0  0
  131.3469  129.8480  156.8984 O   0  0  0  0  0  0  0  0  0  0  0  0
  128.0336  134.6817  160.5255 C   0  0  0  0  0  0  0  0  0  0  0  0
  126.7104  135.0623  160.4020 C   0  0  0  0  0  0  0  0  0  0  0  0
  125.7124  134.2827  160.9559 C   0  0  0  0  0  0  0  0  0  0  0  0
  126.0379  133.1266  161.6403 C   0  0  0  0  0  0  0  0  0  0  0  0
  127.3614  132.7486  161.7683 C   0  0  0  0  0  0  0  0  0  0  0  0
  128.3593  133.5263  161.2112 C   0  0  0  0  0  0  0  0  0  0  0  0
  127.9429  137.3321  159.9595 H   0  0  0  0  0  0  0  0  0  0  0  0
  129.2835  137.3566  158.7887 H   0  0  0  0  0  0  0  0  0  0  0  0
  127.8182  136.4066  158.4442 H   0  0  0  0  0  0  0  0  0  0  0  0
  129.5200  136.5909  161.7498 H   0  0  0  0  0  0  0  0  0  0  0  0
  130.5189  135.1372  161.5101 H   0  0  0  0  0  0  0  0  0  0  0  0
  131.6207  136.3259  159.6990 H   0  0  0  0  0  0  0  0  0  0  0  0
  132.4930  136.4631  162.0091 H   0  0  0  0  0  0  0  0  0  0  0  0
  130.3037  138.1342  162.4372 H   0  0  0  0  0  0  0  0  0  0  0  0
  131.8069  138.2397  163.4117 H   0  0  0  0  0  0  0  0  0  0  0  0
  133.4827  141.5155  160.8826 H   0  0  0  0  0  0  0  0  0  0  0  0
  136.0347  138.5809  159.1302 H   0  0  0  0  0  0  0  0  0  0  0  0
  134.5270  136.7972  159.9197 H   0  0  0  0  0  0  0  0  0  0  0  0
  128.4038  133.2315  158.8470 H   0  0  0  0  0  0  0  0  0  0  0  0
  128.2137  134.5372  157.6523 H   0  0  0  0  0  0  0  0  0  0  0  0
  129.5570  134.5715  155.6254 H   0  0  0  0  0  0  0  0  0  0  0  0
  130.8059  133.2473  153.9727 H   0  0  0  0  0  0  0  0  0  0  0  0
  131.6564  131.0128  154.5621 H   0  0  0  0  0  0  0  0  0  0  0  0
  129.2829  131.6880  159.3567 H   0  0  0  0  0  0  0  0  0  0  0  0
  131.8557  128.6001  158.4650 H   0  0  0  0  0  0  0  0  0  0  0  0
  132.6814  130.1763  158.4417 H   0  0  0  0  0  0  0  0  0  0  0  0
  126.4563  135.9672  159.8703 H   0  0  0  0  0  0  0  0  0  0  0  0
  124.6784  134.5781  160.8562 H   0  0  0  0  0  0  0  0  0  0  0  0
  125.2583  132.5188  162.0752 H   0  0  0  0  0  0  0  0  0  0  0  0
  127.6158  131.8457  162.3034 H   0  0  0  0  0  0  0  0  0  0  0  0
  129.3933  133.2310  161.3113 H   0  0  0  0  0  0  0  0  0  0  0  0
  1 36  1  0
  1 37  1  0
  1 38  1  0
  2  1  1  6
  2  3  1  0
  2 15  1  0
  2 30  1  0
  3  4  1  0
  3 39  1  0
  3 40  1  0
  4  5  1  0
  4 41  1  0
  5 14  1  0
  5  6  1  0
  5 42  1  1
  6  7  1  0
  6 43  1  0
  6 44  1  0
  7  8  1  0
  8 14  2  0
  8  9  1  0
  9 10  2  0
  9 45  1  0
 10 11  1  0
 10 12  1  0
 12 13  2  0
 12 46  1  0
 13 14  1  0
 13 47  1  0
 15 16  1  0
 15 17  1  0
 15 18  1  0
 18 19  1  0
 18 48  1  0
 18 49  1  0
 19 24  1  0
 19 20  2  0
 20 21  1  0
 20 50  1  0
 21 22  2  0
 21 51  1  0
 22 23  1  0
 22 52  1  0
 23 29  1  0
 23 24  2  0
 24 25  1  0
 25 26  1  0
 25 53  1  0
 26 27  2  0
 26 28  1  0
 28 29  1  0
 28 54  1  0
 28 55  1  0
 30 35  1  0
 30 31  2  0
 31 32  1  0
 31 56  1  0
 32 33  2  0
 32 57  1  0
 33 34  1  0
 33 58  1  0
 34 35  2  0
 34 59  1  0
 35 60  1  0
M  CHG  1  15   1
M  END
>  <DOCK_score>  (1) 
-56.82909

>  <SMILES>  (1) 
C[C@](CNC1COc2cc(Cl)ccc21)([NH2+]Cc1cccc2c1NC(=O)CO2)c1ccccc1

$$$$
