Oc1cc(F)c(Nc2[nH]cc(-c3ccccc3)[nH+]2)cc1Sc1ccc2c(c1Br)CCC2
     RDKit          3D

 51 55  0  0  1  0  0  0  0  0999 V2000
  126.4441  136.7140  161.6477 O   0  0  0  0  0  0  0  0  0  0  0  0
  127.3575  136.2953  160.7301 C   0  0  0  0  0  0  0  0  0  0  0  0
  126.9992  135.3595  159.7733 C   0  0  0  0  0  0  0  0  0  0  0  0
  127.9267  134.9323  158.8398 C   0  0  0  0  0  0  0  0  0  0  0  0
  127.5749  134.0200  157.9077 F   0  0  0  0  0  0  0  0  0  0  0  0
  129.2207  135.4415  158.8596 C   0  0  0  0  0  0  0  0  0  0  0  0
  130.1587  135.0080  157.9129 N   0  0  0  0  0  0  0  0  0  0  0  0
  130.0757  133.7276  157.3920 C   0  0  0  0  0  0  0  0  0  0  0  0
  129.5846  132.6371  158.0425 N   0  0  0  0  0  0  0  0  0  0  0  0
  129.2334  132.6172  158.9464 H   0  0  0  0  0  0  0  0  0  0  0  0
  129.6759  131.5710  157.1815 C   0  0  0  0  0  0  0  0  0  0  0  0
  130.2280  132.0379  156.0339 C   0  0  0  0  0  0  0  0  0  0  0  0
  130.5227  131.2391  154.8192 C   0  0  0  0  0  0  0  0  0  0  0  0
  129.9214  131.5653  153.6049 C   0  0  0  0  0  0  0  0  0  0  0  0
  130.2037  130.8222  152.4766 C   0  0  0  0  0  0  0  0  0  0  0  0
  131.0728  129.7483  152.5521 C   0  0  0  0  0  0  0  0  0  0  0  0
  131.6679  129.4168  153.7557 C   0  0  0  0  0  0  0  0  0  0  0  0
  131.3974  130.1563  154.8891 C   0  0  0  0  0  0  0  0  0  0  0  0
  130.4623  133.3643  156.1933 N   0  0  0  0  0  0  0  0  0  0  0  0
  130.8534  133.9504  155.5267 H   0  0  0  0  0  0  0  0  0  0  0  0
  129.5813  136.3831  159.8127 C   0  0  0  0  0  0  0  0  0  0  0  0
  128.6528  136.8074  160.7525 C   0  0  0  0  0  0  0  0  0  0  0  0
  129.1097  137.9975  161.9688 S   0  0  0  0  0  0  0  0  0  0  0  0
  130.8273  137.6837  162.2052 C   0  0  0  0  0  0  0  0  0  0  0  0
  131.7598  138.6827  161.9531 C   0  0  0  0  0  0  0  0  0  0  0  0
  133.1033  138.4312  162.1404 C   0  0  0  0  0  0  0  0  0  0  0  0
  133.5283  137.1873  162.5789 C   0  0  0  0  0  0  0  0  0  0  0  0
  132.6011  136.1893  162.8317 C   0  0  0  0  0  0  0  0  0  0  0  0
  131.2541  136.4370  162.6448 C   0  0  0  0  0  0  0  0  0  0  0  0
  129.9894  135.0740  162.9895 Br  0  0  0  0  0  0  0  0  0  0  0  0
  133.3153  134.9374  163.2948 C   0  0  0  0  0  0  0  0  0  0  0  0
  134.7238  135.4061  163.7173 C   0  0  0  0  0  0  0  0  0  0  0  0
  134.9243  136.6712  162.8564 C   0  0  0  0  0  0  0  0  0  0  0  0
  125.5739  136.3030  161.5524 H   0  0  0  0  0  0  0  0  0  0  0  0
  125.9950  134.9625  159.7566 H   0  0  0  0  0  0  0  0  0  0  0  0
  130.8660  135.6049  157.6224 H   0  0  0  0  0  0  0  0  0  0  0  0
  129.3707  130.5545  157.3815 H   0  0  0  0  0  0  0  0  0  0  0  0
  129.2393  132.4005  153.5459 H   0  0  0  0  0  0  0  0  0  0  0  0
  129.7418  131.0767  151.5342 H   0  0  0  0  0  0  0  0  0  0  0  0
  131.2876  129.1667  151.6679 H   0  0  0  0  0  0  0  0  0  0  0  0
  132.3458  128.5778  153.8087 H   0  0  0  0  0  0  0  0  0  0  0  0
  131.8630  129.8967  155.8284 H   0  0  0  0  0  0  0  0  0  0  0  0
  130.5848  136.7822  159.8258 H   0  0  0  0  0  0  0  0  0  0  0  0
  131.4335  139.6539  161.6116 H   0  0  0  0  0  0  0  0  0  0  0  0
  133.8276  139.2082  161.9447 H   0  0  0  0  0  0  0  0  0  0  0  0
  133.3849  134.2179  162.4790 H   0  0  0  0  0  0  0  0  0  0  0  0
  132.7930  134.4962  164.1439 H   0  0  0  0  0  0  0  0  0  0  0  0
  134.7480  135.6521  164.7789 H   0  0  0  0  0  0  0  0  0  0  0  0
  135.4718  134.6509  163.4763 H   0  0  0  0  0  0  0  0  0  0  0  0
  135.5003  137.4155  163.4062 H   0  0  0  0  0  0  0  0  0  0  0  0
  135.4263  136.4175  161.9227 H   0  0  0  0  0  0  0  0  0  0  0  0
  1  2  1  0
  1 34  1  0
  2 22  2  0
  2  3  1  0
  3  4  2  0
  3 35  1  0
  4  5  1  0
  4  6  1  0
  6  7  1  0
  6 21  2  0
  7 36  1  0
  8  7  1  0
  8 19  2  0
  8  9  1  0
  9 10  1  0
  9 11  1  0
 11 12  2  0
 11 37  1  0
 12 13  1  0
 12 19  1  0
 13 18  1  0
 13 14  2  0
 14 15  1  0
 14 38  1  0
 15 16  2  0
 15 39  1  0
 16 17  1  0
 16 40  1  0
 17 18  2  0
 17 41  1  0
 18 42  1  0
 19 20  1  0
 21 22  1  0
 21 43  1  0
 22 23  1  0
 23 24  1  0
 24 29  1  0
 24 25  2  0
 25 26  1  0
 25 44  1  0
 26 27  2  0
 26 45  1  0
 27 33  1  0
 27 28  1  0
 28 29  2  0
 28 31  1  0
 29 30  1  0
 31 32  1  0
 31 46  1  0
 31 47  1  0
 32 33  1  0
 32 48  1  0
 32 49  1  0
 33 50  1  0
 33 51  1  0
M  CHG  1  19   1
M  END
>  <DOCK_score>  (1) 
-56.610706

>  <SMILES>  (1) 
Oc1cc(F)c(Nc2[nH]cc(-c3ccccc3)[nH+]2)cc1Sc1ccc2c(c1Br)CCC2

$$$$
