Nc1ccc(-c2c[nH]c(Nc3ccc(NC=O)cc3)[nH+]2)cc1
     RDKit          3D

 38 40  0  0  1  0  0  0  0  0999 V2000
  131.0827  129.4453  152.0096 N   0  0  0  0  0  0  0  0  0  0  0  0
  130.8622  130.1400  153.2014 C   0  0  0  0  0  0  0  0  0  0  0  0
  130.0063  131.2353  153.2178 C   0  0  0  0  0  0  0  0  0  0  0  0
  129.7868  131.9223  154.3932 C   0  0  0  0  0  0  0  0  0  0  0  0
  130.4241  131.5177  155.5651 C   0  0  0  0  0  0  0  0  0  0  0  0
  130.1901  132.2554  156.8307 C   0  0  0  0  0  0  0  0  0  0  0  0
  129.6731  131.7374  157.9724 C   0  0  0  0  0  0  0  0  0  0  0  0
  129.6344  132.7583  158.8917 N   0  0  0  0  0  0  0  0  0  0  0  0
  129.3172  132.6964  159.8063 H   0  0  0  0  0  0  0  0  0  0  0  0
  130.1207  133.8730  158.2806 C   0  0  0  0  0  0  0  0  0  0  0  0
  130.2473  135.1228  158.8642 N   0  0  0  0  0  0  0  0  0  0  0  0
  129.3593  135.5182  159.8712 C   0  0  0  0  0  0  0  0  0  0  0  0
  129.8396  135.8368  161.1350 C   0  0  0  0  0  0  0  0  0  0  0  0
  128.9640  136.2304  162.1270 C   0  0  0  0  0  0  0  0  0  0  0  0
  127.6028  136.2993  161.8646 C   0  0  0  0  0  0  0  0  0  0  0  0
  126.7131  136.6940  162.8726 N   0  0  0  0  0  0  0  0  0  0  0  0
  126.6288  135.9816  164.0136 C   0  0  0  0  0  0  0  0  0  0  0  0
  127.3226  134.9986  164.1675 O   0  0  0  0  0  0  0  0  0  0  0  0
  127.1213  135.9760  160.6021 C   0  0  0  0  0  0  0  0  0  0  0  0
  127.9971  135.5864  159.6086 C   0  0  0  0  0  0  0  0  0  0  0  0
  130.4548  133.5673  157.0504 N   0  0  0  0  0  0  0  0  0  0  0  0
  130.8314  134.1813  156.4008 H   0  0  0  0  0  0  0  0  0  0  0  0
  131.2862  130.4224  155.5448 C   0  0  0  0  0  0  0  0  0  0  0  0
  131.4987  129.7352  154.3682 C   0  0  0  0  0  0  0  0  0  0  0  0
  130.6384  129.7277  151.1943 H   0  0  0  0  0  0  0  0  0  0  0  0
  131.6796  128.6815  151.9967 H   0  0  0  0  0  0  0  0  0  0  0  0
  129.5129  131.5486  152.3096 H   0  0  0  0  0  0  0  0  0  0  0  0
  129.1215  132.7728  154.4059 H   0  0  0  0  0  0  0  0  0  0  0  0
  129.3570  130.7168  158.1305 H   0  0  0  0  0  0  0  0  0  0  0  0
  130.9489  135.7257  158.5721 H   0  0  0  0  0  0  0  0  0  0  0  0
  130.8983  135.7796  161.3406 H   0  0  0  0  0  0  0  0  0  0  0  0
  129.3377  136.4810  163.1088 H   0  0  0  0  0  0  0  0  0  0  0  0
  126.1583  137.4801  162.7495 H   0  0  0  0  0  0  0  0  0  0  0  0
  125.9436  136.2860  164.7909 H   0  0  0  0  0  0  0  0  0  0  0  0
  126.0621  136.0290  160.3980 H   0  0  0  0  0  0  0  0  0  0  0  0
  127.6229  135.3345  158.6272 H   0  0  0  0  0  0  0  0  0  0  0  0
  131.7846  130.1100  156.4506 H   0  0  0  0  0  0  0  0  0  0  0  0
  132.1629  128.8839  154.3530 H   0  0  0  0  0  0  0  0  0  0  0  0
  1  2  1  0
  1 25  1  0
  1 26  1  0
  2 24  2  0
  2  3  1  0
  3  4  2  0
  3 27  1  0
  4  5  1  0
  4 28  1  0
  5  6  1  0
  5 23  2  0
  6 21  1  0
  6  7  2  0
  7  8  1  0
  7 29  1  0
  8  9  1  0
  8 10  1  0
 10 11  1  0
 10 21  2  0
 11 12  1  0
 11 30  1  0
 12 20  1  0
 12 13  2  0
 13 14  1  0
 13 31  1  0
 14 15  2  0
 14 32  1  0
 15 16  1  0
 15 19  1  0
 16 17  1  0
 16 33  1  0
 17 18  2  0
 17 34  1  0
 19 20  2  0
 19 35  1  0
 20 36  1  0
 21 22  1  0
 23 24  1  0
 23 37  1  0
 24 38  1  0
M  CHG  1  21   1
M  END
>  <DOCK_score>  (1) 
-48.184544

>  <SMILES>  (1) 
Nc1ccc(-c2c[nH]c(Nc3ccc(NC=O)cc3)[nH+]2)cc1

$$$$
