O=C1CC[C@H](NC(NC2CC2)=[NH+]C2COc3ccccc3OC2)CN1
     RDKit          3D

 50 53  0  0  1  0  0  0  0  0999 V2000
  123.8224  133.7046  160.9789 O   0  0  0  0  0  0  0  0  0  0  0  0
  124.9903  133.9996  160.8376 C   0  0  0  0  0  0  0  0  0  0  0  0
  125.8692  133.0671  160.0544 C   0  0  0  0  0  0  0  0  0  0  0  0
  127.3408  133.3656  160.3517 C   0  0  0  0  0  0  0  0  0  0  0  0
  127.5662  134.8761  160.2145 C   0  0  2  0  0  0  0  0  0  0  0  0
  127.1920  135.2155  159.2486 H   0  0  0  0  0  0  0  0  0  0  0  0
  128.9970  135.1713  160.3221 N   0  0  0  0  0  0  0  0  0  0  0  0
  129.8817  134.6225  159.4239 C   0  0  0  0  0  0  0  0  0  0  0  0
  129.4233  133.7967  158.4249 N   0  0  0  0  0  0  0  0  0  0  0  0
  130.2818  132.7292  157.9052 C   0  0  0  0  0  0  0  0  0  0  0  0
  129.6954  131.3174  157.8448 C   0  0  0  0  0  0  0  0  0  0  0  0
  130.7571  131.6613  158.8925 C   0  0  0  0  0  0  0  0  0  0  0  0
  131.1546  134.8851  159.5196 N   0  0  0  0  0  0  0  0  0  0  0  0
  131.7091  134.8952  158.7236 H   0  0  0  0  0  0  0  0  0  0  0  0
  131.7484  135.1651  160.8293 C   0  0  0  0  0  0  0  0  0  0  0  0
  132.2913  136.5855  160.8305 C   0  0  0  0  0  0  0  0  0  0  0  0
  132.7631  136.9464  162.1306 O   0  0  0  0  0  0  0  0  0  0  0  0
  134.0401  136.5666  162.4262 C   0  0  0  0  0  0  0  0  0  0  0  0
  135.0354  137.5178  162.5739 C   0  0  0  0  0  0  0  0  0  0  0  0
  136.3256  137.1193  162.8749 C   0  0  0  0  0  0  0  0  0  0  0  0
  136.6215  135.7774  163.0271 C   0  0  0  0  0  0  0  0  0  0  0  0
  135.6295  134.8244  162.8803 C   0  0  0  0  0  0  0  0  0  0  0  0
  134.3371  135.2199  162.5797 C   0  0  0  0  0  0  0  0  0  0  0  0
  133.3485  134.2906  162.4328 O   0  0  0  0  0  0  0  0  0  0  0  0
  132.8300  134.1337  161.1104 C   0  0  0  0  0  0  0  0  0  0  0  0
  126.8095  135.5883  161.3363 C   0  0  0  0  0  0  0  0  0  0  0  0
  125.4255  135.1343  161.3866 N   0  0  0  0  0  0  0  0  0  0  0  0
  125.6806  133.2009  158.9893 H   0  0  0  0  0  0  0  0  0  0  0  0
  125.6448  132.0377  160.3341 H   0  0  0  0  0  0  0  0  0  0  0  0
  127.5815  133.0494  161.3667 H   0  0  0  0  0  0  0  0  0  0  0  0
  127.9738  132.8340  159.6413 H   0  0  0  0  0  0  0  0  0  0  0  0
  129.3205  135.7539  161.0269 H   0  0  0  0  0  0  0  0  0  0  0  0
  128.5316  133.9207  158.0640 H   0  0  0  0  0  0  0  0  0  0  0  0
  130.9691  133.0230  157.1121 H   0  0  0  0  0  0  0  0  0  0  0  0
  128.6708  131.1827  158.1917 H   0  0  0  0  0  0  0  0  0  0  0  0
  129.9972  130.6822  157.0121 H   0  0  0  0  0  0  0  0  0  0  0  0
  131.7571  131.2523  158.7484 H   0  0  0  0  0  0  0  0  0  0  0  0
  130.4315  131.7532  159.9286 H   0  0  0  0  0  0  0  0  0  0  0  0
  130.9746  135.0821  161.5924 H   0  0  0  0  0  0  0  0  0  0  0  0
  133.1120  136.6566  160.1167 H   0  0  0  0  0  0  0  0  0  0  0  0
  131.4988  137.2728  160.5345 H   0  0  0  0  0  0  0  0  0  0  0  0
  134.8056  138.5663  162.4542 H   0  0  0  0  0  0  0  0  0  0  0  0
  137.1041  137.8587  162.9910 H   0  0  0  0  0  0  0  0  0  0  0  0
  137.6306  135.4721  163.2616 H   0  0  0  0  0  0  0  0  0  0  0  0
  135.8620  133.7766  162.9998 H   0  0  0  0  0  0  0  0  0  0  0  0
  132.4081  133.1341  161.0067 H   0  0  0  0  0  0  0  0  0  0  0  0
  133.6396  134.2578  160.3913 H   0  0  0  0  0  0  0  0  0  0  0  0
  126.8298  136.6636  161.1585 H   0  0  0  0  0  0  0  0  0  0  0  0
  127.2937  135.3746  162.2891 H   0  0  0  0  0  0  0  0  0  0  0  0
  124.7803  135.6927  161.8479 H   0  0  0  0  0  0  0  0  0  0  0  0
  1  2  2  0
  2 27  1  0
  2  3  1  0
  3  4  1  0
  3 28  1  0
  3 29  1  0
  4  5  1  0
  4 30  1  0
  4 31  1  0
  5  6  1  6
  5  7  1  0
  5 26  1  0
  7 32  1  0
  8  7  1  0
  8  9  1  0
  8 13  2  0
  9 10  1  0
  9 33  1  0
 10 12  1  0
 10 11  1  0
 10 34  1  0
 11 12  1  0
 11 35  1  0
 11 36  1  0
 12 37  1  0
 12 38  1  0
 13 14  1  0
 13 15  1  0
 15 25  1  0
 15 16  1  0
 15 39  1  0
 16 17  1  0
 16 40  1  0
 16 41  1  0
 17 18  1  0
 18 23  2  0
 18 19  1  0
 19 20  2  0
 19 42  1  0
 20 21  1  0
 20 43  1  0
 21 22  2  0
 21 44  1  0
 22 23  1  0
 22 45  1  0
 23 24  1  0
 24 25  1  0
 25 46  1  0
 25 47  1  0
 26 27  1  0
 26 48  1  0
 26 49  1  0
 27 50  1  0
M  CHG  1  13   1
M  END
>  <DOCK_score>  (1) 
-41.584114

>  <SMILES>  (1) 
O=C1CC[C@H](NC(NC2CC2)=[NH+]C2COc3ccccc3OC2)CN1

$$$$
