CCc1ccc(-c2c[nH]c(N[C@H](C3=CCCCC3)c3ccccc3)[nH+]2)cc1
     RDKit          3D

 55 58  0  0  1  0  0  0  0  0999 V2000
  129.9227  129.1131  151.2910 C   0  0  0  0  0  0  0  0  0  0  0  0
  131.2378  129.6397  151.8693 C   0  0  0  0  0  0  0  0  0  0  0  0
  130.9649  130.3560  153.1668 C   0  0  0  0  0  0  0  0  0  0  0  0
  130.9887  129.6548  154.3590 C   0  0  0  0  0  0  0  0  0  0  0  0
  130.7451  130.3066  155.5508 C   0  0  0  0  0  0  0  0  0  0  0  0
  130.4636  131.6717  155.5505 C   0  0  0  0  0  0  0  0  0  0  0  0
  130.1955  132.3768  156.8277 C   0  0  0  0  0  0  0  0  0  0  0  0
  129.6445  131.8312  157.9402 C   0  0  0  0  0  0  0  0  0  0  0  0
  129.5776  132.8287  158.8823 N   0  0  0  0  0  0  0  0  0  0  0  0
  129.2294  132.7451  159.7838 H   0  0  0  0  0  0  0  0  0  0  0  0
  130.0903  133.9557  158.3175 C   0  0  0  0  0  0  0  0  0  0  0  0
  130.2040  135.1883  158.9373 N   0  0  0  0  0  0  0  0  0  0  0  0
  129.7509  135.3574  160.3202 C   0  0  2  0  0  0  0  0  0  0  0  0
  130.3086  134.6832  160.9703 H   0  0  0  0  0  0  0  0  0  0  0  0
  128.2806  135.0392  160.4095 C   0  0  0  0  0  0  0  0  0  0  0  0
  127.9144  134.0758  161.1925 C   0  0  0  0  0  0  0  0  0  0  0  0
  126.4912  133.6377  161.3781 C   0  0  0  0  0  0  0  0  0  0  0  0
  125.5361  134.7217  160.8737 C   0  0  0  0  0  0  0  0  0  0  0  0
  125.9827  135.1465  159.4691 C   0  0  0  0  0  0  0  0  0  0  0  0
  127.3313  135.8630  159.5894 C   0  0  0  0  0  0  0  0  0  0  0  0
  129.9839  136.7815  160.7547 C   0  0  0  0  0  0  0  0  0  0  0  0
  130.2335  137.0664  162.0841 C   0  0  0  0  0  0  0  0  0  0  0  0
  130.4512  138.3722  162.4820 C   0  0  0  0  0  0  0  0  0  0  0  0
  130.4106  139.3941  161.5519 C   0  0  0  0  0  0  0  0  0  0  0  0
  130.1563  139.1096  160.2231 C   0  0  0  0  0  0  0  0  0  0  0  0
  129.9425  137.8033  159.8247 C   0  0  0  0  0  0  0  0  0  0  0  0
  130.4638  133.6803  157.0917 N   0  0  0  0  0  0  0  0  0  0  0  0
  130.8657  134.3086  156.4715 H   0  0  0  0  0  0  0  0  0  0  0  0
  130.4354  132.3718  154.3457 C   0  0  0  0  0  0  0  0  0  0  0  0
  130.6861  131.7108  153.1605 C   0  0  0  0  0  0  0  0  0  0  0  0
  129.2454  129.9476  151.1099 H   0  0  0  0  0  0  0  0  0  0  0  0
  130.1202  128.5950  150.3526 H   0  0  0  0  0  0  0  0  0  0  0  0
  129.4658  128.4214  151.9988 H   0  0  0  0  0  0  0  0  0  0  0  0
  131.9151  128.8051  152.0504 H   0  0  0  0  0  0  0  0  0  0  0  0
  131.6947  130.3314  151.1615 H   0  0  0  0  0  0  0  0  0  0  0  0
  131.2022  128.5962  154.3575 H   0  0  0  0  0  0  0  0  0  0  0  0
  130.7685  129.7593  156.4816 H   0  0  0  0  0  0  0  0  0  0  0  0
  129.3199  130.8083  158.0620 H   0  0  0  0  0  0  0  0  0  0  0  0
  130.5840  135.9400  158.4561 H   0  0  0  0  0  0  0  0  0  0  0  0
  128.6810  133.5546  161.7468 H   0  0  0  0  0  0  0  0  0  0  0  0
  126.3207  132.7174  160.8195 H   0  0  0  0  0  0  0  0  0  0  0  0
  126.3043  133.4554  162.4364 H   0  0  0  0  0  0  0  0  0  0  0  0
  124.5216  134.3253  160.8313 H   0  0  0  0  0  0  0  0  0  0  0  0
  125.5694  135.5804  161.5442 H   0  0  0  0  0  0  0  0  0  0  0  0
  126.0870  134.2657  158.8357 H   0  0  0  0  0  0  0  0  0  0  0  0
  125.2455  135.8250  159.0398 H   0  0  0  0  0  0  0  0  0  0  0  0
  127.1880  136.8319  160.0676 H   0  0  0  0  0  0  0  0  0  0  0  0
  127.7493  136.0120  158.5939 H   0  0  0  0  0  0  0  0  0  0  0  0
  130.2616  136.2685  162.8114 H   0  0  0  0  0  0  0  0  0  0  0  0
  130.6495  138.5946  163.5201 H   0  0  0  0  0  0  0  0  0  0  0  0
  130.5774  140.4146  161.8633 H   0  0  0  0  0  0  0  0  0  0  0  0
  130.1243  139.9081  159.4965 H   0  0  0  0  0  0  0  0  0  0  0  0
  129.7435  137.5812  158.7867 H   0  0  0  0  0  0  0  0  0  0  0  0
  130.2176  133.4298  154.3397 H   0  0  0  0  0  0  0  0  0  0  0  0
  130.6649  132.2524  152.2264 H   0  0  0  0  0  0  0  0  0  0  0  0
  1  2  1  0
  1 31  1  0
  1 32  1  0
  1 33  1  0
  2  3  1  0
  2 34  1  0
  2 35  1  0
  3 30  2  0
  3  4  1  0
  4  5  2  0
  4 36  1  0
  5  6  1  0
  5 37  1  0
  6  7  1  0
  6 29  2  0
  7 27  1  0
  7  8  2  0
  8  9  1  0
  8 38  1  0
  9 10  1  0
  9 11  1  0
 11 12  1  0
 11 27  2  0
 12 13  1  0
 12 39  1  0
 13 14  1  1
 13 15  1  0
 13 21  1  0
 15 20  1  0
 15 16  2  0
 16 17  1  0
 16 40  1  0
 17 18  1  0
 17 41  1  0
 17 42  1  0
 18 19  1  0
 18 43  1  0
 18 44  1  0
 19 20  1  0
 19 45  1  0
 19 46  1  0
 20 47  1  0
 20 48  1  0
 21 26  1  0
 21 22  2  0
 22 23  1  0
 22 49  1  0
 23 24  2  0
 23 50  1  0
 24 25  1  0
 24 51  1  0
 25 26  2  0
 25 52  1  0
 26 53  1  0
 27 28  1  0
 29 30  1  0
 29 54  1  0
 30 55  1  0
M  CHG  1  27   1
M  END
>  <DOCK_score>  (1) 
-57.250641

>  <SMILES>  (1) 
CCc1ccc(-c2c[nH]c(N[C@H](C3=CCCCC3)c3ccccc3)[nH+]2)cc1

$$$$
