CC[C@H](Nc1nc2ccccc2[nH]1)C(O)(C(C)=O)c1ccccc1CNc1[nH]c2ccccc2[nH+]1
     RDKit          3D

 64 68  0  0  1  0  0  0  0  0999 V2000
  131.5763  135.2735  164.4378 C   0  0  0  0  0  0  0  0  0  0  0  0
  130.8096  135.2256  163.1146 C   0  0  0  0  0  0  0  0  0  0  0  0
  129.3388  135.5641  163.3649 C   0  0  2  0  0  0  0  0  0  0  0  0
  129.2636  136.5640  163.7923 H   0  0  0  0  0  0  0  0  0  0  0  0
  128.7652  134.5902  164.2970 N   0  0  0  0  0  0  0  0  0  0  0  0
  128.2429  135.0131  165.5010 C   0  0  0  0  0  0  0  0  0  0  0  0
  128.2079  136.2565  165.9109 N   0  0  0  0  0  0  0  0  0  0  0  0
  127.6238  136.3168  167.1366 C   0  0  0  0  0  0  0  0  0  0  0  0
  127.3365  137.3667  168.0123 C   0  0  0  0  0  0  0  0  0  0  0  0
  126.7281  137.1035  169.2191 C   0  0  0  0  0  0  0  0  0  0  0  0
  126.3981  135.8034  169.5722 C   0  0  0  0  0  0  0  0  0  0  0  0
  126.6748  134.7556  168.7183 C   0  0  0  0  0  0  0  0  0  0  0  0
  127.2874  135.0023  167.4992 C   0  0  0  0  0  0  0  0  0  0  0  0
  127.6903  134.1971  166.4462 N   0  0  0  0  0  0  0  0  0  0  0  0
  127.5974  133.2332  166.3909 H   0  0  0  0  0  0  0  0  0  0  0  0
  128.5720  135.5164  162.0417 C   0  0  1  0  0  0  0  0  0  0  0  0
  128.6704  134.2055  161.4813 O   0  0  0  0  0  0  0  0  0  0  0  0
  127.1232  135.8498  162.2882 C   0  0  0  0  0  0  0  0  0  0  0  0
  126.7470  137.1841  162.8788 C   0  0  0  0  0  0  0  0  0  0  0  0
  126.2636  135.0477  162.0123 O   0  0  0  0  0  0  0  0  0  0  0  0
  129.1620  136.5181  161.0827 C   0  0  0  0  0  0  0  0  0  0  0  0
  129.7497  137.6731  161.5645 C   0  0  0  0  0  0  0  0  0  0  0  0
  130.2947  138.5898  160.6854 C   0  0  0  0  0  0  0  0  0  0  0  0
  130.2435  138.3564  159.3237 C   0  0  0  0  0  0  0  0  0  0  0  0
  129.6518  137.2040  158.8418 C   0  0  0  0  0  0  0  0  0  0  0  0
  129.1105  136.2849  159.7215 C   0  0  0  0  0  0  0  0  0  0  0  0
  128.4648  135.0288  159.1961 C   0  0  0  0  0  0  0  0  0  0  0  0
  128.5379  135.0174  157.7328 N   0  0  0  0  0  0  0  0  0  0  0  0
  129.1987  134.0003  157.0854 C   0  0  0  0  0  0  0  0  0  0  0  0
  129.6516  134.0598  155.8351 N   0  0  0  0  0  0  0  0  0  0  0  0
  129.5696  134.8197  155.2378 H   0  0  0  0  0  0  0  0  0  0  0  0
  130.2554  132.8669  155.5355 C   0  0  0  0  0  0  0  0  0  0  0  0
  130.8936  132.3682  154.4036 C   0  0  0  0  0  0  0  0  0  0  0  0
  131.4054  131.0887  154.4136 C   0  0  0  0  0  0  0  0  0  0  0  0
  131.2893  130.2935  155.5443 C   0  0  0  0  0  0  0  0  0  0  0  0
  130.6605  130.7718  156.6734 C   0  0  0  0  0  0  0  0  0  0  0  0
  130.1379  132.0619  156.6802 C   0  0  0  0  0  0  0  0  0  0  0  0
  129.4738  132.8108  157.6159 N   0  0  0  0  0  0  0  0  0  0  0  0
  129.2428  132.5228  158.5129 H   0  0  0  0  0  0  0  0  0  0  0  0
  131.5013  136.2734  164.8651 H   0  0  0  0  0  0  0  0  0  0  0  0
  132.6243  135.0322  164.2594 H   0  0  0  0  0  0  0  0  0  0  0  0
  131.1497  134.5490  165.1313 H   0  0  0  0  0  0  0  0  0  0  0  0
  131.2363  135.9501  162.4210 H   0  0  0  0  0  0  0  0  0  0  0  0
  130.8847  134.2256  162.6872 H   0  0  0  0  0  0  0  0  0  0  0  0
  128.7530  133.6479  164.0672 H   0  0  0  0  0  0  0  0  0  0  0  0
  127.5911  138.3813  167.7438 H   0  0  0  0  0  0  0  0  0  0  0  0
  126.5065  137.9153  169.8960 H   0  0  0  0  0  0  0  0  0  0  0  0
  125.9211  135.6101  170.5217 H   0  0  0  0  0  0  0  0  0  0  0  0
  126.4151  133.7456  168.9991 H   0  0  0  0  0  0  0  0  0  0  0  0
  129.5768  133.9238  161.2962 H   0  0  0  0  0  0  0  0  0  0  0  0
  127.6491  137.7687  163.0598 H   0  0  0  0  0  0  0  0  0  0  0  0
  126.1002  137.7198  162.1840 H   0  0  0  0  0  0  0  0  0  0  0  0
  126.2198  137.0292  163.8202 H   0  0  0  0  0  0  0  0  0  0  0  0
  129.7859  137.8574  162.6282 H   0  0  0  0  0  0  0  0  0  0  0  0
  130.7574  139.4901  161.0619 H   0  0  0  0  0  0  0  0  0  0  0  0
  130.6664  139.0743  158.6365 H   0  0  0  0  0  0  0  0  0  0  0  0
  129.6119  137.0217  157.7781 H   0  0  0  0  0  0  0  0  0  0  0  0
  128.9875  134.1584  159.5926 H   0  0  0  0  0  0  0  0  0  0  0  0
  127.4209  134.9990  159.5079 H   0  0  0  0  0  0  0  0  0  0  0  0
  128.1201  135.7274  157.2208 H   0  0  0  0  0  0  0  0  0  0  0  0
  130.9877  132.9822  153.5201 H   0  0  0  0  0  0  0  0  0  0  0  0
  131.9007  130.7024  153.5351 H   0  0  0  0  0  0  0  0  0  0  0  0
  131.6948  129.2926  155.5399 H   0  0  0  0  0  0  0  0  0  0  0  0
  130.5737  130.1477  157.5505 H   0  0  0  0  0  0  0  0  0  0  0  0
  1  2  1  0
  1 40  1  0
  1 41  1  0
  1 42  1  0
  2  3  1  0
  2 43  1  0
  2 44  1  0
  3  4  1  1
  3  5  1  0
  3 16  1  0
  5  6  1  0
  5 45  1  0
  6 14  1  0
  6  7  2  0
  7  8  1  0
  8 13  2  0
  8  9  1  0
  9 10  2  0
  9 46  1  0
 10 11  1  0
 10 47  1  0
 11 12  2  0
 11 48  1  0
 12 13  1  0
 12 49  1  0
 13 14  1  0
 14 15  1  0
 16 17  1  6
 16 18  1  0
 16 21  1  0
 17 50  1  0
 18 19  1  0
 18 20  2  0
 19 51  1  0
 19 52  1  0
 19 53  1  0
 21 26  1  0
 21 22  2  0
 22 23  1  0
 22 54  1  0
 23 24  2  0
 23 55  1  0
 24 25  1  0
 24 56  1  0
 25 26  2  0
 25 57  1  0
 26 27  1  0
 27 28  1  0
 27 58  1  0
 27 59  1  0
 28 29  1  0
 28 60  1  0
 29 38  1  0
 29 30  2  0
 30 31  1  0
 30 32  1  0
 32 37  2  0
 32 33  1  0
 33 34  2  0
 33 61  1  0
 34 35  1  0
 34 62  1  0
 35 36  2  0
 35 63  1  0
 36 37  1  0
 36 64  1  0
 37 38  1  0
 38 39  1  0
M  CHG  1  30   1
M  END
>  <DOCK_score>  (1) 
-48.807922

>  <SMILES>  (1) 
CC[C@H](Nc1nc2ccccc2[nH]1)C(O)(C(C)=O)c1ccccc1CNc1[nH]c2ccccc2[nH+]1

$$$$
