O=C1CC[C@H](NC(NC2CC2)=[NH+][C@H](CO)CF)CN1
     RDKit          3D

 41 42  0  0  1  0  0  0  0  0999 V2000
  123.8324  133.2844  161.2443 O   0  0  0  0  0  0  0  0  0  0  0  0
  125.0089  133.4675  161.0134 C   0  0  0  0  0  0  0  0  0  0  0  0
  125.8192  132.3142  160.4950 C   0  0  0  0  0  0  0  0  0  0  0  0
  127.3110  132.6030  160.6807 C   0  0  0  0  0  0  0  0  0  0  0  0
  127.6031  134.0088  160.1423 C   0  0  2  0  0  0  0  0  0  0  0  0
  127.2184  134.0987  159.1265 H   0  0  0  0  0  0  0  0  0  0  0  0
  129.0488  134.2461  160.1467 N   0  0  0  0  0  0  0  0  0  0  0  0
  129.8024  133.9190  159.0444 C   0  0  0  0  0  0  0  0  0  0  0  0
  129.1994  133.3691  157.9379 N   0  0  0  0  0  0  0  0  0  0  0  0
  130.0024  133.0205  156.7634 C   0  0  0  0  0  0  0  0  0  0  0  0
  129.4231  131.9901  155.7919 C   0  0  0  0  0  0  0  0  0  0  0  0
  130.5921  131.6098  156.7041 C   0  0  0  0  0  0  0  0  0  0  0  0
  131.0886  134.1300  159.0483 N   0  0  0  0  0  0  0  0  0  0  0  0
  131.5506  134.3251  158.2179 H   0  0  0  0  0  0  0  0  0  0  0  0
  131.8365  134.0727  160.3066 C   0  0  2  0  0  0  0  0  0  0  0  0
  131.4449  134.8203  160.9964 H   0  0  0  0  0  0  0  0  0  0  0  0
  133.3154  134.3550  160.0344 C   0  0  0  0  0  0  0  0  0  0  0  0
  133.4538  135.6548  159.4569 O   0  0  0  0  0  0  0  0  0  0  0  0
  131.6884  132.6810  160.9249 C   0  0  0  0  0  0  0  0  0  0  0  0
  132.1911  131.7214  160.0394 F   0  0  0  0  0  0  0  0  0  0  0  0
  126.9126  135.0320  161.0450 C   0  0  0  0  0  0  0  0  0  0  0  0
  125.5104  134.6813  161.2340 N   0  0  0  0  0  0  0  0  0  0  0  0
  125.6074  132.1702  159.4355 H   0  0  0  0  0  0  0  0  0  0  0  0
  125.5544  131.4101  161.0433 H   0  0  0  0  0  0  0  0  0  0  0  0
  127.5649  132.5553  161.7395 H   0  0  0  0  0  0  0  0  0  0  0  0
  127.8982  131.8692  160.1285 H   0  0  0  0  0  0  0  0  0  0  0  0
  129.4743  134.6341  160.9272 H   0  0  0  0  0  0  0  0  0  0  0  0
  128.2422  133.2119  157.9352 H   0  0  0  0  0  0  0  0  0  0  0  0
  130.5954  133.8319  156.3417 H   0  0  0  0  0  0  0  0  0  0  0  0
  128.4442  131.5717  156.0268 H   0  0  0  0  0  0  0  0  0  0  0  0
  129.6351  132.1236  154.7312 H   0  0  0  0  0  0  0  0  0  0  0  0
  131.5728  131.4933  156.2430 H   0  0  0  0  0  0  0  0  0  0  0  0
  130.3828  130.9414  157.5391 H   0  0  0  0  0  0  0  0  0  0  0  0
  133.8717  134.3124  160.9709 H   0  0  0  0  0  0  0  0  0  0  0  0
  133.7071  133.6073  159.3448 H   0  0  0  0  0  0  0  0  0  0  0  0
  132.9834  135.7650  158.6193 H   0  0  0  0  0  0  0  0  0  0  0  0
  132.2448  132.6384  161.8612 H   0  0  0  0  0  0  0  0  0  0  0  0
  130.6348  132.4798  161.1188 H   0  0  0  0  0  0  0  0  0  0  0  0
  127.4123  135.0535  162.0134 H   0  0  0  0  0  0  0  0  0  0  0  0
  126.9753  136.0183  160.5852 H   0  0  0  0  0  0  0  0  0  0  0  0
  124.9054  135.3755  161.5391 H   0  0  0  0  0  0  0  0  0  0  0  0
  1  2  2  0
  2 22  1  0
  2  3  1  0
  3  4  1  0
  3 23  1  0
  3 24  1  0
  4  5  1  0
  4 25  1  0
  4 26  1  0
  5  6  1  6
  5  7  1  0
  5 21  1  0
  7 27  1  0
  8  7  1  0
  8  9  1  0
  8 13  2  0
  9 10  1  0
  9 28  1  0
 10 12  1  0
 10 11  1  0
 10 29  1  0
 11 12  1  0
 11 30  1  0
 11 31  1  0
 12 32  1  0
 12 33  1  0
 13 14  1  0
 13 15  1  0
 15 16  1  1
 15 17  1  0
 15 19  1  0
 17 18  1  0
 17 34  1  0
 17 35  1  0
 18 36  1  0
 19 20  1  0
 19 37  1  0
 19 38  1  0
 21 22  1  0
 21 39  1  0
 21 40  1  0
 22 41  1  0
M  CHG  1  13   1
M  END
>  <DOCK_score>  (1) 
-43.844776

>  <SMILES>  (1) 
O=C1CC[C@H](NC(NC2CC2)=[NH+][C@H](CO)CF)CN1

$$$$
