C1=CCC(c2ccc(-c3c[nH]c(N[C@H](c4ccccc4)c4cccc5ccccc45)[nH+]3)cc2)=CC1
     RDKit          3D

 63 68  0  0  1  0  0  0  0  0999 V2000
  130.1238  128.3484  150.9234 C   0  0  0  0  0  0  0  0  0  0  0  0
  130.8994  127.9891  151.8996 C   0  0  0  0  0  0  0  0  0  0  0  0
  131.3262  128.9238  152.9908 C   0  0  0  0  0  0  0  0  0  0  0  0
  130.4107  130.1078  153.0797 C   0  0  0  0  0  0  0  0  0  0  0  0
  130.3905  130.8965  154.3284 C   0  0  0  0  0  0  0  0  0  0  0  0
  130.0978  132.2615  154.2880 C   0  0  0  0  0  0  0  0  0  0  0  0
  130.0787  132.9959  155.4524 C   0  0  0  0  0  0  0  0  0  0  0  0
  130.3517  132.3767  156.6726 C   0  0  0  0  0  0  0  0  0  0  0  0
  130.3314  133.1681  157.9257 C   0  0  0  0  0  0  0  0  0  0  0  0
  130.0050  132.7040  159.1582 C   0  0  0  0  0  0  0  0  0  0  0  0
  130.1176  133.7630  160.0253 N   0  0  0  0  0  0  0  0  0  0  0  0
  129.9492  133.7437  160.9805 H   0  0  0  0  0  0  0  0  0  0  0  0
  130.5095  134.8443  159.2977 C   0  0  0  0  0  0  0  0  0  0  0  0
  130.7362  136.1145  159.7992 N   0  0  0  0  0  0  0  0  0  0  0  0
  130.5554  136.3807  161.2285 C   0  0  2  0  0  0  0  0  0  0  0  0
  131.2291  135.7460  161.8043 H   0  0  0  0  0  0  0  0  0  0  0  0
  129.1302  136.0841  161.6184 C   0  0  0  0  0  0  0  0  0  0  0  0
  128.8398  135.6492  162.8979 C   0  0  0  0  0  0  0  0  0  0  0  0
  127.5322  135.3808  163.2567 C   0  0  0  0  0  0  0  0  0  0  0  0
  126.5157  135.5393  162.3333 C   0  0  0  0  0  0  0  0  0  0  0  0
  126.8065  135.9696  161.0523 C   0  0  0  0  0  0  0  0  0  0  0  0
  128.1139  136.2416  160.6947 C   0  0  0  0  0  0  0  0  0  0  0  0
  130.8630  137.8283  161.5128 C   0  0  0  0  0  0  0  0  0  0  0  0
  129.9072  138.6395  162.0432 C   0  0  0  0  0  0  0  0  0  0  0  0
  130.1730  139.9804  162.3123 C   0  0  0  0  0  0  0  0  0  0  0  0
  131.3963  140.5184  162.0522 C   0  0  0  0  0  0  0  0  0  0  0  0
  132.4081  139.7120  161.5045 C   0  0  0  0  0  0  0  0  0  0  0  0
  133.6835  140.2315  161.2236 C   0  0  0  0  0  0  0  0  0  0  0  0
  134.6392  139.4202  160.6941 C   0  0  0  0  0  0  0  0  0  0  0  0
  134.3732  138.0787  160.4246 C   0  0  0  0  0  0  0  0  0  0  0  0
  133.1502  137.5411  160.6839 C   0  0  0  0  0  0  0  0  0  0  0  0
  132.1377  138.3477  161.2311 C   0  0  0  0  0  0  0  0  0  0  0  0
  130.6316  134.4863  158.0428 N   0  0  0  0  0  0  0  0  0  0  0  0
  130.8963  135.0699  157.3145 H   0  0  0  0  0  0  0  0  0  0  0  0
  130.6495  131.0142  156.7131 C   0  0  0  0  0  0  0  0  0  0  0  0
  130.6638  130.2774  155.5501 C   0  0  0  0  0  0  0  0  0  0  0  0
  129.6207  130.4691  152.0916 C   0  0  0  0  0  0  0  0  0  0  0  0
  129.5732  129.7355  150.7852 C   0  0  0  0  0  0  0  0  0  0  0  0
  129.8627  127.6137  150.1763 H   0  0  0  0  0  0  0  0  0  0  0  0
  131.2542  126.9694  151.9270 H   0  0  0  0  0  0  0  0  0  0  0  0
  132.3397  129.2703  152.7884 H   0  0  0  0  0  0  0  0  0  0  0  0
  131.3143  128.3909  153.9416 H   0  0  0  0  0  0  0  0  0  0  0  0
  129.8868  132.7410  153.3435 H   0  0  0  0  0  0  0  0  0  0  0  0
  129.8519  134.0513  155.4213 H   0  0  0  0  0  0  0  0  0  0  0  0
  129.7128  131.6951  159.4092 H   0  0  0  0  0  0  0  0  0  0  0  0
  131.0148  136.8283  159.2045 H   0  0  0  0  0  0  0  0  0  0  0  0
  129.6345  135.5218  163.6183 H   0  0  0  0  0  0  0  0  0  0  0  0
  127.3049  135.0443  164.2575 H   0  0  0  0  0  0  0  0  0  0  0  0
  125.4945  135.3263  162.6125 H   0  0  0  0  0  0  0  0  0  0  0  0
  126.0125  136.0930  160.3306 H   0  0  0  0  0  0  0  0  0  0  0  0
  128.3412  136.5775  159.6937 H   0  0  0  0  0  0  0  0  0  0  0  0
  128.9283  138.2375  162.2591 H   0  0  0  0  0  0  0  0  0  0  0  0
  129.3970  140.6024  162.7334 H   0  0  0  0  0  0  0  0  0  0  0  0
  131.5864  141.5607  162.2616 H   0  0  0  0  0  0  0  0  0  0  0  0
  133.9037  141.2691  161.4266 H   0  0  0  0  0  0  0  0  0  0  0  0
  135.6184  139.8218  160.4793 H   0  0  0  0  0  0  0  0  0  0  0  0
  135.1495  137.4567  160.0041 H   0  0  0  0  0  0  0  0  0  0  0  0
  132.9588  136.4998  160.4706 H   0  0  0  0  0  0  0  0  0  0  0  0
  130.8651  130.5365  157.6575 H   0  0  0  0  0  0  0  0  0  0  0  0
  130.8906  129.2220  155.5821 H   0  0  0  0  0  0  0  0  0  0  0  0
  128.9835  131.3307  152.2258 H   0  0  0  0  0  0  0  0  0  0  0  0
  130.1589  130.2801  150.0445 H   0  0  0  0  0  0  0  0  0  0  0  0
  128.5381  129.6770  150.4489 H   0  0  0  0  0  0  0  0  0  0  0  0
  1 38  1  0
  1  2  2  0
  1 39  1  0
  2  3  1  0
  2 40  1  0
  3  4  1  0
  3 41  1  0
  3 42  1  0
  4  5  1  0
  4 37  2  0
  5 36  1  0
  5  6  2  0
  6  7  1  0
  6 43  1  0
  7  8  2  0
  7 44  1  0
  8  9  1  0
  8 35  1  0
  9 33  1  0
  9 10  2  0
 10 11  1  0
 10 45  1  0
 11 12  1  0
 11 13  1  0
 13 14  1  0
 13 33  2  0
 14 15  1  0
 14 46  1  0
 15 16  1  1
 15 17  1  0
 15 23  1  0
 17 22  1  0
 17 18  2  0
 18 19  1  0
 18 47  1  0
 19 20  2  0
 19 48  1  0
 20 21  1  0
 20 49  1  0
 21 22  2  0
 21 50  1  0
 22 51  1  0
 23 32  1  0
 23 24  2  0
 24 25  1  0
 24 52  1  0
 25 26  2  0
 25 53  1  0
 26 27  1  0
 26 54  1  0
 27 32  2  0
 27 28  1  0
 28 29  2  0
 28 55  1  0
 29 30  1  0
 29 56  1  0
 30 31  2  0
 30 57  1  0
 31 32  1  0
 31 58  1  0
 33 34  1  0
 35 36  2  0
 35 59  1  0
 36 60  1  0
 37 38  1  0
 37 61  1  0
 38 62  1  0
 38 63  1  0
M  CHG  1  33   1
M  END
>  <DOCK_score>  (1) 
-62.154633

>  <SMILES>  (1) 
C1=CCC(c2ccc(-c3c[nH]c(N[C@H](c4ccccc4)c4cccc5ccccc45)[nH+]3)cc2)=CC1

$$$$
