O=C1CC[C@H](NC(NC2CC(F)(F)C2)=[NH+]C2COc3cc(O)ccc3C2)CN1
     RDKit          3D

 53 56  0  0  1  0  0  0  0  0999 V2000
  123.7434  133.6606  161.4425 O   0  0  0  0  0  0  0  0  0  0  0  0
  124.9145  133.8122  161.1661 C   0  0  0  0  0  0  0  0  0  0  0  0
  125.7196  132.6003  160.7943 C   0  0  0  0  0  0  0  0  0  0  0  0
  127.2134  132.9139  160.9099 C   0  0  0  0  0  0  0  0  0  0  0  0
  127.4895  134.2336  160.1793 C   0  0  2  0  0  0  0  0  0  0  0  0
  127.0852  134.1834  159.1683 H   0  0  0  0  0  0  0  0  0  0  0  0
  128.9341  134.4695  160.1198 N   0  0  0  0  0  0  0  0  0  0  0  0
  129.6648  133.9957  159.0559 C   0  0  0  0  0  0  0  0  0  0  0  0
  129.0398  133.3006  158.0479 N   0  0  0  0  0  0  0  0  0  0  0  0
  129.8184  132.7958  156.9142 C   0  0  0  0  0  0  0  0  0  0  0  0
  129.1493  131.6207  156.1818 C   0  0  0  0  0  0  0  0  0  0  0  0
  130.5497  130.9953  156.0700 C   0  0  0  0  0  0  0  0  0  0  0  0
  131.2451  131.3802  154.9187 F   0  0  0  0  0  0  0  0  0  0  0  0
  130.5660  129.6120  156.2773 F   0  0  0  0  0  0  0  0  0  0  0  0
  130.9271  131.8098  157.3186 C   0  0  0  0  0  0  0  0  0  0  0  0
  130.9501  134.2055  159.0032 N   0  0  0  0  0  0  0  0  0  0  0  0
  131.3935  134.2862  158.1443 H   0  0  0  0  0  0  0  0  0  0  0  0
  131.7250  134.3198  160.2411 C   0  0  1  0  0  0  0  0  0  0  0  0
  133.1647  133.8506  159.9951 C   0  0  0  0  0  0  0  0  0  0  0  0
  133.8651  133.8751  161.2396 O   0  0  0  0  0  0  0  0  0  0  0  0
  133.7808  135.0019  161.9937 C   0  0  0  0  0  0  0  0  0  0  0  0
  134.7177  135.1953  163.0029 C   0  0  0  0  0  0  0  0  0  0  0  0
  134.6625  136.3289  163.7959 C   0  0  0  0  0  0  0  0  0  0  0  0
  135.5787  136.5156  164.7821 O   0  0  0  0  0  0  0  0  0  0  0  0
  133.6689  137.2740  163.5815 C   0  0  0  0  0  0  0  0  0  0  0  0
  132.7409  137.0817  162.5784 C   0  0  0  0  0  0  0  0  0  0  0  0
  132.7938  135.9491  161.7821 C   0  0  0  0  0  0  0  0  0  0  0  0
  131.7664  135.7822  160.6910 C   0  0  0  0  0  0  0  0  0  0  0  0
  126.8118  135.3693  160.9470 C   0  0  0  0  0  0  0  0  0  0  0  0
  125.4151  135.0457  161.2092 N   0  0  0  0  0  0  0  0  0  0  0  0
  125.4883  132.3126  159.7686 H   0  0  0  0  0  0  0  0  0  0  0  0
  125.4690  131.7791  161.4659 H   0  0  0  0  0  0  0  0  0  0  0  0
  127.4876  133.0117  161.9603 H   0  0  0  0  0  0  0  0  0  0  0  0
  127.7932  132.1123  160.4523 H   0  0  0  0  0  0  0  0  0  0  0  0
  129.3751  134.9602  160.8310 H   0  0  0  0  0  0  0  0  0  0  0  0
  128.0832  133.1443  158.0872 H   0  0  0  0  0  0  0  0  0  0  0  0
  130.1605  133.5886  156.2491 H   0  0  0  0  0  0  0  0  0  0  0  0
  128.4646  131.0489  156.8081 H   0  0  0  0  0  0  0  0  0  0  0  0
  128.7159  131.8954  155.2202 H   0  0  0  0  0  0  0  0  0  0  0  0
  131.9289  132.2373  157.2749 H   0  0  0  0  0  0  0  0  0  0  0  0
  130.7291  131.2908  158.2564 H   0  0  0  0  0  0  0  0  0  0  0  0
  131.2674  133.7082  161.0188 H   0  0  0  0  0  0  0  0  0  0  0  0
  133.1574  132.8357  159.5978 H   0  0  0  0  0  0  0  0  0  0  0  0
  133.6525  134.5192  159.2855 H   0  0  0  0  0  0  0  0  0  0  0  0
  135.4901  134.4590  163.1689 H   0  0  0  0  0  0  0  0  0  0  0  0
  135.4581  137.3354  165.2808 H   0  0  0  0  0  0  0  0  0  0  0  0
  133.6218  138.1586  164.1992 H   0  0  0  0  0  0  0  0  0  0  0  0
  131.9685  137.8184  162.4132 H   0  0  0  0  0  0  0  0  0  0  0  0
  132.0306  136.4149  159.8438 H   0  0  0  0  0  0  0  0  0  0  0  0
  130.7862  136.0734  161.0685 H   0  0  0  0  0  0  0  0  0  0  0  0
  127.3297  135.5236  161.8936 H   0  0  0  0  0  0  0  0  0  0  0  0
  126.8617  136.2838  160.3559 H   0  0  0  0  0  0  0  0  0  0  0  0
  124.8131  135.7740  161.4284 H   0  0  0  0  0  0  0  0  0  0  0  0
  1  2  2  0
  2 30  1  0
  2  3  1  0
  3  4  1  0
  3 31  1  0
  3 32  1  0
  4  5  1  0
  4 33  1  0
  4 34  1  0
  5  6  1  6
  5  7  1  0
  5 29  1  0
  7 35  1  0
  8  7  1  0
  8  9  1  0
  8 16  2  0
  9 10  1  0
  9 36  1  0
 10 15  1  0
 10 11  1  0
 10 37  1  0
 11 12  1  0
 11 38  1  0
 11 39  1  0
 12 13  1  0
 12 14  1  0
 12 15  1  0
 15 40  1  0
 15 41  1  0
 16 17  1  0
 16 18  1  0
 18 28  1  0
 18 19  1  0
 18 42  1  1
 19 20  1  0
 19 43  1  0
 19 44  1  0
 20 21  1  0
 21 27  2  0
 21 22  1  0
 22 23  2  0
 22 45  1  0
 23 24  1  0
 23 25  1  0
 24 46  1  0
 25 26  2  0
 25 47  1  0
 26 27  1  0
 26 48  1  0
 27 28  1  0
 28 49  1  0
 28 50  1  0
 29 30  1  0
 29 51  1  0
 29 52  1  0
 30 53  1  0
M  CHG  1  16   1
M  END
>  <DOCK_score>  (1) 
-45.795391

>  <SMILES>  (1) 
O=C1CC[C@H](NC(NC2CC(F)(F)C2)=[NH+]C2COc3cc(O)ccc3C2)CN1

$$$$
