CCc1ccc(-c2c[nH]c(N[C@@H](C=CC(=O)c3cccc(C)c3)c3ccc(C)cc3)[nH+]2)cc1
     RDKit          3D

 63 66  0  0  1  0  0  0  0  0999 V2000
  132.1066  129.7769  152.5775 C   0  0  0  0  0  0  0  0  0  0  0  0
  130.6902  129.8208  153.1545 C   0  0  0  0  0  0  0  0  0  0  0  0
  130.6935  130.6171  154.4340 C   0  0  0  0  0  0  0  0  0  0  0  0
  130.4727  131.9821  154.3967 C   0  0  0  0  0  0  0  0  0  0  0  0
  130.4698  132.7154  155.5657 C   0  0  0  0  0  0  0  0  0  0  0  0
  130.7006  132.0798  156.7845 C   0  0  0  0  0  0  0  0  0  0  0  0
  130.7038  132.8635  158.0439 C   0  0  0  0  0  0  0  0  0  0  0  0
  130.3535  132.4038  159.2707 C   0  0  0  0  0  0  0  0  0  0  0  0
  130.5020  133.4518  160.1464 N   0  0  0  0  0  0  0  0  0  0  0  0
  130.3274  133.4325  161.1003 H   0  0  0  0  0  0  0  0  0  0  0  0
  130.9391  134.5222  159.4284 C   0  0  0  0  0  0  0  0  0  0  0  0
  131.2120  135.7793  159.9401 N   0  0  0  0  0  0  0  0  0  0  0  0
  131.0342  136.0423  161.3703 C   0  0  1  0  0  0  0  0  0  0  0  0
  131.6799  135.3783  161.9449 H   0  0  0  0  0  0  0  0  0  0  0  0
  131.3961  137.4750  161.6663 C   0  0  0  0  0  0  0  0  0  0  0  0
  132.6485  137.7920  161.9909 C   0  0  0  0  0  0  0  0  0  0  0  0
  133.0014  139.1891  162.2796 C   0  0  0  0  0  0  0  0  0  0  0  0
  132.1713  139.9406  162.7545 O   0  0  0  0  0  0  0  0  0  0  0  0
  134.3656  139.6814  161.9927 C   0  0  0  0  0  0  0  0  0  0  0  0
  135.1583  140.1918  163.0232 C   0  0  0  0  0  0  0  0  0  0  0  0
  136.4321  140.6439  162.7494 C   0  0  0  0  0  0  0  0  0  0  0  0
  136.9211  140.6033  161.4554 C   0  0  0  0  0  0  0  0  0  0  0  0
  136.1391  140.1041  160.4287 C   0  0  0  0  0  0  0  0  0  0  0  0
  136.6799  140.0644  159.0227 C   0  0  0  0  0  0  0  0  0  0  0  0
  134.8653  139.6433  160.6894 C   0  0  0  0  0  0  0  0  0  0  0  0
  129.5966  135.7984  161.7511 C   0  0  0  0  0  0  0  0  0  0  0  0
  128.5919  136.0015  160.8235 C   0  0  0  0  0  0  0  0  0  0  0  0
  127.2736  135.7736  161.1715 C   0  0  0  0  0  0  0  0  0  0  0  0
  126.9593  135.3513  162.4496 C   0  0  0  0  0  0  0  0  0  0  0  0
  125.5217  135.1065  162.8301 C   0  0  0  0  0  0  0  0  0  0  0  0
  127.9635  135.1533  163.3786 C   0  0  0  0  0  0  0  0  0  0  0  0
  129.2821  135.3771  163.0295 C   0  0  0  0  0  0  0  0  0  0  0  0
  131.0632  134.1653  158.1734 N   0  0  0  0  0  0  0  0  0  0  0  0
  131.3626  134.7406  157.4520 H   0  0  0  0  0  0  0  0  0  0  0  0
  130.9278  130.7051  156.8155 C   0  0  0  0  0  0  0  0  0  0  0  0
  130.9232  129.9809  155.6407 C   0  0  0  0  0  0  0  0  0  0  0  0
  132.4472  130.7919  152.3730 H   0  0  0  0  0  0  0  0  0  0  0  0
  132.7773  129.3064  153.2964 H   0  0  0  0  0  0  0  0  0  0  0  0
  132.1042  129.2011  151.6519 H   0  0  0  0  0  0  0  0  0  0  0  0
  130.0194  130.2913  152.4355 H   0  0  0  0  0  0  0  0  0  0  0  0
  130.3495  128.8058  153.3589 H   0  0  0  0  0  0  0  0  0  0  0  0
  130.2983  132.4742  153.4512 H   0  0  0  0  0  0  0  0  0  0  0  0
  130.2927  133.7804  155.5359 H   0  0  0  0  0  0  0  0  0  0  0  0
  130.0211  131.4052  159.5129 H   0  0  0  0  0  0  0  0  0  0  0  0
  131.5207  136.4858  159.3518 H   0  0  0  0  0  0  0  0  0  0  0  0
  130.6402  138.2446  161.6152 H   0  0  0  0  0  0  0  0  0  0  0  0
  133.4044  137.0225  162.0421 H   0  0  0  0  0  0  0  0  0  0  0  0
  134.7764  140.2282  164.0326 H   0  0  0  0  0  0  0  0  0  0  0  0
  137.0479  141.0348  163.5460 H   0  0  0  0  0  0  0  0  0  0  0  0
  137.9180  140.9626  161.2460 H   0  0  0  0  0  0  0  0  0  0  0  0
  136.4349  140.9960  158.5126 H   0  0  0  0  0  0  0  0  0  0  0  0
  137.7625  139.9408  159.0532 H   0  0  0  0  0  0  0  0  0  0  0  0
  136.2336  139.2276  158.4854 H   0  0  0  0  0  0  0  0  0  0  0  0
  134.2560  139.2537  159.8873 H   0  0  0  0  0  0  0  0  0  0  0  0
  128.8372  136.3351  159.8261 H   0  0  0  0  0  0  0  0  0  0  0  0
  126.4891  135.9281  160.4456 H   0  0  0  0  0  0  0  0  0  0  0  0
  125.0886  136.0258  163.2242 H   0  0  0  0  0  0  0  0  0  0  0  0
  124.9622  134.7890  161.9503 H   0  0  0  0  0  0  0  0  0  0  0  0
  125.4750  134.3275  163.5911 H   0  0  0  0  0  0  0  0  0  0  0  0
  127.7179  134.8233  164.3773 H   0  0  0  0  0  0  0  0  0  0  0  0
  130.0667  135.2224  163.7553 H   0  0  0  0  0  0  0  0  0  0  0  0
  131.1075  130.2075  157.7570 H   0  0  0  0  0  0  0  0  0  0  0  0
  131.0995  128.9158  155.6635 H   0  0  0  0  0  0  0  0  0  0  0  0
  1  2  1  0
  1 37  1  0
  1 38  1  0
  1 39  1  0
  2  3  1  0
  2 40  1  0
  2 41  1  0
  3 36  2  0
  3  4  1  0
  4  5  2  0
  4 42  1  0
  5  6  1  0
  5 43  1  0
  6  7  1  0
  6 35  2  0
  7 33  1  0
  7  8  2  0
  8  9  1  0
  8 44  1  0
  9 10  1  0
  9 11  1  0
 11 12  1  0
 11 33  2  0
 12 13  1  0
 12 45  1  0
 13 14  1  1
 13 15  1  0
 13 26  1  0
 15 16  2  0
 15 46  1  0
 16 17  1  0
 16 47  1  0
 17 18  2  0
 17 19  1  0
 19 25  1  0
 19 20  2  0
 20 21  1  0
 20 48  1  0
 21 22  2  0
 21 49  1  0
 22 23  1  0
 22 50  1  0
 23 24  1  0
 23 25  2  0
 24 51  1  0
 24 52  1  0
 24 53  1  0
 25 54  1  0
 26 32  1  0
 26 27  2  0
 27 28  1  0
 27 55  1  0
 28 29  2  0
 28 56  1  0
 29 30  1  0
 29 31  1  0
 30 57  1  0
 30 58  1  0
 30 59  1  0
 31 32  2  0
 31 60  1  0
 32 61  1  0
 33 34  1  0
 35 36  1  0
 35 62  1  0
 36 63  1  0
M  CHG  1  33   1
M  END
>  <DOCK_score>  (1) 
-59.07016

>  <SMILES>  (1) 
CCc1ccc(-c2c[nH]c(N[C@@H](C=CC(=O)c3cccc(C)c3)c3ccc(C)cc3)[nH+]2)cc1

$$$$
