Cc1c[nH]c(Nc2ccc(Nc3ccc(Nc4ccc(C(C)(F)F)cc4)cc3)cc2)[nH+]1
     RDKit          3D

 55 58  0  0  1  0  0  0  0  0999 V2000
  130.4943  131.6644  154.3106 C   0  0  0  0  0  0  0  0  0  0  0  0
  130.1564  132.3000  155.6346 C   0  0  0  0  0  0  0  0  0  0  0  0
  129.7276  131.6528  156.7315 C   0  0  0  0  0  0  0  0  0  0  0  0
  129.5388  132.6023  157.7097 N   0  0  0  0  0  0  0  0  0  0  0  0
  129.2316  132.4438  158.6160 H   0  0  0  0  0  0  0  0  0  0  0  0
  129.8639  133.8056  157.1642 C   0  0  0  0  0  0  0  0  0  0  0  0
  129.8143  135.0292  157.8125 N   0  0  0  0  0  0  0  0  0  0  0  0
  128.8789  135.2439  158.8321 C   0  0  0  0  0  0  0  0  0  0  0  0
  129.1726  136.1170  159.8715 C   0  0  0  0  0  0  0  0  0  0  0  0
  128.2484  136.3324  160.8743 C   0  0  0  0  0  0  0  0  0  0  0  0
  127.0289  135.6678  160.8492 C   0  0  0  0  0  0  0  0  0  0  0  0
  126.0939  135.8824  161.8682 N   0  0  0  0  0  0  0  0  0  0  0  0
  126.4259  135.5888  163.1958 C   0  0  0  0  0  0  0  0  0  0  0  0
  125.8558  136.3175  164.2318 C   0  0  0  0  0  0  0  0  0  0  0  0
  126.1786  136.0238  165.5415 C   0  0  0  0  0  0  0  0  0  0  0  0
  127.0828  135.0078  165.8228 C   0  0  0  0  0  0  0  0  0  0  0  0
  127.4149  134.7140  167.1506 N   0  0  0  0  0  0  0  0  0  0  0  0
  126.8367  135.4428  168.1927 C   0  0  0  0  0  0  0  0  0  0  0  0
  127.4557  136.5935  168.6648 C   0  0  0  0  0  0  0  0  0  0  0  0
  126.8785  137.3145  169.6915 C   0  0  0  0  0  0  0  0  0  0  0  0
  125.6912  136.8863  170.2568 C   0  0  0  0  0  0  0  0  0  0  0  0
  125.0673  137.6726  171.3810 C   0  0  0  0  0  0  0  0  0  0  0  0
  125.5954  137.1544  172.7203 C   0  0  0  0  0  0  0  0  0  0  0  0
  125.3954  139.0254  171.2422 F   0  0  0  0  0  0  0  0  0  0  0  0
  123.6768  137.5232  171.3389 F   0  0  0  0  0  0  0  0  0  0  0  0
  125.0753  135.7383  169.7933 C   0  0  0  0  0  0  0  0  0  0  0  0
  125.6442  135.0153  168.7632 C   0  0  0  0  0  0  0  0  0  0  0  0
  127.6572  134.2829  164.7866 C   0  0  0  0  0  0  0  0  0  0  0  0
  127.3299  134.5725  163.4771 C   0  0  0  0  0  0  0  0  0  0  0  0
  126.7373  134.7907  159.8123 C   0  0  0  0  0  0  0  0  0  0  0  0
  127.6594  134.5794  158.8069 C   0  0  0  0  0  0  0  0  0  0  0  0
  130.2381  133.6099  155.9218 N   0  0  0  0  0  0  0  0  0  0  0  0
  130.5261  134.3025  155.3068 H   0  0  0  0  0  0  0  0  0  0  0  0
  129.6031  131.6350  153.6837 H   0  0  0  0  0  0  0  0  0  0  0  0
  131.2687  132.2491  153.8140 H   0  0  0  0  0  0  0  0  0  0  0  0
  130.8555  130.6495  154.4764 H   0  0  0  0  0  0  0  0  0  0  0  0
  129.5629  130.5896  156.8274 H   0  0  0  0  0  0  0  0  0  0  0  0
  130.4275  135.7371  157.5600 H   0  0  0  0  0  0  0  0  0  0  0  0
  130.1225  136.6306  159.8932 H   0  0  0  0  0  0  0  0  0  0  0  0
  128.4751  137.0146  161.6801 H   0  0  0  0  0  0  0  0  0  0  0  0
  125.2159  136.2347  161.6544 H   0  0  0  0  0  0  0  0  0  0  0  0
  125.1563  137.1108  164.0128 H   0  0  0  0  0  0  0  0  0  0  0  0
  125.7317  136.5873  166.3472 H   0  0  0  0  0  0  0  0  0  0  0  0
  128.0465  134.0045  167.3471 H   0  0  0  0  0  0  0  0  0  0  0  0
  128.3852  136.9259  168.2269 H   0  0  0  0  0  0  0  0  0  0  0  0
  127.3572  138.2112  170.0565 H   0  0  0  0  0  0  0  0  0  0  0  0
  126.6787  137.2706  172.7530 H   0  0  0  0  0  0  0  0  0  0  0  0
  125.1441  137.7230  173.5333 H   0  0  0  0  0  0  0  0  0  0  0  0
  125.3397  136.1003  172.8283 H   0  0  0  0  0  0  0  0  0  0  0  0
  124.1485  135.4064  170.2374 H   0  0  0  0  0  0  0  0  0  0  0  0
  125.1628  134.1186  168.4020 H   0  0  0  0  0  0  0  0  0  0  0  0
  128.3599  133.4923  165.0054 H   0  0  0  0  0  0  0  0  0  0  0  0
  127.7768  134.0090  162.6714 H   0  0  0  0  0  0  0  0  0  0  0  0
  125.7890  134.2741  159.7926 H   0  0  0  0  0  0  0  0  0  0  0  0
  127.4329  133.8971  158.0011 H   0  0  0  0  0  0  0  0  0  0  0  0
  1  2  1  0
  1 34  1  0
  1 35  1  0
  1 36  1  0
  2 32  1  0
  2  3  2  0
  3  4  1  0
  3 37  1  0
  4  5  1  0
  4  6  1  0
  6  7  1  0
  6 32  2  0
  7  8  1  0
  7 38  1  0
  8 31  1  0
  8  9  2  0
  9 10  1  0
  9 39  1  0
 10 11  2  0
 10 40  1  0
 11 12  1  0
 11 30  1  0
 12 13  1  0
 12 41  1  0
 13 29  1  0
 13 14  2  0
 14 15  1  0
 14 42  1  0
 15 16  2  0
 15 43  1  0
 16 17  1  0
 16 28  1  0
 17 18  1  0
 17 44  1  0
 18 27  1  0
 18 19  2  0
 19 20  1  0
 19 45  1  0
 20 21  2  0
 20 46  1  0
 21 22  1  0
 21 26  1  0
 22 23  1  0
 22 24  1  0
 22 25  1  0
 23 47  1  0
 23 48  1  0
 23 49  1  0
 26 27  2  0
 26 50  1  0
 27 51  1  0
 28 29  2  0
 28 52  1  0
 29 53  1  0
 30 31  2  0
 30 54  1  0
 31 55  1  0
 32 33  1  0
M  CHG  1  32   1
M  END
>  <DOCK_score>  (1) 
-56.002438

>  <SMILES>  (1) 
Cc1c[nH]c(Nc2ccc(Nc3ccc(Nc4ccc(C(C)(F)F)cc4)cc3)cc2)[nH+]1

$$$$
