Nc1nc(NCc2cccc3c[nH+]cn23)nc(N[C@@H](Cc2ccccc2)c2ccccc2)n1
     RDKit          3D

 58 62  0  0  1  0  0  0  0  0999 V2000
  125.1485  135.7624  159.4988 N   0  0  0  0  0  0  0  0  0  0  0  0
  126.4882  135.9209  159.7895 C   0  0  0  0  0  0  0  0  0  0  0  0
  127.4091  135.3893  158.9914 N   0  0  0  0  0  0  0  0  0  0  0  0
  128.6996  135.5420  159.2715 C   0  0  0  0  0  0  0  0  0  0  0  0
  129.6555  134.9899  158.4431 N   0  0  0  0  0  0  0  0  0  0  0  0
  129.2480  134.2358  157.2551 C   0  0  0  0  0  0  0  0  0  0  0  0
  129.7686  132.8249  157.3527 C   0  0  0  0  0  0  0  0  0  0  0  0
  129.6487  132.1476  158.5105 C   0  0  0  0  0  0  0  0  0  0  0  0
  130.1285  130.8285  158.6227 C   0  0  0  0  0  0  0  0  0  0  0  0
  130.7178  130.2317  157.5537 C   0  0  0  0  0  0  0  0  0  0  0  0
  130.8382  130.9489  156.3460 C   0  0  0  0  0  0  0  0  0  0  0  0
  131.3621  130.6469  155.1057 C   0  0  0  0  0  0  0  0  0  0  0  0
  131.2047  131.7222  154.3320 N   0  0  0  0  0  0  0  0  0  0  0  0
  131.4862  131.7887  153.4061 H   0  0  0  0  0  0  0  0  0  0  0  0
  130.6083  132.6723  155.0067 C   0  0  0  0  0  0  0  0  0  0  0  0
  130.3597  132.2418  156.2623 N   0  0  0  0  0  0  0  0  0  0  0  0
  129.0692  136.2219  160.3526 N   0  0  0  0  0  0  0  0  0  0  0  0
  128.1487  136.7571  161.1481 C   0  0  0  0  0  0  0  0  0  0  0  0
  128.5325  137.4666  162.2679 N   0  0  0  0  0  0  0  0  0  0  0  0
  129.9547  137.6296  162.5799 C   0  0  1  0  0  0  0  0  0  0  0  0
  130.5102  137.8090  161.6595 H   0  0  0  0  0  0  0  0  0  0  0  0
  130.1364  138.8189  163.5251 C   0  0  0  0  0  0  0  0  0  0  0  0
  131.5643  139.2963  163.4632 C   0  0  0  0  0  0  0  0  0  0  0  0
  132.5071  138.7697  164.3263 C   0  0  0  0  0  0  0  0  0  0  0  0
  133.8181  139.2041  164.2663 C   0  0  0  0  0  0  0  0  0  0  0  0
  134.1840  140.1726  163.3504 C   0  0  0  0  0  0  0  0  0  0  0  0
  133.2402  140.7030  162.4908 C   0  0  0  0  0  0  0  0  0  0  0  0
  131.9303  140.2648  162.5474 C   0  0  0  0  0  0  0  0  0  0  0  0
  130.4704  136.3782  163.2422 C   0  0  0  0  0  0  0  0  0  0  0  0
  131.7908  136.0033  163.0785 C   0  0  0  0  0  0  0  0  0  0  0  0
  132.2650  134.8575  163.6896 C   0  0  0  0  0  0  0  0  0  0  0  0
  131.4165  134.0819  164.4570 C   0  0  0  0  0  0  0  0  0  0  0  0
  130.0946  134.4539  164.6165 C   0  0  0  0  0  0  0  0  0  0  0  0
  129.6216  135.6019  164.0089 C   0  0  0  0  0  0  0  0  0  0  0  0
  126.8580  136.6046  160.8679 N   0  0  0  0  0  0  0  0  0  0  0  0
  124.8787  135.2633  158.7121 H   0  0  0  0  0  0  0  0  0  0  0  0
  124.4765  136.1501  160.0811 H   0  0  0  0  0  0  0  0  0  0  0  0
  130.5971  135.1013  158.6476 H   0  0  0  0  0  0  0  0  0  0  0  0
  129.6563  134.7130  156.3642 H   0  0  0  0  0  0  0  0  0  0  0  0
  128.1600  134.2181  157.1916 H   0  0  0  0  0  0  0  0  0  0  0  0
  129.1804  132.6207  159.3610 H   0  0  0  0  0  0  0  0  0  0  0  0
  130.0286  130.2930  159.5552 H   0  0  0  0  0  0  0  0  0  0  0  0
  131.0894  129.2204  157.6282 H   0  0  0  0  0  0  0  0  0  0  0  0
  131.8186  129.7121  154.8153 H   0  0  0  0  0  0  0  0  0  0  0  0
  130.3548  133.6482  154.6197 H   0  0  0  0  0  0  0  0  0  0  0  0
  127.8607  137.8571  162.8484 H   0  0  0  0  0  0  0  0  0  0  0  0
  129.4696  139.6272  163.2243 H   0  0  0  0  0  0  0  0  0  0  0  0
  129.8994  138.5127  164.5440 H   0  0  0  0  0  0  0  0  0  0  0  0
  132.2202  138.0162  165.0449 H   0  0  0  0  0  0  0  0  0  0  0  0
  134.5555  138.7901  164.9380 H   0  0  0  0  0  0  0  0  0  0  0  0
  135.2072  140.5152  163.3065 H   0  0  0  0  0  0  0  0  0  0  0  0
  133.5260  141.4599  161.7755 H   0  0  0  0  0  0  0  0  0  0  0  0
  131.1928  140.6794  161.8761 H   0  0  0  0  0  0  0  0  0  0  0  0
  132.4529  136.6074  162.4758 H   0  0  0  0  0  0  0  0  0  0  0  0
  133.2977  134.5672  163.5652 H   0  0  0  0  0  0  0  0  0  0  0  0
  131.7862  133.1853  164.9323 H   0  0  0  0  0  0  0  0  0  0  0  0
  129.4317  133.8478  165.2161 H   0  0  0  0  0  0  0  0  0  0  0  0
  128.5889  135.8924  164.1336 H   0  0  0  0  0  0  0  0  0  0  0  0
  1  2  1  0
  1 36  1  0
  1 37  1  0
  2 35  2  0
  2  3  1  0
  3  4  2  0
  4  5  1  0
  4 17  1  0
  5  6  1  0
  5 38  1  0
  6  7  1  0
  6 39  1  0
  6 40  1  0
  7 16  1  0
  7  8  2  0
  8  9  1  0
  8 41  1  0
  9 10  2  0
  9 42  1  0
 10 11  1  0
 10 43  1  0
 11 16  1  0
 11 12  2  0
 12 13  1  0
 12 44  1  0
 13 14  1  0
 13 15  2  0
 15 16  1  0
 15 45  1  0
 17 18  2  0
 18 19  1  0
 18 35  1  0
 19 20  1  0
 19 46  1  0
 20 21  1  6
 20 22  1  0
 20 29  1  0
 22 23  1  0
 22 47  1  0
 22 48  1  0
 23 28  1  0
 23 24  2  0
 24 25  1  0
 24 49  1  0
 25 26  2  0
 25 50  1  0
 26 27  1  0
 26 51  1  0
 27 28  2  0
 27 52  1  0
 28 53  1  0
 29 34  1  0
 29 30  2  0
 30 31  1  0
 30 54  1  0
 31 32  2  0
 31 55  1  0
 32 33  1  0
 32 56  1  0
 33 34  2  0
 33 57  1  0
 34 58  1  0
M  CHG  1  13   1
M  END
>  <DOCK_score>  (1) 
-46.626823

>  <SMILES>  (1) 
Nc1nc(NCc2cccc3c[nH+]cn23)nc(N[C@@H](Cc2ccccc2)c2ccccc2)n1

$$$$
