O=C1CCC(NC(N[C@@H]2C=CCC2)=[NH+][C@@H]2C=C[C@@H](O)[C@H]2O)CN1
     RDKit          3D

 48 50  0  0  1  0  0  0  0  0999 V2000
  132.8714  137.8232  161.0771 O   0  0  0  0  0  0  0  0  0  0  0  0
  132.0056  136.9928  161.2557 C   0  0  0  0  0  0  0  0  0  0  0  0
  131.7433  136.5302  162.6602 C   0  0  0  0  0  0  0  0  0  0  0  0
  130.3759  135.8468  162.7366 C   0  0  0  0  0  0  0  0  0  0  0  0
  130.2797  134.8255  161.5968 C   0  0  1  0  0  0  0  0  0  0  0  0
  129.0555  134.0349  161.7472 N   0  0  0  0  0  0  0  0  0  0  0  0
  128.7562  133.0510  160.8349 C   0  0  0  0  0  0  0  0  0  0  0  0
  129.6057  132.8090  159.7813 N   0  0  0  0  0  0  0  0  0  0  0  0
  129.0739  132.3063  158.5122 C   0  0  2  0  0  0  0  0  0  0  0  0
  127.9930  132.1815  158.5771 H   0  0  0  0  0  0  0  0  0  0  0  0
  129.7339  130.9971  158.1465 C   0  0  0  0  0  0  0  0  0  0  0  0
  130.0744  130.9783  156.8866 C   0  0  0  0  0  0  0  0  0  0  0  0
  129.6983  132.2718  156.2020 C   0  0  0  0  0  0  0  0  0  0  0  0
  129.4393  133.2669  157.3569 C   0  0  0  0  0  0  0  0  0  0  0  0
  127.6670  132.3477  160.9687 N   0  0  0  0  0  0  0  0  0  0  0  0
  127.4558  131.6535  160.3251 H   0  0  0  0  0  0  0  0  0  0  0  0
  126.7618  132.6055  162.0915 C   0  0  2  0  0  0  0  0  0  0  0  0
  127.2796  132.4528  163.0384 H   0  0  0  0  0  0  0  0  0  0  0  0
  125.5477  131.7101  162.0051 C   0  0  0  0  0  0  0  0  0  0  0  0
  124.5119  132.3650  161.5555 C   0  0  0  0  0  0  0  0  0  0  0  0
  124.8628  133.8062  161.2670 C   0  0  1  0  0  0  0  0  0  0  0  0
  124.9920  133.9583  160.1954 H   0  0  0  0  0  0  0  0  0  0  0  0
  123.8487  134.6763  161.7736 O   0  0  0  0  0  0  0  0  0  0  0  0
  126.1969  134.0426  162.0120 C   0  0  1  0  0  0  0  0  0  0  0  0
  126.8570  134.6913  161.4362 H   0  0  0  0  0  0  0  0  0  0  0  0
  125.9678  134.5767  163.3176 O   0  0  0  0  0  0  0  0  0  0  0  0
  130.2440  135.5785  160.2664 C   0  0  0  0  0  0  0  0  0  0  0  0
  131.3377  136.5392  160.1943 N   0  0  0  0  0  0  0  0  0  0  0  0
  132.5180  135.8243  162.9594 H   0  0  0  0  0  0  0  0  0  0  0  0
  131.7560  137.3882  163.3323 H   0  0  0  0  0  0  0  0  0  0  0  0
  129.5873  136.5917  162.6294 H   0  0  0  0  0  0  0  0  0  0  0  0
  130.2729  135.3380  163.6949 H   0  0  0  0  0  0  0  0  0  0  0  0
  131.1466  134.1651  161.6202 H   0  0  0  0  0  0  0  0  0  0  0  0
  128.4562  134.2057  162.4906 H   0  0  0  0  0  0  0  0  0  0  0  0
  130.5571  132.9710  159.8783 H   0  0  0  0  0  0  0  0  0  0  0  0
  129.9022  130.1840  158.8370 H   0  0  0  0  0  0  0  0  0  0  0  0
  130.5609  130.1473  156.3976 H   0  0  0  0  0  0  0  0  0  0  0  0
  130.5185  132.6223  155.5755 H   0  0  0  0  0  0  0  0  0  0  0  0
  128.7951  132.1376  155.6067 H   0  0  0  0  0  0  0  0  0  0  0  0
  128.6072  133.9308  157.1221 H   0  0  0  0  0  0  0  0  0  0  0  0
  130.3382  133.8369  157.5913 H   0  0  0  0  0  0  0  0  0  0  0  0
  125.5380  130.6658  162.2797 H   0  0  0  0  0  0  0  0  0  0  0  0
  123.5327  131.9335  161.4092 H   0  0  0  0  0  0  0  0  0  0  0  0
  124.0321  135.6158  161.6365 H   0  0  0  0  0  0  0  0  0  0  0  0
  126.7745  134.7206  163.8308 H   0  0  0  0  0  0  0  0  0  0  0  0
  130.3358  134.8660  159.4465 H   0  0  0  0  0  0  0  0  0  0  0  0
  129.2959  136.1090  160.1780 H   0  0  0  0  0  0  0  0  0  0  0  0
  131.5957  136.8696  159.3196 H   0  0  0  0  0  0  0  0  0  0  0  0
  1  2  2  0
  2 28  1  0
  2  3  1  0
  3  4  1  0
  3 29  1  0
  3 30  1  0
  4  5  1  0
  4 31  1  0
  4 32  1  0
  5  6  1  0
  5 27  1  0
  5 33  1  6
  6 34  1  0
  7  6  1  0
  7  8  1  0
  7 15  2  0
  8  9  1  0
  8 35  1  0
  9 10  1  1
  9 14  1  0
  9 11  1  0
 11 12  2  0
 11 36  1  0
 12 13  1  0
 12 37  1  0
 13 14  1  0
 13 38  1  0
 13 39  1  0
 14 40  1  0
 14 41  1  0
 15 16  1  0
 15 17  1  0
 17 18  1  1
 17 24  1  0
 17 19  1  0
 19 20  2  0
 19 42  1  0
 20 21  1  0
 20 43  1  0
 21 22  1  6
 21 23  1  0
 21 24  1  0
 23 44  1  0
 24 25  1  6
 24 26  1  0
 26 45  1  0
 27 28  1  0
 27 46  1  0
 27 47  1  0
 28 48  1  0
M  CHG  1  15   1
M  END
>  <DOCK_score>  (1) 
-41.426918

>  <SMILES>  (1) 
O=C1CCC(NC(N[C@@H]2C=CCC2)=[NH+][C@@H]2C=C[C@@H](O)[C@H]2O)CN1

$$$$
