c1ccc2[nH]c(CNc3n[nH]cc3C[NH2+]Cc3ccc4cnccc4c3)cc2c1
     RDKit          3D

 52 56  0  0  0  0  0  0  0  0999 V2000
  131.6733  130.2140  157.0019 C   0  0  0  0  0  0  0  0  0  0  0  0
  131.3856  129.9653  158.3371 C   0  0  0  0  0  0  0  0  0  0  0  0
  130.6921  130.8873  159.0899 C   0  0  0  0  0  0  0  0  0  0  0  0
  130.2747  132.0803  158.5085 C   0  0  0  0  0  0  0  0  0  0  0  0
  129.5821  133.1730  158.9798 N   0  0  0  0  0  0  0  0  0  0  0  0
  129.2514  133.2747  159.8859 H   0  0  0  0  0  0  0  0  0  0  0  0
  129.4299  134.0941  157.9794 C   0  0  0  0  0  0  0  0  0  0  0  0
  128.7233  135.4175  158.1221 C   0  0  0  0  0  0  0  0  0  0  0  0
  129.1477  136.0663  159.3651 N   0  0  0  0  0  0  0  0  0  0  0  0
  128.2039  136.3723  160.3526 C   0  0  0  0  0  0  0  0  0  0  0  0
  126.9155  136.1316  160.2885 N   0  0  0  0  0  0  0  0  0  0  0  0
  126.3265  136.5877  161.4747 N   0  0  0  0  0  0  0  0  0  0  0  0
  125.3840  136.5375  161.6989 H   0  0  0  0  0  0  0  0  0  0  0  0
  127.3002  137.1033  162.2540 C   0  0  0  0  0  0  0  0  0  0  0  0
  128.4704  136.9899  161.5853 C   0  0  0  0  0  0  0  0  0  0  0  0
  129.8213  137.4404  162.0784 C   0  0  0  0  0  0  0  0  0  0  0  0
  130.4633  136.3448  162.8169 N   0  0  0  0  0  0  0  0  0  0  0  0
  129.8871  136.0865  163.6038 H   0  0  0  0  0  0  0  0  0  0  0  0
  130.5762  135.5489  162.2071 H   0  0  0  0  0  0  0  0  0  0  0  0
  131.7802  136.7839  163.2974 C   0  0  0  0  0  0  0  0  0  0  0  0
  132.6409  137.1696  162.1219 C   0  0  0  0  0  0  0  0  0  0  0  0
  132.6829  136.3417  161.0015 C   0  0  0  0  0  0  0  0  0  0  0  0
  133.4448  136.6615  159.9191 C   0  0  0  0  0  0  0  0  0  0  0  0
  134.2099  137.8383  159.9354 C   0  0  0  0  0  0  0  0  0  0  0  0
  135.0186  138.2172  158.8517 C   0  0  0  0  0  0  0  0  0  0  0  0
  135.7167  139.3268  158.9133 N   0  0  0  0  0  0  0  0  0  0  0  0
  135.6988  140.1285  159.9694 C   0  0  0  0  0  0  0  0  0  0  0  0
  134.9472  139.8509  161.0704 C   0  0  0  0  0  0  0  0  0  0  0  0
  134.1707  138.6776  161.0791 C   0  0  0  0  0  0  0  0  0  0  0  0
  133.3700  138.3190  162.1730 C   0  0  0  0  0  0  0  0  0  0  0  0
  129.9982  133.6417  156.8505 C   0  0  0  0  0  0  0  0  0  0  0  0
  130.5687  132.3274  157.1553 C   0  0  0  0  0  0  0  0  0  0  0  0
  131.2734  131.3792  156.4111 C   0  0  0  0  0  0  0  0  0  0  0  0
  132.2180  129.4806  156.4258 H   0  0  0  0  0  0  0  0  0  0  0  0
  131.7091  129.0399  158.7903 H   0  0  0  0  0  0  0  0  0  0  0  0
  130.4728  130.6845  160.1277 H   0  0  0  0  0  0  0  0  0  0  0  0
  127.6459  135.2533  158.1476 H   0  0  0  0  0  0  0  0  0  0  0  0
  128.9735  136.0562  157.2750 H   0  0  0  0  0  0  0  0  0  0  0  0
  130.0828  136.2838  159.5040 H   0  0  0  0  0  0  0  0  0  0  0  0
  127.1681  137.5329  163.2360 H   0  0  0  0  0  0  0  0  0  0  0  0
  130.4438  137.7194  161.2282 H   0  0  0  0  0  0  0  0  0  0  0  0
  129.6995  138.3002  162.7372 H   0  0  0  0  0  0  0  0  0  0  0  0
  131.6585  137.6437  163.9561 H   0  0  0  0  0  0  0  0  0  0  0  0
  132.2567  135.9710  163.8453 H   0  0  0  0  0  0  0  0  0  0  0  0
  132.0980  135.4338  160.9897 H   0  0  0  0  0  0  0  0  0  0  0  0
  133.4634  136.0124  159.0561 H   0  0  0  0  0  0  0  0  0  0  0  0
  135.0657  137.5968  157.9689 H   0  0  0  0  0  0  0  0  0  0  0  0
  136.2972  141.0275  159.9559 H   0  0  0  0  0  0  0  0  0  0  0  0
  134.9471  140.5177  161.9199 H   0  0  0  0  0  0  0  0  0  0  0  0
  133.3319  138.9490  163.0493 H   0  0  0  0  0  0  0  0  0  0  0  0
  130.0303  134.1510  155.8987 H   0  0  0  0  0  0  0  0  0  0  0  0
  131.5011  131.5658  155.3720 H   0  0  0  0  0  0  0  0  0  0  0  0
  1 33  2  0
  1  2  1  0
  1 34  1  0
  2  3  2  0
  2 35  1  0
  3  4  1  0
  3 36  1  0
  4 32  2  0
  4  5  1  0
  5  6  1  0
  5  7  1  0
  7  8  1  0
  7 31  2  0
  8  9  1  0
  8 37  1  0
  8 38  1  0
  9 10  1  0
  9 39  1  0
 10 15  1  0
 10 11  2  0
 11 12  1  0
 12 13  1  0
 12 14  1  0
 14 15  2  0
 14 40  1  0
 15 16  1  0
 16 17  1  0
 16 41  1  0
 16 42  1  0
 17 18  1  0
 17 19  1  0
 17 20  1  0
 20 21  1  0
 20 43  1  0
 20 44  1  0
 21 30  1  0
 21 22  2  0
 22 23  1  0
 22 45  1  0
 23 24  2  0
 23 46  1  0
 24 29  1  0
 24 25  1  0
 25 26  2  0
 25 47  1  0
 26 27  1  0
 27 28  2  0
 27 48  1  0
 28 29  1  0
 28 49  1  0
 29 30  2  0
 30 50  1  0
 31 32  1  0
 31 51  1  0
 32 33  1  0
 33 52  1  0
M  CHG  1  17   1
M  END
>  <DOCK_score>  (1) 
-48.949184

>  <SMILES>  (1) 
c1ccc2[nH]c(CNc3n[nH]cc3C[NH2+]Cc3ccc4cnccc4c3)cc2c1

$$$$
