O=C1CC[C@H](NC(NC2CC=CCC2)=[NH+][C@H]2C[C@@H](Br)C2)CN1
     RDKit          3D

 48 50  0  0  1  0  0  0  0  0999 V2000
  123.8665  133.6620  161.8361 O   0  0  0  0  0  0  0  0  0  0  0  0
  125.0144  133.9654  161.5888 C   0  0  0  0  0  0  0  0  0  0  0  0
  125.9532  132.8847  161.1351 C   0  0  0  0  0  0  0  0  0  0  0  0
  127.4019  133.3520  161.2957 C   0  0  0  0  0  0  0  0  0  0  0  0
  127.5331  134.7475  160.6738 C   0  0  2  0  0  0  0  0  0  0  0  0
  127.1444  134.7347  159.6555 H   0  0  0  0  0  0  0  0  0  0  0  0
  128.9422  135.1477  160.6571 N   0  0  0  0  0  0  0  0  0  0  0  0
  129.7304  134.8437  159.5724 C   0  0  0  0  0  0  0  0  0  0  0  0
  129.1960  134.1642  158.5033 N   0  0  0  0  0  0  0  0  0  0  0  0
  130.0449  133.2840  157.6965 C   0  0  1  0  0  0  0  0  0  0  0  0
  130.6054  132.1632  158.5747 C   0  0  0  0  0  0  0  0  0  0  0  0
  131.2538  131.1130  157.7213 C   0  0  0  0  0  0  0  0  0  0  0  0
  131.0546  130.9881  156.4484 C   0  0  0  0  0  0  0  0  0  0  0  0
  130.1551  131.8824  155.6465 C   0  0  0  0  0  0  0  0  0  0  0  0
  129.2120  132.6507  156.5747 C   0  0  0  0  0  0  0  0  0  0  0  0
  130.9841  135.1999  159.5574 N   0  0  0  0  0  0  0  0  0  0  0  0
  131.5401  134.9854  158.7921 H   0  0  0  0  0  0  0  0  0  0  0  0
  131.5535  135.9239  160.6967 C   0  0  1  0  0  0  0  0  0  0  0  0
  131.0537  136.8737  160.8870 H   0  0  0  0  0  0  0  0  0  0  0  0
  131.7290  135.0552  161.9533 C   0  0  0  0  0  0  0  0  0  0  0  0
  133.0691  135.7776  162.1699 C   0  0  1  0  0  0  0  0  0  0  0  0
  132.9838  136.6871  162.7644 H   0  0  0  0  0  0  0  0  0  0  0  0
  134.5135  134.5950  162.7864 Br  0  0  0  0  0  0  0  0  0  0  0  0
  133.0868  136.0325  160.6534 C   0  0  0  0  0  0  0  0  0  0  0  0
  126.7287  135.7372  161.5175 C   0  0  0  0  0  0  0  0  0  0  0  0
  125.3753  135.2410  161.7338 N   0  0  0  0  0  0  0  0  0  0  0  0
  125.7928  131.9898  161.7363 H   0  0  0  0  0  0  0  0  0  0  0  0
  125.7611  132.6545  160.0871 H   0  0  0  0  0  0  0  0  0  0  0  0
  128.0701  132.6585  160.7851 H   0  0  0  0  0  0  0  0  0  0  0  0
  127.6575  133.3965  162.3543 H   0  0  0  0  0  0  0  0  0  0  0  0
  129.3192  135.6272  161.4113 H   0  0  0  0  0  0  0  0  0  0  0  0
  128.2570  134.2674  158.2833 H   0  0  0  0  0  0  0  0  0  0  0  0
  130.8636  133.8596  157.2645 H   0  0  0  0  0  0  0  0  0  0  0  0
  131.3438  132.5773  159.2614 H   0  0  0  0  0  0  0  0  0  0  0  0
  129.7945  131.7134  159.1477 H   0  0  0  0  0  0  0  0  0  0  0  0
  131.9284  130.4178  158.1989 H   0  0  0  0  0  0  0  0  0  0  0  0
  131.5673  130.1903  155.9315 H   0  0  0  0  0  0  0  0  0  0  0  0
  129.5682  131.2781  154.9547 H   0  0  0  0  0  0  0  0  0  0  0  0
  130.7607  132.5901  155.0803 H   0  0  0  0  0  0  0  0  0  0  0  0
  128.7005  133.4320  156.0125 H   0  0  0  0  0  0  0  0  0  0  0  0
  128.4810  131.9653  157.0034 H   0  0  0  0  0  0  0  0  0  0  0  0
  130.9928  135.2585  162.7310 H   0  0  0  0  0  0  0  0  0  0  0  0
  131.8359  133.9920  161.7377 H   0  0  0  0  0  0  0  0  0  0  0  0
  133.5650  135.2366  160.0824 H   0  0  0  0  0  0  0  0  0  0  0  0
  133.4469  137.0244  160.3801 H   0  0  0  0  0  0  0  0  0  0  0  0
  127.2208  135.8728  162.4806 H   0  0  0  0  0  0  0  0  0  0  0  0
  126.6825  136.6963  161.0017 H   0  0  0  0  0  0  0  0  0  0  0  0
  124.6945  135.8785  162.0001 H   0  0  0  0  0  0  0  0  0  0  0  0
  1  2  2  0
  2 26  1  0
  2  3  1  0
  3  4  1  0
  3 27  1  0
  3 28  1  0
  4  5  1  0
  4 29  1  0
  4 30  1  0
  5  6  1  6
  5  7  1  0
  5 25  1  0
  7 31  1  0
  8  7  1  0
  8  9  1  0
  8 16  2  0
  9 10  1  0
  9 32  1  0
 10 15  1  0
 10 11  1  0
 10 33  1  6
 11 12  1  0
 11 34  1  0
 11 35  1  0
 12 13  2  0
 12 36  1  0
 13 14  1  0
 13 37  1  0
 14 15  1  0
 14 38  1  0
 14 39  1  0
 15 40  1  0
 15 41  1  0
 16 17  1  0
 16 18  1  0
 18 19  1  1
 18 24  1  0
 18 20  1  0
 20 21  1  0
 20 42  1  0
 20 43  1  0
 21 22  1  1
 21 23  1  0
 21 24  1  0
 24 44  1  0
 24 45  1  0
 25 26  1  0
 25 46  1  0
 25 47  1  0
 26 48  1  0
M  CHG  1  16   1
M  END
>  <DOCK_score>  (1) 
-44.829632

>  <SMILES>  (1) 
O=C1CC[C@H](NC(NC2CC=CCC2)=[NH+][C@H]2C[C@@H](Br)C2)CN1

$$$$
