Oc1ccccc1-c1cc(Nc2[nH]cc(-c3ccccc3)[nH+]2)c(F)cc1O
     RDKit          3D

 44 47  0  0  1  0  0  0  0  0999 V2000
  127.5941  134.7521  164.2415 O   0  0  0  0  0  0  0  0  0  0  0  0
  128.5068  135.7251  164.4984 C   0  0  0  0  0  0  0  0  0  0  0  0
  128.8946  135.9879  165.8024 C   0  0  0  0  0  0  0  0  0  0  0  0
  129.8228  136.9784  166.0627 C   0  0  0  0  0  0  0  0  0  0  0  0
  130.3696  137.7127  165.0252 C   0  0  0  0  0  0  0  0  0  0  0  0
  129.9970  137.4574  163.7210 C   0  0  0  0  0  0  0  0  0  0  0  0
  129.0579  136.4653  163.4481 C   0  0  0  0  0  0  0  0  0  0  0  0
  128.6491  136.1913  162.0491 C   0  0  0  0  0  0  0  0  0  0  0  0
  129.5974  135.7924  161.1095 C   0  0  0  0  0  0  0  0  0  0  0  0
  129.2113  135.5427  159.8027 C   0  0  0  0  0  0  0  0  0  0  0  0
  130.1646  135.1459  158.8549 N   0  0  0  0  0  0  0  0  0  0  0  0
  130.0337  133.9280  158.2090 C   0  0  0  0  0  0  0  0  0  0  0  0
  129.4489  132.8138  158.7283 N   0  0  0  0  0  0  0  0  0  0  0  0
  129.0522  132.7308  159.6096 H   0  0  0  0  0  0  0  0  0  0  0  0
  129.5233  131.8292  157.7737 C   0  0  0  0  0  0  0  0  0  0  0  0
  130.1457  132.3708  156.6972 C   0  0  0  0  0  0  0  0  0  0  0  0
  130.4425  131.6771  155.4201 C   0  0  0  0  0  0  0  0  0  0  0  0
  129.9090  132.1545  154.2243 C   0  0  0  0  0  0  0  0  0  0  0  0
  130.1931  131.5083  153.0384 C   0  0  0  0  0  0  0  0  0  0  0  0
  130.9963  130.3828  153.0362 C   0  0  0  0  0  0  0  0  0  0  0  0
  131.5240  129.9004  154.2211 C   0  0  0  0  0  0  0  0  0  0  0  0
  131.2515  130.5421  155.4123 C   0  0  0  0  0  0  0  0  0  0  0  0
  130.4520  133.6579  156.9964 N   0  0  0  0  0  0  0  0  0  0  0  0
  130.9044  134.2803  156.4057 H   0  0  0  0  0  0  0  0  0  0  0  0
  127.8770  135.6797  159.4313 C   0  0  0  0  0  0  0  0  0  0  0  0
  127.5034  135.4304  158.1572 F   0  0  0  0  0  0  0  0  0  0  0  0
  126.9325  136.0709  160.3627 C   0  0  0  0  0  0  0  0  0  0  0  0
  127.3106  136.3278  161.6706 C   0  0  0  0  0  0  0  0  0  0  0  0
  126.3808  136.7127  162.5847 O   0  0  0  0  0  0  0  0  0  0  0  0
  127.3881  134.6439  163.3029 H   0  0  0  0  0  0  0  0  0  0  0  0
  128.4706  135.4184  166.6163 H   0  0  0  0  0  0  0  0  0  0  0  0
  130.1224  137.1801  167.0804 H   0  0  0  0  0  0  0  0  0  0  0  0
  131.0939  138.4855  165.2365 H   0  0  0  0  0  0  0  0  0  0  0  0
  130.4295  138.0294  162.9133 H   0  0  0  0  0  0  0  0  0  0  0  0
  130.6321  135.6817  161.3985 H   0  0  0  0  0  0  0  0  0  0  0  0
  130.9161  135.7246  158.6515 H   0  0  0  0  0  0  0  0  0  0  0  0
  129.1530  130.8186  157.8617 H   0  0  0  0  0  0  0  0  0  0  0  0
  129.2779  133.0309  154.2252 H   0  0  0  0  0  0  0  0  0  0  0  0
  129.7840  131.8802  152.1106 H   0  0  0  0  0  0  0  0  0  0  0  0
  131.2123  129.8777  152.1063 H   0  0  0  0  0  0  0  0  0  0  0  0
  132.1505  129.0210  154.2138 H   0  0  0  0  0  0  0  0  0  0  0  0
  131.6645  130.1658  156.3363 H   0  0  0  0  0  0  0  0  0  0  0  0
  125.8984  136.1766  160.0699 H   0  0  0  0  0  0  0  0  0  0  0  0
  125.4838  136.7791  162.2292 H   0  0  0  0  0  0  0  0  0  0  0  0
  1  2  1  0
  1 30  1  0
  2  7  2  0
  2  3  1  0
  3  4  2  0
  3 31  1  0
  4  5  1  0
  4 32  1  0
  5  6  2  0
  5 33  1  0
  6  7  1  0
  6 34  1  0
  7  8  1  0
  8 28  1  0
  8  9  2  0
  9 10  1  0
  9 35  1  0
 10 11  1  0
 10 25  2  0
 11 36  1  0
 12 11  1  0
 12 23  2  0
 12 13  1  0
 13 14  1  0
 13 15  1  0
 15 16  2  0
 15 37  1  0
 16 17  1  0
 16 23  1  0
 17 22  1  0
 17 18  2  0
 18 19  1  0
 18 38  1  0
 19 20  2  0
 19 39  1  0
 20 21  1  0
 20 40  1  0
 21 22  2  0
 21 41  1  0
 22 42  1  0
 23 24  1  0
 25 26  1  0
 25 27  1  0
 27 28  2  0
 27 43  1  0
 28 29  1  0
 29 44  1  0
M  CHG  1  23   1
M  END
>  <DOCK_score>  (1) 
-54.37381

>  <SMILES>  (1) 
Oc1ccccc1-c1cc(Nc2[nH]cc(-c3ccccc3)[nH+]2)c(F)cc1O

$$$$
