O=C(CC[NH+]1CC[C@@H](c2nc(NC3c4ccccc4-c4ccccc43)n[nH]2)C1)Nc1ccccc1
     RDKit          3D

 64 69  0  0  1  0  0  0  0  0999 V2000
  130.7479  129.7552  156.0031 O   0  0  0  0  0  0  0  0  0  0  0  0
  131.0036  130.9356  155.8908 C   0  0  0  0  0  0  0  0  0  0  0  0
  131.1694  131.7909  157.1204 C   0  0  0  0  0  0  0  0  0  0  0  0
  129.8156  132.3838  157.5158 C   0  0  0  0  0  0  0  0  0  0  0  0
  129.9774  133.2175  158.7144 N   0  0  2  0  0  0  0  0  0  0  0  0
  130.6154  132.7781  159.3609 H   0  0  0  0  0  0  0  0  0  0  0  0
  128.6607  133.4412  159.3643 C   0  0  0  0  0  0  0  0  0  0  0  0
  128.8925  134.7231  160.2031 C   0  0  0  0  0  0  0  0  0  0  0  0
  129.8124  135.5696  159.2937 C   0  0  1  0  0  0  0  0  0  0  0  0
  129.2257  136.2945  158.7293 H   0  0  0  0  0  0  0  0  0  0  0  0
  130.8589  136.2736  160.1185 C   0  0  0  0  0  0  0  0  0  0  0  0
  132.0413  135.8020  160.4227 N   0  0  0  0  0  0  0  0  0  0  0  0
  132.7058  136.6926  161.1654 C   0  0  0  0  0  0  0  0  0  0  0  0
  133.9964  136.5275  161.6714 N   0  0  0  0  0  0  0  0  0  0  0  0
  134.6118  137.5906  162.4698 C   0  0  0  0  0  0  0  0  0  0  0  0
  135.4324  138.4963  161.5846 C   0  0  0  0  0  0  0  0  0  0  0  0
  135.0971  139.2925  160.5099 C   0  0  0  0  0  0  0  0  0  0  0  0
  136.0716  140.0351  159.8673 C   0  0  0  0  0  0  0  0  0  0  0  0
  137.3840  139.9809  160.3016 C   0  0  0  0  0  0  0  0  0  0  0  0
  137.7304  139.1850  161.3781 C   0  0  0  0  0  0  0  0  0  0  0  0
  136.7512  138.4334  162.0306 C   0  0  0  0  0  0  0  0  0  0  0  0
  136.8376  137.5123  163.1907 C   0  0  0  0  0  0  0  0  0  0  0  0
  137.9241  137.1219  163.9760 C   0  0  0  0  0  0  0  0  0  0  0  0
  137.7389  136.2356  165.0164 C   0  0  0  0  0  0  0  0  0  0  0  0
  136.4796  135.7304  165.2860 C   0  0  0  0  0  0  0  0  0  0  0  0
  135.3984  136.1128  164.5120 C   0  0  0  0  0  0  0  0  0  0  0  0
  135.5744  136.9985  163.4698 C   0  0  0  0  0  0  0  0  0  0  0  0
  131.9436  137.7451  161.3455 N   0  0  0  0  0  0  0  0  0  0  0  0
  130.7396  137.4938  160.6677 N   0  0  0  0  0  0  0  0  0  0  0  0
  129.9713  138.0834  160.6107 H   0  0  0  0  0  0  0  0  0  0  0  0
  130.4749  134.5589  158.3392 C   0  0  0  0  0  0  0  0  0  0  0  0
  131.1392  131.4821  154.6663 N   0  0  0  0  0  0  0  0  0  0  0  0
  130.9852  130.6880  153.5246 C   0  0  0  0  0  0  0  0  0  0  0  0
  130.5031  131.2467  152.3483 C   0  0  0  0  0  0  0  0  0  0  0  0
  130.3577  130.4613  151.2216 C   0  0  0  0  0  0  0  0  0  0  0  0
  130.6803  129.1174  151.2673 C   0  0  0  0  0  0  0  0  0  0  0  0
  131.1557  128.5569  152.4386 C   0  0  0  0  0  0  0  0  0  0  0  0
  131.3089  129.3381  153.5672 C   0  0  0  0  0  0  0  0  0  0  0  0
  131.8718  132.5974  156.9099 H   0  0  0  0  0  0  0  0  0  0  0  0
  131.5517  131.1806  157.9387 H   0  0  0  0  0  0  0  0  0  0  0  0
  129.1132  131.5773  157.7263 H   0  0  0  0  0  0  0  0  0  0  0  0
  129.4334  132.9941  156.6976 H   0  0  0  0  0  0  0  0  0  0  0  0
  127.8854  133.6061  158.6160 H   0  0  0  0  0  0  0  0  0  0  0  0
  128.4022  132.6012  160.0090 H   0  0  0  0  0  0  0  0  0  0  0  0
  129.3920  134.4845  161.1421 H   0  0  0  0  0  0  0  0  0  0  0  0
  127.9503  135.2396  160.3866 H   0  0  0  0  0  0  0  0  0  0  0  0
  134.4874  135.7105  161.4912 H   0  0  0  0  0  0  0  0  0  0  0  0
  133.8423  138.1659  162.9848 H   0  0  0  0  0  0  0  0  0  0  0  0
  134.0732  139.3362  160.1693 H   0  0  0  0  0  0  0  0  0  0  0  0
  135.8074  140.6582  159.0257 H   0  0  0  0  0  0  0  0  0  0  0  0
  138.1419  140.5621  159.7975 H   0  0  0  0  0  0  0  0  0  0  0  0
  138.7558  139.1450  161.7148 H   0  0  0  0  0  0  0  0  0  0  0  0
  138.9088  137.5141  163.7691 H   0  0  0  0  0  0  0  0  0  0  0  0
  138.5804  135.9344  165.6226 H   0  0  0  0  0  0  0  0  0  0  0  0
  136.3400  135.0370  166.1021 H   0  0  0  0  0  0  0  0  0  0  0  0
  134.4161  135.7174  164.7242 H   0  0  0  0  0  0  0  0  0  0  0  0
  130.1970  134.7834  157.3094 H   0  0  0  0  0  0  0  0  0  0  0  0
  131.5585  134.5977  158.4511 H   0  0  0  0  0  0  0  0  0  0  0  0
  131.3437  132.4260  154.5765 H   0  0  0  0  0  0  0  0  0  0  0  0
  130.2461  132.2949  152.3133 H   0  0  0  0  0  0  0  0  0  0  0  0
  129.9867  130.8960  150.3051 H   0  0  0  0  0  0  0  0  0  0  0  0
  130.5612  128.5044  150.3861 H   0  0  0  0  0  0  0  0  0  0  0  0
  131.4073  127.5071  152.4710 H   0  0  0  0  0  0  0  0  0  0  0  0
  131.6795  128.8997  154.4820 H   0  0  0  0  0  0  0  0  0  0  0  0
  1  2  2  0
  2  3  1  0
  2 32  1  0
  3  4  1  0
  3 39  1  0
  3 40  1  0
  4  5  1  0
  4 41  1  0
  4 42  1  0
  5  6  1  1
  5 31  1  0
  5  7  1  0
  7  8  1  0
  7 43  1  0
  7 44  1  0
  8  9  1  0
  8 45  1  0
  8 46  1  0
  9 10  1  6
  9 11  1  0
  9 31  1  0
 11 29  1  0
 11 12  2  0
 12 13  1  0
 13 14  1  0
 13 28  2  0
 14 15  1  0
 14 47  1  0
 15 27  1  0
 15 16  1  0
 15 48  1  0
 16 21  1  0
 16 17  2  0
 17 18  1  0
 17 49  1  0
 18 19  2  0
 18 50  1  0
 19 20  1  0
 19 51  1  0
 20 21  2  0
 20 52  1  0
 21 22  1  0
 22 27  2  0
 22 23  1  0
 23 24  2  0
 23 53  1  0
 24 25  1  0
 24 54  1  0
 25 26  2  0
 25 55  1  0
 26 27  1  0
 26 56  1  0
 28 29  1  0
 29 30  1  0
 31 57  1  0
 31 58  1  0
 32 33  1  0
 32 59  1  0
 33 38  1  0
 33 34  2  0
 34 35  1  0
 34 60  1  0
 35 36  2  0
 35 61  1  0
 36 37  1  0
 36 62  1  0
 37 38  2  0
 37 63  1  0
 38 64  1  0
M  CHG  1   5   1
M  END
>  <DOCK_score>  (1) 
-56.981865

>  <SMILES>  (1) 
O=C(CC[NH+]1CC[C@@H](c2nc(NC3c4ccccc4-c4ccccc43)n[nH]2)C1)Nc1ccccc1

$$$$
