
     RDKit          2D

 35 39  0  0  0  0  0  0  0  0999 V2000
    3.0000    0.0000    0.0000 C   0  0  0  0  0  0  0  0  0  0  0  0
    1.5000    0.0000    0.0000 C   0  0  0  0  0  0  0  0  0  0  0  0
    0.7500   -1.2990    0.0000 C   0  0  0  0  0  0  0  0  0  0  0  0
   -0.7500   -1.2990    0.0000 C   0  0  0  0  0  0  0  0  0  0  0  0
   -1.5000    0.0000    0.0000 C   0  0  0  0  0  0  0  0  0  0  0  0
   -0.7500    1.2990    0.0000 C   0  0  0  0  0  0  0  0  0  0  0  0
   -1.5000    2.5981    0.0000 C   0  0  0  0  0  0  0  0  0  0  0  0
   -3.0000    2.5981    0.0000 N   0  0  0  0  0  0  0  0  0  0  0  0
   -3.7500    3.8971    0.0000 C   0  0  0  0  0  0  0  0  0  0  0  0
   -5.2418    4.0539    0.0000 N   0  0  0  0  0  0  0  0  0  0  0  0
   -5.5537    5.5211    0.0000 C   0  0  0  0  0  0  0  0  0  0  0  0
   -6.9240    6.1312    0.0000 C   0  0  0  0  0  0  0  0  0  0  0  0
   -7.0808    7.6230    0.0000 C   0  0  0  0  0  0  0  0  0  0  0  0
   -8.4511    8.2331    0.0000 C   0  0  0  0  0  0  0  0  0  0  0  0
   -9.6646    7.3514    0.0000 C   0  0  0  0  0  0  0  0  0  0  0  0
  -11.0349    7.9615    0.0000 N   0  0  0  0  0  0  0  0  0  0  0  0
   -9.5078    5.8597    0.0000 C   0  0  0  0  0  0  0  0  0  0  0  0
   -8.1375    5.2496    0.0000 C   0  0  0  0  0  0  0  0  0  0  0  0
   -4.2546    6.2711    0.0000 C   0  0  0  0  0  0  0  0  0  0  0  0
   -3.1399    5.2674    0.0000 N   0  0  0  0  0  0  0  0  0  0  0  0
   -0.7500    3.8971    0.0000 C   0  0  0  0  0  0  0  0  0  0  0  0
    0.7500    3.8971    0.0000 C   0  0  0  0  0  0  0  0  0  0  0  0
    1.5000    5.1962    0.0000 C   0  0  0  0  0  0  0  0  0  0  0  0
    0.7500    6.4952    0.0000 C   0  0  0  0  0  0  0  0  0  0  0  0
    1.5000    7.7942    0.0000 C   0  0  0  0  0  0  0  0  0  0  0  0
    2.6491    6.8300    0.0000 O   0  0  0  0  0  0  0  0  0  0  0  0
    0.0905    8.3073    0.0000 C   0  0  0  0  0  0  0  0  0  0  0  0
   -0.1700    9.7845    0.0000 C   0  0  0  0  0  0  0  0  0  0  0  0
    0.9791   10.7487    0.0000 C   0  0  0  0  0  0  0  0  0  0  0  0
    0.7186   12.2259    0.0000 O   0  0  0  0  0  0  0  0  0  0  0  0
    2.3886   10.2356    0.0000 C   0  0  0  0  0  0  0  0  0  0  0  0
    2.6491    8.7584    0.0000 C   0  0  0  0  0  0  0  0  0  0  0  0
   -0.7500    6.4952    0.0000 C   0  0  0  0  0  0  0  0  0  0  0  0
   -1.5000    5.1962    0.0000 C   0  0  0  0  0  0  0  0  0  0  0  0
    0.7500    1.2990    0.0000 C   0  0  0  0  0  0  0  0  0  0  0  0
  1  2  1  0
  2  3  2  0
  3  4  1  0
  4  5  2  0
  5  6  1  0
  6  7  1  0
  7  8  1  0
  8  9  1  0
  9 10  2  0
 10 11  1  0
 11 12  1  0
 12 13  2  0
 13 14  1  0
 14 15  2  0
 15 16  1  0
 15 17  1  0
 17 18  2  0
 11 19  2  0
 19 20  1  0
  7 21  1  0
 21 22  2  0
 22 23  1  0
 23 24  2  0
 24 25  1  0
 25 26  1  0
 25 27  1  0
 27 28  2  0
 28 29  1  0
 29 30  2  0
 29 31  1  0
 31 32  2  0
 24 33  1  0
 33 34  2  0
  6 35  2  0
 35  2  1  0
 20  9  1  0
 34 21  1  0
 18 12  1  0
 32 25  1  0
M  END
$$$$
