O=C1CC[C@H](NC(NC2CC2)=[NH+]Cc2ncccc2Cl)CN1
     RDKit          3D

 43 45  0  0  1  0  0  0  0  0999 V2000
  123.7667  133.9114  161.8520 O   0  0  0  0  0  0  0  0  0  0  0  0
  124.9477  133.9357  161.5769 C   0  0  0  0  0  0  0  0  0  0  0  0
  125.7511  132.6836  161.7820 C   0  0  0  0  0  0  0  0  0  0  0  0
  127.2440  133.0208  161.8057 C   0  0  0  0  0  0  0  0  0  0  0  0
  127.5602  133.9061  160.5943 C   0  0  2  0  0  0  0  0  0  0  0  0
  127.1914  133.4290  159.6862 H   0  0  0  0  0  0  0  0  0  0  0  0
  129.0086  134.1017  160.4931 N   0  0  0  0  0  0  0  0  0  0  0  0
  129.5923  134.2919  159.2630 C   0  0  0  0  0  0  0  0  0  0  0  0
  130.9515  134.4754  159.1681 N   0  0  0  0  0  0  0  0  0  0  0  0
  131.7780  134.4682  160.3777 C   0  0  0  0  0  0  0  0  0  0  0  0
  132.1807  133.1078  160.9506 C   0  0  0  0  0  0  0  0  0  0  0  0
  133.2215  133.9791  160.2442 C   0  0  0  0  0  0  0  0  0  0  0  0
  128.8571  134.2986  158.1868 N   0  0  0  0  0  0  0  0  0  0  0  0
  127.9368  134.6016  158.2299 H   0  0  0  0  0  0  0  0  0  0  0  0
  129.4209  133.8480  156.9118 C   0  0  0  0  0  0  0  0  0  0  0  0
  129.8678  132.4144  157.0388 C   0  0  0  0  0  0  0  0  0  0  0  0
  129.7183  131.7841  158.1874 N   0  0  0  0  0  0  0  0  0  0  0  0
  130.0899  130.5288  158.3433 C   0  0  0  0  0  0  0  0  0  0  0  0
  130.6647  129.8262  157.3008 C   0  0  0  0  0  0  0  0  0  0  0  0
  130.8435  130.4560  156.0790 C   0  0  0  0  0  0  0  0  0  0  0  0
  130.4352  131.7762  155.9507 C   0  0  0  0  0  0  0  0  0  0  0  0
  130.6336  132.6156  154.4442 Cl  0  0  0  0  0  0  0  0  0  0  0  0
  126.8719  135.2586  160.7832 C   0  0  0  0  0  0  0  0  0  0  0  0
  125.4634  135.0730  161.1089 N   0  0  0  0  0  0  0  0  0  0  0  0
  125.5501  131.9870  160.9680 H   0  0  0  0  0  0  0  0  0  0  0  0
  125.4688  132.2232  162.7288 H   0  0  0  0  0  0  0  0  0  0  0  0
  127.8286  132.1024  161.7516 H   0  0  0  0  0  0  0  0  0  0  0  0
  127.4847  133.5559  162.7243 H   0  0  0  0  0  0  0  0  0  0  0  0
  129.5557  134.0970  161.2941 H   0  0  0  0  0  0  0  0  0  0  0  0
  131.3633  134.6096  158.3002 H   0  0  0  0  0  0  0  0  0  0  0  0
  131.5831  135.2744  161.0850 H   0  0  0  0  0  0  0  0  0  0  0  0
  132.2509  133.0191  162.0347 H   0  0  0  0  0  0  0  0  0  0  0  0
  131.8309  132.2180  160.4276 H   0  0  0  0  0  0  0  0  0  0  0  0
  133.5563  133.6621  159.2565 H   0  0  0  0  0  0  0  0  0  0  0  0
  133.9763  134.4634  160.8637 H   0  0  0  0  0  0  0  0  0  0  0  0
  128.6632  133.9247  156.1320 H   0  0  0  0  0  0  0  0  0  0  0  0
  130.2751  134.4731  156.6512 H   0  0  0  0  0  0  0  0  0  0  0  0
  129.9478  130.0449  159.2984 H   0  0  0  0  0  0  0  0  0  0  0  0
  130.9711  128.7995  157.4366 H   0  0  0  0  0  0  0  0  0  0  0  0
  131.2901  129.9321  155.2470 H   0  0  0  0  0  0  0  0  0  0  0  0
  127.3604  135.8015  161.5924 H   0  0  0  0  0  0  0  0  0  0  0  0
  126.9557  135.8372  159.8633 H   0  0  0  0  0  0  0  0  0  0  0  0
  124.8636  135.8238  160.9772 H   0  0  0  0  0  0  0  0  0  0  0  0
  1  2  2  0
  2 24  1  0
  2  3  1  0
  3  4  1  0
  3 25  1  0
  3 26  1  0
  4  5  1  0
  4 27  1  0
  4 28  1  0
  5  6  1  6
  5  7  1  0
  5 23  1  0
  7 29  1  0
  8  7  1  0
  8  9  1  0
  8 13  2  0
  9 10  1  0
  9 30  1  0
 10 12  1  0
 10 11  1  0
 10 31  1  0
 11 12  1  0
 11 32  1  0
 11 33  1  0
 12 34  1  0
 12 35  1  0
 13 14  1  0
 13 15  1  0
 15 16  1  0
 15 36  1  0
 15 37  1  0
 16 21  1  0
 16 17  2  0
 17 18  1  0
 18 19  2  0
 18 38  1  0
 19 20  1  0
 19 39  1  0
 20 21  2  0
 20 40  1  0
 21 22  1  0
 23 24  1  0
 23 41  1  0
 23 42  1  0
 24 43  1  0
M  CHG  1  13   1
M  END
>  <DOCK_score>  (1) 
-48.567295

>  <SMILES>  (1) 
O=C1CC[C@H](NC(NC2CC2)=[NH+]Cc2ncccc2Cl)CN1

$$$$
