CNC(=[NH2+])N[C@@H]1C[C@@H]1NCc1c[nH]nc1C1=Cc2ccccc2C1
     RDKit          3D

 47 50  0  0  1  0  0  0  0  0999 V2000
  132.7402  139.8263  160.1775 C   0  0  0  0  0  0  0  0  0  0  0  0
  132.9248  138.3923  159.9415 N   0  0  0  0  0  0  0  0  0  0  0  0
  132.8501  137.5076  160.9912 C   0  0  0  0  0  0  0  0  0  0  0  0
  132.6151  137.9448  162.1965 N   0  0  0  0  0  0  0  0  0  0  0  0
  132.4928  138.8944  162.3527 H   0  0  0  0  0  0  0  0  0  0  0  0
  132.5623  137.3206  162.9371 H   0  0  0  0  0  0  0  0  0  0  0  0
  133.0234  136.1619  160.7698 N   0  0  0  0  0  0  0  0  0  0  0  0
  132.9439  135.2192  161.8884 C   0  0  2  0  0  0  0  0  0  0  0  0
  133.6684  135.3757  162.6877 H   0  0  0  0  0  0  0  0  0  0  0  0
  132.5437  133.7773  161.5700 C   0  0  0  0  0  0  0  0  0  0  0  0
  131.5576  134.7054  162.2821 C   0  0  2  0  0  0  0  0  0  0  0  0
  131.3697  134.5236  163.3403 H   0  0  0  0  0  0  0  0  0  0  0  0
  130.4082  135.1951  161.5095 N   0  0  0  0  0  0  0  0  0  0  0  0
  129.2527  134.3005  161.6607 C   0  0  0  0  0  0  0  0  0  0  0  0
  128.0957  134.8340  160.8557 C   0  0  0  0  0  0  0  0  0  0  0  0
  127.1511  135.6926  161.2944 C   0  0  0  0  0  0  0  0  0  0  0  0
  126.2925  135.9259  160.2776 N   0  0  0  0  0  0  0  0  0  0  0  0
  125.5135  136.5030  160.3122 H   0  0  0  0  0  0  0  0  0  0  0  0
  126.7181  135.1862  159.1669 N   0  0  0  0  0  0  0  0  0  0  0  0
  127.8069  134.5244  159.5090 C   0  0  0  0  0  0  0  0  0  0  0  0
  128.5836  133.6218  158.6398 C   0  0  0  0  0  0  0  0  0  0  0  0
  128.8102  132.3209  158.8591 C   0  0  0  0  0  0  0  0  0  0  0  0
  129.6238  131.7418  157.7796 C   0  0  0  0  0  0  0  0  0  0  0  0
  130.1085  130.4458  157.5698 C   0  0  0  0  0  0  0  0  0  0  0  0
  130.8633  130.1677  156.4503 C   0  0  0  0  0  0  0  0  0  0  0  0
  131.1443  131.1631  155.5307 C   0  0  0  0  0  0  0  0  0  0  0  0
  130.6690  132.4485  155.7299 C   0  0  0  0  0  0  0  0  0  0  0  0
  129.9153  132.7379  156.8435 C   0  0  0  0  0  0  0  0  0  0  0  0
  129.2575  134.0016  157.3418 C   0  0  0  0  0  0  0  0  0  0  0  0
  133.4994  140.1804  160.8749 H   0  0  0  0  0  0  0  0  0  0  0  0
  132.8337  140.3647  159.2344 H   0  0  0  0  0  0  0  0  0  0  0  0
  131.7503  140.0008  160.5990 H   0  0  0  0  0  0  0  0  0  0  0  0
  133.0996  138.0670  159.0446 H   0  0  0  0  0  0  0  0  0  0  0  0
  133.1983  135.8365  159.8729 H   0  0  0  0  0  0  0  0  0  0  0  0
  133.0048  132.9851  162.1599 H   0  0  0  0  0  0  0  0  0  0  0  0
  132.3393  133.5296  160.5284 H   0  0  0  0  0  0  0  0  0  0  0  0
  130.1711  136.1397  161.7732 H   0  0  0  0  0  0  0  0  0  0  0  0
  128.9699  134.2469  162.7120 H   0  0  0  0  0  0  0  0  0  0  0  0
  129.5151  133.3046  161.3037 H   0  0  0  0  0  0  0  0  0  0  0  0
  127.0915  136.1182  162.2852 H   0  0  0  0  0  0  0  0  0  0  0  0
  128.4446  131.7707  159.7136 H   0  0  0  0  0  0  0  0  0  0  0  0
  129.8923  129.6652  158.2840 H   0  0  0  0  0  0  0  0  0  0  0  0
  131.2371  129.1672  156.2897 H   0  0  0  0  0  0  0  0  0  0  0  0
  131.7361  130.9370  154.6559 H   0  0  0  0  0  0  0  0  0  0  0  0
  130.8898  133.2234  155.0108 H   0  0  0  0  0  0  0  0  0  0  0  0
  128.5184  134.3534  156.6221 H   0  0  0  0  0  0  0  0  0  0  0  0
  130.0090  134.7712  157.5184 H   0  0  0  0  0  0  0  0  0  0  0  0
  1  2  1  0
  1 30  1  0
  1 31  1  0
  1 32  1  0
  2  3  1  0
  2 33  1  0
  3  4  2  0
  3  7  1  0
  4  5  1  0
  4  6  1  0
  7  8  1  0
  7 34  1  0
  8  9  1  1
  8 11  1  0
  8 10  1  0
 10 11  1  0
 10 35  1  0
 10 36  1  0
 11 12  1  1
 11 13  1  0
 13 14  1  0
 13 37  1  0
 14 15  1  0
 14 38  1  0
 14 39  1  0
 15 20  1  0
 15 16  2  0
 16 17  1  0
 16 40  1  0
 17 18  1  0
 17 19  1  0
 19 20  2  0
 20 21  1  0
 21 29  1  0
 21 22  2  0
 22 23  1  0
 22 41  1  0
 23 28  2  0
 23 24  1  0
 24 25  2  0
 24 42  1  0
 25 26  1  0
 25 43  1  0
 26 27  2  0
 26 44  1  0
 27 28  1  0
 27 45  1  0
 28 29  1  0
 29 46  1  0
 29 47  1  0
M  CHG  1   4   1
M  END
>  <DOCK_score>  (1) 
-43.518661

>  <SMILES>  (1) 
CNC(=[NH2+])N[C@@H]1C[C@@H]1NCc1c[nH]nc1C1=Cc2ccccc2C1

$$$$
