[NH3+][C@H](Cc1cn([C@H](c2ccccc2)C2CC2)nn1)C(=O)Nc1cccc(O)c1
     RDKit          3D

 52 55  0  0  1  0  0  0  0  0999 V2000
  130.2917  133.9547  156.8876 N   0  0  0  0  0  0  0  0  0  0  0  0
  129.6158  133.9714  156.1385 H   0  0  0  0  0  0  0  0  0  0  0  0
  131.1461  134.3941  156.5793 H   0  0  0  0  0  0  0  0  0  0  0  0
  130.4805  132.9986  157.1488 H   0  0  0  0  0  0  0  0  0  0  0  0
  129.7568  134.6826  158.0460 C   0  0  2  0  0  0  0  0  0  0  0  0
  129.5529  135.7154  157.7636 H   0  0  0  0  0  0  0  0  0  0  0  0
  130.7818  134.6572  159.1817 C   0  0  0  0  0  0  0  0  0  0  0  0
  130.4828  135.7699  160.1531 C   0  0  0  0  0  0  0  0  0  0  0  0
  131.1724  136.0695  161.2786 C   0  0  0  0  0  0  0  0  0  0  0  0
  130.5484  137.1358  161.8304 N   0  0  0  0  0  0  0  0  0  0  0  0
  130.9412  137.8146  163.0678 C   0  0  2  0  0  0  0  0  0  0  0  0
  131.8227  137.3280  163.4850 H   0  0  0  0  0  0  0  0  0  0  0  0
  129.8101  137.7427  164.0611 C   0  0  0  0  0  0  0  0  0  0  0  0
  129.7271  136.6774  164.9381 C   0  0  0  0  0  0  0  0  0  0  0  0
  128.6923  136.6138  165.8523 C   0  0  0  0  0  0  0  0  0  0  0  0
  127.7345  137.6102  165.8826 C   0  0  0  0  0  0  0  0  0  0  0  0
  127.8145  138.6726  165.0020 C   0  0  0  0  0  0  0  0  0  0  0  0
  128.8523  138.7390  164.0912 C   0  0  0  0  0  0  0  0  0  0  0  0
  131.2622  139.2798  162.7659 C   0  0  0  0  0  0  0  0  0  0  0  0
  132.7129  139.6300  162.4284 C   0  0  0  0  0  0  0  0  0  0  0  0
  132.1218  140.0380  163.7794 C   0  0  0  0  0  0  0  0  0  0  0  0
  129.5504  137.4514  161.0811 N   0  0  0  0  0  0  0  0  0  0  0  0
  129.4874  136.6596  160.0694 N   0  0  0  0  0  0  0  0  0  0  0  0
  128.4808  134.0261  158.5063 C   0  0  0  0  0  0  0  0  0  0  0  0
  128.0584  133.0482  157.9263 O   0  0  0  0  0  0  0  0  0  0  0  0
  127.8089  134.5258  159.5623 N   0  0  0  0  0  0  0  0  0  0  0  0
  126.6241  133.9163  159.9897 C   0  0  0  0  0  0  0  0  0  0  0  0
  126.4413  132.5505  159.8125 C   0  0  0  0  0  0  0  0  0  0  0  0
  125.2722  131.9488  160.2352 C   0  0  0  0  0  0  0  0  0  0  0  0
  124.2834  132.7021  160.8395 C   0  0  0  0  0  0  0  0  0  0  0  0
  124.4581  134.0676  161.0139 C   0  0  0  0  0  0  0  0  0  0  0  0
  123.4829  134.8080  161.6034 O   0  0  0  0  0  0  0  0  0  0  0  0
  125.6303  134.6751  160.5913 C   0  0  0  0  0  0  0  0  0  0  0  0
  130.7274  133.6991  159.6987 H   0  0  0  0  0  0  0  0  0  0  0  0
  131.7825  134.7922  158.7712 H   0  0  0  0  0  0  0  0  0  0  0  0
  132.0453  135.5602  161.6594 H   0  0  0  0  0  0  0  0  0  0  0  0
  130.4729  135.8967  164.9115 H   0  0  0  0  0  0  0  0  0  0  0  0
  128.6295  135.7834  166.5400 H   0  0  0  0  0  0  0  0  0  0  0  0
  126.9235  137.5582  166.5938 H   0  0  0  0  0  0  0  0  0  0  0  0
  127.0660  139.4509  165.0253 H   0  0  0  0  0  0  0  0  0  0  0  0
  128.9146  139.5689  163.4030 H   0  0  0  0  0  0  0  0  0  0  0  0
  130.4776  139.8373  162.2545 H   0  0  0  0  0  0  0  0  0  0  0  0
  133.4385  138.8167  162.4215 H   0  0  0  0  0  0  0  0  0  0  0  0
  132.8828  140.4181  161.6947 H   0  0  0  0  0  0  0  0  0  0  0  0
  131.9028  141.0945  163.9345 H   0  0  0  0  0  0  0  0  0  0  0  0
  132.4585  139.4930  164.6612 H   0  0  0  0  0  0  0  0  0  0  0  0
  128.1465  135.3079  160.0262 H   0  0  0  0  0  0  0  0  0  0  0  0
  127.2142  131.9589  159.3443 H   0  0  0  0  0  0  0  0  0  0  0  0
  125.1321  130.8868  160.0969 H   0  0  0  0  0  0  0  0  0  0  0  0
  123.3721  132.2281  161.1730 H   0  0  0  0  0  0  0  0  0  0  0  0
  123.6954  135.7483  161.6808 H   0  0  0  0  0  0  0  0  0  0  0  0
  125.7697  135.7371  160.7299 H   0  0  0  0  0  0  0  0  0  0  0  0
  1  2  1  0
  1  3  1  0
  1  4  1  0
  1  5  1  0
  5  6  1  6
  5  7  1  0
  5 24  1  0
  7  8  1  0
  7 34  1  0
  7 35  1  0
  8 23  1  0
  8  9  2  0
  9 10  1  0
  9 36  1  0
 10 11  1  0
 10 22  1  0
 11 12  1  1
 11 13  1  0
 11 19  1  0
 13 18  1  0
 13 14  2  0
 14 15  1  0
 14 37  1  0
 15 16  2  0
 15 38  1  0
 16 17  1  0
 16 39  1  0
 17 18  2  0
 17 40  1  0
 18 41  1  0
 19 21  1  0
 19 20  1  0
 19 42  1  0
 20 21  1  0
 20 43  1  0
 20 44  1  0
 21 45  1  0
 21 46  1  0
 22 23  2  0
 24 25  2  0
 24 26  1  0
 26 27  1  0
 26 47  1  0
 27 33  1  0
 27 28  2  0
 28 29  1  0
 28 48  1  0
 29 30  2  0
 29 49  1  0
 30 31  1  0
 30 50  1  0
 31 32  1  0
 31 33  2  0
 32 51  1  0
 33 52  1  0
M  CHG  1   1   1
M  END
>  <DOCK_score>  (1) 
-45.04343

>  <SMILES>  (1) 
[NH3+][C@H](Cc1cn([C@H](c2ccccc2)C2CC2)nn1)C(=O)Nc1cccc(O)c1

$$$$
