Br[C@@H]1CC=C(c2c[nH]c(NC(c3ccc(C4=CCC=CC4)cc3)C3CC3)[nH+]2)C1
     RDKit          3D

 55 59  0  0  1  0  0  0  0  0999 V2000
  129.0687  130.3661  152.1731 Br  0  0  0  0  0  0  0  0  0  0  0  0
  130.9438  130.7262  152.6415 C   0  0  2  0  0  0  0  0  0  0  0  0
  131.5177  131.0095  151.7591 H   0  0  0  0  0  0  0  0  0  0  0  0
  131.5814  129.5089  153.3495 C   0  0  0  0  0  0  0  0  0  0  0  0
  131.3910  129.7745  154.8248 C   0  0  0  0  0  0  0  0  0  0  0  0
  131.0879  131.0438  155.0386 C   0  0  0  0  0  0  0  0  0  0  0  0
  130.8345  131.6329  156.3696 C   0  0  0  0  0  0  0  0  0  0  0  0
  130.3106  130.9871  157.4437 C   0  0  0  0  0  0  0  0  0  0  0  0
  130.2474  131.9015  158.4660 N   0  0  0  0  0  0  0  0  0  0  0  0
  129.9165  131.7380  159.3630 H   0  0  0  0  0  0  0  0  0  0  0  0
  130.7340  133.0798  157.9890 C   0  0  0  0  0  0  0  0  0  0  0  0
  130.8417  134.2574  158.7085 N   0  0  0  0  0  0  0  0  0  0  0  0
  130.4115  134.3025  160.1083 C   0  0  1  0  0  0  0  0  0  0  0  0
  131.5804  134.6808  160.9810 C   0  0  0  0  0  0  0  0  0  0  0  0
  132.5818  135.4917  160.4774 C   0  0  0  0  0  0  0  0  0  0  0  0
  133.6547  135.8416  161.2713 C   0  0  0  0  0  0  0  0  0  0  0  0
  133.7285  135.3757  162.5842 C   0  0  0  0  0  0  0  0  0  0  0  0
  134.8750  135.7468  163.4403 C   0  0  0  0  0  0  0  0  0  0  0  0
  135.0957  137.0199  163.6824 C   0  0  0  0  0  0  0  0  0  0  0  0
  136.2287  137.4949  164.5419 C   0  0  0  0  0  0  0  0  0  0  0  0
  137.2924  136.4458  164.6624 C   0  0  0  0  0  0  0  0  0  0  0  0
  137.0775  135.1894  164.4193 C   0  0  0  0  0  0  0  0  0  0  0  0
  135.7432  134.6563  163.9929 C   0  0  0  0  0  0  0  0  0  0  0  0
  132.7149  134.5584  163.0862 C   0  0  0  0  0  0  0  0  0  0  0  0
  131.6471  134.2161  162.2822 C   0  0  0  0  0  0  0  0  0  0  0  0
  129.2994  135.3413  160.2667 C   0  0  0  0  0  0  0  0  0  0  0  0
  128.4050  135.6092  159.0547 C   0  0  0  0  0  0  0  0  0  0  0  0
  129.4395  136.6509  159.4883 C   0  0  0  0  0  0  0  0  0  0  0  0
  131.0785  132.9179  156.7350 N   0  0  0  0  0  0  0  0  0  0  0  0
  131.4503  133.6053  156.1605 H   0  0  0  0  0  0  0  0  0  0  0  0
  131.0421  131.8116  153.7379 C   0  0  0  0  0  0  0  0  0  0  0  0
  131.0719  128.5905  153.0577 H   0  0  0  0  0  0  0  0  0  0  0  0
  132.6431  129.4450  153.1116 H   0  0  0  0  0  0  0  0  0  0  0  0
  131.4869  129.0281  155.5995 H   0  0  0  0  0  0  0  0  0  0  0  0
  130.0031  129.9526  157.4856 H   0  0  0  0  0  0  0  0  0  0  0  0
  131.2019  135.0527  158.2859 H   0  0  0  0  0  0  0  0  0  0  0  0
  130.0382  133.3224  160.4054 H   0  0  0  0  0  0  0  0  0  0  0  0
  132.5259  135.8479  159.4594 H   0  0  0  0  0  0  0  0  0  0  0  0
  134.4361  136.4744  160.8769 H   0  0  0  0  0  0  0  0  0  0  0  0
  134.4318  137.7528  163.2481 H   0  0  0  0  0  0  0  0  0  0  0  0
  135.8509  137.7365  165.5354 H   0  0  0  0  0  0  0  0  0  0  0  0
  136.6600  138.3912  164.0962 H   0  0  0  0  0  0  0  0  0  0  0  0
  138.2835  136.7495  164.9654 H   0  0  0  0  0  0  0  0  0  0  0  0
  137.8980  134.4958  164.5294 H   0  0  0  0  0  0  0  0  0  0  0  0
  135.2473  134.2058  164.8527 H   0  0  0  0  0  0  0  0  0  0  0  0
  135.8909  133.8946  163.2273 H   0  0  0  0  0  0  0  0  0  0  0  0
  132.7661  134.1943  164.1017 H   0  0  0  0  0  0  0  0  0  0  0  0
  130.8619  133.5837  162.6695 H   0  0  0  0  0  0  0  0  0  0  0  0
  128.8379  135.3890  161.2531 H   0  0  0  0  0  0  0  0  0  0  0  0
  128.6089  135.0456  158.1443 H   0  0  0  0  0  0  0  0  0  0  0  0
  127.3552  135.8337  159.2436 H   0  0  0  0  0  0  0  0  0  0  0  0
  129.0698  137.5602  159.9623 H   0  0  0  0  0  0  0  0  0  0  0  0
  130.3243  136.7727  158.8634 H   0  0  0  0  0  0  0  0  0  0  0  0
  130.1658  132.4592  153.7102 H   0  0  0  0  0  0  0  0  0  0  0  0
  131.9523  132.3976  153.6110 H   0  0  0  0  0  0  0  0  0  0  0  0
  1  2  1  0
  2  3  1  6
  2 31  1  0
  2  4  1  0
  4  5  1  0
  4 32  1  0
  4 33  1  0
  5  6  2  0
  5 34  1  0
  6  7  1  0
  6 31  1  0
  7 29  1  0
  7  8  2  0
  8  9  1  0
  8 35  1  0
  9 10  1  0
  9 11  1  0
 11 12  1  0
 11 29  2  0
 12 13  1  0
 12 36  1  0
 13 14  1  0
 13 26  1  0
 13 37  1  1
 14 25  1  0
 14 15  2  0
 15 16  1  0
 15 38  1  0
 16 17  2  0
 16 39  1  0
 17 18  1  0
 17 24  1  0
 18 23  1  0
 18 19  2  0
 19 20  1  0
 19 40  1  0
 20 21  1  0
 20 41  1  0
 20 42  1  0
 21 22  2  0
 21 43  1  0
 22 23  1  0
 22 44  1  0
 23 45  1  0
 23 46  1  0
 24 25  2  0
 24 47  1  0
 25 48  1  0
 26 28  1  0
 26 27  1  0
 26 49  1  0
 27 28  1  0
 27 50  1  0
 27 51  1  0
 28 52  1  0
 28 53  1  0
 29 30  1  0
 31 54  1  0
 31 55  1  0
M  CHG  1  29   1
M  END
>  <DOCK_score>  (1) 
-57.21867

>  <SMILES>  (1) 
Br[C@@H]1CC=C(c2c[nH]c(NC(c3ccc(C4=CCC=CC4)cc3)C3CC3)[nH+]2)C1

$$$$
