C1=CCC(c2ccc(-c3c[nH]c(N[C@@H](Cc4ccccc4)c4ccccc4)[nH+]3)cc2)=CC1
     RDKit          3D

 60 64  0  0  1  0  0  0  0  0999 V2000
  130.0356  128.3584  150.8014 C   0  0  0  0  0  0  0  0  0  0  0  0
  130.7857  127.9256  151.7677 C   0  0  0  0  0  0  0  0  0  0  0  0
  131.2740  128.8040  152.8797 C   0  0  0  0  0  0  0  0  0  0  0  0
  130.4392  130.0432  152.9981 C   0  0  0  0  0  0  0  0  0  0  0  0
  130.4718  130.8019  154.2648 C   0  0  0  0  0  0  0  0  0  0  0  0
  130.2710  132.1848  154.2565 C   0  0  0  0  0  0  0  0  0  0  0  0
  130.3012  132.8913  155.4377 C   0  0  0  0  0  0  0  0  0  0  0  0
  130.5325  132.2269  156.6427 C   0  0  0  0  0  0  0  0  0  0  0  0
  130.5652  132.9883  157.9139 C   0  0  0  0  0  0  0  0  0  0  0  0
  130.2090  132.5183  159.1359 C   0  0  0  0  0  0  0  0  0  0  0  0
  130.3920  133.5468  160.0273 N   0  0  0  0  0  0  0  0  0  0  0  0
  130.2230  133.5165  160.9820 H   0  0  0  0  0  0  0  0  0  0  0  0
  130.8551  134.6164  159.3243 C   0  0  0  0  0  0  0  0  0  0  0  0
  131.1661  135.8565  159.8551 N   0  0  0  0  0  0  0  0  0  0  0  0
  131.0039  136.1005  161.2905 C   0  0  1  0  0  0  0  0  0  0  0  0
  131.6339  135.4090  161.8500 H   0  0  0  0  0  0  0  0  0  0  0  0
  131.4137  137.5389  161.6128 C   0  0  0  0  0  0  0  0  0  0  0  0
  132.9156  137.6253  161.7014 C   0  0  0  0  0  0  0  0  0  0  0  0
  133.5497  137.4186  162.9123 C   0  0  0  0  0  0  0  0  0  0  0  0
  134.9273  137.4983  162.9936 C   0  0  0  0  0  0  0  0  0  0  0  0
  135.6710  137.7837  161.8638 C   0  0  0  0  0  0  0  0  0  0  0  0
  135.0368  137.9952  160.6540 C   0  0  0  0  0  0  0  0  0  0  0  0
  133.6593  137.9117  160.5718 C   0  0  0  0  0  0  0  0  0  0  0  0
  129.5621  135.8906  161.6758 C   0  0  0  0  0  0  0  0  0  0  0  0
  129.2437  135.4459  162.9454 C   0  0  0  0  0  0  0  0  0  0  0  0
  127.9211  135.2572  163.3001 C   0  0  0  0  0  0  0  0  0  0  0  0
  126.9173  135.5053  162.3827 C   0  0  0  0  0  0  0  0  0  0  0  0
  127.2360  135.9449  161.1115 C   0  0  0  0  0  0  0  0  0  0  0  0
  128.5584  136.1373  160.7579 C   0  0  0  0  0  0  0  0  0  0  0  0
  130.9528  134.2805  158.0612 N   0  0  0  0  0  0  0  0  0  0  0  0
  131.2556  134.8620  157.3464 H   0  0  0  0  0  0  0  0  0  0  0  0
  130.7386  130.8470  156.6509 C   0  0  0  0  0  0  0  0  0  0  0  0
  130.7035  130.1384  155.4710 C   0  0  0  0  0  0  0  0  0  0  0  0
  129.6752  130.4801  152.0197 C   0  0  0  0  0  0  0  0  0  0  0  0
  129.5788  129.7820  150.6964 C   0  0  0  0  0  0  0  0  0  0  0  0
  129.7260  127.6605  150.0377 H   0  0  0  0  0  0  0  0  0  0  0  0
  131.0717  126.8842  151.7707 H   0  0  0  0  0  0  0  0  0  0  0  0
  132.3083  129.0867  152.6836 H   0  0  0  0  0  0  0  0  0  0  0  0
  131.2267  128.2510  153.8178 H   0  0  0  0  0  0  0  0  0  0  0  0
  130.0924  132.6993  153.3239 H   0  0  0  0  0  0  0  0  0  0  0  0
  130.1454  133.9599  155.4318 H   0  0  0  0  0  0  0  0  0  0  0  0
  129.8501  131.5254  159.3638 H   0  0  0  0  0  0  0  0  0  0  0  0
  131.4915  136.5638  159.2766 H   0  0  0  0  0  0  0  0  0  0  0  0
  130.9759  137.8365  162.5656 H   0  0  0  0  0  0  0  0  0  0  0  0
  131.0572  138.2033  160.8257 H   0  0  0  0  0  0  0  0  0  0  0  0
  132.9686  137.1953  163.7949 H   0  0  0  0  0  0  0  0  0  0  0  0
  135.4227  137.3372  163.9396 H   0  0  0  0  0  0  0  0  0  0  0  0
  136.7474  137.8459  161.9274 H   0  0  0  0  0  0  0  0  0  0  0  0
  135.6174  138.2225  159.7722 H   0  0  0  0  0  0  0  0  0  0  0  0
  133.1640  138.0735  159.6259 H   0  0  0  0  0  0  0  0  0  0  0  0
  130.0282  135.2489  163.6610 H   0  0  0  0  0  0  0  0  0  0  0  0
  127.6721  134.9134  164.2932 H   0  0  0  0  0  0  0  0  0  0  0  0
  125.8841  135.3553  162.6589 H   0  0  0  0  0  0  0  0  0  0  0  0
  126.4517  136.1384  160.3946 H   0  0  0  0  0  0  0  0  0  0  0  0
  128.8074  136.4808  159.7647 H   0  0  0  0  0  0  0  0  0  0  0  0
  130.9220  130.3341  157.5833 H   0  0  0  0  0  0  0  0  0  0  0  0
  130.8588  129.0696  155.4780 H   0  0  0  0  0  0  0  0  0  0  0  0
  129.0968  131.3789  152.1749 H   0  0  0  0  0  0  0  0  0  0  0  0
  130.1994  130.3036  149.9678 H   0  0  0  0  0  0  0  0  0  0  0  0
  128.5419  129.8004  150.3607 H   0  0  0  0  0  0  0  0  0  0  0  0
  1 35  1  0
  1  2  2  0
  1 36  1  0
  2  3  1  0
  2 37  1  0
  3  4  1  0
  3 38  1  0
  3 39  1  0
  4  5  1  0
  4 34  2  0
  5 33  1  0
  5  6  2  0
  6  7  1  0
  6 40  1  0
  7  8  2  0
  7 41  1  0
  8  9  1  0
  8 32  1  0
  9 30  1  0
  9 10  2  0
 10 11  1  0
 10 42  1  0
 11 12  1  0
 11 13  1  0
 13 14  1  0
 13 30  2  0
 14 15  1  0
 14 43  1  0
 15 16  1  1
 15 17  1  0
 15 24  1  0
 17 18  1  0
 17 44  1  0
 17 45  1  0
 18 23  1  0
 18 19  2  0
 19 20  1  0
 19 46  1  0
 20 21  2  0
 20 47  1  0
 21 22  1  0
 21 48  1  0
 22 23  2  0
 22 49  1  0
 23 50  1  0
 24 29  1  0
 24 25  2  0
 25 26  1  0
 25 51  1  0
 26 27  2  0
 26 52  1  0
 27 28  1  0
 27 53  1  0
 28 29  2  0
 28 54  1  0
 29 55  1  0
 30 31  1  0
 32 33  2  0
 32 56  1  0
 33 57  1  0
 34 35  1  0
 34 58  1  0
 35 59  1  0
 35 60  1  0
M  CHG  1  30   1
M  END
>  <DOCK_score>  (1) 
-60.984722

>  <SMILES>  (1) 
C1=CCC(c2ccc(-c3c[nH]c(N[C@@H](Cc4ccccc4)c4ccccc4)[nH+]3)cc2)=CC1

$$$$
