C1=C(c2cccc3ccccc23)CC[N@@H+](Cc2cnn(-c3ccccc3)c2)C1
     RDKit          3D

 52 56  0  0  1  0  0  0  0  0999 V2000
  131.8555  136.7548  160.5134 C   0  0  0  0  0  0  0  0  0  0  0  0
  132.9288  136.0115  160.6929 C   0  0  0  0  0  0  0  0  0  0  0  0
  134.1028  136.6063  161.3588 C   0  0  0  0  0  0  0  0  0  0  0  0
  134.5919  136.0609  162.5355 C   0  0  0  0  0  0  0  0  0  0  0  0
  135.6976  136.6164  163.1680 C   0  0  0  0  0  0  0  0  0  0  0  0
  136.3303  137.7077  162.6529 C   0  0  0  0  0  0  0  0  0  0  0  0
  135.8685  138.2934  161.4617 C   0  0  0  0  0  0  0  0  0  0  0  0
  136.5041  139.4199  160.9109 C   0  0  0  0  0  0  0  0  0  0  0  0
  136.0307  139.9627  159.7558 C   0  0  0  0  0  0  0  0  0  0  0  0
  134.9236  139.4178  159.1091 C   0  0  0  0  0  0  0  0  0  0  0  0
  134.2835  138.3271  159.6151 C   0  0  0  0  0  0  0  0  0  0  0  0
  134.7468  137.7377  160.7997 C   0  0  0  0  0  0  0  0  0  0  0  0
  132.9967  134.5763  160.2481 C   0  0  0  0  0  0  0  0  0  0  0  0
  131.5834  134.0586  159.9693 C   0  0  0  0  0  0  0  0  0  0  0  0
  130.8951  135.0206  159.0939 N   0  0  1  0  0  0  0  0  0  0  0  0
  131.4871  135.2462  158.3088 H   0  0  0  0  0  0  0  0  0  0  0  0
  129.6389  134.4330  158.6095 C   0  0  0  0  0  0  0  0  0  0  0  0
  129.9384  133.1754  157.8349 C   0  0  0  0  0  0  0  0  0  0  0  0
  130.0245  131.8832  158.3647 C   0  0  0  0  0  0  0  0  0  0  0  0
  130.2965  131.0568  157.3870 N   0  0  0  0  0  0  0  0  0  0  0  0
  130.4017  131.7984  156.2032 N   0  0  0  0  0  0  0  0  0  0  0  0
  130.6879  131.2850  154.9306 C   0  0  0  0  0  0  0  0  0  0  0  0
  130.1801  131.9083  153.7987 C   0  0  0  0  0  0  0  0  0  0  0  0
  130.4687  131.4033  152.5458 C   0  0  0  0  0  0  0  0  0  0  0  0
  131.2529  130.2715  152.4189 C   0  0  0  0  0  0  0  0  0  0  0  0
  131.7555  129.6453  153.5446 C   0  0  0  0  0  0  0  0  0  0  0  0
  131.4751  130.1488  154.7998 C   0  0  0  0  0  0  0  0  0  0  0  0
  130.1774  133.0974  156.5054 C   0  0  0  0  0  0  0  0  0  0  0  0
  130.6066  136.2401  159.8577 C   0  0  0  0  0  0  0  0  0  0  0  0
  131.8750  137.7798  160.8533 H   0  0  0  0  0  0  0  0  0  0  0  0
  134.1091  135.1956  162.9650 H   0  0  0  0  0  0  0  0  0  0  0  0
  136.0621  136.1751  164.0839 H   0  0  0  0  0  0  0  0  0  0  0  0
  137.1877  138.1234  163.1611 H   0  0  0  0  0  0  0  0  0  0  0  0
  137.3635  139.8523  161.4015 H   0  0  0  0  0  0  0  0  0  0  0  0
  136.5204  140.8283  159.3348 H   0  0  0  0  0  0  0  0  0  0  0  0
  134.5674  139.8670  158.1937 H   0  0  0  0  0  0  0  0  0  0  0  0
  133.4262  137.9150  159.1035 H   0  0  0  0  0  0  0  0  0  0  0  0
  133.5951  134.5056  159.3398 H   0  0  0  0  0  0  0  0  0  0  0  0
  133.4556  133.9745  161.0326 H   0  0  0  0  0  0  0  0  0  0  0  0
  131.6398  133.0891  159.4744 H   0  0  0  0  0  0  0  0  0  0  0  0
  131.0372  133.9622  160.9076 H   0  0  0  0  0  0  0  0  0  0  0  0
  128.9989  134.1930  159.4585 H   0  0  0  0  0  0  0  0  0  0  0  0
  129.1302  135.1465  157.9613 H   0  0  0  0  0  0  0  0  0  0  0  0
  129.8871  131.6138  159.4015 H   0  0  0  0  0  0  0  0  0  0  0  0
  129.5638  132.7897  153.8974 H   0  0  0  0  0  0  0  0  0  0  0  0
  130.0776  131.8903  151.6648 H   0  0  0  0  0  0  0  0  0  0  0  0
  131.4739  129.8760  151.4385 H   0  0  0  0  0  0  0  0  0  0  0  0
  132.3681  128.7617  153.4423 H   0  0  0  0  0  0  0  0  0  0  0  0
  131.8682  129.6594  155.6787 H   0  0  0  0  0  0  0  0  0  0  0  0
  130.1873  133.9240  155.8103 H   0  0  0  0  0  0  0  0  0  0  0  0
  130.2123  137.0018  159.1853 H   0  0  0  0  0  0  0  0  0  0  0  0
  129.8627  136.0186  160.6230 H   0  0  0  0  0  0  0  0  0  0  0  0
  1 29  1  0
  1  2  2  0
  1 30  1  0
  2  3  1  0
  2 13  1  0
  3 12  1  0
  3  4  2  0
  4  5  1  0
  4 31  1  0
  5  6  2  0
  5 32  1  0
  6  7  1  0
  6 33  1  0
  7 12  2  0
  7  8  1  0
  8  9  2  0
  8 34  1  0
  9 10  1  0
  9 35  1  0
 10 11  2  0
 10 36  1  0
 11 12  1  0
 11 37  1  0
 13 14  1  0
 13 38  1  0
 13 39  1  0
 14 15  1  0
 14 40  1  0
 14 41  1  0
 15 16  1  6
 15 17  1  0
 15 29  1  0
 17 18  1  0
 17 42  1  0
 17 43  1  0
 18 28  2  0
 18 19  1  0
 19 20  2  0
 19 44  1  0
 20 21  1  0
 21 22  1  0
 21 28  1  0
 22 27  1  0
 22 23  2  0
 23 24  1  0
 23 45  1  0
 24 25  2  0
 24 46  1  0
 25 26  1  0
 25 47  1  0
 26 27  2  0
 26 48  1  0
 27 49  1  0
 28 50  1  0
 29 51  1  0
 29 52  1  0
M  CHG  1  15   1
M  END
>  <DOCK_score>  (1) 
-58.532017

>  <SMILES>  (1) 
C1=C(c2cccc3ccccc23)CC[N@@H+](Cc2cnn(-c3ccccc3)c2)C1

$$$$
