CCc1ccc(-c2c[nH]c(Nc3ccc(Nc4ccc(C(=O)C5=CCCC5)cc4)cc3)[nH+]2)cc1
     RDKit          3D

 63 67  0  0  1  0  0  0  0  0999 V2000
  130.2439  128.0732  151.9105 C   0  0  0  0  0  0  0  0  0  0  0  0
  131.2470  129.2264  151.9839 C   0  0  0  0  0  0  0  0  0  0  0  0
  130.9686  130.0567  153.2102 C   0  0  0  0  0  0  0  0  0  0  0  0
  131.5871  129.7465  154.4081 C   0  0  0  0  0  0  0  0  0  0  0  0
  131.3356  130.5039  155.5340 C   0  0  0  0  0  0  0  0  0  0  0  0
  130.4566  131.5831  155.4625 C   0  0  0  0  0  0  0  0  0  0  0  0
  130.1820  132.4006  156.6695 C   0  0  0  0  0  0  0  0  0  0  0  0
  129.6520  131.9513  157.8342 C   0  0  0  0  0  0  0  0  0  0  0  0
  129.5733  133.0309  158.6792 N   0  0  0  0  0  0  0  0  0  0  0  0
  129.2375  133.0251  159.5892 H   0  0  0  0  0  0  0  0  0  0  0  0
  130.0505  134.1116  158.0029 C   0  0  0  0  0  0  0  0  0  0  0  0
  130.1407  135.4004  158.5019 N   0  0  0  0  0  0  0  0  0  0  0  0
  129.2241  135.8449  159.4624 C   0  0  0  0  0  0  0  0  0  0  0  0
  129.6053  136.7995  160.3967 C   0  0  0  0  0  0  0  0  0  0  0  0
  128.7019  137.2375  161.3440 C   0  0  0  0  0  0  0  0  0  0  0  0
  127.4113  136.7242  161.3627 C   0  0  0  0  0  0  0  0  0  0  0  0
  126.4970  137.1640  162.3266 N   0  0  0  0  0  0  0  0  0  0  0  0
  126.8802  138.1145  163.2654 C   0  0  0  0  0  0  0  0  0  0  0  0
  126.2114  139.3346  163.3318 C   0  0  0  0  0  0  0  0  0  0  0  0
  126.5817  140.2687  164.2572 C   0  0  0  0  0  0  0  0  0  0  0  0
  127.6412  140.0033  165.1313 C   0  0  0  0  0  0  0  0  0  0  0  0
  128.0487  141.0126  166.1265 C   0  0  0  0  0  0  0  0  0  0  0  0
  128.4250  142.1106  165.7611 O   0  0  0  0  0  0  0  0  0  0  0  0
  127.9999  140.6919  167.5605 C   0  0  0  0  0  0  0  0  0  0  0  0
  128.3493  141.5260  168.5326 C   0  0  0  0  0  0  0  0  0  0  0  0
  128.1734  140.8750  169.8850 C   0  0  0  0  0  0  0  0  0  0  0  0
  127.2682  139.6499  169.6219 C   0  0  0  0  0  0  0  0  0  0  0  0
  127.5511  139.3656  168.1291 C   0  0  0  0  0  0  0  0  0  0  0  0
  128.3148  138.7795  165.0578 C   0  0  0  0  0  0  0  0  0  0  0  0
  127.9357  137.8472  164.1342 C   0  0  0  0  0  0  0  0  0  0  0  0
  127.0299  135.7699  160.4280 C   0  0  0  0  0  0  0  0  0  0  0  0
  127.9335  135.3319  159.4807 C   0  0  0  0  0  0  0  0  0  0  0  0
  130.4161  133.7299  156.8032 N   0  0  0  0  0  0  0  0  0  0  0  0
  130.7939  134.3060  156.1204 H   0  0  0  0  0  0  0  0  0  0  0  0
  129.8322  131.8879  154.2543 C   0  0  0  0  0  0  0  0  0  0  0  0
  130.0957  131.1270  153.1334 C   0  0  0  0  0  0  0  0  0  0  0  0
  130.4455  127.4722  151.0237 H   0  0  0  0  0  0  0  0  0  0  0  0
  130.3394  127.4510  152.8004 H   0  0  0  0  0  0  0  0  0  0  0  0
  129.2323  128.4750  151.8548 H   0  0  0  0  0  0  0  0  0  0  0  0
  131.1520  129.8481  151.0943 H   0  0  0  0  0  0  0  0  0  0  0  0
  132.2591  128.8241  152.0399 H   0  0  0  0  0  0  0  0  0  0  0  0
  132.2677  128.9097  154.4622 H   0  0  0  0  0  0  0  0  0  0  0  0
  131.8193  130.2610  156.4685 H   0  0  0  0  0  0  0  0  0  0  0  0
  129.3532  130.9374  158.0562 H   0  0  0  0  0  0  0  0  0  0  0  0
  130.8388  135.9951  158.1860 H   0  0  0  0  0  0  0  0  0  0  0  0
  130.6087  137.1987  160.3821 H   0  0  0  0  0  0  0  0  0  0  0  0
  128.9983  137.9797  162.0704 H   0  0  0  0  0  0  0  0  0  0  0  0
  125.5958  136.8052  162.3396 H   0  0  0  0  0  0  0  0  0  0  0  0
  125.3965  139.5406  162.6536 H   0  0  0  0  0  0  0  0  0  0  0  0
  126.0599  141.2129  164.3110 H   0  0  0  0  0  0  0  0  0  0  0  0
  128.7084  142.5328  168.3780 H   0  0  0  0  0  0  0  0  0  0  0  0
  127.6895  141.5621  170.5794 H   0  0  0  0  0  0  0  0  0  0  0  0
  129.1383  140.5560  170.2789 H   0  0  0  0  0  0  0  0  0  0  0  0
  126.2187  139.8990  169.7796 H   0  0  0  0  0  0  0  0  0  0  0  0
  127.5648  138.8050  170.2432 H   0  0  0  0  0  0  0  0  0  0  0  0
  126.6442  139.0260  167.6290 H   0  0  0  0  0  0  0  0  0  0  0  0
  128.3422  138.6225  168.0278 H   0  0  0  0  0  0  0  0  0  0  0  0
  129.1338  138.5718  165.7307 H   0  0  0  0  0  0  0  0  0  0  0  0
  128.4548  136.9019  164.0774 H   0  0  0  0  0  0  0  0  0  0  0  0
  126.0267  135.3704  160.4427 H   0  0  0  0  0  0  0  0  0  0  0  0
  127.6370  134.5899  158.7539 H   0  0  0  0  0  0  0  0  0  0  0  0
  129.1471  132.7205  154.1943 H   0  0  0  0  0  0  0  0  0  0  0  0
  129.6159  131.3650  152.1955 H   0  0  0  0  0  0  0  0  0  0  0  0
  1  2  1  0
  1 37  1  0
  1 38  1  0
  1 39  1  0
  2  3  1  0
  2 40  1  0
  2 41  1  0
  3 36  2  0
  3  4  1  0
  4  5  2  0
  4 42  1  0
  5  6  1  0
  5 43  1  0
  6  7  1  0
  6 35  2  0
  7 33  1  0
  7  8  2  0
  8  9  1  0
  8 44  1  0
  9 10  1  0
  9 11  1  0
 11 12  1  0
 11 33  2  0
 12 13  1  0
 12 45  1  0
 13 32  1  0
 13 14  2  0
 14 15  1  0
 14 46  1  0
 15 16  2  0
 15 47  1  0
 16 17  1  0
 16 31  1  0
 17 18  1  0
 17 48  1  0
 18 30  1  0
 18 19  2  0
 19 20  1  0
 19 49  1  0
 20 21  2  0
 20 50  1  0
 21 22  1  0
 21 29  1  0
 22 23  2  0
 22 24  1  0
 24 28  1  0
 24 25  2  0
 25 26  1  0
 25 51  1  0
 26 27  1  0
 26 52  1  0
 26 53  1  0
 27 28  1  0
 27 54  1  0
 27 55  1  0
 28 56  1  0
 28 57  1  0
 29 30  2  0
 29 58  1  0
 30 59  1  0
 31 32  2  0
 31 60  1  0
 32 61  1  0
 33 34  1  0
 35 36  1  0
 35 62  1  0
 36 63  1  0
M  CHG  1  33   1
M  END
>  <DOCK_score>  (1) 
-58.574509

>  <SMILES>  (1) 
CCc1ccc(-c2c[nH]c(Nc3ccc(Nc4ccc(C(=O)C5=CCCC5)cc4)cc3)[nH+]2)cc1

$$$$
