CCc1ccc(-c2c[nH]c(N[C@@H](CSc3ccccc3)C(C)C)[nH+]2)cc1
     RDKit          3D

 54 56  0  0  1  0  0  0  0  0999 V2000
  129.8120  128.9649  151.0370 C   0  0  0  0  0  0  0  0  0  0  0  0
  131.0753  129.7464  151.4028 C   0  0  0  0  0  0  0  0  0  0  0  0
  130.8988  130.3810  152.7583 C   0  0  0  0  0  0  0  0  0  0  0  0
  131.2752  129.6910  153.8960 C   0  0  0  0  0  0  0  0  0  0  0  0
  131.1212  130.2692  155.1397 C   0  0  0  0  0  0  0  0  0  0  0  0
  130.5746  131.5467  155.2484 C   0  0  0  0  0  0  0  0  0  0  0  0
  130.4014  132.1712  156.5827 C   0  0  0  0  0  0  0  0  0  0  0  0
  129.6554  131.6800  157.6031 C   0  0  0  0  0  0  0  0  0  0  0  0
  129.7728  132.5668  158.6455 N   0  0  0  0  0  0  0  0  0  0  0  0
  129.3521  132.4890  159.5161 H   0  0  0  0  0  0  0  0  0  0  0  0
  130.5878  133.5750  158.2314 C   0  0  0  0  0  0  0  0  0  0  0  0
  130.9606  134.6728  158.9877 N   0  0  0  0  0  0  0  0  0  0  0  0
  130.4679  134.8186  160.3597 C   0  0  1  0  0  0  0  0  0  0  0  0
  130.4731  133.8466  160.8528 H   0  0  0  0  0  0  0  0  0  0  0  0
  131.3732  135.7846  161.1267 C   0  0  0  0  0  0  0  0  0  0  0  0
  133.0654  135.1316  161.1580 S   0  0  0  0  0  0  0  0  0  0  0  0
  134.0521  136.5904  161.2163 C   0  0  0  0  0  0  0  0  0  0  0  0
  134.9079  136.8100  162.2890 C   0  0  0  0  0  0  0  0  0  0  0  0
  135.6832  137.9520  162.3287 C   0  0  0  0  0  0  0  0  0  0  0  0
  135.6017  138.8811  161.3078 C   0  0  0  0  0  0  0  0  0  0  0  0
  134.7468  138.6685  160.2414 C   0  0  0  0  0  0  0  0  0  0  0  0
  133.9721  137.5266  160.1924 C   0  0  0  0  0  0  0  0  0  0  0  0
  129.0407  135.3694  160.3332 C   0  0  0  0  0  0  0  0  0  0  0  0
  128.5261  135.5217  161.7660 C   0  0  0  0  0  0  0  0  0  0  0  0
  129.0332  136.7337  159.6409 C   0  0  0  0  0  0  0  0  0  0  0  0
  130.9660  133.3321  157.0002 N   0  0  0  0  0  0  0  0  0  0  0  0
  131.5538  133.8938  156.4712 H   0  0  0  0  0  0  0  0  0  0  0  0
  130.1917  132.2353  154.0988 C   0  0  0  0  0  0  0  0  0  0  0  0
  130.3557  131.6496  152.8599 C   0  0  0  0  0  0  0  0  0  0  0  0
  129.6375  128.1883  151.7817 H   0  0  0  0  0  0  0  0  0  0  0  0
  128.9590  129.6431  151.0126 H   0  0  0  0  0  0  0  0  0  0  0  0
  129.9396  128.5061  150.0566 H   0  0  0  0  0  0  0  0  0  0  0  0
  131.9281  129.0690  151.4268 H   0  0  0  0  0  0  0  0  0  0  0  0
  131.2497  130.5238  150.6578 H   0  0  0  0  0  0  0  0  0  0  0  0
  131.6943  128.6993  153.8109 H   0  0  0  0  0  0  0  0  0  0  0  0
  131.4198  129.7312  156.0273 H   0  0  0  0  0  0  0  0  0  0  0  0
  129.0791  130.7666  157.5971 H   0  0  0  0  0  0  0  0  0  0  0  0
  131.5482  135.3456  158.6094 H   0  0  0  0  0  0  0  0  0  0  0  0
  131.3678  136.7567  160.6337 H   0  0  0  0  0  0  0  0  0  0  0  0
  131.0066  135.8930  162.1476 H   0  0  0  0  0  0  0  0  0  0  0  0
  134.9692  136.0867  163.0886 H   0  0  0  0  0  0  0  0  0  0  0  0
  136.3513  138.1215  163.1602 H   0  0  0  0  0  0  0  0  0  0  0  0
  136.2058  139.7756  161.3436 H   0  0  0  0  0  0  0  0  0  0  0  0
  134.6853  139.3966  159.4459 H   0  0  0  0  0  0  0  0  0  0  0  0
  133.3045  137.3615  159.3596 H   0  0  0  0  0  0  0  0  0  0  0  0
  128.3958  134.6811  159.7867 H   0  0  0  0  0  0  0  0  0  0  0  0
  129.1710  136.2098  162.3124 H   0  0  0  0  0  0  0  0  0  0  0  0
  127.5093  135.9140  161.7471 H   0  0  0  0  0  0  0  0  0  0  0  0
  128.5313  134.5496  162.2592 H   0  0  0  0  0  0  0  0  0  0  0  0
  129.3999  136.6252  158.6202 H   0  0  0  0  0  0  0  0  0  0  0  0
  128.0166  137.1262  159.6220 H   0  0  0  0  0  0  0  0  0  0  0  0
  129.6783  137.4218  160.1873 H   0  0  0  0  0  0  0  0  0  0  0  0
  129.7674  133.2255  154.1772 H   0  0  0  0  0  0  0  0  0  0  0  0
  130.0591  132.1822  151.9684 H   0  0  0  0  0  0  0  0  0  0  0  0
  1  2  1  0
  1 30  1  0
  1 31  1  0
  1 32  1  0
  2  3  1  0
  2 33  1  0
  2 34  1  0
  3 29  2  0
  3  4  1  0
  4  5  2  0
  4 35  1  0
  5  6  1  0
  5 36  1  0
  6  7  1  0
  6 28  2  0
  7 26  1  0
  7  8  2  0
  8  9  1  0
  8 37  1  0
  9 10  1  0
  9 11  1  0
 11 12  1  0
 11 26  2  0
 12 13  1  0
 12 38  1  0
 13 14  1  1
 13 15  1  0
 13 23  1  0
 15 16  1  0
 15 39  1  0
 15 40  1  0
 16 17  1  0
 17 22  1  0
 17 18  2  0
 18 19  1  0
 18 41  1  0
 19 20  2  0
 19 42  1  0
 20 21  1  0
 20 43  1  0
 21 22  2  0
 21 44  1  0
 22 45  1  0
 23 24  1  0
 23 25  1  0
 23 46  1  0
 24 47  1  0
 24 48  1  0
 24 49  1  0
 25 50  1  0
 25 51  1  0
 25 52  1  0
 26 27  1  0
 28 29  1  0
 28 53  1  0
 29 54  1  0
M  CHG  1  26   1
M  END
>  <DOCK_score>  (1) 
-60.741467

>  <SMILES>  (1) 
CCc1ccc(-c2c[nH]c(N[C@@H](CSc3ccccc3)C(C)C)[nH+]2)cc1

$$$$
