CCc1ccc(-c2c[nH]c(N[C@@H](CNc3ccc(N)cc3)Cc3ccccc3)[nH+]2)cc1
     RDKit          3D

 61 64  0  0  1  0  0  0  0  0999 V2000
  132.1940  129.5841  152.4808 C   0  0  0  0  0  0  0  0  0  0  0  0
  130.7723  129.6270  153.0443 C   0  0  0  0  0  0  0  0  0  0  0  0
  130.7539  130.4634  154.2978 C   0  0  0  0  0  0  0  0  0  0  0  0
  130.5150  131.8235  154.2151 C   0  0  0  0  0  0  0  0  0  0  0  0
  130.4913  132.5933  155.3603 C   0  0  0  0  0  0  0  0  0  0  0  0
  130.7199  132.0000  156.6005 C   0  0  0  0  0  0  0  0  0  0  0  0
  130.7013  132.8231  157.8344 C   0  0  0  0  0  0  0  0  0  0  0  0
  130.3465  132.3977  159.0722 C   0  0  0  0  0  0  0  0  0  0  0  0
  130.4722  133.4751  159.9151 N   0  0  0  0  0  0  0  0  0  0  0  0
  130.2891  133.4837  160.8677 H   0  0  0  0  0  0  0  0  0  0  0  0
  130.9005  134.5283  159.1671 C   0  0  0  0  0  0  0  0  0  0  0  0
  131.1512  135.8047  159.6407 N   0  0  0  0  0  0  0  0  0  0  0  0
  130.9574  136.1105  161.0603 C   0  0  1  0  0  0  0  0  0  0  0  0
  131.3114  135.2747  161.6636 H   0  0  0  0  0  0  0  0  0  0  0  0
  131.7451  137.3711  161.4226 C   0  0  0  0  0  0  0  0  0  0  0  0
  133.0429  137.3479  160.7433 N   0  0  0  0  0  0  0  0  0  0  0  0
  133.9454  138.4032  160.9220 C   0  0  0  0  0  0  0  0  0  0  0  0
  134.9667  138.6066  160.0035 C   0  0  0  0  0  0  0  0  0  0  0  0
  135.8546  139.6499  160.1778 C   0  0  0  0  0  0  0  0  0  0  0  0
  135.7312  140.4902  161.2768 C   0  0  0  0  0  0  0  0  0  0  0  0
  136.6339  141.5450  161.4563 N   0  0  0  0  0  0  0  0  0  0  0  0
  134.7131  140.2838  162.1975 C   0  0  0  0  0  0  0  0  0  0  0  0
  133.8226  139.2431  162.0209 C   0  0  0  0  0  0  0  0  0  0  0  0
  129.4699  136.3426  161.3334 C   0  0  0  0  0  0  0  0  0  0  0  0
  129.2704  136.6571  162.7936 C   0  0  0  0  0  0  0  0  0  0  0  0
  129.0339  135.6356  163.6945 C   0  0  0  0  0  0  0  0  0  0  0  0
  128.8557  135.9238  165.0348 C   0  0  0  0  0  0  0  0  0  0  0  0
  128.9035  137.2342  165.4724 C   0  0  0  0  0  0  0  0  0  0  0  0
  129.1348  138.2559  164.5706 C   0  0  0  0  0  0  0  0  0  0  0  0
  129.3181  137.9674  163.2312 C   0  0  0  0  0  0  0  0  0  0  0  0
  131.0418  134.1332  157.9254 N   0  0  0  0  0  0  0  0  0  0  0  0
  131.3399  134.6894  157.1887 H   0  0  0  0  0  0  0  0  0  0  0  0
  130.9656  130.6301  156.6772 C   0  0  0  0  0  0  0  0  0  0  0  0
  130.9814  129.8691  155.5261 C   0  0  0  0  0  0  0  0  0  0  0  0
  132.5229  130.5967  152.2468 H   0  0  0  0  0  0  0  0  0  0  0  0
  132.8648  129.1460  153.2198 H   0  0  0  0  0  0  0  0  0  0  0  0
  132.2074  128.9792  151.5740 H   0  0  0  0  0  0  0  0  0  0  0  0
  130.1015  130.0651  152.3052 H   0  0  0  0  0  0  0  0  0  0  0  0
  130.4435  128.6145  153.2783 H   0  0  0  0  0  0  0  0  0  0  0  0
  130.3428  132.2829  153.2531 H   0  0  0  0  0  0  0  0  0  0  0  0
  130.3001  133.6543  155.2951 H   0  0  0  0  0  0  0  0  0  0  0  0
  130.0262  131.4026  159.3433 H   0  0  0  0  0  0  0  0  0  0  0  0
  131.4555  136.4966  159.0327 H   0  0  0  0  0  0  0  0  0  0  0  0
  131.1859  138.2520  161.1079 H   0  0  0  0  0  0  0  0  0  0  0  0
  131.9001  137.4052  162.5010 H   0  0  0  0  0  0  0  0  0  0  0  0
  133.2767  136.6016  160.1696 H   0  0  0  0  0  0  0  0  0  0  0  0
  135.0649  137.9505  159.1511 H   0  0  0  0  0  0  0  0  0  0  0  0
  136.6469  139.8099  159.4616 H   0  0  0  0  0  0  0  0  0  0  0  0
  136.5487  142.1314  162.2234 H   0  0  0  0  0  0  0  0  0  0  0  0
  137.3459  141.6889  160.8124 H   0  0  0  0  0  0  0  0  0  0  0  0
  134.6176  140.9370  163.0523 H   0  0  0  0  0  0  0  0  0  0  0  0
  133.0310  139.0824  162.7378 H   0  0  0  0  0  0  0  0  0  0  0  0
  129.1158  137.1784  160.7299 H   0  0  0  0  0  0  0  0  0  0  0  0
  128.9086  135.4445  161.0752 H   0  0  0  0  0  0  0  0  0  0  0  0
  128.9922  134.6122  163.3521 H   0  0  0  0  0  0  0  0  0  0  0  0
  128.6747  135.1254  165.7393 H   0  0  0  0  0  0  0  0  0  0  0  0
  128.7598  137.4596  166.5188 H   0  0  0  0  0  0  0  0  0  0  0  0
  129.1717  139.2797  164.9124 H   0  0  0  0  0  0  0  0  0  0  0  0
  129.4984  138.7658  162.5266 H   0  0  0  0  0  0  0  0  0  0  0  0
  131.1437  130.1652  157.6356 H   0  0  0  0  0  0  0  0  0  0  0  0
  131.1719  128.8077  155.5842 H   0  0  0  0  0  0  0  0  0  0  0  0
  1  2  1  0
  1 35  1  0
  1 36  1  0
  1 37  1  0
  2  3  1  0
  2 38  1  0
  2 39  1  0
  3 34  2  0
  3  4  1  0
  4  5  2  0
  4 40  1  0
  5  6  1  0
  5 41  1  0
  6  7  1  0
  6 33  2  0
  7 31  1  0
  7  8  2  0
  8  9  1  0
  8 42  1  0
  9 10  1  0
  9 11  1  0
 11 12  1  0
 11 31  2  0
 12 13  1  0
 12 43  1  0
 13 14  1  1
 13 15  1  0
 13 24  1  0
 15 16  1  0
 15 44  1  0
 15 45  1  0
 16 17  1  0
 16 46  1  0
 17 23  1  0
 17 18  2  0
 18 19  1  0
 18 47  1  0
 19 20  2  0
 19 48  1  0
 20 21  1  0
 20 22  1  0
 21 49  1  0
 21 50  1  0
 22 23  2  0
 22 51  1  0
 23 52  1  0
 24 25  1  0
 24 53  1  0
 24 54  1  0
 25 30  1  0
 25 26  2  0
 26 27  1  0
 26 55  1  0
 27 28  2  0
 27 56  1  0
 28 29  1  0
 28 57  1  0
 29 30  2  0
 29 58  1  0
 30 59  1  0
 31 32  1  0
 33 34  1  0
 33 60  1  0
 34 61  1  0
M  CHG  1  31   1
M  END
>  <DOCK_score>  (1) 
-57.78297

>  <SMILES>  (1) 
CCc1ccc(-c2c[nH]c(N[C@@H](CNc3ccc(N)cc3)Cc3ccccc3)[nH+]2)cc1

$$$$
