Cc1nn(-c2ccc(F)cc2)cc1C[NH+]=C(NC=C1NCCCN1)N[C@H]1C=CCC1
     RDKit          3D

 59 62  0  0  1  0  0  0  0  0999 V2000
  134.6796  138.8812  159.1834 C   0  0  0  0  0  0  0  0  0  0  0  0
  134.2471  139.0163  160.6206 C   0  0  0  0  0  0  0  0  0  0  0  0
  134.8000  139.7920  161.5182 N   0  0  0  0  0  0  0  0  0  0  0  0
  134.1069  139.6287  162.7246 N   0  0  0  0  0  0  0  0  0  0  0  0
  134.3873  140.2835  163.9328 C   0  0  0  0  0  0  0  0  0  0  0  0
  133.6124  140.0305  165.0565 C   0  0  0  0  0  0  0  0  0  0  0  0
  133.8933  140.6721  166.2467 C   0  0  0  0  0  0  0  0  0  0  0  0
  134.9406  141.5754  166.3170 C   0  0  0  0  0  0  0  0  0  0  0  0
  135.2108  142.2061  167.4808 F   0  0  0  0  0  0  0  0  0  0  0  0
  135.7111  141.8334  165.1956 C   0  0  0  0  0  0  0  0  0  0  0  0
  135.4365  141.1897  164.0049 C   0  0  0  0  0  0  0  0  0  0  0  0
  133.1160  138.7325  162.5165 C   0  0  0  0  0  0  0  0  0  0  0  0
  133.1854  138.3345  161.2249 C   0  0  0  0  0  0  0  0  0  0  0  0
  132.2757  137.3378  160.5543 C   0  0  0  0  0  0  0  0  0  0  0  0
  130.8862  137.6191  160.9239 N   0  0  0  0  0  0  0  0  0  0  0  0
  130.6824  138.3585  161.5176 H   0  0  0  0  0  0  0  0  0  0  0  0
  129.9228  136.8748  160.4542 C   0  0  0  0  0  0  0  0  0  0  0  0
  128.7785  136.6884  161.1898 N   0  0  0  0  0  0  0  0  0  0  0  0
  128.6446  137.3017  162.4534 C   0  0  0  0  0  0  0  0  0  0  0  0
  127.5344  137.1210  163.1670 C   0  0  0  0  0  0  0  0  0  0  0  0
  126.4662  136.3302  162.6966 N   0  0  0  0  0  0  0  0  0  0  0  0
  125.8157  135.4347  163.6722 C   0  0  0  0  0  0  0  0  0  0  0  0
  125.4703  136.2449  164.9262 C   0  0  0  0  0  0  0  0  0  0  0  0
  126.7452  136.8857  165.4853 C   0  0  0  0  0  0  0  0  0  0  0  0
  127.3577  137.7141  164.4339 N   0  0  0  0  0  0  0  0  0  0  0  0
  130.0536  136.2767  159.2219 N   0  0  0  0  0  0  0  0  0  0  0  0
  128.9718  135.4411  158.6948 C   0  0  1  0  0  0  0  0  0  0  0  0
  128.0085  135.7881  159.0684 H   0  0  0  0  0  0  0  0  0  0  0  0
  128.9848  135.4504  157.1839 C   0  0  0  0  0  0  0  0  0  0  0  0
  129.5083  134.3519  156.7116 C   0  0  0  0  0  0  0  0  0  0  0  0
  129.9315  133.4259  157.8290 C   0  0  0  0  0  0  0  0  0  0  0  0
  129.1978  133.9608  159.0807 C   0  0  0  0  0  0  0  0  0  0  0  0
  134.1452  139.6094  158.5732 H   0  0  0  0  0  0  0  0  0  0  0  0
  135.7520  139.0613  159.1080 H   0  0  0  0  0  0  0  0  0  0  0  0
  134.4544  137.8752  158.8290 H   0  0  0  0  0  0  0  0  0  0  0  0
  132.7926  139.3294  165.0011 H   0  0  0  0  0  0  0  0  0  0  0  0
  133.2931  140.4728  167.1221 H   0  0  0  0  0  0  0  0  0  0  0  0
  136.5276  142.5382  165.2522 H   0  0  0  0  0  0  0  0  0  0  0  0
  136.0374  141.3914  163.1305 H   0  0  0  0  0  0  0  0  0  0  0  0
  132.3998  138.3931  163.2501 H   0  0  0  0  0  0  0  0  0  0  0  0
  132.5404  136.3306  160.8756 H   0  0  0  0  0  0  0  0  0  0  0  0
  132.3867  137.4150  159.4727 H   0  0  0  0  0  0  0  0  0  0  0  0
  128.0623  136.1352  160.8409 H   0  0  0  0  0  0  0  0  0  0  0  0
  129.4420  137.9177  162.8420 H   0  0  0  0  0  0  0  0  0  0  0  0
  126.1743  136.3731  161.7726 H   0  0  0  0  0  0  0  0  0  0  0  0
  126.4936  134.6231  163.9366 H   0  0  0  0  0  0  0  0  0  0  0  0
  124.9034  135.0254  163.2386 H   0  0  0  0  0  0  0  0  0  0  0  0
  125.0356  135.5852  165.6770 H   0  0  0  0  0  0  0  0  0  0  0  0
  124.7539  137.0252  164.6690 H   0  0  0  0  0  0  0  0  0  0  0  0
  127.4433  136.1057  165.7892 H   0  0  0  0  0  0  0  0  0  0  0  0
  126.4947  137.5099  166.3431 H   0  0  0  0  0  0  0  0  0  0  0  0
  127.6288  138.6296  164.6055 H   0  0  0  0  0  0  0  0  0  0  0  0
  130.8620  136.4084  158.7024 H   0  0  0  0  0  0  0  0  0  0  0  0
  128.6097  136.2595  156.5747 H   0  0  0  0  0  0  0  0  0  0  0  0
  129.6238  134.1330  155.6604 H   0  0  0  0  0  0  0  0  0  0  0  0
  131.0109  133.4728  157.9726 H   0  0  0  0  0  0  0  0  0  0  0  0
  129.6201  132.4037  157.6143 H   0  0  0  0  0  0  0  0  0  0  0  0
  129.8264  133.8792  159.9674 H   0  0  0  0  0  0  0  0  0  0  0  0
  128.2486  133.4455  159.2279 H   0  0  0  0  0  0  0  0  0  0  0  0
  1  2  1  0
  1 33  1  0
  1 34  1  0
  1 35  1  0
  2 13  1  0
  2  3  2  0
  3  4  1  0
  4  5  1  0
  4 12  1  0
  5 11  1  0
  5  6  2  0
  6  7  1  0
  6 36  1  0
  7  8  2  0
  7 37  1  0
  8  9  1  0
  8 10  1  0
 10 11  2  0
 10 38  1  0
 11 39  1  0
 12 13  2  0
 12 40  1  0
 13 14  1  0
 14 15  1  0
 14 41  1  0
 14 42  1  0
 15 16  1  0
 17 15  2  0
 17 18  1  0
 17 26  1  0
 18 19  1  0
 18 43  1  0
 19 20  2  0
 19 44  1  0
 20 25  1  0
 20 21  1  0
 21 22  1  0
 21 45  1  0
 22 23  1  0
 22 46  1  0
 22 47  1  0
 23 24  1  0
 23 48  1  0
 23 49  1  0
 24 25  1  0
 24 50  1  0
 24 51  1  0
 25 52  1  0
 26 27  1  0
 26 53  1  0
 27 28  1  6
 27 32  1  0
 27 29  1  0
 29 30  2  0
 29 54  1  0
 30 31  1  0
 30 55  1  0
 31 32  1  0
 31 56  1  0
 31 57  1  0
 32 58  1  0
 32 59  1  0
M  CHG  1  15   1
M  END
>  <DOCK_score>  (1) 
-41.170795

>  <SMILES>  (1) 
Cc1nn(-c2ccc(F)cc2)cc1C[NH+]=C(NC=C1NCCCN1)N[C@H]1C=CCC1

$$$$
