FC[C@H](Nc1[nH]cc(-c2ccc(F)cc2)[nH+]1)c1ccccc1-c1cccc2cc[nH]c12
     RDKit          3D

 52 56  0  0  1  0  0  0  0  0999 V2000
  129.6839  132.9889  161.1288 F   0  0  0  0  0  0  0  0  0  0  0  0
  130.3019  134.2339  161.2866 C   0  0  0  0  0  0  0  0  0  0  0  0
  129.6434  135.2520  160.3534 C   0  0  2  0  0  0  0  0  0  0  0  0
  128.5655  135.0906  160.3421 H   0  0  0  0  0  0  0  0  0  0  0  0
  130.1758  135.0883  158.9984 N   0  0  0  0  0  0  0  0  0  0  0  0
  130.0251  133.8816  158.3366 C   0  0  0  0  0  0  0  0  0  0  0  0
  129.4000  132.7788  158.8315 N   0  0  0  0  0  0  0  0  0  0  0  0
  128.9838  132.6972  159.7038 H   0  0  0  0  0  0  0  0  0  0  0  0
  129.4679  131.8020  157.8673 C   0  0  0  0  0  0  0  0  0  0  0  0
  130.1317  132.3358  156.8124 C   0  0  0  0  0  0  0  0  0  0  0  0
  130.4430  131.6455  155.5368 C   0  0  0  0  0  0  0  0  0  0  0  0
  129.9530  132.1477  154.3326 C   0  0  0  0  0  0  0  0  0  0  0  0
  130.2494  131.5053  153.1480 C   0  0  0  0  0  0  0  0  0  0  0  0
  131.0230  130.3565  153.1553 C   0  0  0  0  0  0  0  0  0  0  0  0
  131.3061  129.7278  151.9935 F   0  0  0  0  0  0  0  0  0  0  0  0
  131.5082  129.8505  154.3507 C   0  0  0  0  0  0  0  0  0  0  0  0
  131.2215  130.4895  155.5396 C   0  0  0  0  0  0  0  0  0  0  0  0
  130.4561  133.6149  157.1278 N   0  0  0  0  0  0  0  0  0  0  0  0
  130.9329  134.2326  156.5516 H   0  0  0  0  0  0  0  0  0  0  0  0
  129.9374  136.6464  160.8435 C   0  0  0  0  0  0  0  0  0  0  0  0
  131.0616  137.3127  160.3993 C   0  0  0  0  0  0  0  0  0  0  0  0
  131.3303  138.5942  160.8449 C   0  0  0  0  0  0  0  0  0  0  0  0
  130.4803  139.2119  161.7449 C   0  0  0  0  0  0  0  0  0  0  0  0
  129.3564  138.5532  162.2000 C   0  0  0  0  0  0  0  0  0  0  0  0
  129.0778  137.2634  161.7506 C   0  0  0  0  0  0  0  0  0  0  0  0
  127.8718  136.5503  162.2362 C   0  0  0  0  0  0  0  0  0  0  0  0
  126.8952  136.1383  161.3379 C   0  0  0  0  0  0  0  0  0  0  0  0
  125.7682  135.4664  161.7828 C   0  0  0  0  0  0  0  0  0  0  0  0
  125.5925  135.2063  163.1240 C   0  0  0  0  0  0  0  0  0  0  0  0
  126.5589  135.6166  164.0455 C   0  0  0  0  0  0  0  0  0  0  0  0
  126.6871  135.5077  165.5010 C   0  0  0  0  0  0  0  0  0  0  0  0
  127.8467  136.0948  165.8368 C   0  0  0  0  0  0  0  0  0  0  0  0
  128.4699  136.5700  164.7154 N   0  0  0  0  0  0  0  0  0  0  0  0
  129.3223  137.0329  164.7056 H   0  0  0  0  0  0  0  0  0  0  0  0
  127.7086  136.2937  163.6042 C   0  0  0  0  0  0  0  0  0  0  0  0
  131.3604  134.1478  161.0413 H   0  0  0  0  0  0  0  0  0  0  0  0
  130.1939  134.5648  162.3195 H   0  0  0  0  0  0  0  0  0  0  0  0
  130.6303  135.8266  158.5634 H   0  0  0  0  0  0  0  0  0  0  0  0
  129.0683  130.8010  157.9364 H   0  0  0  0  0  0  0  0  0  0  0  0
  129.3456  133.0407  154.3262 H   0  0  0  0  0  0  0  0  0  0  0  0
  129.8737  131.8962  152.2139 H   0  0  0  0  0  0  0  0  0  0  0  0
  132.1111  128.9544  154.3519 H   0  0  0  0  0  0  0  0  0  0  0  0
  131.6003  130.0948  156.4708 H   0  0  0  0  0  0  0  0  0  0  0  0
  131.7305  136.8340  159.6994 H   0  0  0  0  0  0  0  0  0  0  0  0
  132.2089  139.1134  160.4915 H   0  0  0  0  0  0  0  0  0  0  0  0
  130.6972  140.2112  162.0925 H   0  0  0  0  0  0  0  0  0  0  0  0
  128.6940  139.0361  162.9031 H   0  0  0  0  0  0  0  0  0  0  0  0
  127.0177  136.3395  160.2839 H   0  0  0  0  0  0  0  0  0  0  0  0
  125.0194  135.1476  161.0727 H   0  0  0  0  0  0  0  0  0  0  0  0
  124.7087  134.6862  163.4627 H   0  0  0  0  0  0  0  0  0  0  0  0
  125.9829  135.0430  166.1752 H   0  0  0  0  0  0  0  0  0  0  0  0
  128.2307  136.1790  166.8428 H   0  0  0  0  0  0  0  0  0  0  0  0
  1  2  1  0
  2  3  1  0
  2 36  1  0
  2 37  1  0
  3  4  1  6
  3  5  1  0
  3 20  1  0
  5 38  1  0
  6  5  1  0
  6 18  2  0
  6  7  1  0
  7  8  1  0
  7  9  1  0
  9 10  2  0
  9 39  1  0
 10 11  1  0
 10 18  1  0
 11 17  1  0
 11 12  2  0
 12 13  1  0
 12 40  1  0
 13 14  2  0
 13 41  1  0
 14 15  1  0
 14 16  1  0
 16 17  2  0
 16 42  1  0
 17 43  1  0
 18 19  1  0
 20 25  1  0
 20 21  2  0
 21 22  1  0
 21 44  1  0
 22 23  2  0
 22 45  1  0
 23 24  1  0
 23 46  1  0
 24 25  2  0
 24 47  1  0
 25 26  1  0
 26 35  1  0
 26 27  2  0
 27 28  1  0
 27 48  1  0
 28 29  2  0
 28 49  1  0
 29 30  1  0
 29 50  1  0
 30 35  2  0
 30 31  1  0
 31 32  2  0
 31 51  1  0
 32 33  1  0
 32 52  1  0
 33 34  1  0
 33 35  1  0
M  CHG  1  18   1
M  END
>  <DOCK_score>  (1) 
-57.543736

>  <SMILES>  (1) 
FC[C@H](Nc1[nH]cc(-c2ccc(F)cc2)[nH+]1)c1ccccc1-c1cccc2cc[nH]c12

$$$$
