c1ccc(CNc2ccc(-c3n[nH]cc3C[NH2+]CC3CC4C[C@@H]4C3)o2)cc1
     RDKit          3D

 54 58  0  0  1  0  0  0  0  0999 V2000
  127.2317  136.8084  166.9856 C   0  0  0  0  0  0  0  0  0  0  0  0
  127.2955  138.0555  166.3927 C   0  0  0  0  0  0  0  0  0  0  0  0
  127.2399  138.1702  165.0163 C   0  0  0  0  0  0  0  0  0  0  0  0
  127.1202  137.0377  164.2327 C   0  0  0  0  0  0  0  0  0  0  0  0
  127.0590  137.1628  162.7320 C   0  0  0  0  0  0  0  0  0  0  0  0
  126.2541  136.0686  162.1835 N   0  0  0  0  0  0  0  0  0  0  0  0
  126.8200  135.1733  161.2832 C   0  0  0  0  0  0  0  0  0  0  0  0
  126.1854  134.1229  160.7054 C   0  0  0  0  0  0  0  0  0  0  0  0
  127.1212  133.4895  159.8641 C   0  0  0  0  0  0  0  0  0  0  0  0
  128.2849  134.1825  159.9774 C   0  0  0  0  0  0  0  0  0  0  0  0
  129.5472  133.8754  159.2736 C   0  0  0  0  0  0  0  0  0  0  0  0
  129.7428  132.8834  158.4274 N   0  0  0  0  0  0  0  0  0  0  0  0
  131.0708  132.9438  157.9864 N   0  0  0  0  0  0  0  0  0  0  0  0
  131.4897  132.3355  157.3576 H   0  0  0  0  0  0  0  0  0  0  0  0
  131.6659  133.9991  158.5836 C   0  0  0  0  0  0  0  0  0  0  0  0
  130.7574  134.5914  159.3878 C   0  0  0  0  0  0  0  0  0  0  0  0
  130.9924  135.8056  160.2491 C   0  0  0  0  0  0  0  0  0  0  0  0
  132.3814  136.2568  160.0908 N   0  0  0  0  0  0  0  0  0  0  0  0
  133.0091  135.5184  160.3718 H   0  0  0  0  0  0  0  0  0  0  0  0
  132.5505  136.4921  159.1243 H   0  0  0  0  0  0  0  0  0  0  0  0
  132.6106  137.4403  160.9303 C   0  0  0  0  0  0  0  0  0  0  0  0
  134.0572  137.9102  160.7653 C   0  0  2  0  0  0  0  0  0  0  0  0
  134.4312  138.9328  161.8669 C   0  0  0  0  0  0  0  0  0  0  0  0
  135.5951  139.7395  161.2549 C   0  0  2  0  0  0  0  0  0  0  0  0
  135.2565  140.9678  160.4080 C   0  0  0  0  0  0  0  0  0  0  0  0
  135.4619  139.6131  159.7272 C   0  0  2  0  0  0  0  0  0  0  0  0
  136.3271  139.4668  159.0805 H   0  0  0  0  0  0  0  0  0  0  0  0
  134.2218  138.7342  159.4641 C   0  0  0  0  0  0  0  0  0  0  0  0
  128.0878  135.2029  160.8386 O   0  0  0  0  0  0  0  0  0  0  0  0
  127.0510  135.7909  164.8258 C   0  0  0  0  0  0  0  0  0  0  0  0
  127.1121  135.6758  166.2020 C   0  0  0  0  0  0  0  0  0  0  0  0
  127.2750  136.7188  168.0610 H   0  0  0  0  0  0  0  0  0  0  0  0
  127.3887  138.9403  167.0050 H   0  0  0  0  0  0  0  0  0  0  0  0
  127.2895  139.1446  164.5532 H   0  0  0  0  0  0  0  0  0  0  0  0
  128.0675  137.1132  162.3218 H   0  0  0  0  0  0  0  0  0  0  0  0
  126.6047  138.1171  162.4653 H   0  0  0  0  0  0  0  0  0  0  0  0
  125.3264  135.9686  162.4486 H   0  0  0  0  0  0  0  0  0  0  0  0
  125.1571  133.8302  160.8583 H   0  0  0  0  0  0  0  0  0  0  0  0
  126.9479  132.6188  159.2489 H   0  0  0  0  0  0  0  0  0  0  0  0
  132.6899  134.3126  158.4442 H   0  0  0  0  0  0  0  0  0  0  0  0
  130.8098  135.5512  161.2932 H   0  0  0  0  0  0  0  0  0  0  0  0
  130.3144  136.6032  159.9455 H   0  0  0  0  0  0  0  0  0  0  0  0
  131.9325  138.2379  160.6266 H   0  0  0  0  0  0  0  0  0  0  0  0
  132.4279  137.1861  161.9744 H   0  0  0  0  0  0  0  0  0  0  0  0
  134.7410  137.0613  160.7741 H   0  0  0  0  0  0  0  0  0  0  0  0
  133.5862  139.5865  162.0834 H   0  0  0  0  0  0  0  0  0  0  0  0
  134.7576  138.4179  162.7705 H   0  0  0  0  0  0  0  0  0  0  0  0
  136.5664  139.6814  161.7460 H   0  0  0  0  0  0  0  0  0  0  0  0
  136.0357  141.7189  160.2780 H   0  0  0  0  0  0  0  0  0  0  0  0
  134.2383  141.3525  160.4653 H   0  0  0  0  0  0  0  0  0  0  0  0
  134.3953  138.0742  158.6141 H   0  0  0  0  0  0  0  0  0  0  0  0
  133.3420  139.3540  159.2912 H   0  0  0  0  0  0  0  0  0  0  0  0
  126.9531  134.9065  164.2136 H   0  0  0  0  0  0  0  0  0  0  0  0
  127.0619  134.7015  166.6652 H   0  0  0  0  0  0  0  0  0  0  0  0
  1 31  2  0
  1  2  1  0
  1 32  1  0
  2  3  2  0
  2 33  1  0
  3  4  1  0
  3 34  1  0
  4  5  1  0
  4 30  2  0
  5  6  1  0
  5 35  1  0
  5 36  1  0
  6  7  1  0
  6 37  1  0
  7 29  1  0
  7  8  2  0
  8  9  1  0
  8 38  1  0
  9 10  2  0
  9 39  1  0
 10 11  1  0
 10 29  1  0
 11 16  1  0
 11 12  2  0
 12 13  1  0
 13 14  1  0
 13 15  1  0
 15 16  2  0
 15 40  1  0
 16 17  1  0
 17 18  1  0
 17 41  1  0
 17 42  1  0
 18 19  1  0
 18 20  1  0
 18 21  1  0
 21 22  1  0
 21 43  1  0
 21 44  1  0
 22 28  1  0
 22 23  1  0
 22 45  1  6
 23 24  1  0
 23 46  1  0
 23 47  1  0
 24 26  1  0
 24 25  1  0
 24 48  1  1
 25 26  1  0
 25 49  1  0
 25 50  1  0
 26 27  1  6
 26 28  1  0
 28 51  1  0
 28 52  1  0
 30 31  1  0
 30 53  1  0
 31 54  1  0
M  CHG  1  18   1
M  END
>  <DOCK_score>  (1) 
-45.559753

>  <SMILES>  (1) 
c1ccc(CNc2ccc(-c3n[nH]cc3C[NH2+]CC3CC4C[C@@H]4C3)o2)cc1

$$$$
