NCCN1CC[NH+]=C1NCc1ccc(Nc2cccc(OC3=CCC3)c2)cc1
     RDKit          3D

 56 59  0  0  1  0  0  0  0  0999 V2000
  131.5810  131.7703  158.9827 N   0  0  0  0  0  0  0  0  0  0  0  0
  131.4095  130.3963  158.4925 C   0  0  0  0  0  0  0  0  0  0  0  0
  130.1744  130.3264  157.5921 C   0  0  0  0  0  0  0  0  0  0  0  0
  130.3477  131.2327  156.4542 N   0  0  0  0  0  0  0  0  0  0  0  0
  130.9556  130.8835  155.1594 C   0  0  0  0  0  0  0  0  0  0  0  0
  130.8736  132.2010  154.3631 C   0  0  0  0  0  0  0  0  0  0  0  0
  130.2320  133.1398  155.2939 N   0  0  0  0  0  0  0  0  0  0  0  0
  130.0322  134.0683  155.0970 H   0  0  0  0  0  0  0  0  0  0  0  0
  129.9724  132.5473  156.4137 C   0  0  0  0  0  0  0  0  0  0  0  0
  129.3657  133.1831  157.4710 N   0  0  0  0  0  0  0  0  0  0  0  0
  128.9897  134.5946  157.3590 C   0  0  0  0  0  0  0  0  0  0  0  0
  128.3473  135.0468  158.6450 C   0  0  0  0  0  0  0  0  0  0  0  0
  128.7142  136.2534  159.2125 C   0  0  0  0  0  0  0  0  0  0  0  0
  128.1240  136.6730  160.3883 C   0  0  0  0  0  0  0  0  0  0  0  0
  127.1685  135.8765  161.0069 C   0  0  0  0  0  0  0  0  0  0  0  0
  126.5729  136.2956  162.1992 N   0  0  0  0  0  0  0  0  0  0  0  0
  127.3609  136.5302  163.3289 C   0  0  0  0  0  0  0  0  0  0  0  0
  126.9672  137.4766  164.2675 C   0  0  0  0  0  0  0  0  0  0  0  0
  127.7462  137.7083  165.3843 C   0  0  0  0  0  0  0  0  0  0  0  0
  128.9185  137.0005  165.5716 C   0  0  0  0  0  0  0  0  0  0  0  0
  129.3166  136.0538  164.6379 C   0  0  0  0  0  0  0  0  0  0  0  0
  130.4688  135.3581  164.8239 O   0  0  0  0  0  0  0  0  0  0  0  0
  131.6145  135.8754  164.3141 C   0  0  0  0  0  0  0  0  0  0  0  0
  132.8549  135.4661  164.3191 C   0  0  0  0  0  0  0  0  0  0  0  0
  133.3616  136.6463  163.5470 C   0  0  0  0  0  0  0  0  0  0  0  0
  131.9144  137.1202  163.5354 C   0  0  0  0  0  0  0  0  0  0  0  0
  128.5348  135.8141  163.5182 C   0  0  0  0  0  0  0  0  0  0  0  0
  126.8062  134.6625  160.4370 C   0  0  0  0  0  0  0  0  0  0  0  0
  127.3965  134.2515  159.2581 C   0  0  0  0  0  0  0  0  0  0  0  0
  130.7509  132.0908  159.4585 H   0  0  0  0  0  0  0  0  0  0  0  0
  132.3908  131.8428  159.5801 H   0  0  0  0  0  0  0  0  0  0  0  0
  131.2805  129.7219  159.3391 H   0  0  0  0  0  0  0  0  0  0  0  0
  132.2910  130.1007  157.9236 H   0  0  0  0  0  0  0  0  0  0  0  0
  129.2928  130.6218  158.1610 H   0  0  0  0  0  0  0  0  0  0  0  0
  130.0471  129.3068  157.2284 H   0  0  0  0  0  0  0  0  0  0  0  0
  131.9935  130.5780  155.2917 H   0  0  0  0  0  0  0  0  0  0  0  0
  130.3846  130.0969  154.6661 H   0  0  0  0  0  0  0  0  0  0  0  0
  131.8716  132.5492  154.0966 H   0  0  0  0  0  0  0  0  0  0  0  0
  130.2643  132.0697  153.4689 H   0  0  0  0  0  0  0  0  0  0  0  0
  129.1865  132.6970  158.2910 H   0  0  0  0  0  0  0  0  0  0  0  0
  129.8799  135.1936  157.1673 H   0  0  0  0  0  0  0  0  0  0  0  0
  128.2844  134.7187  156.5373 H   0  0  0  0  0  0  0  0  0  0  0  0
  129.4603  136.8700  158.7335 H   0  0  0  0  0  0  0  0  0  0  0  0
  128.4083  137.6171  160.8290 H   0  0  0  0  0  0  0  0  0  0  0  0
  125.6124  136.4240  162.2426 H   0  0  0  0  0  0  0  0  0  0  0  0
  126.0516  138.0308  164.1239 H   0  0  0  0  0  0  0  0  0  0  0  0
  127.4386  138.4440  166.1128 H   0  0  0  0  0  0  0  0  0  0  0  0
  129.5254  137.1841  166.4459 H   0  0  0  0  0  0  0  0  0  0  0  0
  133.3398  134.5933  164.7310 H   0  0  0  0  0  0  0  0  0  0  0  0
  134.0345  137.2882  164.1157 H   0  0  0  0  0  0  0  0  0  0  0  0
  133.7475  136.3933  162.5596 H   0  0  0  0  0  0  0  0  0  0  0  0
  131.4650  137.1371  162.5425 H   0  0  0  0  0  0  0  0  0  0  0  0
  131.7480  138.0404  164.0953 H   0  0  0  0  0  0  0  0  0  0  0  0
  128.8408  135.0752  162.7926 H   0  0  0  0  0  0  0  0  0  0  0  0
  126.0634  134.0410  160.9149 H   0  0  0  0  0  0  0  0  0  0  0  0
  127.1155  133.3076  158.8147 H   0  0  0  0  0  0  0  0  0  0  0  0
  1  2  1  0
  1 30  1  0
  1 31  1  0
  2  3  1  0
  2 32  1  0
  2 33  1  0
  3  4  1  0
  3 34  1  0
  3 35  1  0
  4  9  1  0
  4  5  1  0
  5  6  1  0
  5 36  1  0
  5 37  1  0
  6  7  1  0
  6 38  1  0
  6 39  1  0
  7  8  1  0
  7  9  2  0
  9 10  1  0
 10 11  1  0
 10 40  1  0
 11 12  1  0
 11 41  1  0
 11 42  1  0
 12 29  1  0
 12 13  2  0
 13 14  1  0
 13 43  1  0
 14 15  2  0
 14 44  1  0
 15 16  1  0
 15 28  1  0
 16 17  1  0
 16 45  1  0
 17 27  1  0
 17 18  2  0
 18 19  1  0
 18 46  1  0
 19 20  2  0
 19 47  1  0
 20 21  1  0
 20 48  1  0
 21 22  1  0
 21 27  2  0
 22 23  1  0
 23 26  1  0
 23 24  2  0
 24 25  1  0
 24 49  1  0
 25 26  1  0
 25 50  1  0
 25 51  1  0
 26 52  1  0
 26 53  1  0
 27 54  1  0
 28 29  2  0
 28 55  1  0
 29 56  1  0
M  CHG  1   7   1
M  END
>  <DOCK_score>  (1) 
-44.447086

>  <SMILES>  (1) 
NCCN1CC[NH+]=C1NCc1ccc(Nc2cccc(OC3=CCC3)c2)cc1

$$$$
