Fc1ccc([C@@H](Nc2[nH]cc(-c3ccc(C4CC=CC4)cc3)[nH+]2)C2CC2)cc1
     RDKit          3D

 53 57  0  0  1  0  0  0  0  0999 V2000
  124.0938  135.3210  160.3523 F   0  0  0  0  0  0  0  0  0  0  0  0
  125.4403  135.4303  160.3561 C   0  0  0  0  0  0  0  0  0  0  0  0
  126.1539  135.1627  161.5122 C   0  0  0  0  0  0  0  0  0  0  0  0
  127.5313  135.2752  161.5150 C   0  0  0  0  0  0  0  0  0  0  0  0
  128.1967  135.6551  160.3643 C   0  0  0  0  0  0  0  0  0  0  0  0
  129.6986  135.7780  160.3688 C   0  0  1  0  0  0  0  0  0  0  0  0
  130.1189  135.0706  161.0837 H   0  0  0  0  0  0  0  0  0  0  0  0
  130.2166  135.4850  159.0300 N   0  0  0  0  0  0  0  0  0  0  0  0
  129.9840  134.2482  158.4532 C   0  0  0  0  0  0  0  0  0  0  0  0
  129.2969  133.2228  159.0264 N   0  0  0  0  0  0  0  0  0  0  0  0
  128.8828  133.2280  159.9035 H   0  0  0  0  0  0  0  0  0  0  0  0
  129.2985  132.1787  158.1337 C   0  0  0  0  0  0  0  0  0  0  0  0
  129.9858  132.5958  157.0416 C   0  0  0  0  0  0  0  0  0  0  0  0
  130.2453  131.7998  155.8171 C   0  0  0  0  0  0  0  0  0  0  0  0
  129.7781  132.2447  154.5817 C   0  0  0  0  0  0  0  0  0  0  0  0
  130.0277  131.5031  153.4447 C   0  0  0  0  0  0  0  0  0  0  0  0
  130.7299  130.3141  153.5316 C   0  0  0  0  0  0  0  0  0  0  0  0
  130.9935  129.5055  152.2876 C   0  0  0  0  0  0  0  0  0  0  0  0
  129.7785  129.5451  151.3320 C   0  0  0  0  0  0  0  0  0  0  0  0
  129.7110  128.1559  150.7398 C   0  0  0  0  0  0  0  0  0  0  0  0
  130.4198  127.3118  151.4387 C   0  0  0  0  0  0  0  0  0  0  0  0
  131.0781  127.9965  152.6140 C   0  0  0  0  0  0  0  0  0  0  0  0
  131.1907  129.8651  154.7558 C   0  0  0  0  0  0  0  0  0  0  0  0
  130.9523  130.6014  155.8985 C   0  0  0  0  0  0  0  0  0  0  0  0
  130.3941  133.8697  157.2672 N   0  0  0  0  0  0  0  0  0  0  0  0
  130.9078  134.4136  156.6497 H   0  0  0  0  0  0  0  0  0  0  0  0
  130.0927  137.2015  160.7678 C   0  0  0  0  0  0  0  0  0  0  0  0
  130.2796  138.2237  159.6450 C   0  0  0  0  0  0  0  0  0  0  0  0
  131.4977  137.6771  160.3923 C   0  0  0  0  0  0  0  0  0  0  0  0
  127.4849  135.9279  159.2110 C   0  0  0  0  0  0  0  0  0  0  0  0
  126.1078  135.8102  159.2041 C   0  0  0  0  0  0  0  0  0  0  0  0
  125.6343  134.8667  162.4115 H   0  0  0  0  0  0  0  0  0  0  0  0
  128.0881  135.0666  162.4166 H   0  0  0  0  0  0  0  0  0  0  0  0
  130.7226  136.1577  158.5479 H   0  0  0  0  0  0  0  0  0  0  0  0
  128.8397  131.2112  158.2745 H   0  0  0  0  0  0  0  0  0  0  0  0
  129.2258  133.1702  154.5134 H   0  0  0  0  0  0  0  0  0  0  0  0
  129.6707  131.8495  152.4861 H   0  0  0  0  0  0  0  0  0  0  0  0
  131.8979  129.8485  151.7851 H   0  0  0  0  0  0  0  0  0  0  0  0
  128.8664  129.7662  151.8863 H   0  0  0  0  0  0  0  0  0  0  0  0
  129.9362  130.2856  150.5477 H   0  0  0  0  0  0  0  0  0  0  0  0
  129.1502  127.8962  149.8541 H   0  0  0  0  0  0  0  0  0  0  0  0
  130.5229  126.2619  151.2072 H   0  0  0  0  0  0  0  0  0  0  0  0
  132.1189  127.6845  152.7010 H   0  0  0  0  0  0  0  0  0  0  0  0
  130.5382  127.7763  153.5349 H   0  0  0  0  0  0  0  0  0  0  0  0
  131.7388  128.9365  154.8177 H   0  0  0  0  0  0  0  0  0  0  0  0
  131.3132  130.2500  156.8539 H   0  0  0  0  0  0  0  0  0  0  0  0
  129.6757  137.5582  161.7095 H   0  0  0  0  0  0  0  0  0  0  0  0
  130.1217  137.8824  158.6221 H   0  0  0  0  0  0  0  0  0  0  0  0
  129.9852  139.2535  159.8478 H   0  0  0  0  0  0  0  0  0  0  0  0
  132.0045  138.3470  161.0867 H   0  0  0  0  0  0  0  0  0  0  0  0
  132.1411  136.9758  159.8608 H   0  0  0  0  0  0  0  0  0  0  0  0
  128.0053  136.2292  158.3140 H   0  0  0  0  0  0  0  0  0  0  0  0
  125.5523  136.0193  158.3019 H   0  0  0  0  0  0  0  0  0  0  0  0
  1  2  1  0
  2 31  2  0
  2  3  1  0
  3  4  2  0
  3 32  1  0
  4  5  1  0
  4 33  1  0
  5  6  1  0
  5 30  2  0
  6  7  1  1
  6  8  1  0
  6 27  1  0
  8 34  1  0
  9  8  1  0
  9 25  2  0
  9 10  1  0
 10 11  1  0
 10 12  1  0
 12 13  2  0
 12 35  1  0
 13 14  1  0
 13 25  1  0
 14 24  1  0
 14 15  2  0
 15 16  1  0
 15 36  1  0
 16 17  2  0
 16 37  1  0
 17 18  1  0
 17 23  1  0
 18 22  1  0
 18 19  1  0
 18 38  1  0
 19 20  1  0
 19 39  1  0
 19 40  1  0
 20 21  2  0
 20 41  1  0
 21 22  1  0
 21 42  1  0
 22 43  1  0
 22 44  1  0
 23 24  2  0
 23 45  1  0
 24 46  1  0
 25 26  1  0
 27 29  1  0
 27 28  1  0
 27 47  1  0
 28 29  1  0
 28 48  1  0
 28 49  1  0
 29 50  1  0
 29 51  1  0
 30 31  1  0
 30 52  1  0
 31 53  1  0
M  CHG  1  25   1
M  END
>  <DOCK_score>  (1) 
-59.526245

>  <SMILES>  (1) 
Fc1ccc([C@@H](Nc2[nH]cc(-c3ccc(C4CC=CC4)cc3)[nH+]2)C2CC2)cc1

$$$$
