O=C1CC[C@H](NC(NC2CC=CC2)=[NH+][C@H]2COc3cc(C#Cc4ccccc4)ccc3C2)CN1
     RDKit          3D

 65 69  0  0  1  0  0  0  0  0999 V2000
  123.8306  133.6564  161.1472 O   0  0  0  0  0  0  0  0  0  0  0  0
  124.9949  133.9189  160.9317 C   0  0  0  0  0  0  0  0  0  0  0  0
  125.8439  132.8815  160.2547 C   0  0  0  0  0  0  0  0  0  0  0  0
  127.3256  133.2043  160.4628 C   0  0  0  0  0  0  0  0  0  0  0  0
  127.5534  134.6805  160.1157 C   0  0  2  0  0  0  0  0  0  0  0  0
  127.1500  134.8897  159.1249 H   0  0  0  0  0  0  0  0  0  0  0  0
  128.9884  134.9747  160.1377 N   0  0  0  0  0  0  0  0  0  0  0  0
  129.8412  134.3019  159.2948 C   0  0  0  0  0  0  0  0  0  0  0  0
  129.3909  133.8542  158.0753 N   0  0  0  0  0  0  0  0  0  0  0  0
  130.2995  133.1373  157.1772 C   0  0  0  0  0  0  0  0  0  0  0  0
  129.8059  133.2108  155.7136 C   0  0  0  0  0  0  0  0  0  0  0  0
  130.1304  131.8543  155.1309 C   0  0  0  0  0  0  0  0  0  0  0  0
  130.3747  130.9840  156.0726 C   0  0  0  0  0  0  0  0  0  0  0  0
  130.2531  131.6143  157.4405 C   0  0  0  0  0  0  0  0  0  0  0  0
  131.0764  134.0885  159.6517 N   0  0  0  0  0  0  0  0  0  0  0  0
  131.6781  133.6139  159.0571 H   0  0  0  0  0  0  0  0  0  0  0  0
  131.5562  134.5657  160.9512 C   0  0  1  0  0  0  0  0  0  0  0  0
  131.4525  135.6494  161.0057 H   0  0  0  0  0  0  0  0  0  0  0  0
  130.7423  133.9113  162.0749 C   0  0  0  0  0  0  0  0  0  0  0  0
  131.1616  134.4721  163.3195 O   0  0  0  0  0  0  0  0  0  0  0  0
  132.4950  134.5293  163.5744 C   0  0  0  0  0  0  0  0  0  0  0  0
  132.9078  134.7285  164.8850 C   0  0  0  0  0  0  0  0  0  0  0  0
  134.2675  134.8028  165.1864 C   0  0  0  0  0  0  0  0  0  0  0  0
  134.6958  135.0085  166.5372 C   0  0  0  0  0  0  0  0  0  0  0  0
  135.0468  135.1772  167.6447 C   0  0  0  0  0  0  0  0  0  0  0  0
  135.4750  135.3829  168.9957 C   0  0  0  0  0  0  0  0  0  0  0  0
  136.8376  135.4510  169.2976 C   0  0  0  0  0  0  0  0  0  0  0  0
  137.2424  135.6561  170.6001 C   0  0  0  0  0  0  0  0  0  0  0  0
  136.3032  135.7814  171.6085 C   0  0  0  0  0  0  0  0  0  0  0  0
  134.9521  135.7088  171.3179 C   0  0  0  0  0  0  0  0  0  0  0  0
  134.5322  135.5107  170.0192 C   0  0  0  0  0  0  0  0  0  0  0  0
  135.2098  134.6748  164.1618 C   0  0  0  0  0  0  0  0  0  0  0  0
  134.7893  134.4752  162.8654 C   0  0  0  0  0  0  0  0  0  0  0  0
  133.4370  134.4008  162.5665 C   0  0  0  0  0  0  0  0  0  0  0  0
  133.0257  134.1782  161.1325 C   0  0  0  0  0  0  0  0  0  0  0  0
  126.8366  135.5440  161.1544 C   0  0  0  0  0  0  0  0  0  0  0  0
  125.4527  135.1135  161.3084 N   0  0  0  0  0  0  0  0  0  0  0  0
  125.6240  131.9013  160.6777 H   0  0  0  0  0  0  0  0  0  0  0  0
  125.6229  132.8731  159.1874 H   0  0  0  0  0  0  0  0  0  0  0  0
  127.5974  133.0258  161.5032 H   0  0  0  0  0  0  0  0  0  0  0  0
  127.9331  132.5757  159.8117 H   0  0  0  0  0  0  0  0  0  0  0  0
  129.3370  135.6443  160.7468 H   0  0  0  0  0  0  0  0  0  0  0  0
  128.4716  134.0131  157.8096 H   0  0  0  0  0  0  0  0  0  0  0  0
  131.3166  133.5190  157.2668 H   0  0  0  0  0  0  0  0  0  0  0  0
  128.7309  133.3893  155.6839 H   0  0  0  0  0  0  0  0  0  0  0  0
  130.3368  133.9941  155.1727 H   0  0  0  0  0  0  0  0  0  0  0  0
  130.1570  131.6342  154.0738 H   0  0  0  0  0  0  0  0  0  0  0  0
  130.6298  129.9494  155.8971 H   0  0  0  0  0  0  0  0  0  0  0  0
  131.0880  131.3127  158.0731 H   0  0  0  0  0  0  0  0  0  0  0  0
  129.3065  131.3378  157.9051 H   0  0  0  0  0  0  0  0  0  0  0  0
  129.6811  134.1074  161.9218 H   0  0  0  0  0  0  0  0  0  0  0  0
  130.9207  132.8358  162.0789 H   0  0  0  0  0  0  0  0  0  0  0  0
  132.1749  134.8260  165.6723 H   0  0  0  0  0  0  0  0  0  0  0  0
  137.5719  135.3482  168.5123 H   0  0  0  0  0  0  0  0  0  0  0  0
  138.2952  135.7143  170.8342 H   0  0  0  0  0  0  0  0  0  0  0  0
  136.6261  135.9368  172.6273 H   0  0  0  0  0  0  0  0  0  0  0  0
  134.2247  135.8077  172.1101 H   0  0  0  0  0  0  0  0  0  0  0  0
  133.4776  135.4550  169.7938 H   0  0  0  0  0  0  0  0  0  0  0  0
  136.2647  134.7319  164.3864 H   0  0  0  0  0  0  0  0  0  0  0  0
  135.5187  134.3761  162.0751 H   0  0  0  0  0  0  0  0  0  0  0  0
  133.1578  133.1269  160.8764 H   0  0  0  0  0  0  0  0  0  0  0  0
  133.6458  134.7914  160.4787 H   0  0  0  0  0  0  0  0  0  0  0  0
  126.8563  136.5853  160.8327 H   0  0  0  0  0  0  0  0  0  0  0  0
  127.3499  135.4563  162.1120 H   0  0  0  0  0  0  0  0  0  0  0  0
  124.8254  135.7346  161.7103 H   0  0  0  0  0  0  0  0  0  0  0  0
  1  2  2  0
  2 37  1  0
  2  3  1  0
  3  4  1  0
  3 38  1  0
  3 39  1  0
  4  5  1  0
  4 40  1  0
  4 41  1  0
  5  6  1  6
  5  7  1  0
  5 36  1  0
  7 42  1  0
  8  7  1  0
  8  9  1  0
  8 15  2  0
  9 10  1  0
  9 43  1  0
 10 14  1  0
 10 11  1  0
 10 44  1  0
 11 12  1  0
 11 45  1  0
 11 46  1  0
 12 13  2  0
 12 47  1  0
 13 14  1  0
 13 48  1  0
 14 49  1  0
 14 50  1  0
 15 16  1  0
 15 17  1  0
 17 18  1  6
 17 35  1  0
 17 19  1  0
 19 20  1  0
 19 51  1  0
 19 52  1  0
 20 21  1  0
 21 34  2  0
 21 22  1  0
 22 23  2  0
 22 53  1  0
 23 24  1  0
 23 32  1  0
 24 25  3  0
 25 26  1  0
 26 31  1  0
 26 27  2  0
 27 28  1  0
 27 54  1  0
 28 29  2  0
 28 55  1  0
 29 30  1  0
 29 56  1  0
 30 31  2  0
 30 57  1  0
 31 58  1  0
 32 33  2  0
 32 59  1  0
 33 34  1  0
 33 60  1  0
 34 35  1  0
 35 61  1  0
 35 62  1  0
 36 37  1  0
 36 63  1  0
 36 64  1  0
 37 65  1  0
M  CHG  1  15   1
M  END
>  <DOCK_score>  (1) 
-44.877598

>  <SMILES>  (1) 
O=C1CC[C@H](NC(NC2CC=CC2)=[NH+][C@H]2COc3cc(C#Cc4ccccc4)ccc3C2)CN1

$$$$
