Nc1ccc(-c2c[nH]c(N[C@@H](CC=C3CCC(=O)CC3)c3ccccc3)[nH+]2)cc1
     RDKit          3D

 56 59  0  0  1  0  0  0  0  0999 V2000
  131.6551  129.4055  151.5084 N   0  0  0  0  0  0  0  0  0  0  0  0
  131.2816  130.1003  152.6613 C   0  0  0  0  0  0  0  0  0  0  0  0
  130.5036  131.2482  152.5572 C   0  0  0  0  0  0  0  0  0  0  0  0
  130.1337  131.9365  153.6934 C   0  0  0  0  0  0  0  0  0  0  0  0
  130.5402  131.4807  154.9466 C   0  0  0  0  0  0  0  0  0  0  0  0
  130.1440  132.2199  156.1703 C   0  0  0  0  0  0  0  0  0  0  0  0
  129.4083  131.7271  157.1970 C   0  0  0  0  0  0  0  0  0  0  0  0
  129.2770  132.7412  158.1161 N   0  0  0  0  0  0  0  0  0  0  0  0
  128.8017  132.6937  158.9603 H   0  0  0  0  0  0  0  0  0  0  0  0
  129.9371  133.8239  157.6225 C   0  0  0  0  0  0  0  0  0  0  0  0
  130.0451  135.0555  158.2456 N   0  0  0  0  0  0  0  0  0  0  0  0
  128.9768  135.5244  159.1315 C   0  0  1  0  0  0  0  0  0  0  0  0
  128.8540  134.8221  159.9561 H   0  0  0  0  0  0  0  0  0  0  0  0
  129.3421  136.9029  159.6859 C   0  0  0  0  0  0  0  0  0  0  0  0
  130.6313  136.8073  160.4604 C   0  0  0  0  0  0  0  0  0  0  0  0
  131.1359  137.8752  161.0268 C   0  0  0  0  0  0  0  0  0  0  0  0
  130.3518  139.1671  161.0686 C   0  0  0  0  0  0  0  0  0  0  0  0
  130.2431  139.6210  162.5346 C   0  0  0  0  0  0  0  0  0  0  0  0
  131.6223  139.5852  163.1526 C   0  0  0  0  0  0  0  0  0  0  0  0
  132.0878  140.5699  163.6741 O   0  0  0  0  0  0  0  0  0  0  0  0
  132.4087  138.2950  163.1058 C   0  0  0  0  0  0  0  0  0  0  0  0
  132.5151  137.8394  161.6449 C   0  0  0  0  0  0  0  0  0  0  0  0
  127.6875  135.6200  158.3570 C   0  0  0  0  0  0  0  0  0  0  0  0
  126.4794  135.4204  158.9985 C   0  0  0  0  0  0  0  0  0  0  0  0
  125.2967  135.5124  158.2889 C   0  0  0  0  0  0  0  0  0  0  0  0
  125.3225  135.7949  156.9359 C   0  0  0  0  0  0  0  0  0  0  0  0
  126.5310  135.9892  156.2934 C   0  0  0  0  0  0  0  0  0  0  0  0
  127.7135  135.9015  157.0038 C   0  0  0  0  0  0  0  0  0  0  0  0
  130.4489  133.5103  156.4572 N   0  0  0  0  0  0  0  0  0  0  0  0
  130.9651  134.1054  155.8913 H   0  0  0  0  0  0  0  0  0  0  0  0
  131.3243  130.3326  155.0477 C   0  0  0  0  0  0  0  0  0  0  0  0
  131.6873  129.6444  153.9092 C   0  0  0  0  0  0  0  0  0  0  0  0
  131.3719  129.7233  150.6367 H   0  0  0  0  0  0  0  0  0  0  0  0
  132.1979  128.6047  151.5798 H   0  0  0  0  0  0  0  0  0  0  0  0
  130.1889  131.6009  151.5862 H   0  0  0  0  0  0  0  0  0  0  0  0
  129.5293  132.8279  153.6125 H   0  0  0  0  0  0  0  0  0  0  0  0
  129.0027  130.7294  157.2773 H   0  0  0  0  0  0  0  0  0  0  0  0
  130.8264  135.6097  158.0924 H   0  0  0  0  0  0  0  0  0  0  0  0
  129.4648  137.6052  158.8614 H   0  0  0  0  0  0  0  0  0  0  0  0
  128.5472  137.2518  160.3451 H   0  0  0  0  0  0  0  0  0  0  0  0
  131.1393  135.8581  160.5484 H   0  0  0  0  0  0  0  0  0  0  0  0
  130.8691  139.9282  160.4844 H   0  0  0  0  0  0  0  0  0  0  0  0
  129.3547  139.0032  160.6598 H   0  0  0  0  0  0  0  0  0  0  0  0
  129.5801  138.9494  163.0800 H   0  0  0  0  0  0  0  0  0  0  0  0
  129.8498  140.6367  162.5762 H   0  0  0  0  0  0  0  0  0  0  0  0
  131.8949  137.5318  163.6906 H   0  0  0  0  0  0  0  0  0  0  0  0
  133.4069  138.4599  163.5113 H   0  0  0  0  0  0  0  0  0  0  0  0
  132.9070  136.8230  161.6061 H   0  0  0  0  0  0  0  0  0  0  0  0
  133.1788  138.5087  161.0976 H   0  0  0  0  0  0  0  0  0  0  0  0
  126.4594  135.1962  160.0547 H   0  0  0  0  0  0  0  0  0  0  0  0
  124.3525  135.3609  158.7909 H   0  0  0  0  0  0  0  0  0  0  0  0
  124.3986  135.8640  156.3810 H   0  0  0  0  0  0  0  0  0  0  0  0
  126.5512  136.2098  155.2363 H   0  0  0  0  0  0  0  0  0  0  0  0
  128.6576  136.0534  156.5019 H   0  0  0  0  0  0  0  0  0  0  0  0
  131.6438  129.9800  156.0172 H   0  0  0  0  0  0  0  0  0  0  0  0
  132.2914  128.7526  153.9873 H   0  0  0  0  0  0  0  0  0  0  0  0
  1  2  1  0
  1 33  1  0
  1 34  1  0
  2 32  2  0
  2  3  1  0
  3  4  2  0
  3 35  1  0
  4  5  1  0
  4 36  1  0
  5  6  1  0
  5 31  2  0
  6 29  1  0
  6  7  2  0
  7  8  1  0
  7 37  1  0
  8  9  1  0
  8 10  1  0
 10 11  1  0
 10 29  2  0
 11 12  1  0
 11 38  1  0
 12 13  1  1
 12 14  1  0
 12 23  1  0
 14 15  1  0
 14 39  1  0
 14 40  1  0
 15 16  2  0
 15 41  1  0
 16 22  1  0
 16 17  1  0
 17 18  1  0
 17 42  1  0
 17 43  1  0
 18 19  1  0
 18 44  1  0
 18 45  1  0
 19 20  2  0
 19 21  1  0
 21 22  1  0
 21 46  1  0
 21 47  1  0
 22 48  1  0
 22 49  1  0
 23 28  1  0
 23 24  2  0
 24 25  1  0
 24 50  1  0
 25 26  2  0
 25 51  1  0
 26 27  1  0
 26 52  1  0
 27 28  2  0
 27 53  1  0
 28 54  1  0
 29 30  1  0
 31 32  1  0
 31 55  1  0
 32 56  1  0
M  CHG  1  29   1
M  END
>  <DOCK_score>  (1) 
-59.859177

>  <SMILES>  (1) 
Nc1ccc(-c2c[nH]c(N[C@@H](CC=C3CCC(=O)CC3)c3ccccc3)[nH+]2)cc1

$$$$
