Fc1cccc(NCc2coc3ccccc23)c1C[NH2+]CCC1CC=CC1
     RDKit          3D

 53 56  0  0  1  0  0  0  0  0999 V2000
  133.3686  132.8127  159.4526 F   0  0  0  0  0  0  0  0  0  0  0  0
  132.0436  133.0679  159.3863 C   0  0  0  0  0  0  0  0  0  0  0  0
  131.2097  132.2192  158.6766 C   0  0  0  0  0  0  0  0  0  0  0  0
  129.8536  132.4777  158.6069 C   0  0  0  0  0  0  0  0  0  0  0  0
  129.3255  133.5835  159.2443 C   0  0  0  0  0  0  0  0  0  0  0  0
  130.1579  134.4374  159.9566 C   0  0  0  0  0  0  0  0  0  0  0  0
  129.6258  135.5560  160.6019 N   0  0  0  0  0  0  0  0  0  0  0  0
  128.1884  135.8296  160.5279 C   0  0  0  0  0  0  0  0  0  0  0  0
  127.8755  137.0841  161.3020 C   0  0  0  0  0  0  0  0  0  0  0  0
  126.8644  137.2679  162.1619 C   0  0  0  0  0  0  0  0  0  0  0  0
  126.9019  138.5157  162.6612 O   0  0  0  0  0  0  0  0  0  0  0  0
  127.9404  139.2069  162.1502 C   0  0  0  0  0  0  0  0  0  0  0  0
  128.4109  140.5011  162.3342 C   0  0  0  0  0  0  0  0  0  0  0  0
  129.5294  140.9275  161.6505 C   0  0  0  0  0  0  0  0  0  0  0  0
  130.1924  140.0772  160.7774 C   0  0  0  0  0  0  0  0  0  0  0  0
  129.7456  138.7998  160.5820 C   0  0  0  0  0  0  0  0  0  0  0  0
  128.6165  138.3506  161.2651 C   0  0  0  0  0  0  0  0  0  0  0  0
  131.5211  134.1799  160.0212 C   0  0  0  0  0  0  0  0  0  0  0  0
  132.4289  135.1073  160.7874 C   0  0  0  0  0  0  0  0  0  0  0  0
  132.9258  136.1584  159.8895 N   0  0  0  0  0  0  0  0  0  0  0  0
  133.4391  135.7370  159.1300 H   0  0  0  0  0  0  0  0  0  0  0  0
  132.1460  136.6810  159.5193 H   0  0  0  0  0  0  0  0  0  0  0  0
  133.8107  137.0624  160.6364 C   0  0  0  0  0  0  0  0  0  0  0  0
  134.3283  138.1573  159.7012 C   0  0  0  0  0  0  0  0  0  0  0  0
  135.2498  139.0987  160.4791 C   0  0  0  0  0  0  0  0  0  0  0  0
  134.4551  139.9140  161.5257 C   0  0  0  0  0  0  0  0  0  0  0  0
  135.0964  141.2822  161.5143 C   0  0  0  0  0  0  0  0  0  0  0  0
  135.8268  141.4500  160.4456 C   0  0  0  0  0  0  0  0  0  0  0  0
  135.7947  140.2217  159.5662 C   0  0  0  0  0  0  0  0  0  0  0  0
  131.6198  131.3539  158.1771 H   0  0  0  0  0  0  0  0  0  0  0  0
  129.2060  131.8143  158.0529 H   0  0  0  0  0  0  0  0  0  0  0  0
  128.2657  133.7843  159.1886 H   0  0  0  0  0  0  0  0  0  0  0  0
  130.2080  136.1517  161.0991 H   0  0  0  0  0  0  0  0  0  0  0  0
  127.6368  134.9921  160.9549 H   0  0  0  0  0  0  0  0  0  0  0  0
  127.8972  135.9633  159.4862 H   0  0  0  0  0  0  0  0  0  0  0  0
  126.1260  136.5220  162.4166 H   0  0  0  0  0  0  0  0  0  0  0  0
  127.9047  141.1698  163.0147 H   0  0  0  0  0  0  0  0  0  0  0  0
  129.8929  141.9342  161.7954 H   0  0  0  0  0  0  0  0  0  0  0  0
  131.0669  140.4266  160.2485 H   0  0  0  0  0  0  0  0  0  0  0  0
  130.2655  138.1416  159.9017 H   0  0  0  0  0  0  0  0  0  0  0  0
  131.8744  135.5626  161.6080 H   0  0  0  0  0  0  0  0  0  0  0  0
  133.2713  134.5428  161.1872 H   0  0  0  0  0  0  0  0  0  0  0  0
  133.2560  137.5178  161.4569 H   0  0  0  0  0  0  0  0  0  0  0  0
  134.6530  136.4981  161.0364 H   0  0  0  0  0  0  0  0  0  0  0  0
  134.8828  137.7019  158.8807 H   0  0  0  0  0  0  0  0  0  0  0  0
  133.4859  138.7217  159.3013 H   0  0  0  0  0  0  0  0  0  0  0  0
  136.0639  138.5464  160.9485 H   0  0  0  0  0  0  0  0  0  0  0  0
  133.4067  139.9836  161.2362 H   0  0  0  0  0  0  0  0  0  0  0  0
  134.5484  139.4592  162.5117 H   0  0  0  0  0  0  0  0  0  0  0  0
  134.9675  142.0238  162.2888 H   0  0  0  0  0  0  0  0  0  0  0  0
  136.3817  142.3485  160.2199 H   0  0  0  0  0  0  0  0  0  0  0  0
  136.7987  139.9761  159.2202 H   0  0  0  0  0  0  0  0  0  0  0  0
  135.1278  140.3790  158.7185 H   0  0  0  0  0  0  0  0  0  0  0  0
  1  2  1  0
  2 18  2  0
  2  3  1  0
  3  4  2  0
  3 30  1  0
  4  5  1  0
  4 31  1  0
  5  6  2  0
  5 32  1  0
  6  7  1  0
  6 18  1  0
  7  8  1  0
  7 33  1  0
  8  9  1  0
  8 34  1  0
  8 35  1  0
  9 17  1  0
  9 10  2  0
 10 11  1  0
 10 36  1  0
 11 12  1  0
 12 17  2  0
 12 13  1  0
 13 14  2  0
 13 37  1  0
 14 15  1  0
 14 38  1  0
 15 16  2  0
 15 39  1  0
 16 17  1  0
 16 40  1  0
 18 19  1  0
 19 20  1  0
 19 41  1  0
 19 42  1  0
 20 21  1  0
 20 22  1  0
 20 23  1  0
 23 24  1  0
 23 43  1  0
 23 44  1  0
 24 25  1  0
 24 45  1  0
 24 46  1  0
 25 29  1  0
 25 26  1  0
 25 47  1  0
 26 27  1  0
 26 48  1  0
 26 49  1  0
 27 28  2  0
 27 50  1  0
 28 29  1  0
 28 51  1  0
 29 52  1  0
 29 53  1  0
M  CHG  1  20   1
M  END
>  <DOCK_score>  (1) 
-44.319218

>  <SMILES>  (1) 
Fc1cccc(NCc2coc3ccccc23)c1C[NH2+]CCC1CC=CC1

$$$$
