CCc1ccc(CN(c2ccc(N)c(O)c2)[C@H]2CCC[NH+](Cc3ccccc3)C2)cc1
     RDKit          3D

 65 68  0  0  1  0  0  0  0  0999 V2000
  136.7599  139.7752  160.9172 C   0  0  0  0  0  0  0  0  0  0  0  0
  135.8931  140.9394  160.4333 C   0  0  0  0  0  0  0  0  0  0  0  0
  134.4420  140.5340  160.4688 C   0  0  0  0  0  0  0  0  0  0  0  0
  133.6912  140.7515  161.6089 C   0  0  0  0  0  0  0  0  0  0  0  0
  132.3603  140.3796  161.6413 C   0  0  0  0  0  0  0  0  0  0  0  0
  131.7799  139.7910  160.5333 C   0  0  0  0  0  0  0  0  0  0  0  0
  130.3289  139.3856  160.5686 C   0  0  0  0  0  0  0  0  0  0  0  0
  130.2185  138.0076  161.0537 N   0  0  0  0  0  0  0  0  0  0  0  0
  129.4883  137.7310  162.2155 C   0  0  0  0  0  0  0  0  0  0  0  0
  130.1195  137.7469  163.4522 C   0  0  0  0  0  0  0  0  0  0  0  0
  129.4006  137.4737  164.6005 C   0  0  0  0  0  0  0  0  0  0  0  0
  128.0457  137.1891  164.5204 C   0  0  0  0  0  0  0  0  0  0  0  0
  127.3155  136.9176  165.6871 N   0  0  0  0  0  0  0  0  0  0  0  0
  127.4114  137.1678  163.2806 C   0  0  0  0  0  0  0  0  0  0  0  0
  126.0837  136.8841  163.1998 O   0  0  0  0  0  0  0  0  0  0  0  0
  128.1331  137.4412  162.1308 C   0  0  0  0  0  0  0  0  0  0  0  0
  130.8724  136.9193  160.3229 C   0  0  1  0  0  0  0  0  0  0  0  0
  131.3890  137.3239  159.4526 H   0  0  0  0  0  0  0  0  0  0  0  0
  131.8819  136.2220  161.2395 C   0  0  0  0  0  0  0  0  0  0  0  0
  132.5023  135.0381  160.4920 C   0  0  0  0  0  0  0  0  0  0  0  0
  131.3902  134.0941  160.0300 C   0  0  0  0  0  0  0  0  0  0  0  0
  130.4735  134.8125  159.1367 N   0  0  1  0  0  0  0  0  0  0  0  0
  130.9920  135.1919  158.3587 H   0  0  0  0  0  0  0  0  0  0  0  0
  129.4529  133.8830  158.6344 C   0  0  0  0  0  0  0  0  0  0  0  0
  130.0265  133.0716  157.5013 C   0  0  0  0  0  0  0  0  0  0  0  0
  129.9142  133.5253  156.2003 C   0  0  0  0  0  0  0  0  0  0  0  0
  130.4442  132.7831  155.1615 C   0  0  0  0  0  0  0  0  0  0  0  0
  131.0783  131.5829  155.4227 C   0  0  0  0  0  0  0  0  0  0  0  0
  131.1860  131.1268  156.7231 C   0  0  0  0  0  0  0  0  0  0  0  0
  130.6598  131.8710  157.7624 C   0  0  0  0  0  0  0  0  0  0  0  0
  129.8206  135.9056  159.8672 C   0  0  0  0  0  0  0  0  0  0  0  0
  132.5319  139.5692  159.3948 C   0  0  0  0  0  0  0  0  0  0  0  0
  133.8618  139.9450  159.3609 C   0  0  0  0  0  0  0  0  0  0  0  0
  136.6073  138.9139  160.2667 H   0  0  0  0  0  0  0  0  0  0  0  0
  137.8094  140.0685  160.8916 H   0  0  0  0  0  0  0  0  0  0  0  0
  136.4803  139.5138  161.9378 H   0  0  0  0  0  0  0  0  0  0  0  0
  136.1725  141.2009  159.4127 H   0  0  0  0  0  0  0  0  0  0  0  0
  136.0457  141.8007  161.0838 H   0  0  0  0  0  0  0  0  0  0  0  0
  134.1445  141.2117  162.4744 H   0  0  0  0  0  0  0  0  0  0  0  0
  131.7737  140.5492  162.5322 H   0  0  0  0  0  0  0  0  0  0  0  0
  129.9084  139.4522  159.5652 H   0  0  0  0  0  0  0  0  0  0  0  0
  129.7818  140.0508  161.2366 H   0  0  0  0  0  0  0  0  0  0  0  0
  131.1736  137.9729  163.5167 H   0  0  0  0  0  0  0  0  0  0  0  0
  129.8935  137.4864  165.5615 H   0  0  0  0  0  0  0  0  0  0  0  0
  126.3686  136.7150  165.6304 H   0  0  0  0  0  0  0  0  0  0  0  0
  127.7575  136.9325  166.5504 H   0  0  0  0  0  0  0  0  0  0  0  0
  125.7338  136.8930  162.2984 H   0  0  0  0  0  0  0  0  0  0  0  0
  127.6421  137.4295  161.1689 H   0  0  0  0  0  0  0  0  0  0  0  0
  132.6649  136.9258  161.5214 H   0  0  0  0  0  0  0  0  0  0  0  0
  131.3740  135.8623  162.1343 H   0  0  0  0  0  0  0  0  0  0  0  0
  133.1810  134.5033  161.1567 H   0  0  0  0  0  0  0  0  0  0  0  0
  133.0539  135.4027  159.6254 H   0  0  0  0  0  0  0  0  0  0  0  0
  130.8401  133.7295  160.8974 H   0  0  0  0  0  0  0  0  0  0  0  0
  131.8290  133.2503  159.4975 H   0  0  0  0  0  0  0  0  0  0  0  0
  129.1421  133.2156  159.4383 H   0  0  0  0  0  0  0  0  0  0  0  0
  128.5915  134.4475  158.2774 H   0  0  0  0  0  0  0  0  0  0  0  0
  129.4154  134.4611  155.9959 H   0  0  0  0  0  0  0  0  0  0  0  0
  130.3603  133.1397  154.1455 H   0  0  0  0  0  0  0  0  0  0  0  0
  131.4901  131.0018  154.6107 H   0  0  0  0  0  0  0  0  0  0  0  0
  131.6815  130.1890  156.9272 H   0  0  0  0  0  0  0  0  0  0  0  0
  130.7439  131.5146  158.7785 H   0  0  0  0  0  0  0  0  0  0  0  0
  129.3040  135.5023  160.7381 H   0  0  0  0  0  0  0  0  0  0  0  0
  129.1002  136.3987  159.2145 H   0  0  0  0  0  0  0  0  0  0  0  0
  132.0796  139.1054  158.5307 H   0  0  0  0  0  0  0  0  0  0  0  0
  134.4484  139.7755  158.4700 H   0  0  0  0  0  0  0  0  0  0  0  0
  1  2  1  0
  1 34  1  0
  1 35  1  0
  1 36  1  0
  2  3  1  0
  2 37  1  0
  2 38  1  0
  3 33  2  0
  3  4  1  0
  4  5  2  0
  4 39  1  0
  5  6  1  0
  5 40  1  0
  6  7  1  0
  6 32  2  0
  7  8  1  0
  7 41  1  0
  7 42  1  0
  8  9  1  0
  8 17  1  0
  9 16  1  0
  9 10  2  0
 10 11  1  0
 10 43  1  0
 11 12  2  0
 11 44  1  0
 12 13  1  0
 12 14  1  0
 13 45  1  0
 13 46  1  0
 14 15  1  0
 14 16  2  0
 15 47  1  0
 16 48  1  0
 17 18  1  6
 17 31  1  0
 17 19  1  0
 19 20  1  0
 19 49  1  0
 19 50  1  0
 20 21  1  0
 20 51  1  0
 20 52  1  0
 21 22  1  0
 21 53  1  0
 21 54  1  0
 22 23  1  6
 22 24  1  0
 22 31  1  0
 24 25  1  0
 24 55  1  0
 24 56  1  0
 25 30  1  0
 25 26  2  0
 26 27  1  0
 26 57  1  0
 27 28  2  0
 27 58  1  0
 28 29  1  0
 28 59  1  0
 29 30  2  0
 29 60  1  0
 30 61  1  0
 31 62  1  0
 31 63  1  0
 32 33  1  0
 32 64  1  0
 33 65  1  0
M  CHG  1  22   1
M  END
>  <DOCK_score>  (1) 
-52.845467

>  <SMILES>  (1) 
CCc1ccc(CN(c2ccc(N)c(O)c2)[C@H]2CCC[NH+](Cc3ccccc3)C2)cc1

$$$$
