Nc1ccc(-c2c[nH]c(N[C@@H](/C=C/C(=O)N3CC=CC(=O)C3)c3ccccc3)[nH+]2)cc1
     RDKit          3D

 55 58  0  0  1  0  0  0  0  0999 V2000
  131.7133  129.2971  151.7236 N   0  0  0  0  0  0  0  0  0  0  0  0
  131.3364  130.0251  152.8549 C   0  0  0  0  0  0  0  0  0  0  0  0
  130.5544  131.1658  152.7169 C   0  0  0  0  0  0  0  0  0  0  0  0
  130.1812  131.8860  153.8319 C   0  0  0  0  0  0  0  0  0  0  0  0
  130.5886  131.4693  155.0983 C   0  0  0  0  0  0  0  0  0  0  0  0
  130.1883  132.2424  156.2994 C   0  0  0  0  0  0  0  0  0  0  0  0
  129.4547  131.7766  157.3402 C   0  0  0  0  0  0  0  0  0  0  0  0
  129.3186  132.8166  158.2290 N   0  0  0  0  0  0  0  0  0  0  0  0
  128.8436  132.7916  159.0744 H   0  0  0  0  0  0  0  0  0  0  0  0
  129.9738  133.8874  157.7039 C   0  0  0  0  0  0  0  0  0  0  0  0
  130.0762  135.1372  158.2907 N   0  0  0  0  0  0  0  0  0  0  0  0
  129.0057  135.6270  159.1626 C   0  0  1  0  0  0  0  0  0  0  0  0
  128.8861  134.9485  160.0073 H   0  0  0  0  0  0  0  0  0  0  0  0
  129.3593  137.0016  159.6687 C   0  0  0  0  0  0  0  0  0  0  0  0
  130.0416  137.1378  160.8022 C   0  0  0  0  0  0  0  0  0  0  0  0
  130.3868  138.4797  161.2962 C   0  0  0  0  0  0  0  0  0  0  0  0
  131.0716  139.2201  160.6168 O   0  0  0  0  0  0  0  0  0  0  0  0
  129.9442  138.8884  162.5018 N   0  0  0  0  0  0  0  0  0  0  0  0
  129.1217  138.0116  163.3435 C   0  0  0  0  0  0  0  0  0  0  0  0
  127.9467  138.7684  163.8942 C   0  0  0  0  0  0  0  0  0  0  0  0
  127.8742  140.0936  163.8896 C   0  0  0  0  0  0  0  0  0  0  0  0
  128.9505  140.9106  163.3214 C   0  0  0  0  0  0  0  0  0  0  0  0
  128.7893  142.0927  163.1013 O   0  0  0  0  0  0  0  0  0  0  0  0
  130.2764  140.2291  163.0200 C   0  0  0  0  0  0  0  0  0  0  0  0
  127.7161  135.6941  158.3858 C   0  0  0  0  0  0  0  0  0  0  0  0
  126.5088  135.5081  159.0330 C   0  0  0  0  0  0  0  0  0  0  0  0
  125.3256  135.5736  158.3212 C   0  0  0  0  0  0  0  0  0  0  0  0
  125.3502  135.8168  156.9606 C   0  0  0  0  0  0  0  0  0  0  0  0
  126.5578  135.9977  156.3124 C   0  0  0  0  0  0  0  0  0  0  0  0
  127.7406  135.9361  157.0250 C   0  0  0  0  0  0  0  0  0  0  0  0
  130.4873  133.5421  156.5484 N   0  0  0  0  0  0  0  0  0  0  0  0
  131.0011  134.1226  155.9654 H   0  0  0  0  0  0  0  0  0  0  0  0
  131.3777  130.3279  155.2337 C   0  0  0  0  0  0  0  0  0  0  0  0
  131.7433  129.6073  154.1164 C   0  0  0  0  0  0  0  0  0  0  0  0
  131.4294  129.5876  150.8430 H   0  0  0  0  0  0  0  0  0  0  0  0
  132.2589  128.5006  151.8193 H   0  0  0  0  0  0  0  0  0  0  0  0
  130.2393  131.4886  151.7357 H   0  0  0  0  0  0  0  0  0  0  0  0
  129.5734  132.7722  153.7243 H   0  0  0  0  0  0  0  0  0  0  0  0
  129.0539  130.7799  157.4498 H   0  0  0  0  0  0  0  0  0  0  0  0
  130.8568  135.6886  158.1245 H   0  0  0  0  0  0  0  0  0  0  0  0
  129.0590  137.8763  159.1110 H   0  0  0  0  0  0  0  0  0  0  0  0
  130.3420  136.2632  161.3600 H   0  0  0  0  0  0  0  0  0  0  0  0
  128.7628  137.1724  162.7477 H   0  0  0  0  0  0  0  0  0  0  0  0
  129.7245  137.6355  164.1700 H   0  0  0  0  0  0  0  0  0  0  0  0
  127.1237  138.2087  164.3134 H   0  0  0  0  0  0  0  0  0  0  0  0
  127.0064  140.5787  164.3118 H   0  0  0  0  0  0  0  0  0  0  0  0
  130.8695  140.1412  163.9303 H   0  0  0  0  0  0  0  0  0  0  0  0
  130.8264  140.7946  162.2678 H   0  0  0  0  0  0  0  0  0  0  0  0
  126.4898  135.3146  160.0953 H   0  0  0  0  0  0  0  0  0  0  0  0
  124.3823  135.4319  158.8274 H   0  0  0  0  0  0  0  0  0  0  0  0
  124.4260  135.8653  156.4038 H   0  0  0  0  0  0  0  0  0  0  0  0
  126.5769  136.1874  155.2494 H   0  0  0  0  0  0  0  0  0  0  0  0
  128.6841  136.0774  156.5186 H   0  0  0  0  0  0  0  0  0  0  0  0
  131.6981  130.0058  156.2135 H   0  0  0  0  0  0  0  0  0  0  0  0
  132.3508  128.7205  154.2213 H   0  0  0  0  0  0  0  0  0  0  0  0
  1  2  1  0
  1 35  1  0
  1 36  1  0
  2 34  2  0
  2  3  1  0
  3  4  2  0
  3 37  1  0
  4  5  1  0
  4 38  1  0
  5  6  1  0
  5 33  2  0
  6 31  1  0
  6  7  2  0
  7  8  1  0
  7 39  1  0
  8  9  1  0
  8 10  1  0
 10 11  1  0
 10 31  2  0
 11 12  1  0
 11 40  1  0
 12 13  1  1
 12 14  1  0
 12 25  1  0
 14 15  2  0
 14 41  1  0
 15 16  1  0
 15 42  1  0
 16 17  2  0
 16 18  1  0
 18 24  1  0
 18 19  1  0
 19 20  1  0
 19 43  1  0
 19 44  1  0
 20 21  2  0
 20 45  1  0
 21 22  1  0
 21 46  1  0
 22 23  2  0
 22 24  1  0
 24 47  1  0
 24 48  1  0
 25 30  1  0
 25 26  2  0
 26 27  1  0
 26 49  1  0
 27 28  2  0
 27 50  1  0
 28 29  1  0
 28 51  1  0
 29 30  2  0
 29 52  1  0
 30 53  1  0
 31 32  1  0
 33 34  1  0
 33 54  1  0
 34 55  1  0
M  CHG  1  31   1
M  END
>  <DOCK_score>  (1) 
-61.578171

>  <SMILES>  (1) 
Nc1ccc(-c2c[nH]c(N[C@@H](/C=C/C(=O)N3CC=CC(=O)C3)c3ccccc3)[nH+]2)cc1

$$$$
