CC1=CCCN(c2ccc(Cl)c(C[NH2+][C@H](C)Cc3cccc(-c4cccc5ccccc45)c3)c2)C1
     RDKit          3D

 69 73  0  0  1  0  0  0  0  0999 V2000
  131.0896  131.9722  154.3482 C   0  0  0  0  0  0  0  0  0  0  0  0
  131.0454  131.6650  155.8229 C   0  0  0  0  0  0  0  0  0  0  0  0
  131.4271  130.4893  156.2196 C   0  0  0  0  0  0  0  0  0  0  0  0
  131.4174  130.0720  157.6635 C   0  0  0  0  0  0  0  0  0  0  0  0
  131.3063  131.3092  158.5581 C   0  0  0  0  0  0  0  0  0  0  0  0
  130.2046  132.1486  158.0585 N   0  0  0  0  0  0  0  0  0  0  0  0
  129.8744  133.1438  158.9823 C   0  0  0  0  0  0  0  0  0  0  0  0
  128.5928  133.2009  159.5154 C   0  0  0  0  0  0  0  0  0  0  0  0
  128.2677  134.1888  160.4237 C   0  0  0  0  0  0  0  0  0  0  0  0
  129.2187  135.1183  160.8073 C   0  0  0  0  0  0  0  0  0  0  0  0
  128.8066  136.3585  161.9499 Cl  0  0  0  0  0  0  0  0  0  0  0  0
  130.4975  135.0606  160.2820 C   0  0  0  0  0  0  0  0  0  0  0  0
  131.5303  136.0744  160.7021 C   0  0  0  0  0  0  0  0  0  0  0  0
  131.4761  137.2316  159.7989 N   0  0  0  0  0  0  0  0  0  0  0  0
  131.6651  136.9305  158.8545 H   0  0  0  0  0  0  0  0  0  0  0  0
  130.5584  137.6488  159.8415 H   0  0  0  0  0  0  0  0  0  0  0  0
  132.4829  138.2199  160.2084 C   0  0  2  0  0  0  0  0  0  0  0  0
  132.5097  138.2818  161.2963 H   0  0  0  0  0  0  0  0  0  0  0  0
  132.1196  139.5883  159.6285 C   0  0  0  0  0  0  0  0  0  0  0  0
  133.8571  137.7938  159.6879 C   0  0  0  0  0  0  0  0  0  0  0  0
  134.9328  138.4888  160.4822 C   0  0  0  0  0  0  0  0  0  0  0  0
  135.4127  139.7181  160.0665 C   0  0  0  0  0  0  0  0  0  0  0  0
  136.3965  140.3645  160.7930 C   0  0  0  0  0  0  0  0  0  0  0  0
  136.9128  139.7810  161.9320 C   0  0  0  0  0  0  0  0  0  0  0  0
  136.4370  138.5397  162.3532 C   0  0  0  0  0  0  0  0  0  0  0  0
  136.9866  137.9082  163.5752 C   0  0  0  0  0  0  0  0  0  0  0  0
  138.3331  137.6009  163.6582 C   0  0  0  0  0  0  0  0  0  0  0  0
  138.8575  137.0131  164.8039 C   0  0  0  0  0  0  0  0  0  0  0  0
  138.0627  136.7140  165.8690 C   0  0  0  0  0  0  0  0  0  0  0  0
  136.6882  137.0036  165.8253 C   0  0  0  0  0  0  0  0  0  0  0  0
  135.8464  136.7041  166.9105 C   0  0  0  0  0  0  0  0  0  0  0  0
  134.5194  136.9978  166.8346 C   0  0  0  0  0  0  0  0  0  0  0  0
  133.9807  137.5913  165.6949 C   0  0  0  0  0  0  0  0  0  0  0  0
  134.7669  137.8949  164.6252 C   0  0  0  0  0  0  0  0  0  0  0  0
  136.1388  137.6073  164.6677 C   0  0  0  0  0  0  0  0  0  0  0  0
  135.4411  137.8954  161.6192 C   0  0  0  0  0  0  0  0  0  0  0  0
  130.8284  134.0741  159.3734 C   0  0  0  0  0  0  0  0  0  0  0  0
  130.5615  132.7338  156.7599 C   0  0  0  0  0  0  0  0  0  0  0  0
  132.0624  132.3931  154.0939 H   0  0  0  0  0  0  0  0  0  0  0  0
  130.9310  131.0550  153.7811 H   0  0  0  0  0  0  0  0  0  0  0  0
  130.3075  132.6907  154.1031 H   0  0  0  0  0  0  0  0  0  0  0  0
  131.7669  129.7798  155.4795 H   0  0  0  0  0  0  0  0  0  0  0  0
  130.5665  129.4155  157.8456 H   0  0  0  0  0  0  0  0  0  0  0  0
  132.3410  129.5406  157.8936 H   0  0  0  0  0  0  0  0  0  0  0  0
  132.2396  131.8713  158.5238 H   0  0  0  0  0  0  0  0  0  0  0  0
  131.0974  131.0027  159.5830 H   0  0  0  0  0  0  0  0  0  0  0  0
  127.8504  132.4757  159.2167 H   0  0  0  0  0  0  0  0  0  0  0  0
  127.2701  134.2364  160.8351 H   0  0  0  0  0  0  0  0  0  0  0  0
  131.3261  136.3998  161.7221 H   0  0  0  0  0  0  0  0  0  0  0  0
  132.5215  135.6236  160.6560 H   0  0  0  0  0  0  0  0  0  0  0  0
  132.8667  140.3216  159.9323 H   0  0  0  0  0  0  0  0  0  0  0  0
  132.0930  139.5264  158.5405 H   0  0  0  0  0  0  0  0  0  0  0  0
  131.1407  139.8918  159.9992 H   0  0  0  0  0  0  0  0  0  0  0  0
  133.9672  136.7145  159.7940 H   0  0  0  0  0  0  0  0  0  0  0  0
  133.9480  138.0667  158.6366 H   0  0  0  0  0  0  0  0  0  0  0  0
  135.0146  140.1769  159.1735 H   0  0  0  0  0  0  0  0  0  0  0  0
  136.7642  141.3259  160.4659 H   0  0  0  0  0  0  0  0  0  0  0  0
  137.6840  140.2846  162.4961 H   0  0  0  0  0  0  0  0  0  0  0  0
  138.9844  137.8237  162.8261 H   0  0  0  0  0  0  0  0  0  0  0  0
  139.9124  136.7858  164.8484 H   0  0  0  0  0  0  0  0  0  0  0  0
  138.4893  136.2536  166.7479 H   0  0  0  0  0  0  0  0  0  0  0  0
  136.2505  136.2439  167.8001 H   0  0  0  0  0  0  0  0  0  0  0  0
  133.8748  136.7672  167.6698 H   0  0  0  0  0  0  0  0  0  0  0  0
  132.9245  137.8140  165.6595 H   0  0  0  0  0  0  0  0  0  0  0  0
  134.3360  138.3549  163.7482 H   0  0  0  0  0  0  0  0  0  0  0  0
  135.0683  136.9340  161.9407 H   0  0  0  0  0  0  0  0  0  0  0  0
  131.8267  134.0294  158.9640 H   0  0  0  0  0  0  0  0  0  0  0  0
  129.6860  133.2208  156.3305 H   0  0  0  0  0  0  0  0  0  0  0  0
  131.3517  133.4712  156.9012 H   0  0  0  0  0  0  0  0  0  0  0  0
  1  2  1  0
  1 39  1  0
  1 40  1  0
  1 41  1  0
  2 38  1  0
  2  3  2  0
  3  4  1  0
  3 42  1  0
  4  5  1  0
  4 43  1  0
  4 44  1  0
  5  6  1  0
  5 45  1  0
  5 46  1  0
  6  7  1  0
  6 38  1  0
  7 37  1  0
  7  8  2  0
  8  9  1  0
  8 47  1  0
  9 10  2  0
  9 48  1  0
 10 11  1  0
 10 12  1  0
 12 13  1  0
 12 37  2  0
 13 14  1  0
 13 49  1  0
 13 50  1  0
 14 15  1  0
 14 16  1  0
 14 17  1  0
 17 18  1  1
 17 19  1  0
 17 20  1  0
 19 51  1  0
 19 52  1  0
 19 53  1  0
 20 21  1  0
 20 54  1  0
 20 55  1  0
 21 36  1  0
 21 22  2  0
 22 23  1  0
 22 56  1  0
 23 24  2  0
 23 57  1  0
 24 25  1  0
 24 58  1  0
 25 26  1  0
 25 36  2  0
 26 35  1  0
 26 27  2  0
 27 28  1  0
 27 59  1  0
 28 29  2  0
 28 60  1  0
 29 30  1  0
 29 61  1  0
 30 35  2  0
 30 31  1  0
 31 32  2  0
 31 62  1  0
 32 33  1  0
 32 63  1  0
 33 34  2  0
 33 64  1  0
 34 35  1  0
 34 65  1  0
 36 66  1  0
 37 67  1  0
 38 68  1  0
 38 69  1  0
M  CHG  1  14   1
M  END
>  <DOCK_score>  (1) 
-58.958424

>  <SMILES>  (1) 
CC1=CCCN(c2ccc(Cl)c(C[NH2+][C@H](C)Cc3cccc(-c4cccc5ccccc45)c3)c2)C1

$$$$
