OCC[NH2+]C[C@H]1CC=C(c2n[nH]cc2CC2CC=CC2)CC1
     RDKit          3D

 50 52  0  0  1  0  0  0  0  0999 V2000
  132.5237  133.7944  153.4295 O   0  0  0  0  0  0  0  0  0  0  0  0
  131.3307  133.0479  153.1821 C   0  0  0  0  0  0  0  0  0  0  0  0
  130.9146  132.3136  154.4582 C   0  0  0  0  0  0  0  0  0  0  0  0
  130.6681  133.2907  155.5272 N   0  0  0  0  0  0  0  0  0  0  0  0
  131.5106  133.8178  155.7018 H   0  0  0  0  0  0  0  0  0  0  0  0
  129.9306  133.9190  155.2451 H   0  0  0  0  0  0  0  0  0  0  0  0
  130.2687  132.5857  156.7525 C   0  0  0  0  0  0  0  0  0  0  0  0
  130.0119  133.6033  157.8658 C   0  0  1  0  0  0  0  0  0  0  0  0
  130.9206  134.1743  158.0566 H   0  0  0  0  0  0  0  0  0  0  0  0
  128.8873  134.5521  157.4458 C   0  0  0  0  0  0  0  0  0  0  0  0
  128.4467  135.3807  158.6183 C   0  0  0  0  0  0  0  0  0  0  0  0
  128.7225  135.0878  159.8658 C   0  0  0  0  0  0  0  0  0  0  0  0
  128.2185  135.9928  160.9207 C   0  0  0  0  0  0  0  0  0  0  0  0
  126.9540  136.2757  161.1610 N   0  0  0  0  0  0  0  0  0  0  0  0
  126.9055  137.1691  162.2386 N   0  0  0  0  0  0  0  0  0  0  0  0
  126.1016  137.5455  162.6297 H   0  0  0  0  0  0  0  0  0  0  0  0
  128.1717  137.4153  162.6391 C   0  0  0  0  0  0  0  0  0  0  0  0
  129.0050  136.7015  161.8520 C   0  0  0  0  0  0  0  0  0  0  0  0
  130.5085  136.6705  161.9494 C   0  0  0  0  0  0  0  0  0  0  0  0
  131.1151  137.1636  160.6341 C   0  0  0  0  0  0  0  0  0  0  0  0
  132.6566  137.2417  160.7286 C   0  0  0  0  0  0  0  0  0  0  0  0
  133.0276  138.4765  159.9405 C   0  0  0  0  0  0  0  0  0  0  0  0
  131.9874  139.2408  159.7473 C   0  0  0  0  0  0  0  0  0  0  0  0
  130.7492  138.6434  160.3744 C   0  0  0  0  0  0  0  0  0  0  0  0
  129.5201  133.8879  160.2864 C   0  0  0  0  0  0  0  0  0  0  0  0
  129.5850  132.8717  159.1442 C   0  0  0  0  0  0  0  0  0  0  0  0
  132.4342  134.4600  154.1253 H   0  0  0  0  0  0  0  0  0  0  0  0
  131.5136  132.3229  152.3890 H   0  0  0  0  0  0  0  0  0  0  0  0
  130.5341  133.7266  152.8774 H   0  0  0  0  0  0  0  0  0  0  0  0
  130.0044  131.7443  154.2696 H   0  0  0  0  0  0  0  0  0  0  0  0
  131.7112  131.6349  154.7631 H   0  0  0  0  0  0  0  0  0  0  0  0
  129.3585  132.0164  156.5638 H   0  0  0  0  0  0  0  0  0  0  0  0
  131.0653  131.9070  157.0572 H   0  0  0  0  0  0  0  0  0  0  0  0
  129.2446  135.2065  156.6507 H   0  0  0  0  0  0  0  0  0  0  0  0
  128.0416  133.9701  157.0794 H   0  0  0  0  0  0  0  0  0  0  0  0
  127.8708  136.2727  158.4210 H   0  0  0  0  0  0  0  0  0  0  0  0
  128.4658  138.0653  163.4498 H   0  0  0  0  0  0  0  0  0  0  0  0
  130.8333  137.3174  162.7643 H   0  0  0  0  0  0  0  0  0  0  0  0
  130.8392  135.6498  162.1420 H   0  0  0  0  0  0  0  0  0  0  0  0
  130.8049  136.5319  159.8018 H   0  0  0  0  0  0  0  0  0  0  0  0
  132.9686  137.3465  161.7678 H   0  0  0  0  0  0  0  0  0  0  0  0
  133.1096  136.3563  160.2827 H   0  0  0  0  0  0  0  0  0  0  0  0
  134.0227  138.6972  159.5836 H   0  0  0  0  0  0  0  0  0  0  0  0
  132.0089  140.1775  159.2103 H   0  0  0  0  0  0  0  0  0  0  0  0
  129.9054  138.7110  159.6878 H   0  0  0  0  0  0  0  0  0  0  0  0
  130.5176  139.1477  161.3127 H   0  0  0  0  0  0  0  0  0  0  0  0
  129.0487  133.4267  161.1542 H   0  0  0  0  0  0  0  0  0  0  0  0
  130.5305  134.2020  160.5484 H   0  0  0  0  0  0  0  0  0  0  0  0
  128.6030  132.4218  158.9982 H   0  0  0  0  0  0  0  0  0  0  0  0
  130.3137  132.0975  159.3839 H   0  0  0  0  0  0  0  0  0  0  0  0
  1  2  1  0
  1 27  1  0
  2  3  1  0
  2 28  1  0
  2 29  1  0
  3  4  1  0
  3 30  1  0
  3 31  1  0
  4  5  1  0
  4  6  1  0
  4  7  1  0
  7  8  1  0
  7 32  1  0
  7 33  1  0
  8  9  1  1
  8 26  1  0
  8 10  1  0
 10 11  1  0
 10 34  1  0
 10 35  1  0
 11 12  2  0
 11 36  1  0
 12 13  1  0
 12 25  1  0
 13 18  1  0
 13 14  2  0
 14 15  1  0
 15 16  1  0
 15 17  1  0
 17 18  2  0
 17 37  1  0
 18 19  1  0
 19 20  1  0
 19 38  1  0
 19 39  1  0
 20 24  1  0
 20 21  1  0
 20 40  1  0
 21 22  1  0
 21 41  1  0
 21 42  1  0
 22 23  2  0
 22 43  1  0
 23 24  1  0
 23 44  1  0
 24 45  1  0
 24 46  1  0
 25 26  1  0
 25 47  1  0
 25 48  1  0
 26 49  1  0
 26 50  1  0
M  CHG  1   4   1
M  END
>  <DOCK_score>  (1) 
-43.110378

>  <SMILES>  (1) 
OCC[NH2+]C[C@H]1CC=C(c2n[nH]cc2CC2CC=CC2)CC1

$$$$
