Oc1ccc2c(c1)C(O)(CC1CCC[N@H+](Cc3ccc(C(F)F)cc3)C1)c1cc(O)ccc1-2
     RDKit          3D

 61 65  0  0  1  0  0  0  0  0999 V2000
  124.1995  134.8062  161.5771 O   0  0  0  0  0  0  0  0  0  0  0  0
  125.1507  134.0710  160.9435 C   0  0  0  0  0  0  0  0  0  0  0  0
  124.8855  132.7575  160.5806 C   0  0  0  0  0  0  0  0  0  0  0  0
  125.8453  132.0100  159.9328 C   0  0  0  0  0  0  0  0  0  0  0  0
  127.0935  132.5692  159.6496 C   0  0  0  0  0  0  0  0  0  0  0  0
  127.3543  133.8856  160.0218 C   0  0  0  0  0  0  0  0  0  0  0  0
  126.3901  134.6314  160.6642 C   0  0  0  0  0  0  0  0  0  0  0  0
  128.7641  134.2091  159.5912 C   0  0  0  0  0  0  0  0  0  0  0  0
  128.7572  135.2906  158.6571 O   0  0  0  0  0  0  0  0  0  0  0  0
  129.6173  134.5693  160.8090 C   0  0  0  0  0  0  0  0  0  0  0  0
  130.8483  135.3562  160.3545 C   0  0  2  0  0  0  0  0  0  0  0  0
  131.9250  135.2939  161.4417 C   0  0  0  0  0  0  0  0  0  0  0  0
  133.1208  136.1484  161.0114 C   0  0  0  0  0  0  0  0  0  0  0  0
  132.6487  137.5791  160.7443 C   0  0  0  0  0  0  0  0  0  0  0  0
  131.6400  137.5743  159.6780 N   0  0  2  0  0  0  0  0  0  0  0  0
  132.0283  137.1460  158.8510 H   0  0  0  0  0  0  0  0  0  0  0  0
  131.2472  138.9566  159.3732 C   0  0  0  0  0  0  0  0  0  0  0  0
  131.1413  139.7429  160.6543 C   0  0  0  0  0  0  0  0  0  0  0  0
  129.9378  139.8011  161.3320 C   0  0  0  0  0  0  0  0  0  0  0  0
  129.8417  140.5189  162.5097 C   0  0  0  0  0  0  0  0  0  0  0  0
  130.9467  141.1858  163.0046 C   0  0  0  0  0  0  0  0  0  0  0  0
  130.8411  141.9714  164.2864 C   0  0  0  0  0  0  0  0  0  0  0  0
  129.8781  141.3848  165.1146 F   0  0  0  0  0  0  0  0  0  0  0  0
  132.0793  141.9703  164.9374 F   0  0  0  0  0  0  0  0  0  0  0  0
  132.1488  141.1320  162.3241 C   0  0  0  0  0  0  0  0  0  0  0  0
  132.2460  140.4107  161.1488 C   0  0  0  0  0  0  0  0  0  0  0  0
  130.4602  136.8164  160.1118 C   0  0  0  0  0  0  0  0  0  0  0  0
  129.2968  132.9590  158.9348 C   0  0  0  0  0  0  0  0  0  0  0  0
  130.5128  132.6647  158.3577 C   0  0  0  0  0  0  0  0  0  0  0  0
  130.7384  131.4053  157.8177 C   0  0  0  0  0  0  0  0  0  0  0  0
  131.9377  131.1146  157.2487 O   0  0  0  0  0  0  0  0  0  0  0  0
  129.7384  130.4433  157.8597 C   0  0  0  0  0  0  0  0  0  0  0  0
  128.5207  130.7338  158.4363 C   0  0  0  0  0  0  0  0  0  0  0  0
  128.2889  131.9989  158.9806 C   0  0  0  0  0  0  0  0  0  0  0  0
  124.4777  135.7069  161.7931 H   0  0  0  0  0  0  0  0  0  0  0  0
  123.9226  132.3215  160.8025 H   0  0  0  0  0  0  0  0  0  0  0  0
  125.6339  130.9899  159.6483 H   0  0  0  0  0  0  0  0  0  0  0  0
  126.5984  135.6517  160.9507 H   0  0  0  0  0  0  0  0  0  0  0  0
  128.2444  135.1152  157.8562 H   0  0  0  0  0  0  0  0  0  0  0  0
  129.0304  135.1781  161.4966 H   0  0  0  0  0  0  0  0  0  0  0  0
  129.9352  133.6564  161.3127 H   0  0  0  0  0  0  0  0  0  0  0  0
  131.2361  134.9244  159.4320 H   0  0  0  0  0  0  0  0  0  0  0  0
  131.5206  135.6783  162.3779 H   0  0  0  0  0  0  0  0  0  0  0  0
  132.2455  134.2610  161.5785 H   0  0  0  0  0  0  0  0  0  0  0  0
  133.5566  135.7332  160.1025 H   0  0  0  0  0  0  0  0  0  0  0  0
  133.8690  136.1539  161.8041 H   0  0  0  0  0  0  0  0  0  0  0  0
  133.4977  138.1902  160.4379 H   0  0  0  0  0  0  0  0  0  0  0  0
  132.2134  137.9934  161.6536 H   0  0  0  0  0  0  0  0  0  0  0  0
  131.9971  139.4134  158.7273 H   0  0  0  0  0  0  0  0  0  0  0  0
  130.2824  138.9567  158.8659 H   0  0  0  0  0  0  0  0  0  0  0  0
  129.0735  139.2831  160.9434 H   0  0  0  0  0  0  0  0  0  0  0  0
  128.9027  140.5607  163.0414 H   0  0  0  0  0  0  0  0  0  0  0  0
  130.5500  142.9973  164.0608 H   0  0  0  0  0  0  0  0  0  0  0  0
  133.0121  141.6532  162.7108 H   0  0  0  0  0  0  0  0  0  0  0  0
  133.1851  140.3687  160.6172 H   0  0  0  0  0  0  0  0  0  0  0  0
  129.6935  136.8643  159.3385 H   0  0  0  0  0  0  0  0  0  0  0  0
  130.0716  137.2469  161.0347 H   0  0  0  0  0  0  0  0  0  0  0  0
  131.2905  133.4134  158.3252 H   0  0  0  0  0  0  0  0  0  0  0  0
  132.5695  131.8465  157.2671 H   0  0  0  0  0  0  0  0  0  0  0  0
  129.9154  129.4642  157.4397 H   0  0  0  0  0  0  0  0  0  0  0  0
  127.7451  129.9827  158.4667 H   0  0  0  0  0  0  0  0  0  0  0  0
  1  2  1  0
  1 35  1  0
  2  7  2  0
  2  3  1  0
  3  4  2  0
  3 36  1  0
  4  5  1  0
  4 37  1  0
  5 34  1  0
  5  6  2  0
  6  7  1  0
  6  8  1  0
  7 38  1  0
  8  9  1  0
  8 10  1  0
  8 28  1  0
  9 39  1  0
 10 11  1  0
 10 40  1  0
 10 41  1  0
 11 27  1  0
 11 12  1  0
 11 42  1  6
 12 13  1  0
 12 43  1  0
 12 44  1  0
 13 14  1  0
 13 45  1  0
 13 46  1  0
 14 15  1  0
 14 47  1  0
 14 48  1  0
 15 16  1  6
 15 17  1  0
 15 27  1  0
 17 18  1  0
 17 49  1  0
 17 50  1  0
 18 26  1  0
 18 19  2  0
 19 20  1  0
 19 51  1  0
 20 21  2  0
 20 52  1  0
 21 22  1  0
 21 25  1  0
 22 23  1  0
 22 24  1  0
 22 53  1  0
 25 26  2  0
 25 54  1  0
 26 55  1  0
 27 56  1  0
 27 57  1  0
 28 34  2  0
 28 29  1  0
 29 30  2  0
 29 58  1  0
 30 31  1  0
 30 32  1  0
 31 59  1  0
 32 33  2  0
 32 60  1  0
 33 34  1  0
 33 61  1  0
M  CHG  1  15   1
M  END
>  <DOCK_score>  (1) 
-50.62484

>  <SMILES>  (1) 
Oc1ccc2c(c1)C(O)(CC1CCC[N@H+](Cc3ccc(C(F)F)cc3)C1)c1cc(O)ccc1-2

$$$$
