CCc1ccc(-c2c[nH]c(N[C@@H](CO)Cc3ccc(-c4ccccc4)cc3)[nH+]2)cc1
     RDKit          3D

 58 61  0  0  1  0  0  0  0  0999 V2000
  130.2744  128.5908  152.2212 C   0  0  0  0  0  0  0  0  0  0  0  0
  131.2650  129.7501  152.3449 C   0  0  0  0  0  0  0  0  0  0  0  0
  130.9901  130.5125  153.6154 C   0  0  0  0  0  0  0  0  0  0  0  0
  131.6257  130.1483  154.7883 C   0  0  0  0  0  0  0  0  0  0  0  0
  131.3823  130.8463  155.9538 C   0  0  0  0  0  0  0  0  0  0  0  0
  130.4853  131.9129  155.9496 C   0  0  0  0  0  0  0  0  0  0  0  0
  130.2153  132.6634  157.2003 C   0  0  0  0  0  0  0  0  0  0  0  0
  129.7156  132.1456  158.3497 C   0  0  0  0  0  0  0  0  0  0  0  0
  129.6255  133.1815  159.2474 N   0  0  0  0  0  0  0  0  0  0  0  0
  129.3022  133.1242  160.1601 H   0  0  0  0  0  0  0  0  0  0  0  0
  130.0731  134.3030  158.6198 C   0  0  0  0  0  0  0  0  0  0  0  0
  130.1452  135.5666  159.1806 N   0  0  0  0  0  0  0  0  0  0  0  0
  129.1905  135.9628  160.2188 C   0  0  1  0  0  0  0  0  0  0  0  0
  128.2004  135.5836  159.9657 H   0  0  0  0  0  0  0  0  0  0  0  0
  129.6303  135.3824  161.5644 C   0  0  0  0  0  0  0  0  0  0  0  0
  129.2397  134.0100  161.6417 O   0  0  0  0  0  0  0  0  0  0  0  0
  129.1434  137.4891  160.3128 C   0  0  0  0  0  0  0  0  0  0  0  0
  130.5123  138.0134  160.6628 C   0  0  0  0  0  0  0  0  0  0  0  0
  131.4057  138.3331  159.6564 C   0  0  0  0  0  0  0  0  0  0  0  0
  132.6589  138.8183  159.9711 C   0  0  0  0  0  0  0  0  0  0  0  0
  133.0273  138.9756  161.3056 C   0  0  0  0  0  0  0  0  0  0  0  0
  134.3755  139.4909  161.6503 C   0  0  0  0  0  0  0  0  0  0  0  0
  134.9905  139.1008  162.8381 C   0  0  0  0  0  0  0  0  0  0  0  0
  136.2468  139.5794  163.1515 C   0  0  0  0  0  0  0  0  0  0  0  0
  136.8904  140.4531  162.2937 C   0  0  0  0  0  0  0  0  0  0  0  0
  136.2822  140.8477  161.1157 C   0  0  0  0  0  0  0  0  0  0  0  0
  135.0285  140.3712  160.7900 C   0  0  0  0  0  0  0  0  0  0  0  0
  132.1252  138.6469  162.3155 C   0  0  0  0  0  0  0  0  0  0  0  0
  130.8727  138.1677  161.9893 C   0  0  0  0  0  0  0  0  0  0  0  0
  130.4301  133.9883  157.3985 N   0  0  0  0  0  0  0  0  0  0  0  0
  130.7884  134.6046  156.7408 H   0  0  0  0  0  0  0  0  0  0  0  0
  129.8432  132.2721  154.7659 C   0  0  0  0  0  0  0  0  0  0  0  0
  130.0986  131.5706  153.6051 C   0  0  0  0  0  0  0  0  0  0  0  0
  130.3873  127.9243  153.0762 H   0  0  0  0  0  0  0  0  0  0  0  0
  129.2574  128.9822  152.1974 H   0  0  0  0  0  0  0  0  0  0  0  0
  130.4731  128.0395  151.3021 H   0  0  0  0  0  0  0  0  0  0  0  0
  132.2816  129.3592  152.3681 H   0  0  0  0  0  0  0  0  0  0  0  0
  131.1517  130.4171  151.4893 H   0  0  0  0  0  0  0  0  0  0  0  0
  132.3170  129.3185  154.7914 H   0  0  0  0  0  0  0  0  0  0  0  0
  131.8828  130.5638  156.8682 H   0  0  0  0  0  0  0  0  0  0  0  0
  129.4408  131.1161  158.5255 H   0  0  0  0  0  0  0  0  0  0  0  0
  130.8279  136.1897  158.8862 H   0  0  0  0  0  0  0  0  0  0  0  0
  130.7138  135.4575  161.6558 H   0  0  0  0  0  0  0  0  0  0  0  0
  129.1580  135.9407  162.3727 H   0  0  0  0  0  0  0  0  0  0  0  0
  128.2860  133.8677  161.5675 H   0  0  0  0  0  0  0  0  0  0  0  0
  128.8303  137.9026  159.3541 H   0  0  0  0  0  0  0  0  0  0  0  0
  128.4330  137.7839  161.0851 H   0  0  0  0  0  0  0  0  0  0  0  0
  131.1207  138.2069  158.6223 H   0  0  0  0  0  0  0  0  0  0  0  0
  133.3544  139.0712  159.1845 H   0  0  0  0  0  0  0  0  0  0  0  0
  134.4871  138.4220  163.5104 H   0  0  0  0  0  0  0  0  0  0  0  0
  136.7261  139.2745  164.0698 H   0  0  0  0  0  0  0  0  0  0  0  0
  137.8713  140.8287  162.5449 H   0  0  0  0  0  0  0  0  0  0  0  0
  136.7892  141.5304  160.4498 H   0  0  0  0  0  0  0  0  0  0  0  0
  134.5545  140.6802  159.8701 H   0  0  0  0  0  0  0  0  0  0  0  0
  132.4054  138.7674  163.3516 H   0  0  0  0  0  0  0  0  0  0  0  0
  130.1727  137.9123  162.7711 H   0  0  0  0  0  0  0  0  0  0  0  0
  129.1470  133.0978  154.7569 H   0  0  0  0  0  0  0  0  0  0  0  0
  129.6014  131.8479  152.6873 H   0  0  0  0  0  0  0  0  0  0  0  0
  1  2  1  0
  1 34  1  0
  1 35  1  0
  1 36  1  0
  2  3  1  0
  2 37  1  0
  2 38  1  0
  3 33  2  0
  3  4  1  0
  4  5  2  0
  4 39  1  0
  5  6  1  0
  5 40  1  0
  6  7  1  0
  6 32  2  0
  7 30  1  0
  7  8  2  0
  8  9  1  0
  8 41  1  0
  9 10  1  0
  9 11  1  0
 11 12  1  0
 11 30  2  0
 12 13  1  0
 12 42  1  0
 13 14  1  6
 13 15  1  0
 13 17  1  0
 15 16  1  0
 15 43  1  0
 15 44  1  0
 16 45  1  0
 17 18  1  0
 17 46  1  0
 17 47  1  0
 18 29  1  0
 18 19  2  0
 19 20  1  0
 19 48  1  0
 20 21  2  0
 20 49  1  0
 21 22  1  0
 21 28  1  0
 22 27  1  0
 22 23  2  0
 23 24  1  0
 23 50  1  0
 24 25  2  0
 24 51  1  0
 25 26  1  0
 25 52  1  0
 26 27  2  0
 26 53  1  0
 27 54  1  0
 28 29  2  0
 28 55  1  0
 29 56  1  0
 30 31  1  0
 32 33  1  0
 32 57  1  0
 33 58  1  0
M  CHG  1  30   1
M  END
>  <DOCK_score>  (1) 
-58.3036

>  <SMILES>  (1) 
CCc1ccc(-c2c[nH]c(N[C@@H](CO)Cc3ccc(-c4ccccc4)cc3)[nH+]2)cc1

$$$$
