OC[C@@H](Sc1cc(Nc2[nH]cc(-c3ccccc3)[nH+]2)c(F)cc1O)c1ccc(F)cc1
     RDKit          3D

 51 54  0  0  1  0  0  0  0  0999 V2000
  129.0623  138.3367  165.3776 O   0  0  0  0  0  0  0  0  0  0  0  0
  130.2037  137.9120  164.6298 C   0  0  0  0  0  0  0  0  0  0  0  0
  129.7528  137.0077  163.4809 C   0  0  1  0  0  0  0  0  0  0  0  0
  128.9573  136.3485  163.8281 H   0  0  0  0  0  0  0  0  0  0  0  0
  129.1384  138.0287  162.1131 S   0  0  0  0  0  0  0  0  0  0  0  0
  128.6732  136.8338  160.9046 C   0  0  0  0  0  0  0  0  0  0  0  0
  129.5960  136.4039  159.9619 C   0  0  0  0  0  0  0  0  0  0  0  0
  129.2271  135.4630  159.0111 C   0  0  0  0  0  0  0  0  0  0  0  0
  130.1578  135.0279  158.0580 N   0  0  0  0  0  0  0  0  0  0  0  0
  130.0727  133.7455  157.5422 C   0  0  0  0  0  0  0  0  0  0  0  0
  129.5891  132.6565  158.2003 N   0  0  0  0  0  0  0  0  0  0  0  0
  129.2452  132.6391  159.1072 H   0  0  0  0  0  0  0  0  0  0  0  0
  129.6749  131.5876  157.3421 C   0  0  0  0  0  0  0  0  0  0  0  0
  130.2166  132.0515  156.1885 C   0  0  0  0  0  0  0  0  0  0  0  0
  130.5024  131.2491  154.9741 C   0  0  0  0  0  0  0  0  0  0  0  0
  129.8904  131.5701  153.7636 C   0  0  0  0  0  0  0  0  0  0  0  0
  130.1645  130.8238  152.6356 C   0  0  0  0  0  0  0  0  0  0  0  0
  131.0361  129.7516  152.7075 C   0  0  0  0  0  0  0  0  0  0  0  0
  131.6417  129.4252  153.9072 C   0  0  0  0  0  0  0  0  0  0  0  0
  131.3795  130.1681  155.0403 C   0  0  0  0  0  0  0  0  0  0  0  0
  130.4498  133.3788  156.3414 N   0  0  0  0  0  0  0  0  0  0  0  0
  130.8346  133.9633  155.6698 H   0  0  0  0  0  0  0  0  0  0  0  0
  127.9340  134.9519  159.0039 C   0  0  0  0  0  0  0  0  0  0  0  0
  127.5759  134.0358  158.0779 F   0  0  0  0  0  0  0  0  0  0  0  0
  127.0138  135.3802  159.9441 C   0  0  0  0  0  0  0  0  0  0  0  0
  127.3802  136.3156  160.8979 C   0  0  0  0  0  0  0  0  0  0  0  0
  126.4756  136.7318  161.8256 O   0  0  0  0  0  0  0  0  0  0  0  0
  130.9194  136.1805  163.0054 C   0  0  0  0  0  0  0  0  0  0  0  0
  130.7033  134.9220  162.4756 C   0  0  0  0  0  0  0  0  0  0  0  0
  131.7718  134.1648  162.0341 C   0  0  0  0  0  0  0  0  0  0  0  0
  133.0600  134.6627  162.1326 C   0  0  0  0  0  0  0  0  0  0  0  0
  134.1058  133.9211  161.7065 F   0  0  0  0  0  0  0  0  0  0  0  0
  133.2756  135.9209  162.6687 C   0  0  0  0  0  0  0  0  0  0  0  0
  132.2053  136.6784  163.1047 C   0  0  0  0  0  0  0  0  0  0  0  0
  129.2737  138.9146  166.1237 H   0  0  0  0  0  0  0  0  0  0  0  0
  130.8808  137.3604  165.2821 H   0  0  0  0  0  0  0  0  0  0  0  0
  130.7181  138.7838  164.2257 H   0  0  0  0  0  0  0  0  0  0  0  0
  130.6004  136.8009  159.9683 H   0  0  0  0  0  0  0  0  0  0  0  0
  130.8615  135.6250  157.7597 H   0  0  0  0  0  0  0  0  0  0  0  0
  129.3731  130.5713  157.5482 H   0  0  0  0  0  0  0  0  0  0  0  0
  129.2065  132.4041  153.7076 H   0  0  0  0  0  0  0  0  0  0  0  0
  129.6944  131.0744  151.6962 H   0  0  0  0  0  0  0  0  0  0  0  0
  131.2443  129.1680  151.8229 H   0  0  0  0  0  0  0  0  0  0  0  0
  132.3215  128.5873  153.9573 H   0  0  0  0  0  0  0  0  0  0  0  0
  131.8534  129.9123  155.9766 H   0  0  0  0  0  0  0  0  0  0  0  0
  126.0100  134.9819  159.9370 H   0  0  0  0  0  0  0  0  0  0  0  0
  125.6062  136.3166  161.7412 H   0  0  0  0  0  0  0  0  0  0  0  0
  129.6987  134.5321  162.4029 H   0  0  0  0  0  0  0  0  0  0  0  0
  131.6024  133.1833  161.6163 H   0  0  0  0  0  0  0  0  0  0  0  0
  134.2801  136.3102  162.7463 H   0  0  0  0  0  0  0  0  0  0  0  0
  132.3732  137.6599  163.5228 H   0  0  0  0  0  0  0  0  0  0  0  0
  1  2  1  0
  1 35  1  0
  2  3  1  0
  2 36  1  0
  2 37  1  0
  3  4  1  1
  3  5  1  0
  3 28  1  0
  5  6  1  0
  6 26  1  0
  6  7  2  0
  7  8  1  0
  7 38  1  0
  8  9  1  0
  8 23  2  0
  9 39  1  0
 10  9  1  0
 10 21  2  0
 10 11  1  0
 11 12  1  0
 11 13  1  0
 13 14  2  0
 13 40  1  0
 14 15  1  0
 14 21  1  0
 15 20  1  0
 15 16  2  0
 16 17  1  0
 16 41  1  0
 17 18  2  0
 17 42  1  0
 18 19  1  0
 18 43  1  0
 19 20  2  0
 19 44  1  0
 20 45  1  0
 21 22  1  0
 23 24  1  0
 23 25  1  0
 25 26  2  0
 25 46  1  0
 26 27  1  0
 27 47  1  0
 28 34  1  0
 28 29  2  0
 29 30  1  0
 29 48  1  0
 30 31  2  0
 30 49  1  0
 31 32  1  0
 31 33  1  0
 33 34  2  0
 33 50  1  0
 34 51  1  0
M  CHG  1  21   1
M  END
>  <DOCK_score>  (1) 
-55.03957

>  <SMILES>  (1) 
OC[C@@H](Sc1cc(Nc2[nH]cc(-c3ccccc3)[nH+]2)c(F)cc1O)c1ccc(F)cc1

$$$$
