Cc1nn(-c2ccc(F)cc2)cc1C[NH+]=C(NC=C1NCCN1)NC1CC=CC1
     RDKit          3D

 56 59  0  0  1  0  0  0  0  0999 V2000
  133.0795  134.5432  163.0532 C   0  0  0  0  0  0  0  0  0  0  0  0
  133.4728  135.6528  162.1122 C   0  0  0  0  0  0  0  0  0  0  0  0
  134.0144  136.7939  162.4555 N   0  0  0  0  0  0  0  0  0  0  0  0
  134.2302  137.5436  161.2920 N   0  0  0  0  0  0  0  0  0  0  0  0
  134.7985  138.8242  161.2290 C   0  0  0  0  0  0  0  0  0  0  0  0
  134.9600  139.4534  160.0020 C   0  0  0  0  0  0  0  0  0  0  0  0
  135.5158  140.7163  159.9423 C   0  0  0  0  0  0  0  0  0  0  0  0
  135.9209  141.3511  161.1045 C   0  0  0  0  0  0  0  0  0  0  0  0
  136.4689  142.5844  161.0438 F   0  0  0  0  0  0  0  0  0  0  0  0
  135.7656  140.7228  162.3289 C   0  0  0  0  0  0  0  0  0  0  0  0
  135.2058  139.4621  162.3930 C   0  0  0  0  0  0  0  0  0  0  0  0
  133.7915  136.8151  160.2409 C   0  0  0  0  0  0  0  0  0  0  0  0
  133.3215  135.6406  160.7214 C   0  0  0  0  0  0  0  0  0  0  0  0
  132.7376  134.5180  159.9031 C   0  0  0  0  0  0  0  0  0  0  0  0
  131.2915  134.7118  159.7696 N   0  0  0  0  0  0  0  0  0  0  0  0
  130.8650  135.4790  160.1824 H   0  0  0  0  0  0  0  0  0  0  0  0
  130.5775  133.8526  159.0957 C   0  0  0  0  0  0  0  0  0  0  0  0
  129.2655  133.6336  159.4360 N   0  0  0  0  0  0  0  0  0  0  0  0
  128.5031  134.6722  160.0109 C   0  0  0  0  0  0  0  0  0  0  0  0
  127.2302  134.4598  160.3410 C   0  0  0  0  0  0  0  0  0  0  0  0
  126.5670  133.2515  160.1510 N   0  0  0  0  0  0  0  0  0  0  0  0
  125.1861  133.3857  160.6321 C   0  0  0  0  0  0  0  0  0  0  0  0
  125.0751  134.8341  161.1363 C   0  0  0  0  0  0  0  0  0  0  0  0
  126.4021  135.4214  160.9116 N   0  0  0  0  0  0  0  0  0  0  0  0
  131.1393  133.1658  158.0441 N   0  0  0  0  0  0  0  0  0  0  0  0
  130.3376  132.2010  157.2873 C   0  0  0  0  0  0  0  0  0  0  0  0
  130.5967  130.7577  157.7781 C   0  0  0  0  0  0  0  0  0  0  0  0
  130.5612  129.9137  156.5252 C   0  0  0  0  0  0  0  0  0  0  0  0
  130.6794  130.6538  155.4565 C   0  0  0  0  0  0  0  0  0  0  0  0
  130.8136  132.1147  155.8185 C   0  0  0  0  0  0  0  0  0  0  0  0
  133.9198  133.8611  163.1819 H   0  0  0  0  0  0  0  0  0  0  0  0
  132.8039  134.9666  164.0190 H   0  0  0  0  0  0  0  0  0  0  0  0
  132.2303  133.9996  162.6391 H   0  0  0  0  0  0  0  0  0  0  0  0
  134.6477  138.9570  159.0951 H   0  0  0  0  0  0  0  0  0  0  0  0
  135.6383  141.2074  158.9883 H   0  0  0  0  0  0  0  0  0  0  0  0
  136.0829  141.2190  163.2341 H   0  0  0  0  0  0  0  0  0  0  0  0
  135.0845  138.9725  163.3481 H   0  0  0  0  0  0  0  0  0  0  0  0
  133.8161  137.1148  159.2035 H   0  0  0  0  0  0  0  0  0  0  0  0
  133.1961  134.5125  158.9142 H   0  0  0  0  0  0  0  0  0  0  0  0
  132.9324  133.5671  160.3990 H   0  0  0  0  0  0  0  0  0  0  0  0
  128.8627  132.7649  159.2810 H   0  0  0  0  0  0  0  0  0  0  0  0
  128.9516  135.6394  160.1835 H   0  0  0  0  0  0  0  0  0  0  0  0
  126.9545  132.4501  159.7657 H   0  0  0  0  0  0  0  0  0  0  0  0
  124.9961  132.6862  161.4462 H   0  0  0  0  0  0  0  0  0  0  0  0
  124.4858  133.2151  159.8145 H   0  0  0  0  0  0  0  0  0  0  0  0
  124.8305  134.8472  162.1983 H   0  0  0  0  0  0  0  0  0  0  0  0
  124.3200  135.3772  160.5680 H   0  0  0  0  0  0  0  0  0  0  0  0
  126.6595  136.3317  161.1262 H   0  0  0  0  0  0  0  0  0  0  0  0
  132.0664  133.3204  157.8037 H   0  0  0  0  0  0  0  0  0  0  0  0
  129.2776  132.4489  157.3411 H   0  0  0  0  0  0  0  0  0  0  0  0
  131.5744  130.6886  158.2549 H   0  0  0  0  0  0  0  0  0  0  0  0
  129.8135  130.4452  158.4688 H   0  0  0  0  0  0  0  0  0  0  0  0
  130.4519  128.8393  156.5152 H   0  0  0  0  0  0  0  0  0  0  0  0
  130.6809  130.2722  154.4463 H   0  0  0  0  0  0  0  0  0  0  0  0
  130.1778  132.7247  155.1770 H   0  0  0  0  0  0  0  0  0  0  0  0
  131.8524  132.4342  155.7366 H   0  0  0  0  0  0  0  0  0  0  0  0
  1  2  1  0
  1 31  1  0
  1 32  1  0
  1 33  1  0
  2 13  1  0
  2  3  2  0
  3  4  1  0
  4  5  1  0
  4 12  1  0
  5 11  1  0
  5  6  2  0
  6  7  1  0
  6 34  1  0
  7  8  2  0
  7 35  1  0
  8  9  1  0
  8 10  1  0
 10 11  2  0
 10 36  1  0
 11 37  1  0
 12 13  2  0
 12 38  1  0
 13 14  1  0
 14 15  1  0
 14 39  1  0
 14 40  1  0
 15 16  1  0
 17 15  2  0
 17 18  1  0
 17 25  1  0
 18 19  1  0
 18 41  1  0
 19 20  2  0
 19 42  1  0
 20 24  1  0
 20 21  1  0
 21 22  1  0
 21 43  1  0
 22 23  1  0
 22 44  1  0
 22 45  1  0
 23 24  1  0
 23 46  1  0
 23 47  1  0
 24 48  1  0
 25 26  1  0
 25 49  1  0
 26 30  1  0
 26 27  1  0
 26 50  1  0
 27 28  1  0
 27 51  1  0
 27 52  1  0
 28 29  2  0
 28 53  1  0
 29 30  1  0
 29 54  1  0
 30 55  1  0
 30 56  1  0
M  CHG  1  15   1
M  END
>  <DOCK_score>  (1) 
-50.057476

>  <SMILES>  (1) 
Cc1nn(-c2ccc(F)cc2)cc1C[NH+]=C(NC=C1NCCN1)NC1CC=CC1

$$$$
