CCc1ccc(-c2c[nH]c(NCc3ccc([C@]4(O)COc5ccc(F)cc54)cc3)[nH+]2)cc1
     RDKit          3D

 57 61  0  0  1  0  0  0  0  0999 V2000
  130.3716  128.5035  151.7382 C   0  0  0  0  0  0  0  0  0  0  0  0
  131.4980  129.4791  152.0844 C   0  0  0  0  0  0  0  0  0  0  0  0
  131.1409  130.2343  153.3387 C   0  0  0  0  0  0  0  0  0  0  0  0
  131.5092  129.7322  154.5734 C   0  0  0  0  0  0  0  0  0  0  0  0
  131.1898  130.4221  155.7252 C   0  0  0  0  0  0  0  0  0  0  0  0
  130.4848  131.6217  155.6429 C   0  0  0  0  0  0  0  0  0  0  0  0
  130.1339  132.3650  156.8776 C   0  0  0  0  0  0  0  0  0  0  0  0
  129.3762  131.8993  157.9013 C   0  0  0  0  0  0  0  0  0  0  0  0
  129.3032  132.9059  158.8333 N   0  0  0  0  0  0  0  0  0  0  0  0
  128.8292  132.8726  159.6789 H   0  0  0  0  0  0  0  0  0  0  0  0
  130.0191  133.9582  158.3514 C   0  0  0  0  0  0  0  0  0  0  0  0
  130.1956  135.1736  158.9904 N   0  0  0  0  0  0  0  0  0  0  0  0
  129.5838  135.4079  160.3008 C   0  0  0  0  0  0  0  0  0  0  0  0
  130.4353  136.3703  161.0879 C   0  0  0  0  0  0  0  0  0  0  0  0
  130.7151  136.1173  162.4178 C   0  0  0  0  0  0  0  0  0  0  0  0
  131.5002  136.9976  163.1385 C   0  0  0  0  0  0  0  0  0  0  0  0
  131.9975  138.1359  162.5323 C   0  0  0  0  0  0  0  0  0  0  0  0
  132.8491  139.0983  163.3194 C   0  0  2  0  0  0  0  0  0  0  0  0
  132.9464  138.6907  164.6855 O   0  0  0  0  0  0  0  0  0  0  0  0
  132.2985  140.5402  163.2105 C   0  0  0  0  0  0  0  0  0  0  0  0
  133.0342  141.0777  162.0971 O   0  0  0  0  0  0  0  0  0  0  0  0
  134.2357  140.4432  162.0036 C   0  0  0  0  0  0  0  0  0  0  0  0
  135.3977  140.8263  161.3384 C   0  0  0  0  0  0  0  0  0  0  0  0
  136.5140  140.0166  161.3663 C   0  0  0  0  0  0  0  0  0  0  0  0
  136.4898  138.8158  162.0555 C   0  0  0  0  0  0  0  0  0  0  0  0
  137.5847  138.0246  162.0784 F   0  0  0  0  0  0  0  0  0  0  0  0
  135.3382  138.4294  162.7215 C   0  0  0  0  0  0  0  0  0  0  0  0
  134.2243  139.2397  162.6964 C   0  0  0  0  0  0  0  0  0  0  0  0
  131.7129  138.3919  161.2038 C   0  0  0  0  0  0  0  0  0  0  0  0
  130.9321  137.5090  160.4816 C   0  0  0  0  0  0  0  0  0  0  0  0
  130.5188  133.6292  157.1852 N   0  0  0  0  0  0  0  0  0  0  0  0
  131.0731  134.1993  156.6297 H   0  0  0  0  0  0  0  0  0  0  0  0
  130.1114  132.1203  154.3961 C   0  0  0  0  0  0  0  0  0  0  0  0
  130.4412  131.4247  153.2507 C   0  0  0  0  0  0  0  0  0  0  0  0
  130.2359  127.7999  152.5595 H   0  0  0  0  0  0  0  0  0  0  0  0
  130.6299  127.9575  150.8309 H   0  0  0  0  0  0  0  0  0  0  0  0
  129.4468  129.0578  151.5779 H   0  0  0  0  0  0  0  0  0  0  0  0
  132.4227  128.9255  152.2442 H   0  0  0  0  0  0  0  0  0  0  0  0
  131.6337  130.1833  151.2626 H   0  0  0  0  0  0  0  0  0  0  0  0
  132.0513  128.8001  154.6363 H   0  0  0  0  0  0  0  0  0  0  0  0
  131.4821  130.0313  156.6886 H   0  0  0  0  0  0  0  0  0  0  0  0
  128.9181  130.9238  157.9707 H   0  0  0  0  0  0  0  0  0  0  0  0
  130.7244  135.8701  158.5705 H   0  0  0  0  0  0  0  0  0  0  0  0
  128.5879  135.8300  160.1664 H   0  0  0  0  0  0  0  0  0  0  0  0
  129.5085  134.4640  160.8407 H   0  0  0  0  0  0  0  0  0  0  0  0
  130.3232  135.2300  162.8927 H   0  0  0  0  0  0  0  0  0  0  0  0
  131.7221  136.7978  164.1765 H   0  0  0  0  0  0  0  0  0  0  0  0
  133.3490  137.8201  164.8084 H   0  0  0  0  0  0  0  0  0  0  0  0
  131.2293  140.5304  162.9989 H   0  0  0  0  0  0  0  0  0  0  0  0
  132.5081  141.1033  164.1199 H   0  0  0  0  0  0  0  0  0  0  0  0
  135.4249  141.7614  160.7988 H   0  0  0  0  0  0  0  0  0  0  0  0
  137.4115  140.3208  160.8482 H   0  0  0  0  0  0  0  0  0  0  0  0
  135.3136  137.4938  163.2603 H   0  0  0  0  0  0  0  0  0  0  0  0
  132.1011  139.2815  160.7301 H   0  0  0  0  0  0  0  0  0  0  0  0
  130.7099  137.7088  159.4438 H   0  0  0  0  0  0  0  0  0  0  0  0
  129.5653  133.0495  154.3266 H   0  0  0  0  0  0  0  0  0  0  0  0
  130.1524  131.8102  152.2841 H   0  0  0  0  0  0  0  0  0  0  0  0
  1  2  1  0
  1 35  1  0
  1 36  1  0
  1 37  1  0
  2  3  1  0
  2 38  1  0
  2 39  1  0
  3 34  2  0
  3  4  1  0
  4  5  2  0
  4 40  1  0
  5  6  1  0
  5 41  1  0
  6  7  1  0
  6 33  2  0
  7 31  1  0
  7  8  2  0
  8  9  1  0
  8 42  1  0
  9 10  1  0
  9 11  1  0
 11 12  1  0
 11 31  2  0
 12 13  1  0
 12 43  1  0
 13 14  1  0
 13 44  1  0
 13 45  1  0
 14 30  1  0
 14 15  2  0
 15 16  1  0
 15 46  1  0
 16 17  2  0
 16 47  1  0
 17 18  1  0
 17 29  1  0
 18 28  1  0
 18 19  1  1
 18 20  1  0
 19 48  1  0
 20 21  1  0
 20 49  1  0
 20 50  1  0
 21 22  1  0
 22 28  2  0
 22 23  1  0
 23 24  2  0
 23 51  1  0
 24 25  1  0
 24 52  1  0
 25 26  1  0
 25 27  2  0
 27 28  1  0
 27 53  1  0
 29 30  2  0
 29 54  1  0
 30 55  1  0
 31 32  1  0
 33 34  1  0
 33 56  1  0
 34 57  1  0
M  CHG  1  31   1
M  END
>  <DOCK_score>  (1) 
-59.65696

>  <SMILES>  (1) 
CCc1ccc(-c2c[nH]c(NCc3ccc([C@]4(O)COc5ccc(F)cc54)cc3)[nH+]2)cc1

$$$$
