c1cncc(-c2c[nH]c(N[C@@H](c3ccc(NC4CC4)cc3)c3cccnc3)[nH+]2)c1
     RDKit          3D

 52 56  0  0  1  0  0  0  0  0999 V2000
  130.6285  130.7633  153.5935 C   0  0  0  0  0  0  0  0  0  0  0  0
  131.4571  129.6814  153.8300 C   0  0  0  0  0  0  0  0  0  0  0  0
  131.8831  129.4043  155.0473 N   0  0  0  0  0  0  0  0  0  0  0  0
  131.5426  130.1385  156.0868 C   0  0  0  0  0  0  0  0  0  0  0  0
  130.7108  131.2454  155.9314 C   0  0  0  0  0  0  0  0  0  0  0  0
  130.3279  132.0709  157.1028 C   0  0  0  0  0  0  0  0  0  0  0  0
  129.6582  131.6380  158.1996 C   0  0  0  0  0  0  0  0  0  0  0  0
  129.5183  132.7201  159.0343 N   0  0  0  0  0  0  0  0  0  0  0  0
  129.0834  132.7244  159.9014 H   0  0  0  0  0  0  0  0  0  0  0  0
  130.1003  133.7854  158.4189 C   0  0  0  0  0  0  0  0  0  0  0  0
  130.1728  135.0704  158.9290 N   0  0  0  0  0  0  0  0  0  0  0  0
  129.5916  135.3723  160.2395 C   0  0  1  0  0  0  0  0  0  0  0  0
  129.7948  134.5499  160.9253 H   0  0  0  0  0  0  0  0  0  0  0  0
  130.2023  136.6395  160.7799 C   0  0  0  0  0  0  0  0  0  0  0  0
  130.0734  137.8226  160.0755 C   0  0  0  0  0  0  0  0  0  0  0  0
  130.6271  138.9868  160.5708 C   0  0  0  0  0  0  0  0  0  0  0  0
  131.3238  138.9663  161.7724 C   0  0  0  0  0  0  0  0  0  0  0  0
  131.8895  140.1410  162.2735 N   0  0  0  0  0  0  0  0  0  0  0  0
  133.1024  140.0785  163.0927 C   0  0  0  0  0  0  0  0  0  0  0  0
  134.2730  140.9782  162.6916 C   0  0  0  0  0  0  0  0  0  0  0  0
  134.3532  139.4684  162.4572 C   0  0  0  0  0  0  0  0  0  0  0  0
  131.4563  137.7751  162.4745 C   0  0  0  0  0  0  0  0  0  0  0  0
  130.8954  136.6156  161.9763 C   0  0  0  0  0  0  0  0  0  0  0  0
  128.1021  135.5528  160.0987 C   0  0  0  0  0  0  0  0  0  0  0  0
  127.2541  135.2353  161.1489 C   0  0  0  0  0  0  0  0  0  0  0  0
  125.8909  135.4169  160.9743 C   0  0  0  0  0  0  0  0  0  0  0  0
  125.4256  135.9053  159.7678 C   0  0  0  0  0  0  0  0  0  0  0  0
  126.2616  136.1967  158.7907 N   0  0  0  0  0  0  0  0  0  0  0  0
  127.5641  136.0365  158.9214 C   0  0  0  0  0  0  0  0  0  0  0  0
  130.5856  133.3929  157.2665 N   0  0  0  0  0  0  0  0  0  0  0  0
  131.0543  133.9574  156.6320 H   0  0  0  0  0  0  0  0  0  0  0  0
  130.2383  131.5620  154.6543 C   0  0  0  0  0  0  0  0  0  0  0  0
  130.2859  130.9798  152.5924 H   0  0  0  0  0  0  0  0  0  0  0  0
  131.7604  129.0536  153.0052 H   0  0  0  0  0  0  0  0  0  0  0  0
  131.9119  129.8800  157.0683 H   0  0  0  0  0  0  0  0  0  0  0  0
  129.3056  130.6339  158.3835 H   0  0  0  0  0  0  0  0  0  0  0  0
  130.6087  135.7707  158.4186 H   0  0  0  0  0  0  0  0  0  0  0  0
  129.5355  137.8369  159.1391 H   0  0  0  0  0  0  0  0  0  0  0  0
  130.5220  139.9113  160.0224 H   0  0  0  0  0  0  0  0  0  0  0  0
  131.4790  140.9981  162.0793 H   0  0  0  0  0  0  0  0  0  0  0  0
  132.9426  139.9043  164.1568 H   0  0  0  0  0  0  0  0  0  0  0  0
  134.1406  141.6168  161.8182 H   0  0  0  0  0  0  0  0  0  0  0  0
  134.8834  141.3965  163.4919 H   0  0  0  0  0  0  0  0  0  0  0  0
  135.0167  138.8934  163.1032 H   0  0  0  0  0  0  0  0  0  0  0  0
  134.2738  139.1133  161.4297 H   0  0  0  0  0  0  0  0  0  0  0  0
  131.9973  137.7558  163.4091 H   0  0  0  0  0  0  0  0  0  0  0  0
  130.9979  135.6892  162.5219 H   0  0  0  0  0  0  0  0  0  0  0  0
  127.6464  134.8557  162.0809 H   0  0  0  0  0  0  0  0  0  0  0  0
  125.2012  135.1798  161.7707 H   0  0  0  0  0  0  0  0  0  0  0  0
  124.3651  136.0500  159.6240 H   0  0  0  0  0  0  0  0  0  0  0  0
  128.2175  136.2819  158.0973 H   0  0  0  0  0  0  0  0  0  0  0  0
  129.5885  132.4106  154.4989 H   0  0  0  0  0  0  0  0  0  0  0  0
  1 32  2  0
  1  2  1  0
  1 33  1  0
  2  3  2  0
  2 34  1  0
  3  4  1  0
  4  5  2  0
  4 35  1  0
  5  6  1  0
  5 32  1  0
  6 30  1  0
  6  7  2  0
  7  8  1  0
  7 36  1  0
  8  9  1  0
  8 10  1  0
 10 11  1  0
 10 30  2  0
 11 12  1  0
 11 37  1  0
 12 13  1  1
 12 14  1  0
 12 24  1  0
 14 23  1  0
 14 15  2  0
 15 16  1  0
 15 38  1  0
 16 17  2  0
 16 39  1  0
 17 18  1  0
 17 22  1  0
 18 19  1  0
 18 40  1  0
 19 21  1  0
 19 20  1  0
 19 41  1  0
 20 21  1  0
 20 42  1  0
 20 43  1  0
 21 44  1  0
 21 45  1  0
 22 23  2  0
 22 46  1  0
 23 47  1  0
 24 29  1  0
 24 25  2  0
 25 26  1  0
 25 48  1  0
 26 27  2  0
 26 49  1  0
 27 28  1  0
 27 50  1  0
 28 29  2  0
 29 51  1  0
 30 31  1  0
 32 52  1  0
M  CHG  1  30   1
M  END
>  <DOCK_score>  (1) 
-56.014503

>  <SMILES>  (1) 
c1cncc(-c2c[nH]c(N[C@@H](c3ccc(NC4CC4)cc3)c3cccnc3)[nH+]2)c1

$$$$
