Nc1ccc(-c2c[nH]c(N[C@H](CCc3ccccc3)c3ccccc3)[nH+]2)cc1
     RDKit          3D

 53 56  0  0  1  0  0  0  0  0999 V2000
  131.2688  129.5122  152.1643 N   0  0  0  0  0  0  0  0  0  0  0  0
  130.9598  130.2657  153.2994 C   0  0  0  0  0  0  0  0  0  0  0  0
  130.3117  131.4883  153.1653 C   0  0  0  0  0  0  0  0  0  0  0  0
  130.0053  132.2335  154.2843 C   0  0  0  0  0  0  0  0  0  0  0  0
  130.3460  131.7602  155.5504 C   0  0  0  0  0  0  0  0  0  0  0  0
  130.0178  132.5605  156.7558 C   0  0  0  0  0  0  0  0  0  0  0  0
  129.2266  132.1664  157.7839 C   0  0  0  0  0  0  0  0  0  0  0  0
  129.1931  133.2065  158.6825 N   0  0  0  0  0  0  0  0  0  0  0  0
  128.7057  133.2261  159.5208 H   0  0  0  0  0  0  0  0  0  0  0  0
  129.9656  134.2054  158.1755 C   0  0  0  0  0  0  0  0  0  0  0  0
  130.1949  135.4314  158.7764 N   0  0  0  0  0  0  0  0  0  0  0  0
  129.5807  135.7393  160.0703 C   0  0  2  0  0  0  0  0  0  0  0  0
  128.4957  135.6899  159.9784 H   0  0  0  0  0  0  0  0  0  0  0  0
  129.9919  137.1465  160.5081 C   0  0  0  0  0  0  0  0  0  0  0  0
  131.5148  137.2159  160.6371 C   0  0  0  0  0  0  0  0  0  0  0  0
  131.9199  138.6019  161.0682 C   0  0  0  0  0  0  0  0  0  0  0  0
  133.1451  139.1146  160.6849 C   0  0  0  0  0  0  0  0  0  0  0  0
  133.5145  140.3878  161.0763 C   0  0  0  0  0  0  0  0  0  0  0  0
  132.6637  141.1444  161.8593 C   0  0  0  0  0  0  0  0  0  0  0  0
  131.4402  140.6297  162.2474 C   0  0  0  0  0  0  0  0  0  0  0  0
  131.0685  139.3585  161.8516 C   0  0  0  0  0  0  0  0  0  0  0  0
  130.0438  134.7383  161.0971 C   0  0  0  0  0  0  0  0  0  0  0  0
  129.2216  134.4043  162.1569 C   0  0  0  0  0  0  0  0  0  0  0  0
  129.6449  133.4831  163.0967 C   0  0  0  0  0  0  0  0  0  0  0  0
  130.8938  132.9022  162.9812 C   0  0  0  0  0  0  0  0  0  0  0  0
  131.7183  133.2402  161.9243 C   0  0  0  0  0  0  0  0  0  0  0  0
  131.2935  134.1583  160.9825 C   0  0  0  0  0  0  0  0  0  0  0  0
  130.4566  133.8156  157.0243 N   0  0  0  0  0  0  0  0  0  0  0  0
  131.0401  134.3412  156.4550 H   0  0  0  0  0  0  0  0  0  0  0  0
  131.0006  130.5366  155.6818 C   0  0  0  0  0  0  0  0  0  0  0  0
  131.3004  129.7922  154.5605 C   0  0  0  0  0  0  0  0  0  0  0  0
  131.0310  129.8425  151.2835 H   0  0  0  0  0  0  0  0  0  0  0  0
  131.7209  128.6594  152.2567 H   0  0  0  0  0  0  0  0  0  0  0  0
  130.0481  131.8548  152.1842 H   0  0  0  0  0  0  0  0  0  0  0  0
  129.5013  133.1830  154.1799 H   0  0  0  0  0  0  0  0  0  0  0  0
  128.7196  131.2176  157.8788 H   0  0  0  0  0  0  0  0  0  0  0  0
  130.7622  136.0865  158.3407 H   0  0  0  0  0  0  0  0  0  0  0  0
  129.6569  137.8704  159.7652 H   0  0  0  0  0  0  0  0  0  0  0  0
  129.5349  137.3757  161.4707 H   0  0  0  0  0  0  0  0  0  0  0  0
  131.8499  136.4917  161.3799 H   0  0  0  0  0  0  0  0  0  0  0  0
  131.9719  136.9867  159.6744 H   0  0  0  0  0  0  0  0  0  0  0  0
  133.8120  138.5218  160.0766 H   0  0  0  0  0  0  0  0  0  0  0  0
  134.4702  140.7898  160.7738 H   0  0  0  0  0  0  0  0  0  0  0  0
  132.9538  142.1375  162.1693 H   0  0  0  0  0  0  0  0  0  0  0  0
  130.7753  141.2206  162.8599 H   0  0  0  0  0  0  0  0  0  0  0  0
  130.1132  138.9562  162.1548 H   0  0  0  0  0  0  0  0  0  0  0  0
  128.2471  134.8608  162.2489 H   0  0  0  0  0  0  0  0  0  0  0  0
  129.0008  133.2194  163.9225 H   0  0  0  0  0  0  0  0  0  0  0  0
  131.2257  132.1846  163.7169 H   0  0  0  0  0  0  0  0  0  0  0  0
  132.6943  132.7865  161.8344 H   0  0  0  0  0  0  0  0  0  0  0  0
  131.9376  134.4223  160.1568 H   0  0  0  0  0  0  0  0  0  0  0  0
  131.2696  130.1701  156.6616 H   0  0  0  0  0  0  0  0  0  0  0  0
  131.8042  128.8423  154.6621 H   0  0  0  0  0  0  0  0  0  0  0  0
  1  2  1  0
  1 32  1  0
  1 33  1  0
  2 31  2  0
  2  3  1  0
  3  4  2  0
  3 34  1  0
  4  5  1  0
  4 35  1  0
  5  6  1  0
  5 30  2  0
  6 28  1  0
  6  7  2  0
  7  8  1  0
  7 36  1  0
  8  9  1  0
  8 10  1  0
 10 11  1  0
 10 28  2  0
 11 12  1  0
 11 37  1  0
 12 13  1  6
 12 14  1  0
 12 22  1  0
 14 15  1  0
 14 38  1  0
 14 39  1  0
 15 16  1  0
 15 40  1  0
 15 41  1  0
 16 21  1  0
 16 17  2  0
 17 18  1  0
 17 42  1  0
 18 19  2  0
 18 43  1  0
 19 20  1  0
 19 44  1  0
 20 21  2  0
 20 45  1  0
 21 46  1  0
 22 27  1  0
 22 23  2  0
 23 24  1  0
 23 47  1  0
 24 25  2  0
 24 48  1  0
 25 26  1  0
 25 49  1  0
 26 27  2  0
 26 50  1  0
 27 51  1  0
 28 29  1  0
 30 31  1  0
 30 52  1  0
 31 53  1  0
M  CHG  1  28   1
M  END
>  <DOCK_score>  (1) 
-57.043404

>  <SMILES>  (1) 
Nc1ccc(-c2c[nH]c(N[C@H](CCc3ccccc3)c3ccccc3)[nH+]2)cc1

$$$$
