Cc1ccc2c(c1)C[C@H](NC(N[C@H]1CCC(=O)NC1)=[NH+]C1CC1)CO2
     RDKit          3D

 52 55  0  0  1  0  0  0  0  0999 V2000
  135.7389  140.1151  162.7978 C   0  0  0  0  0  0  0  0  0  0  0  0
  134.3731  139.8146  162.2362 C   0  0  0  0  0  0  0  0  0  0  0  0
  133.3824  140.7787  162.2737 C   0  0  0  0  0  0  0  0  0  0  0  0
  132.1322  140.5023  161.7601 C   0  0  0  0  0  0  0  0  0  0  0  0
  131.8639  139.2557  161.2031 C   0  0  0  0  0  0  0  0  0  0  0  0
  132.8580  138.2940  161.1643 C   0  0  0  0  0  0  0  0  0  0  0  0
  134.1106  138.5766  161.6834 C   0  0  0  0  0  0  0  0  0  0  0  0
  132.6127  136.9345  160.5605 C   0  0  0  0  0  0  0  0  0  0  0  0
  131.1068  136.6801  160.4580 C   0  0  2  0  0  0  0  0  0  0  0  0
  130.6926  136.5156  161.4527 H   0  0  0  0  0  0  0  0  0  0  0  0
  130.8605  135.5040  159.6200 N   0  0  0  0  0  0  0  0  0  0  0  0
  129.7555  134.7178  159.8463 C   0  0  0  0  0  0  0  0  0  0  0  0
  128.8817  135.0354  160.8591 N   0  0  0  0  0  0  0  0  0  0  0  0
  127.4632  134.6895  160.7381 C   0  0  1  0  0  0  0  0  0  0  0  0
  127.1730  134.6988  159.6875 H   0  0  0  0  0  0  0  0  0  0  0  0
  127.2220  133.2941  161.3262 C   0  0  0  0  0  0  0  0  0  0  0  0
  125.7784  132.8844  161.0236 C   0  0  0  0  0  0  0  0  0  0  0  0
  124.8420  133.9960  161.4016 C   0  0  0  0  0  0  0  0  0  0  0  0
  123.6655  133.7344  161.5364 O   0  0  0  0  0  0  0  0  0  0  0  0
  125.2350  135.2552  161.5973 N   0  0  0  0  0  0  0  0  0  0  0  0
  126.6200  135.7034  161.5123 C   0  0  0  0  0  0  0  0  0  0  0  0
  129.5364  133.6713  159.1007 N   0  0  0  0  0  0  0  0  0  0  0  0
  128.6276  133.3752  158.9356 H   0  0  0  0  0  0  0  0  0  0  0  0
  130.6628  132.9426  158.5121 C   0  0  0  0  0  0  0  0  0  0  0  0
  130.8354  133.0158  156.9937 C   0  0  0  0  0  0  0  0  0  0  0  0
  130.3401  131.7228  157.6467 C   0  0  0  0  0  0  0  0  0  0  0  0
  130.4522  137.9137  159.8227 C   0  0  0  0  0  0  0  0  0  0  0  0
  130.6200  139.0198  160.7107 O   0  0  0  0  0  0  0  0  0  0  0  0
  135.7662  139.8413  163.8526 H   0  0  0  0  0  0  0  0  0  0  0  0
  136.4896  139.5415  162.2542 H   0  0  0  0  0  0  0  0  0  0  0  0
  135.9487  141.1796  162.6930 H   0  0  0  0  0  0  0  0  0  0  0  0
  133.5875  141.7477  162.7044 H   0  0  0  0  0  0  0  0  0  0  0  0
  131.3592  141.2560  161.7903 H   0  0  0  0  0  0  0  0  0  0  0  0
  134.8858  137.8251  161.6555 H   0  0  0  0  0  0  0  0  0  0  0  0
  133.0675  136.1702  161.1909 H   0  0  0  0  0  0  0  0  0  0  0  0
  133.0559  136.8940  159.5656 H   0  0  0  0  0  0  0  0  0  0  0  0
  131.4771  135.2798  158.9054 H   0  0  0  0  0  0  0  0  0  0  0  0
  129.2036  135.4919  161.6520 H   0  0  0  0  0  0  0  0  0  0  0  0
  127.9089  132.5803  160.8713 H   0  0  0  0  0  0  0  0  0  0  0  0
  127.3788  133.3181  162.4045 H   0  0  0  0  0  0  0  0  0  0  0  0
  125.6778  132.6724  159.9592 H   0  0  0  0  0  0  0  0  0  0  0  0
  125.5280  131.9913  161.5959 H   0  0  0  0  0  0  0  0  0  0  0  0
  124.5564  135.9158  161.8072 H   0  0  0  0  0  0  0  0  0  0  0  0
  127.0232  135.8133  162.5190 H   0  0  0  0  0  0  0  0  0  0  0  0
  126.6594  136.6671  161.0047 H   0  0  0  0  0  0  0  0  0  0  0  0
  131.5666  132.9035  159.1200 H   0  0  0  0  0  0  0  0  0  0  0  0
  130.1108  133.6061  156.4326 H   0  0  0  0  0  0  0  0  0  0  0  0
  131.8527  133.0243  156.6026 H   0  0  0  0  0  0  0  0  0  0  0  0
  131.0319  130.8815  157.6849 H   0  0  0  0  0  0  0  0  0  0  0  0
  129.2898  131.4623  157.5155 H   0  0  0  0  0  0  0  0  0  0  0  0
  130.9311  138.1330  158.8684 H   0  0  0  0  0  0  0  0  0  0  0  0
  129.3901  137.7259  159.6658 H   0  0  0  0  0  0  0  0  0  0  0  0
  1  2  1  0
  1 29  1  0
  1 30  1  0
  1 31  1  0
  2  7  2  0
  2  3  1  0
  3  4  2  0
  3 32  1  0
  4  5  1  0
  4 33  1  0
  5 28  1  0
  5  6  2  0
  6  7  1  0
  6  8  1  0
  7 34  1  0
  8  9  1  0
  8 35  1  0
  8 36  1  0
  9 10  1  1
  9 11  1  0
  9 27  1  0
 11 37  1  0
 12 11  1  0
 12 13  1  0
 12 22  2  0
 13 14  1  0
 13 38  1  0
 14 15  1  6
 14 21  1  0
 14 16  1  0
 16 17  1  0
 16 39  1  0
 16 40  1  0
 17 18  1  0
 17 41  1  0
 17 42  1  0
 18 19  2  0
 18 20  1  0
 20 21  1  0
 20 43  1  0
 21 44  1  0
 21 45  1  0
 22 23  1  0
 22 24  1  0
 24 26  1  0
 24 25  1  0
 24 46  1  0
 25 26  1  0
 25 47  1  0
 25 48  1  0
 26 49  1  0
 26 50  1  0
 27 28  1  0
 27 51  1  0
 27 52  1  0
M  CHG  1  22   1
M  END
>  <DOCK_score>  (1) 
-43.976219

>  <SMILES>  (1) 
Cc1ccc2c(c1)C[C@H](NC(N[C@H]1CCC(=O)NC1)=[NH+]C1CC1)CO2

$$$$
