CCc1ccc(-c2c[nH]c(NC[C@H]3C=CCC(CCc4ccccc4)=C3)[nH+]2)cc1
     RDKit          3D

 59 62  0  0  1  0  0  0  0  0999 V2000
  129.7875  128.8184  150.9769 C   0  0  0  0  0  0  0  0  0  0  0  0
  131.0087  129.6666  151.3379 C   0  0  0  0  0  0  0  0  0  0  0  0
  130.7608  130.3736  152.6455 C   0  0  0  0  0  0  0  0  0  0  0  0
  131.1191  129.7650  153.8357 C   0  0  0  0  0  0  0  0  0  0  0  0
  130.8997  130.4096  155.0362 C   0  0  0  0  0  0  0  0  0  0  0  0
  130.3053  131.6701  155.0488 C   0  0  0  0  0  0  0  0  0  0  0  0
  130.0604  132.3649  156.3364 C   0  0  0  0  0  0  0  0  0  0  0  0
  129.2846  131.9124  157.3524 C   0  0  0  0  0  0  0  0  0  0  0  0
  129.3377  132.8590  158.3465 N   0  0  0  0  0  0  0  0  0  0  0  0
  128.8851  132.8182  159.2034 H   0  0  0  0  0  0  0  0  0  0  0  0
  130.1383  133.8671  157.9049 C   0  0  0  0  0  0  0  0  0  0  0  0
  130.4479  135.0182  158.6090 N   0  0  0  0  0  0  0  0  0  0  0  0
  129.8968  135.2271  159.9503 C   0  0  0  0  0  0  0  0  0  0  0  0
  130.3907  136.5660  160.5018 C   0  0  1  0  0  0  0  0  0  0  0  0
  130.3843  137.3060  159.7016 H   0  0  0  0  0  0  0  0  0  0  0  0
  129.4697  137.0167  161.5955 C   0  0  0  0  0  0  0  0  0  0  0  0
  129.7509  136.8812  162.8544 C   0  0  0  0  0  0  0  0  0  0  0  0
  131.0251  136.2583  163.3396 C   0  0  0  0  0  0  0  0  0  0  0  0
  132.0737  136.2649  162.2682 C   0  0  0  0  0  0  0  0  0  0  0  0
  133.5171  136.1060  162.6712 C   0  0  0  0  0  0  0  0  0  0  0  0
  133.7020  134.7674  163.3887 C   0  0  0  0  0  0  0  0  0  0  0  0
  135.1453  134.6083  163.7917 C   0  0  0  0  0  0  0  0  0  0  0  0
  136.0403  134.0012  162.9308 C   0  0  0  0  0  0  0  0  0  0  0  0
  137.3654  133.8601  163.2983 C   0  0  0  0  0  0  0  0  0  0  0  0
  137.7932  134.3160  164.5312 C   0  0  0  0  0  0  0  0  0  0  0  0
  136.8970  134.9185  165.3941 C   0  0  0  0  0  0  0  0  0  0  0  0
  135.5731  135.0647  165.0244 C   0  0  0  0  0  0  0  0  0  0  0  0
  131.7921  136.4020  161.0083 C   0  0  0  0  0  0  0  0  0  0  0  0
  130.5683  133.5682  156.7034 N   0  0  0  0  0  0  0  0  0  0  0  0
  131.1557  134.1194  156.1630 H   0  0  0  0  0  0  0  0  0  0  0  0
  129.9413  132.2753  153.8472 C   0  0  0  0  0  0  0  0  0  0  0  0
  130.1711  131.6240  152.6524 C   0  0  0  0  0  0  0  0  0  0  0  0
  129.9666  128.3076  150.0308 H   0  0  0  0  0  0  0  0  0  0  0  0
  129.6127  128.0813  151.7605 H   0  0  0  0  0  0  0  0  0  0  0  0
  128.9131  129.4624  150.8822 H   0  0  0  0  0  0  0  0  0  0  0  0
  131.8831  129.0227  151.4326 H   0  0  0  0  0  0  0  0  0  0  0  0
  131.1834  130.4038  150.5542 H   0  0  0  0  0  0  0  0  0  0  0  0
  131.5753  128.7862  153.8251 H   0  0  0  0  0  0  0  0  0  0  0  0
  131.1841  129.9361  155.9643 H   0  0  0  0  0  0  0  0  0  0  0  0
  128.7323  130.9847  157.3762 H   0  0  0  0  0  0  0  0  0  0  0  0
  131.0297  135.6864  158.2143 H   0  0  0  0  0  0  0  0  0  0  0  0
  128.8080  135.2348  159.8986 H   0  0  0  0  0  0  0  0  0  0  0  0
  130.2237  134.4208  160.6070 H   0  0  0  0  0  0  0  0  0  0  0  0
  128.5304  137.4752  161.3236 H   0  0  0  0  0  0  0  0  0  0  0  0
  129.0362  137.2315  163.5846 H   0  0  0  0  0  0  0  0  0  0  0  0
  130.8281  135.2294  163.6403 H   0  0  0  0  0  0  0  0  0  0  0  0
  131.3905  136.8183  164.2005 H   0  0  0  0  0  0  0  0  0  0  0  0
  134.1476  136.1318  161.7823 H   0  0  0  0  0  0  0  0  0  0  0  0
  133.7992  136.9189  163.3404 H   0  0  0  0  0  0  0  0  0  0  0  0
  133.0715  134.7415  164.2776 H   0  0  0  0  0  0  0  0  0  0  0  0
  133.4198  133.9545  162.7194 H   0  0  0  0  0  0  0  0  0  0  0  0
  135.7053  133.6405  161.9695 H   0  0  0  0  0  0  0  0  0  0  0  0
  138.0657  133.3896  162.6240 H   0  0  0  0  0  0  0  0  0  0  0  0
  138.8275  134.2017  164.8201 H   0  0  0  0  0  0  0  0  0  0  0  0
  137.2310  135.2747  166.3574 H   0  0  0  0  0  0  0  0  0  0  0  0
  134.8729  135.5351  165.6988 H   0  0  0  0  0  0  0  0  0  0  0  0
  132.6023  136.3972  160.2943 H   0  0  0  0  0  0  0  0  0  0  0  0
  129.4807  133.2522  153.8511 H   0  0  0  0  0  0  0  0  0  0  0  0
  129.8894  132.0919  151.7207 H   0  0  0  0  0  0  0  0  0  0  0  0
  1  2  1  0
  1 33  1  0
  1 34  1  0
  1 35  1  0
  2  3  1  0
  2 36  1  0
  2 37  1  0
  3 32  2  0
  3  4  1  0
  4  5  2  0
  4 38  1  0
  5  6  1  0
  5 39  1  0
  6  7  1  0
  6 31  2  0
  7 29  1  0
  7  8  2  0
  8  9  1  0
  8 40  1  0
  9 10  1  0
  9 11  1  0
 11 12  1  0
 11 29  2  0
 12 13  1  0
 12 41  1  0
 13 14  1  0
 13 42  1  0
 13 43  1  0
 14 15  1  6
 14 28  1  0
 14 16  1  0
 16 17  2  0
 16 44  1  0
 17 18  1  0
 17 45  1  0
 18 19  1  0
 18 46  1  0
 18 47  1  0
 19 20  1  0
 19 28  2  0
 20 21  1  0
 20 48  1  0
 20 49  1  0
 21 22  1  0
 21 50  1  0
 21 51  1  0
 22 27  1  0
 22 23  2  0
 23 24  1  0
 23 52  1  0
 24 25  2  0
 24 53  1  0
 25 26  1  0
 25 54  1  0
 26 27  2  0
 26 55  1  0
 27 56  1  0
 28 57  1  0
 29 30  1  0
 31 32  1  0
 31 58  1  0
 32 59  1  0
M  CHG  1  29   1
M  END
>  <DOCK_score>  (1) 
-62.108612

>  <SMILES>  (1) 
CCc1ccc(-c2c[nH]c(NC[C@H]3C=CCC(CCc4ccccc4)=C3)[nH+]2)cc1

$$$$
