Nc1ccc(-c2c[nH]c(N[C@H](c3ccccc3)c3ccccn3)[nH+]2)cc1
     RDKit          3D

 46 49  0  0  1  0  0  0  0  0999 V2000
  131.8003  129.6288  151.9506 N   0  0  0  0  0  0  0  0  0  0  0  0
  131.4225  130.2841  153.1250 C   0  0  0  0  0  0  0  0  0  0  0  0
  130.6356  131.4279  153.0588 C   0  0  0  0  0  0  0  0  0  0  0  0
  130.2611  132.0762  154.2168 C   0  0  0  0  0  0  0  0  0  0  0  0
  130.6722  131.5836  155.4543 C   0  0  0  0  0  0  0  0  0  0  0  0
  130.2710  132.2797  156.7015 C   0  0  0  0  0  0  0  0  0  0  0  0
  129.5453  131.7460  157.7149 C   0  0  0  0  0  0  0  0  0  0  0  0
  129.4047  132.7294  158.6654 N   0  0  0  0  0  0  0  0  0  0  0  0
  128.9302  132.6508  159.5077 H   0  0  0  0  0  0  0  0  0  0  0  0
  130.0492  133.8352  158.2033 C   0  0  0  0  0  0  0  0  0  0  0  0
  130.1437  135.0483  158.8637 N   0  0  0  0  0  0  0  0  0  0  0  0
  129.0724  135.4760  159.7670 C   0  0  2  0  0  0  0  0  0  0  0  0
  128.9615  134.7471  160.5699 H   0  0  0  0  0  0  0  0  0  0  0  0
  127.7796  135.5790  158.9997 C   0  0  0  0  0  0  0  0  0  0  0  0
  126.5763  135.3445  159.6384 C   0  0  0  0  0  0  0  0  0  0  0  0
  125.3901  135.4428  158.9354 C   0  0  0  0  0  0  0  0  0  0  0  0
  125.4077  135.7672  157.5917 C   0  0  0  0  0  0  0  0  0  0  0  0
  126.6113  135.9969  156.9520 C   0  0  0  0  0  0  0  0  0  0  0  0
  127.7973  135.9024  157.6559 C   0  0  0  0  0  0  0  0  0  0  0  0
  129.4170  136.8208  160.3535 C   0  0  0  0  0  0  0  0  0  0  0  0
  128.9602  137.1530  161.6151 C   0  0  0  0  0  0  0  0  0  0  0  0
  129.2870  138.3906  162.1475 C   0  0  0  0  0  0  0  0  0  0  0  0
  130.0555  139.2558  161.3834 C   0  0  0  0  0  0  0  0  0  0  0  0
  130.4719  138.8562  160.1279 C   0  0  0  0  0  0  0  0  0  0  0  0
  130.1460  137.6688  159.6552 N   0  0  0  0  0  0  0  0  0  0  0  0
  130.5655  133.5626  157.0297 N   0  0  0  0  0  0  0  0  0  0  0  0
  131.0761  134.1799  156.4829 H   0  0  0  0  0  0  0  0  0  0  0  0
  131.4658  130.4394  155.5179 C   0  0  0  0  0  0  0  0  0  0  0  0
  131.8336  129.7913  154.3577 C   0  0  0  0  0  0  0  0  0  0  0  0
  131.5135  129.9719  151.0899 H   0  0  0  0  0  0  0  0  0  0  0  0
  132.3494  128.8304  151.9959 H   0  0  0  0  0  0  0  0  0  0  0  0
  130.3175  131.8093  152.0999 H   0  0  0  0  0  0  0  0  0  0  0  0
  129.6493  132.9647  154.1650 H   0  0  0  0  0  0  0  0  0  0  0  0
  129.1528  130.7412  157.7657 H   0  0  0  0  0  0  0  0  0  0  0  0
  130.9191  135.6150  158.7283 H   0  0  0  0  0  0  0  0  0  0  0  0
  126.5627  135.0874  160.6872 H   0  0  0  0  0  0  0  0  0  0  0  0
  124.4497  135.2629  159.4352 H   0  0  0  0  0  0  0  0  0  0  0  0
  124.4812  135.8406  157.0417 H   0  0  0  0  0  0  0  0  0  0  0  0
  126.6252  136.2499  155.9021 H   0  0  0  0  0  0  0  0  0  0  0  0
  128.7377  136.0815  157.1560 H   0  0  0  0  0  0  0  0  0  0  0  0
  128.3593  136.4561  162.1803 H   0  0  0  0  0  0  0  0  0  0  0  0
  128.9477  138.6759  163.1324 H   0  0  0  0  0  0  0  0  0  0  0  0
  130.3250  140.2297  161.7646 H   0  0  0  0  0  0  0  0  0  0  0  0
  131.0707  139.5241  159.5264 H   0  0  0  0  0  0  0  0  0  0  0  0
  131.7893  130.0586  156.4755 H   0  0  0  0  0  0  0  0  0  0  0  0
  132.4448  128.9021  154.4067 H   0  0  0  0  0  0  0  0  0  0  0  0
  1  2  1  0
  1 30  1  0
  1 31  1  0
  2 29  2  0
  2  3  1  0
  3  4  2  0
  3 32  1  0
  4  5  1  0
  4 33  1  0
  5  6  1  0
  5 28  2  0
  6 26  1  0
  6  7  2  0
  7  8  1  0
  7 34  1  0
  8  9  1  0
  8 10  1  0
 10 11  1  0
 10 26  2  0
 11 12  1  0
 11 35  1  0
 12 13  1  1
 12 14  1  0
 12 20  1  0
 14 19  1  0
 14 15  2  0
 15 16  1  0
 15 36  1  0
 16 17  2  0
 16 37  1  0
 17 18  1  0
 17 38  1  0
 18 19  2  0
 18 39  1  0
 19 40  1  0
 20 25  1  0
 20 21  2  0
 21 22  1  0
 21 41  1  0
 22 23  2  0
 22 42  1  0
 23 24  1  0
 23 43  1  0
 24 25  2  0
 24 44  1  0
 26 27  1  0
 28 29  1  0
 28 45  1  0
 29 46  1  0
M  CHG  1  26   1
M  END
>  <DOCK_score>  (1) 
-58.270111

>  <SMILES>  (1) 
Nc1ccc(-c2c[nH]c(N[C@H](c3ccccc3)c3ccccn3)[nH+]2)cc1

$$$$
