[NH3+][C@H](C(=O)Nc1cccc(O)c1)c1cccc(Sc2cccc(NCBr)c2)c1
     RDKit          3D

 49 51  0  0  1  0  0  0  0  0999 V2000
  129.6648  136.6180  158.3409 N   0  0  0  0  0  0  0  0  0  0  0  0
  130.5827  136.9001  158.0313 H   0  0  0  0  0  0  0  0  0  0  0  0
  129.0066  136.7253  157.5838 H   0  0  0  0  0  0  0  0  0  0  0  0
  129.3802  137.1947  159.1183 H   0  0  0  0  0  0  0  0  0  0  0  0
  129.7010  135.2112  158.7625 C   0  0  2  0  0  0  0  0  0  0  0  0
  130.0086  134.5882  157.9226 H   0  0  0  0  0  0  0  0  0  0  0  0
  128.3302  134.7898  159.2250 C   0  0  0  0  0  0  0  0  0  0  0  0
  127.4130  135.5833  159.2055 O   0  0  0  0  0  0  0  0  0  0  0  0
  128.1230  133.5313  159.6604 N   0  0  0  0  0  0  0  0  0  0  0  0
  126.8502  133.1401  160.0899 C   0  0  0  0  0  0  0  0  0  0  0  0
  126.4435  131.8193  159.9479 C   0  0  0  0  0  0  0  0  0  0  0  0
  125.1874  131.4329  160.3727 C   0  0  0  0  0  0  0  0  0  0  0  0
  124.3337  132.3575  160.9444 C   0  0  0  0  0  0  0  0  0  0  0  0
  124.7324  133.6793  161.0836 C   0  0  0  0  0  0  0  0  0  0  0  0
  123.8900  134.5884  161.6411 O   0  0  0  0  0  0  0  0  0  0  0  0
  125.9926  134.0707  160.6588 C   0  0  0  0  0  0  0  0  0  0  0  0
  130.6841  135.0509  159.8933 C   0  0  0  0  0  0  0  0  0  0  0  0
  131.7697  134.2057  159.7504 C   0  0  0  0  0  0  0  0  0  0  0  0
  132.6746  134.0559  160.7854 C   0  0  0  0  0  0  0  0  0  0  0  0
  132.4970  134.7500  161.9660 C   0  0  0  0  0  0  0  0  0  0  0  0
  131.4073  135.5996  162.1132 C   0  0  0  0  0  0  0  0  0  0  0  0
  131.1762  136.4867  163.6180 S   0  0  0  0  0  0  0  0  0  0  0  0
  131.2170  138.1693  163.0965 C   0  0  0  0  0  0  0  0  0  0  0  0
  130.1171  138.9919  163.3127 C   0  0  0  0  0  0  0  0  0  0  0  0
  130.1506  140.3124  162.9093 C   0  0  0  0  0  0  0  0  0  0  0  0
  131.2722  140.8176  162.2796 C   0  0  0  0  0  0  0  0  0  0  0  0
  132.3729  139.9995  162.0552 C   0  0  0  0  0  0  0  0  0  0  0  0
  133.5062  140.5113  161.4190 N   0  0  0  0  0  0  0  0  0  0  0  0
  134.6661  139.6482  161.1828 C   0  0  0  0  0  0  0  0  0  0  0  0
  136.0743  140.6767  160.2749 Br  0  0  0  0  0  0  0  0  0  0  0  0
  132.3452  138.6737  162.4642 C   0  0  0  0  0  0  0  0  0  0  0  0
  130.5032  135.7522  161.0687 C   0  0  0  0  0  0  0  0  0  0  0  0
  128.8565  132.8966  159.6759 H   0  0  0  0  0  0  0  0  0  0  0  0
  127.1103  131.0939  159.5053 H   0  0  0  0  0  0  0  0  0  0  0  0
  124.8732  130.4056  160.2618 H   0  0  0  0  0  0  0  0  0  0  0  0
  123.3538  132.0516  161.2798 H   0  0  0  0  0  0  0  0  0  0  0  0
  124.2557  135.4819  161.6953 H   0  0  0  0  0  0  0  0  0  0  0  0
  126.3061  135.0983  160.7701 H   0  0  0  0  0  0  0  0  0  0  0  0
  131.9111  133.6616  158.8282 H   0  0  0  0  0  0  0  0  0  0  0  0
  133.5215  133.3956  160.6701 H   0  0  0  0  0  0  0  0  0  0  0  0
  133.2042  134.6328  162.7737 H   0  0  0  0  0  0  0  0  0  0  0  0
  129.2373  138.5992  163.8006 H   0  0  0  0  0  0  0  0  0  0  0  0
  129.2966  140.9505  163.0824 H   0  0  0  0  0  0  0  0  0  0  0  0
  131.2935  141.8495  161.9618 H   0  0  0  0  0  0  0  0  0  0  0  0
  133.5252  141.4382  161.1336 H   0  0  0  0  0  0  0  0  0  0  0  0
  135.0438  139.2782  162.1361 H   0  0  0  0  0  0  0  0  0  0  0  0
  134.3709  138.8058  160.5573 H   0  0  0  0  0  0  0  0  0  0  0  0
  133.1994  138.0359  162.2914 H   0  0  0  0  0  0  0  0  0  0  0  0
  129.6578  136.4153  161.1780 H   0  0  0  0  0  0  0  0  0  0  0  0
  1  2  1  0
  1  3  1  0
  1  4  1  0
  1  5  1  0
  5  6  1  6
  5  7  1  0
  5 17  1  0
  7  8  2  0
  7  9  1  0
  9 10  1  0
  9 33  1  0
 10 16  1  0
 10 11  2  0
 11 12  1  0
 11 34  1  0
 12 13  2  0
 12 35  1  0
 13 14  1  0
 13 36  1  0
 14 15  1  0
 14 16  2  0
 15 37  1  0
 16 38  1  0
 17 32  1  0
 17 18  2  0
 18 19  1  0
 18 39  1  0
 19 20  2  0
 19 40  1  0
 20 21  1  0
 20 41  1  0
 21 22  1  0
 21 32  2  0
 22 23  1  0
 23 31  1  0
 23 24  2  0
 24 25  1  0
 24 42  1  0
 25 26  2  0
 25 43  1  0
 26 27  1  0
 26 44  1  0
 27 28  1  0
 27 31  2  0
 28 29  1  0
 28 45  1  0
 29 30  1  0
 29 46  1  0
 29 47  1  0
 31 48  1  0
 32 49  1  0
M  CHG  1   1   1
M  END
>  <DOCK_score>  (1) 
-41.561352

>  <SMILES>  (1) 
[NH3+][C@H](C(=O)Nc1cccc(O)c1)c1cccc(Sc2cccc(NCBr)c2)c1

$$$$
