Cc1c[nH]c(Nc2ccc(Nc3ccc(N)cc3)cc2)[nH+]1
     RDKit          3D

 39 41  0  0  1  0  0  0  0  0999 V2000
  130.2302  131.7649  154.7090 C   0  0  0  0  0  0  0  0  0  0  0  0
  129.9389  132.4440  156.0224 C   0  0  0  0  0  0  0  0  0  0  0  0
  129.3426  131.8780  157.0857 C   0  0  0  0  0  0  0  0  0  0  0  0
  129.2724  132.8412  158.0663 N   0  0  0  0  0  0  0  0  0  0  0  0
  128.8932  132.7354  158.9528 H   0  0  0  0  0  0  0  0  0  0  0  0
  129.8354  133.9700  157.5563 C   0  0  0  0  0  0  0  0  0  0  0  0
  129.9686  135.1796  158.2188 N   0  0  0  0  0  0  0  0  0  0  0  0
  129.0319  135.5526  159.1905 C   0  0  0  0  0  0  0  0  0  0  0  0
  129.4190  136.3543  160.2566 C   0  0  0  0  0  0  0  0  0  0  0  0
  128.4944  136.7269  161.2115 C   0  0  0  0  0  0  0  0  0  0  0  0
  127.1794  136.2906  161.1125 C   0  0  0  0  0  0  0  0  0  0  0  0
  126.2432  136.6638  162.0833 N   0  0  0  0  0  0  0  0  0  0  0  0
  126.6563  136.8999  163.3999 C   0  0  0  0  0  0  0  0  0  0  0  0
  126.4601  138.1483  163.9760 C   0  0  0  0  0  0  0  0  0  0  0  0
  126.8623  138.3793  165.2767 C   0  0  0  0  0  0  0  0  0  0  0  0
  127.4732  137.3667  166.0047 C   0  0  0  0  0  0  0  0  0  0  0  0
  127.8857  137.6026  167.3213 N   0  0  0  0  0  0  0  0  0  0  0  0
  127.6745  136.1201  165.4268 C   0  0  0  0  0  0  0  0  0  0  0  0
  127.2673  135.8873  164.1283 C   0  0  0  0  0  0  0  0  0  0  0  0
  126.7937  135.4840  160.0493 C   0  0  0  0  0  0  0  0  0  0  0  0
  127.7171  135.1163  159.0914 C   0  0  0  0  0  0  0  0  0  0  0  0
  130.2360  133.7169  156.3326 N   0  0  0  0  0  0  0  0  0  0  0  0
  130.6756  134.3501  155.7438 H   0  0  0  0  0  0  0  0  0  0  0  0
  129.3835  131.8978  154.0356 H   0  0  0  0  0  0  0  0  0  0  0  0
  131.1221  132.2046  154.2626 H   0  0  0  0  0  0  0  0  0  0  0  0
  130.3957  130.7011  154.8790 H   0  0  0  0  0  0  0  0  0  0  0  0
  128.9866  130.8608  157.1572 H   0  0  0  0  0  0  0  0  0  0  0  0
  130.7107  135.7682  158.0094 H   0  0  0  0  0  0  0  0  0  0  0  0
  130.4425  136.6900  160.3360 H   0  0  0  0  0  0  0  0  0  0  0  0
  128.7944  137.3540  162.0381 H   0  0  0  0  0  0  0  0  0  0  0  0
  125.3079  136.7589  161.8441 H   0  0  0  0  0  0  0  0  0  0  0  0
  125.9894  138.9372  163.4081 H   0  0  0  0  0  0  0  0  0  0  0  0
  126.7057  139.3488  165.7261 H   0  0  0  0  0  0  0  0  0  0  0  0
  128.3121  136.8953  167.8302 H   0  0  0  0  0  0  0  0  0  0  0  0
  127.7450  138.4734  167.7251 H   0  0  0  0  0  0  0  0  0  0  0  0
  128.1499  135.3329  165.9931 H   0  0  0  0  0  0  0  0  0  0  0  0
  127.4241  134.9179  163.6788 H   0  0  0  0  0  0  0  0  0  0  0  0
  125.7712  135.1450  159.9721 H   0  0  0  0  0  0  0  0  0  0  0  0
  127.4173  134.4889  158.2651 H   0  0  0  0  0  0  0  0  0  0  0  0
  1  2  1  0
  1 24  1  0
  1 25  1  0
  1 26  1  0
  2 22  1  0
  2  3  2  0
  3  4  1  0
  3 27  1  0
  4  5  1  0
  4  6  1  0
  6  7  1  0
  6 22  2  0
  7  8  1  0
  7 28  1  0
  8 21  1  0
  8  9  2  0
  9 10  1  0
  9 29  1  0
 10 11  2  0
 10 30  1  0
 11 12  1  0
 11 20  1  0
 12 13  1  0
 12 31  1  0
 13 19  1  0
 13 14  2  0
 14 15  1  0
 14 32  1  0
 15 16  2  0
 15 33  1  0
 16 17  1  0
 16 18  1  0
 17 34  1  0
 17 35  1  0
 18 19  2  0
 18 36  1  0
 19 37  1  0
 20 21  2  0
 20 38  1  0
 21 39  1  0
 22 23  1  0
M  CHG  1  22   1
M  END
>  <DOCK_score>  (1) 
-46.5578

>  <SMILES>  (1) 
Cc1c[nH]c(Nc2ccc(Nc3ccc(N)cc3)cc2)[nH+]1

$$$$
