CCC=Cc1ccc(-c2c[nH]c(N[C@@H](CC)Cc3ccc(Br)cc3)[nH+]2)cc1
     RDKit          3D

 54 56  0  0  1  0  0  0  0  0999 V2000
  129.6180  127.5827  150.2758 C   0  0  0  0  0  0  0  0  0  0  0  0
  130.3578  128.9194  150.1954 C   0  0  0  0  0  0  0  0  0  0  0  0
  130.1714  129.6751  151.4859 C   0  0  0  0  0  0  0  0  0  0  0  0
  131.0326  129.5117  152.4807 C   0  0  0  0  0  0  0  0  0  0  0  0
  130.8502  130.2520  153.7457 C   0  0  0  0  0  0  0  0  0  0  0  0
  130.0606  131.4035  153.7733 C   0  0  0  0  0  0  0  0  0  0  0  0
  129.8905  132.0930  154.9528 C   0  0  0  0  0  0  0  0  0  0  0  0
  130.5064  131.6414  156.1203 C   0  0  0  0  0  0  0  0  0  0  0  0
  130.3224  132.3841  157.3898 C   0  0  0  0  0  0  0  0  0  0  0  0
  129.7727  131.8939  158.5295 C   0  0  0  0  0  0  0  0  0  0  0  0
  129.7968  132.9104  159.4527 N   0  0  0  0  0  0  0  0  0  0  0  0
  129.4722  132.8649  160.3656 H   0  0  0  0  0  0  0  0  0  0  0  0
  130.3607  133.9929  158.8507 C   0  0  0  0  0  0  0  0  0  0  0  0
  130.5696  135.2268  159.4425 N   0  0  0  0  0  0  0  0  0  0  0  0
  130.1705  135.4483  160.8346 C   0  0  1  0  0  0  0  0  0  0  0  0
  130.4073  134.5638  161.4256 H   0  0  0  0  0  0  0  0  0  0  0  0
  130.9265  136.6543  161.3961 C   0  0  0  0  0  0  0  0  0  0  0  0
  132.4316  136.3869  161.3333 C   0  0  0  0  0  0  0  0  0  0  0  0
  128.6653  135.7158  160.8971 C   0  0  0  0  0  0  0  0  0  0  0  0
  128.2547  135.9436  162.3290 C   0  0  0  0  0  0  0  0  0  0  0  0
  127.1889  136.7753  162.6182 C   0  0  0  0  0  0  0  0  0  0  0  0
  126.8082  136.9801  163.9312 C   0  0  0  0  0  0  0  0  0  0  0  0
  127.4974  136.3571  164.9560 C   0  0  0  0  0  0  0  0  0  0  0  0
  126.9767  136.6363  166.7523 Br  0  0  0  0  0  0  0  0  0  0  0  0
  128.5670  135.5292  164.6663 C   0  0  0  0  0  0  0  0  0  0  0  0
  128.9468  135.3250  163.3533 C   0  0  0  0  0  0  0  0  0  0  0  0
  130.6684  133.6765  157.6166 N   0  0  0  0  0  0  0  0  0  0  0  0
  131.0800  134.2705  156.9695 H   0  0  0  0  0  0  0  0  0  0  0  0
  131.3001  130.4942  156.0925 C   0  0  0  0  0  0  0  0  0  0  0  0
  131.4669  129.8005  154.9149 C   0  0  0  0  0  0  0  0  0  0  0  0
  128.5559  127.7645  150.4401 H   0  0  0  0  0  0  0  0  0  0  0  0
  129.7528  127.0359  149.3425 H   0  0  0  0  0  0  0  0  0  0  0  0
  130.0180  126.9950  151.1021 H   0  0  0  0  0  0  0  0  0  0  0  0
  129.9577  129.5071  149.3692 H   0  0  0  0  0  0  0  0  0  0  0  0
  131.4198  128.7375  150.0311 H   0  0  0  0  0  0  0  0  0  0  0  0
  129.3362  130.3503  151.6005 H   0  0  0  0  0  0  0  0  0  0  0  0
  131.8682  128.8360  152.3665 H   0  0  0  0  0  0  0  0  0  0  0  0
  129.5838  131.7531  152.8696 H   0  0  0  0  0  0  0  0  0  0  0  0
  129.2798  132.9836  154.9742 H   0  0  0  0  0  0  0  0  0  0  0  0
  129.3895  130.8956  158.6814 H   0  0  0  0  0  0  0  0  0  0  0  0
  130.9802  135.9447  158.9355 H   0  0  0  0  0  0  0  0  0  0  0  0
  130.6897  137.5391  160.8050 H   0  0  0  0  0  0  0  0  0  0  0  0
  130.6295  136.8191  162.4318 H   0  0  0  0  0  0  0  0  0  0  0  0
  132.7286  136.2221  160.2977 H   0  0  0  0  0  0  0  0  0  0  0  0
  132.9702  137.2460  161.7334 H   0  0  0  0  0  0  0  0  0  0  0  0
  132.6684  135.5022  161.9245 H   0  0  0  0  0  0  0  0  0  0  0  0
  128.1268  134.8567  160.4970 H   0  0  0  0  0  0  0  0  0  0  0  0
  128.4286  136.6004  160.3060 H   0  0  0  0  0  0  0  0  0  0  0  0
  126.6507  137.2614  161.8180 H   0  0  0  0  0  0  0  0  0  0  0  0
  125.9728  137.6263  164.1567 H   0  0  0  0  0  0  0  0  0  0  0  0
  129.1055  135.0428  165.4663 H   0  0  0  0  0  0  0  0  0  0  0  0
  129.7820  134.6786  163.1271 H   0  0  0  0  0  0  0  0  0  0  0  0
  131.7805  130.1479  156.9957 H   0  0  0  0  0  0  0  0  0  0  0  0
  132.0774  128.9100  154.8946 H   0  0  0  0  0  0  0  0  0  0  0  0
  1  2  1  0
  1 31  1  0
  1 32  1  0
  1 33  1  0
  2  3  1  0
  2 34  1  0
  2 35  1  0
  3  4  2  0
  3 36  1  0
  4  5  1  0
  4 37  1  0
  5 30  2  0
  5  6  1  0
  6  7  2  0
  6 38  1  0
  7  8  1  0
  7 39  1  0
  8  9  1  0
  8 29  2  0
  9 27  1  0
  9 10  2  0
 10 11  1  0
 10 40  1  0
 11 12  1  0
 11 13  1  0
 13 14  1  0
 13 27  2  0
 14 15  1  0
 14 41  1  0
 15 16  1  1
 15 17  1  0
 15 19  1  0
 17 18  1  0
 17 42  1  0
 17 43  1  0
 18 44  1  0
 18 45  1  0
 18 46  1  0
 19 20  1  0
 19 47  1  0
 19 48  1  0
 20 26  1  0
 20 21  2  0
 21 22  1  0
 21 49  1  0
 22 23  2  0
 22 50  1  0
 23 24  1  0
 23 25  1  0
 25 26  2  0
 25 51  1  0
 26 52  1  0
 27 28  1  0
 29 30  1  0
 29 53  1  0
 30 54  1  0
M  CHG  1  27   1
M  END
>  <DOCK_score>  (1) 
-56.890903

>  <SMILES>  (1) 
CCC=Cc1ccc(-c2c[nH]c(N[C@@H](CC)Cc3ccc(Br)cc3)[nH+]2)cc1

$$$$
