CC(C)[C@H](C)Nc1cc(Nc2[nH]cc(-c3cccnc3)[nH+]2)ccn1
     RDKit          3D

 47 49  0  0  1  0  0  0  0  0999 V2000
  127.8077  140.5905  162.8372 C   0  0  0  0  0  0  0  0  0  0  0  0
  127.7579  139.6443  164.0386 C   0  0  0  0  0  0  0  0  0  0  0  0
  126.6110  140.0551  164.9640 C   0  0  0  0  0  0  0  0  0  0  0  0
  127.5315  138.2120  163.5507 C   0  0  2  0  0  0  0  0  0  0  0  0
  126.5885  138.1582  163.0066 H   0  0  0  0  0  0  0  0  0  0  0  0
  127.4818  137.2658  164.7519 C   0  0  0  0  0  0  0  0  0  0  0  0
  128.6297  137.8186  162.6644 N   0  0  0  0  0  0  0  0  0  0  0  0
  128.4039  136.9055  161.6406 C   0  0  0  0  0  0  0  0  0  0  0  0
  129.4497  136.5381  160.8044 C   0  0  0  0  0  0  0  0  0  0  0  0
  129.2085  135.6234  159.7844 C   0  0  0  0  0  0  0  0  0  0  0  0
  130.2301  135.2285  158.9230 N   0  0  0  0  0  0  0  0  0  0  0  0
  130.2124  133.9615  158.3619 C   0  0  0  0  0  0  0  0  0  0  0  0
  129.6772  132.8485  158.9339 N   0  0  0  0  0  0  0  0  0  0  0  0
  129.2431  132.7998  159.8001 H   0  0  0  0  0  0  0  0  0  0  0  0
  129.8624  131.8080  158.0574 C   0  0  0  0  0  0  0  0  0  0  0  0
  130.5125  132.3124  156.9792 C   0  0  0  0  0  0  0  0  0  0  0  0
  130.9294  131.5512  155.7763 C   0  0  0  0  0  0  0  0  0  0  0  0
  130.9999  132.1775  154.5285 C   0  0  0  0  0  0  0  0  0  0  0  0
  131.3989  131.4245  153.4377 C   0  0  0  0  0  0  0  0  0  0  0  0
  131.7024  130.0865  153.6138 C   0  0  0  0  0  0  0  0  0  0  0  0
  131.6217  129.5217  154.8028 N   0  0  0  0  0  0  0  0  0  0  0  0
  131.2514  130.1988  155.8706 C   0  0  0  0  0  0  0  0  0  0  0  0
  130.7134  133.6362  157.1954 N   0  0  0  0  0  0  0  0  0  0  0  0
  131.1573  134.2448  156.5843 H   0  0  0  0  0  0  0  0  0  0  0  0
  127.9165  135.1108  159.6449 C   0  0  0  0  0  0  0  0  0  0  0  0
  126.9313  135.5240  160.5142 C   0  0  0  0  0  0  0  0  0  0  0  0
  127.1927  136.3948  161.4723 N   0  0  0  0  0  0  0  0  0  0  0  0
  126.8648  140.5367  162.2932 H   0  0  0  0  0  0  0  0  0  0  0  0
  127.9690  141.6109  163.1848 H   0  0  0  0  0  0  0  0  0  0  0  0
  128.6249  140.2978  162.1778 H   0  0  0  0  0  0  0  0  0  0  0  0
  128.7009  139.6980  164.5827 H   0  0  0  0  0  0  0  0  0  0  0  0
  126.5755  139.3810  165.8199 H   0  0  0  0  0  0  0  0  0  0  0  0
  126.7722  141.0756  165.3117 H   0  0  0  0  0  0  0  0  0  0  0  0
  125.6680  140.0014  164.4200 H   0  0  0  0  0  0  0  0  0  0  0  0
  128.4248  137.3195  165.2960 H   0  0  0  0  0  0  0  0  0  0  0  0
  126.6646  137.5584  165.4113 H   0  0  0  0  0  0  0  0  0  0  0  0
  127.3205  136.2454  164.4043 H   0  0  0  0  0  0  0  0  0  0  0  0
  129.5145  138.1953  162.7918 H   0  0  0  0  0  0  0  0  0  0  0  0
  130.4366  136.9529  160.9464 H   0  0  0  0  0  0  0  0  0  0  0  0
  130.9537  135.8405  158.7162 H   0  0  0  0  0  0  0  0  0  0  0  0
  129.5531  130.7832  158.2009 H   0  0  0  0  0  0  0  0  0  0  0  0
  130.7534  133.2232  154.4191 H   0  0  0  0  0  0  0  0  0  0  0  0
  131.4683  131.8758  152.4591 H   0  0  0  0  0  0  0  0  0  0  0  0
  132.0107  129.4952  152.7643 H   0  0  0  0  0  0  0  0  0  0  0  0
  131.1973  129.7012  156.8276 H   0  0  0  0  0  0  0  0  0  0  0  0
  127.6927  134.3991  158.8640 H   0  0  0  0  0  0  0  0  0  0  0  0
  125.9308  135.1309  160.4107 H   0  0  0  0  0  0  0  0  0  0  0  0
  1  2  1  0
  1 28  1  0
  1 29  1  0
  1 30  1  0
  2  3  1  0
  2  4  1  0
  2 31  1  0
  3 32  1  0
  3 33  1  0
  3 34  1  0
  4  5  1  6
  4  6  1  0
  4  7  1  0
  6 35  1  0
  6 36  1  0
  6 37  1  0
  7  8  1  0
  7 38  1  0
  8 27  2  0
  8  9  1  0
  9 10  2  0
  9 39  1  0
 10 11  1  0
 10 25  1  0
 11 40  1  0
 12 11  1  0
 12 23  2  0
 12 13  1  0
 13 14  1  0
 13 15  1  0
 15 16  2  0
 15 41  1  0
 16 17  1  0
 16 23  1  0
 17 22  1  0
 17 18  2  0
 18 19  1  0
 18 42  1  0
 19 20  2  0
 19 43  1  0
 20 21  1  0
 20 44  1  0
 21 22  2  0
 22 45  1  0
 23 24  1  0
 25 26  2  0
 25 46  1  0
 26 27  1  0
 26 47  1  0
M  CHG  1  23   1
M  END
>  <DOCK_score>  (1) 
-48.647472

>  <SMILES>  (1) 
CC(C)[C@H](C)Nc1cc(Nc2[nH]cc(-c3cccnc3)[nH+]2)ccn1

$$$$
