CCc1ccc(-c2c[nH]c(N[C@H](c3ccc(O)cc3)c3cccnc3)[nH+]2)cc1
     RDKit          3D

 51 54  0  0  1  0  0  0  0  0999 V2000
  129.9865  129.3007  151.1615 C   0  0  0  0  0  0  0  0  0  0  0  0
  131.2229  129.2694  152.0612 C   0  0  0  0  0  0  0  0  0  0  0  0
  130.9541  130.0648  153.3126 C   0  0  0  0  0  0  0  0  0  0  0  0
  130.0839  131.1388  153.2726 C   0  0  0  0  0  0  0  0  0  0  0  0
  129.8295  131.8674  154.4168 C   0  0  0  0  0  0  0  0  0  0  0  0
  130.4604  131.5260  155.6117 C   0  0  0  0  0  0  0  0  0  0  0  0
  130.1954  132.3088  156.8436 C   0  0  0  0  0  0  0  0  0  0  0  0
  129.6822  131.8248  158.0017 C   0  0  0  0  0  0  0  0  0  0  0  0
  129.6030  132.8820  158.8752 N   0  0  0  0  0  0  0  0  0  0  0  0
  129.2742  132.8503  159.7872 H   0  0  0  0  0  0  0  0  0  0  0  0
  130.0707  133.9821  158.2248 C   0  0  0  0  0  0  0  0  0  0  0  0
  130.1588  135.2569  158.7572 N   0  0  0  0  0  0  0  0  0  0  0  0
  129.7270  135.5069  160.1347 C   0  0  2  0  0  0  0  0  0  0  0  0
  130.3170  134.8952  160.8171 H   0  0  0  0  0  0  0  0  0  0  0  0
  128.2689  135.1533  160.2760 C   0  0  0  0  0  0  0  0  0  0  0  0
  127.4202  135.2779  159.1915 C   0  0  0  0  0  0  0  0  0  0  0  0
  126.0844  134.9489  159.3169 C   0  0  0  0  0  0  0  0  0  0  0  0
  125.5922  134.5042  160.5354 C   0  0  0  0  0  0  0  0  0  0  0  0
  124.2774  134.1849  160.6626 O   0  0  0  0  0  0  0  0  0  0  0  0
  126.4446  134.3855  161.6235 C   0  0  0  0  0  0  0  0  0  0  0  0
  127.7808  134.7103  161.4914 C   0  0  0  0  0  0  0  0  0  0  0  0
  129.9251  136.9636  160.4667 C   0  0  0  0  0  0  0  0  0  0  0  0
  131.1890  137.5311  160.4093 C   0  0  0  0  0  0  0  0  0  0  0  0
  131.3238  138.8746  160.7231 C   0  0  0  0  0  0  0  0  0  0  0  0
  130.2019  139.5987  161.0804 C   0  0  0  0  0  0  0  0  0  0  0  0
  129.0152  139.0258  161.1241 N   0  0  0  0  0  0  0  0  0  0  0  0
  128.8487  137.7517  160.8266 C   0  0  0  0  0  0  0  0  0  0  0  0
  130.4291  133.6344  157.0129 N   0  0  0  0  0  0  0  0  0  0  0  0
  130.8000  134.2303  156.3434 H   0  0  0  0  0  0  0  0  0  0  0  0
  131.3409  130.4461  155.6452 C   0  0  0  0  0  0  0  0  0  0  0  0
  131.5834  129.7211  154.4962 C   0  0  0  0  0  0  0  0  0  0  0  0
  129.1393  128.8671  151.6927 H   0  0  0  0  0  0  0  0  0  0  0  0
  129.7582  130.3324  150.8941 H   0  0  0  0  0  0  0  0  0  0  0  0
  130.1810  128.7253  150.2564 H   0  0  0  0  0  0  0  0  0  0  0  0
  131.4515  128.2371  152.3291 H   0  0  0  0  0  0  0  0  0  0  0  0
  132.0706  129.7025  151.5304 H   0  0  0  0  0  0  0  0  0  0  0  0
  129.5993  131.4053  152.3450 H   0  0  0  0  0  0  0  0  0  0  0  0
  129.1461  132.7031  154.3853 H   0  0  0  0  0  0  0  0  0  0  0  0
  129.3910  130.8037  158.1993 H   0  0  0  0  0  0  0  0  0  0  0  0
  130.5068  135.9846  158.2183 H   0  0  0  0  0  0  0  0  0  0  0  0
  127.8030  135.6285  158.2443 H   0  0  0  0  0  0  0  0  0  0  0  0
  125.4229  135.0422  158.4683 H   0  0  0  0  0  0  0  0  0  0  0  0
  123.7645  134.2996  159.8509 H   0  0  0  0  0  0  0  0  0  0  0  0
  126.0637  134.0398  162.5731 H   0  0  0  0  0  0  0  0  0  0  0  0
  128.4449  134.6177  162.3381 H   0  0  0  0  0  0  0  0  0  0  0  0
  132.0479  136.9406  160.1265 H   0  0  0  0  0  0  0  0  0  0  0  0
  132.2931  139.3497  160.6888 H   0  0  0  0  0  0  0  0  0  0  0  0
  130.2985  140.6458  161.3266 H   0  0  0  0  0  0  0  0  0  0  0  0
  127.8603  137.3184  160.8690 H   0  0  0  0  0  0  0  0  0  0  0  0
  131.8328  130.1773  156.5684 H   0  0  0  0  0  0  0  0  0  0  0  0
  132.2651  128.8839  154.5210 H   0  0  0  0  0  0  0  0  0  0  0  0
  1  2  1  0
  1 32  1  0
  1 33  1  0
  1 34  1  0
  2  3  1  0
  2 35  1  0
  2 36  1  0
  3 31  2  0
  3  4  1  0
  4  5  2  0
  4 37  1  0
  5  6  1  0
  5 38  1  0
  6  7  1  0
  6 30  2  0
  7 28  1  0
  7  8  2  0
  8  9  1  0
  8 39  1  0
  9 10  1  0
  9 11  1  0
 11 12  1  0
 11 28  2  0
 12 13  1  0
 12 40  1  0
 13 14  1  1
 13 15  1  0
 13 22  1  0
 15 21  1  0
 15 16  2  0
 16 17  1  0
 16 41  1  0
 17 18  2  0
 17 42  1  0
 18 19  1  0
 18 20  1  0
 19 43  1  0
 20 21  2  0
 20 44  1  0
 21 45  1  0
 22 27  1  0
 22 23  2  0
 23 24  1  0
 23 46  1  0
 24 25  2  0
 24 47  1  0
 25 26  1  0
 25 48  1  0
 26 27  2  0
 27 49  1  0
 28 29  1  0
 30 31  1  0
 30 50  1  0
 31 51  1  0
M  CHG  1  28   1
M  END
>  <DOCK_score>  (1) 
-57.750019

>  <SMILES>  (1) 
CCc1ccc(-c2c[nH]c(N[C@H](c3ccc(O)cc3)c3cccnc3)[nH+]2)cc1

$$$$
