CC(Nc1ccccc1C1=CC[N@H+](Cc2cccc3ccc(Cl)nc23)CC1)c1ncnn1C
     RDKit          3D

 61 65  0  0  1  0  0  0  0  0999 V2000
  129.4708  135.3433  165.3678 C   0  0  0  0  0  0  0  0  0  0  0  0
  129.7355  136.4471  164.3419 C   0  0  1  0  0  0  0  0  0  0  0  0
  130.8518  136.0536  163.4784 N   0  0  0  0  0  0  0  0  0  0  0  0
  131.6807  137.0276  162.9234 C   0  0  0  0  0  0  0  0  0  0  0  0
  132.4000  137.8822  163.7466 C   0  0  0  0  0  0  0  0  0  0  0  0
  133.2167  138.8501  163.1947 C   0  0  0  0  0  0  0  0  0  0  0  0
  133.3279  138.9713  161.8200 C   0  0  0  0  0  0  0  0  0  0  0  0
  132.6241  138.1260  160.9874 C   0  0  0  0  0  0  0  0  0  0  0  0
  131.7957  137.1443  161.5313 C   0  0  0  0  0  0  0  0  0  0  0  0
  131.0393  136.2367  160.6451 C   0  0  0  0  0  0  0  0  0  0  0  0
  129.8335  136.5912  160.2535 C   0  0  0  0  0  0  0  0  0  0  0  0
  128.9816  135.7376  159.3589 C   0  0  0  0  0  0  0  0  0  0  0  0
  129.8057  134.7394  158.6676 N   0  0  2  0  0  0  0  0  0  0  0  0
  130.4233  135.2027  158.0180 H   0  0  0  0  0  0  0  0  0  0  0  0
  128.9377  133.8030  157.9413 C   0  0  0  0  0  0  0  0  0  0  0  0
  129.7353  133.1080  156.8681 C   0  0  0  0  0  0  0  0  0  0  0  0
  129.8193  133.6482  155.6216 C   0  0  0  0  0  0  0  0  0  0  0  0
  130.5520  133.0229  154.6152 C   0  0  0  0  0  0  0  0  0  0  0  0
  131.2053  131.8516  154.8516 C   0  0  0  0  0  0  0  0  0  0  0  0
  131.1401  131.2656  156.1255 C   0  0  0  0  0  0  0  0  0  0  0  0
  131.8014  130.0554  156.4102 C   0  0  0  0  0  0  0  0  0  0  0  0
  131.6942  129.5435  157.6712 C   0  0  0  0  0  0  0  0  0  0  0  0
  130.9445  130.2183  158.6350 C   0  0  0  0  0  0  0  0  0  0  0  0
  130.8224  129.5493  160.2322 Cl  0  0  0  0  0  0  0  0  0  0  0  0
  130.3299  131.3457  158.3658 N   0  0  0  0  0  0  0  0  0  0  0  0
  130.4000  131.9026  157.1522 C   0  0  0  0  0  0  0  0  0  0  0  0
  130.6012  134.0029  159.6624 C   0  0  0  0  0  0  0  0  0  0  0  0
  131.6740  134.9406  160.2219 C   0  0  0  0  0  0  0  0  0  0  0  0
  128.5019  136.6593  163.5026 C   0  0  0  0  0  0  0  0  0  0  0  0
  127.6120  135.7489  163.2011 N   0  0  0  0  0  0  0  0  0  0  0  0
  126.6555  136.2853  162.4442 C   0  0  0  0  0  0  0  0  0  0  0  0
  126.9248  137.5499  162.2526 N   0  0  0  0  0  0  0  0  0  0  0  0
  128.1210  137.8183  162.9380 N   0  0  0  0  0  0  0  0  0  0  0  0
  128.8171  139.1048  163.0187 C   0  0  0  0  0  0  0  0  0  0  0  0
  129.2205  134.4178  164.8494 H   0  0  0  0  0  0  0  0  0  0  0  0
  130.3632  135.1900  165.9747 H   0  0  0  0  0  0  0  0  0  0  0  0
  128.6403  135.6360  166.0101 H   0  0  0  0  0  0  0  0  0  0  0  0
  129.9860  137.3726  164.8603 H   0  0  0  0  0  0  0  0  0  0  0  0
  131.0141  135.1156  163.2928 H   0  0  0  0  0  0  0  0  0  0  0  0
  132.3181  137.7933  164.8198 H   0  0  0  0  0  0  0  0  0  0  0  0
  133.7718  139.5155  163.8391 H   0  0  0  0  0  0  0  0  0  0  0  0
  133.9689  139.7310  161.3975 H   0  0  0  0  0  0  0  0  0  0  0  0
  132.7140  138.2244  159.9158 H   0  0  0  0  0  0  0  0  0  0  0  0
  129.4392  137.5383  160.5911 H   0  0  0  0  0  0  0  0  0  0  0  0
  128.2263  135.2291  159.9582 H   0  0  0  0  0  0  0  0  0  0  0  0
  128.4871  136.3699  158.6216 H   0  0  0  0  0  0  0  0  0  0  0  0
  128.5405  133.0626  158.6358 H   0  0  0  0  0  0  0  0  0  0  0  0
  128.1139  134.3511  157.4843 H   0  0  0  0  0  0  0  0  0  0  0  0
  129.3103  134.5768  155.4094 H   0  0  0  0  0  0  0  0  0  0  0  0
  130.6028  133.4730  153.6348 H   0  0  0  0  0  0  0  0  0  0  0  0
  131.7702  131.3762  154.0633 H   0  0  0  0  0  0  0  0  0  0  0  0
  132.3778  129.5463  155.6520 H   0  0  0  0  0  0  0  0  0  0  0  0
  132.1888  128.6169  157.9223 H   0  0  0  0  0  0  0  0  0  0  0  0
  131.0766  133.1445  159.1878 H   0  0  0  0  0  0  0  0  0  0  0  0
  129.9549  133.6622  160.4715 H   0  0  0  0  0  0  0  0  0  0  0  0
  132.4216  135.1364  159.4532 H   0  0  0  0  0  0  0  0  0  0  0  0
  132.1524  134.4726  161.0822 H   0  0  0  0  0  0  0  0  0  0  0  0
  125.7965  135.7602  162.0528 H   0  0  0  0  0  0  0  0  0  0  0  0
  129.5242  139.1876  162.1933 H   0  0  0  0  0  0  0  0  0  0  0  0
  128.0909  139.9153  162.9578 H   0  0  0  0  0  0  0  0  0  0  0  0
  129.3542  139.1686  163.9650 H   0  0  0  0  0  0  0  0  0  0  0  0
  1  2  1  0
  1 35  1  0
  1 36  1  0
  1 37  1  0
  2  3  1  0
  2 29  1  0
  2 38  1  1
  3  4  1  0
  3 39  1  0
  4  9  1  0
  4  5  2  0
  5  6  1  0
  5 40  1  0
  6  7  2  0
  6 41  1  0
  7  8  1  0
  7 42  1  0
  8  9  2  0
  8 43  1  0
  9 10  1  0
 10 28  1  0
 10 11  2  0
 11 12  1  0
 11 44  1  0
 12 13  1  0
 12 45  1  0
 12 46  1  0
 13 14  1  6
 13 15  1  0
 13 27  1  0
 15 16  1  0
 15 47  1  0
 15 48  1  0
 16 26  1  0
 16 17  2  0
 17 18  1  0
 17 49  1  0
 18 19  2  0
 18 50  1  0
 19 20  1  0
 19 51  1  0
 20 26  2  0
 20 21  1  0
 21 22  2  0
 21 52  1  0
 22 23  1  0
 22 53  1  0
 23 24  1  0
 23 25  2  0
 25 26  1  0
 27 28  1  0
 27 54  1  0
 27 55  1  0
 28 56  1  0
 28 57  1  0
 29 33  1  0
 29 30  2  0
 30 31  1  0
 31 32  2  0
 31 58  1  0
 32 33  1  0
 33 34  1  0
 34 59  1  0
 34 60  1  0
 34 61  1  0
M  CHG  1  13   1
M  END
>  <DOCK_score>  (1) 
-46.862446

>  <SMILES>  (1) 
CC(Nc1ccccc1C1=CC[N@H+](Cc2cccc3ccc(Cl)nc23)CC1)c1ncnn1C

$$$$
