CC(Nc1cccc(-c2cncnc2)c1)[C@@H](C[NH2+]C1C=CCCC1)NC=C1NCCN1
     RDKit          3D

 65 68  0  0  1  0  0  0  0  0999 V2000
  131.0736  139.0592  159.5428 C   0  0  0  0  0  0  0  0  0  0  0  0
  132.1220  138.6898  160.5942 C   0  0  2  0  0  0  0  0  0  0  0  0
  133.3926  138.3862  159.9311 N   0  0  0  0  0  0  0  0  0  0  0  0
  134.5322  139.1377  160.2275 C   0  0  0  0  0  0  0  0  0  0  0  0
  135.5138  139.3231  159.2608 C   0  0  0  0  0  0  0  0  0  0  0  0
  136.6397  140.0703  159.5490 C   0  0  0  0  0  0  0  0  0  0  0  0
  136.8017  140.6275  160.8021 C   0  0  0  0  0  0  0  0  0  0  0  0
  135.8253  140.4425  161.7789 C   0  0  0  0  0  0  0  0  0  0  0  0
  135.9976  141.0416  163.1257 C   0  0  0  0  0  0  0  0  0  0  0  0
  135.4454  140.4356  164.2568 C   0  0  0  0  0  0  0  0  0  0  0  0
  135.6275  140.9998  165.4385 N   0  0  0  0  0  0  0  0  0  0  0  0
  136.3084  142.1223  165.5558 C   0  0  0  0  0  0  0  0  0  0  0  0
  136.8414  142.7294  164.5138 N   0  0  0  0  0  0  0  0  0  0  0  0
  136.7117  142.2301  163.2966 C   0  0  0  0  0  0  0  0  0  0  0  0
  134.6874  139.6947  161.4882 C   0  0  0  0  0  0  0  0  0  0  0  0
  131.6492  137.4629  161.3767 C   0  0  1  0  0  0  0  0  0  0  0  0
  132.3961  137.1997  162.1256 H   0  0  0  0  0  0  0  0  0  0  0  0
  130.3222  137.7801  162.0691 C   0  0  0  0  0  0  0  0  0  0  0  0
  130.1056  136.8319  163.1700 N   0  0  0  0  0  0  0  0  0  0  0  0
  130.0778  135.8921  162.8039 H   0  0  0  0  0  0  0  0  0  0  0  0
  130.8598  136.9113  163.8357 H   0  0  0  0  0  0  0  0  0  0  0  0
  128.8316  137.1362  163.8349 C   0  0  2  0  0  0  0  0  0  0  0  0
  129.0209  138.2991  164.7645 C   0  0  0  0  0  0  0  0  0  0  0  0
  128.5239  138.3619  165.9580 C   0  0  0  0  0  0  0  0  0  0  0  0
  127.6973  137.2762  166.5827 C   0  0  0  0  0  0  0  0  0  0  0  0
  127.1808  136.3208  165.5050 C   0  0  0  0  0  0  0  0  0  0  0  0
  128.3611  135.9077  164.6167 C   0  0  0  0  0  0  0  0  0  0  0  0
  131.4632  136.3385  160.4562 N   0  0  0  0  0  0  0  0  0  0  0  0
  131.4462  135.0147  160.9518 C   0  0  0  0  0  0  0  0  0  0  0  0
  131.2772  133.9935  160.1158 C   0  0  0  0  0  0  0  0  0  0  0  0
  131.1034  134.1304  158.7395 N   0  0  0  0  0  0  0  0  0  0  0  0
  130.9514  132.7968  158.1444 C   0  0  0  0  0  0  0  0  0  0  0  0
  131.0430  131.8156  159.3244 C   0  0  0  0  0  0  0  0  0  0  0  0
  131.2464  132.6569  160.5104 N   0  0  0  0  0  0  0  0  0  0  0  0
  130.1283  139.2851  160.0362 H   0  0  0  0  0  0  0  0  0  0  0  0
  131.4105  139.9332  158.9854 H   0  0  0  0  0  0  0  0  0  0  0  0
  130.9353  138.2227  158.8579 H   0  0  0  0  0  0  0  0  0  0  0  0
  132.2604  139.5264  161.2790 H   0  0  0  0  0  0  0  0  0  0  0  0
  133.4426  137.6634  159.2862 H   0  0  0  0  0  0  0  0  0  0  0  0
  135.3938  138.8856  158.2807 H   0  0  0  0  0  0  0  0  0  0  0  0
  137.3977  140.2149  158.7934 H   0  0  0  0  0  0  0  0  0  0  0  0
  137.6852  141.2072  161.0249 H   0  0  0  0  0  0  0  0  0  0  0  0
  134.8822  139.5184  164.1681 H   0  0  0  0  0  0  0  0  0  0  0  0
  136.4339  142.5586  166.5358 H   0  0  0  0  0  0  0  0  0  0  0  0
  137.1507  142.7331  162.4477 H   0  0  0  0  0  0  0  0  0  0  0  0
  133.9279  139.5489  162.2420 H   0  0  0  0  0  0  0  0  0  0  0  0
  130.3523  138.7953  162.4646 H   0  0  0  0  0  0  0  0  0  0  0  0
  129.5076  137.6942  161.3501 H   0  0  0  0  0  0  0  0  0  0  0  0
  128.0849  137.3943  163.0839 H   0  0  0  0  0  0  0  0  0  0  0  0
  129.6087  139.1355  164.4161 H   0  0  0  0  0  0  0  0  0  0  0  0
  128.7157  139.2509  166.5404 H   0  0  0  0  0  0  0  0  0  0  0  0
  126.8513  137.7222  167.1059 H   0  0  0  0  0  0  0  0  0  0  0  0
  128.3081  136.7215  167.2949 H   0  0  0  0  0  0  0  0  0  0  0  0
  126.4257  136.8235  164.9006 H   0  0  0  0  0  0  0  0  0  0  0  0
  126.7492  135.4370  165.9751 H   0  0  0  0  0  0  0  0  0  0  0  0
  128.0424  135.1310  163.9215 H   0  0  0  0  0  0  0  0  0  0  0  0
  129.1763  135.5332  165.2357 H   0  0  0  0  0  0  0  0  0  0  0  0
  131.3517  136.5025  159.5067 H   0  0  0  0  0  0  0  0  0  0  0  0
  131.5748  134.8320  162.0083 H   0  0  0  0  0  0  0  0  0  0  0  0
  131.0877  134.9698  158.2537 H   0  0  0  0  0  0  0  0  0  0  0  0
  131.7517  132.6045  157.4297 H   0  0  0  0  0  0  0  0  0  0  0  0
  129.9801  132.7124  157.6570 H   0  0  0  0  0  0  0  0  0  0  0  0
  131.8885  131.1407  159.1902 H   0  0  0  0  0  0  0  0  0  0  0  0
  130.1176  131.2472  159.4183 H   0  0  0  0  0  0  0  0  0  0  0  0
  131.3432  132.3351  161.4203 H   0  0  0  0  0  0  0  0  0  0  0  0
  1  2  1  0
  1 35  1  0
  1 36  1  0
  1 37  1  0
  2  3  1  0
  2 16  1  0
  2 38  1  1
  3  4  1  0
  3 39  1  0
  4 15  1  0
  4  5  2  0
  5  6  1  0
  5 40  1  0
  6  7  2  0
  6 41  1  0
  7  8  1  0
  7 42  1  0
  8  9  1  0
  8 15  2  0
  9 14  1  0
  9 10  2  0
 10 11  1  0
 10 43  1  0
 11 12  2  0
 12 13  1  0
 12 44  1  0
 13 14  2  0
 14 45  1  0
 15 46  1  0
 16 17  1  1
 16 18  1  0
 16 28  1  0
 18 19  1  0
 18 47  1  0
 18 48  1  0
 19 20  1  0
 19 21  1  0
 19 22  1  0
 22 27  1  0
 22 23  1  0
 22 49  1  6
 23 24  2  0
 23 50  1  0
 24 25  1  0
 24 51  1  0
 25 26  1  0
 25 52  1  0
 25 53  1  0
 26 27  1  0
 26 54  1  0
 26 55  1  0
 27 56  1  0
 27 57  1  0
 28 29  1  0
 28 58  1  0
 29 30  2  0
 29 59  1  0
 30 34  1  0
 30 31  1  0
 31 32  1  0
 31 60  1  0
 32 33  1  0
 32 61  1  0
 32 62  1  0
 33 34  1  0
 33 63  1  0
 33 64  1  0
 34 65  1  0
M  CHG  1  19   1
M  END
>  <DOCK_score>  (1) 
-57.707829

>  <SMILES>  (1) 
CC(Nc1cccc(-c2cncnc2)c1)[C@@H](C[NH2+]C1C=CCCC1)NC=C1NCCN1

$$$$
