[NH3+][C@@H](C(=O)NC1=CC(Nc2cc3cccc(Br)c3cn2)CC1)c1cccc(O)c1
     RDKit          3D

 51 54  0  0  1  0  0  0  0  0999 V2000
  132.4871  134.5988  158.8492 N   0  0  0  0  0  0  0  0  0  0  0  0
  133.3578  134.1646  158.5824 H   0  0  0  0  0  0  0  0  0  0  0  0
  132.0596  135.0211  158.0387 H   0  0  0  0  0  0  0  0  0  0  0  0
  132.6643  135.3086  159.5442 H   0  0  0  0  0  0  0  0  0  0  0  0
  131.5837  133.5831  159.4061 C   0  0  1  0  0  0  0  0  0  0  0  0
  132.0454  133.1270  160.2818 H   0  0  0  0  0  0  0  0  0  0  0  0
  130.2831  134.2316  159.8046 C   0  0  0  0  0  0  0  0  0  0  0  0
  130.1244  135.4230  159.6409 O   0  0  0  0  0  0  0  0  0  0  0  0
  129.2963  133.4881  160.3429 N   0  0  0  0  0  0  0  0  0  0  0  0
  128.0947  134.0874  160.7110 C   0  0  0  0  0  0  0  0  0  0  0  0
  127.9760  135.3335  161.1134 C   0  0  0  0  0  0  0  0  0  0  0  0
  126.5366  135.6626  161.4344 C   0  0  2  0  0  0  0  0  0  0  0  0
  126.3227  135.6551  162.8838 N   0  0  0  0  0  0  0  0  0  0  0  0
  126.4996  136.8235  163.6193 C   0  0  0  0  0  0  0  0  0  0  0  0
  126.2943  136.7987  164.9841 C   0  0  0  0  0  0  0  0  0  0  0  0
  126.4769  137.9857  165.7115 C   0  0  0  0  0  0  0  0  0  0  0  0
  126.2882  138.0465  167.1008 C   0  0  0  0  0  0  0  0  0  0  0  0
  126.4848  139.2255  167.7536 C   0  0  0  0  0  0  0  0  0  0  0  0
  126.8602  140.3758  167.0619 C   0  0  0  0  0  0  0  0  0  0  0  0
  127.0525  140.3549  165.7133 C   0  0  0  0  0  0  0  0  0  0  0  0
  127.5682  141.9287  164.8004 Br  0  0  0  0  0  0  0  0  0  0  0  0
  126.8645  139.1556  165.0054 C   0  0  0  0  0  0  0  0  0  0  0  0
  127.0484  139.0770  163.6169 C   0  0  0  0  0  0  0  0  0  0  0  0
  126.8633  137.9385  162.9906 N   0  0  0  0  0  0  0  0  0  0  0  0
  125.7157  134.5374  160.7634 C   0  0  0  0  0  0  0  0  0  0  0  0
  126.7529  133.3926  160.7014 C   0  0  0  0  0  0  0  0  0  0  0  0
  131.3190  132.5230  158.3682 C   0  0  0  0  0  0  0  0  0  0  0  0
  131.6616  131.2073  158.6214 C   0  0  0  0  0  0  0  0  0  0  0  0
  131.4149  130.2316  157.6737 C   0  0  0  0  0  0  0  0  0  0  0  0
  130.8354  130.5708  156.4661 C   0  0  0  0  0  0  0  0  0  0  0  0
  130.4961  131.8906  156.2073 C   0  0  0  0  0  0  0  0  0  0  0  0
  129.9265  132.2268  155.0201 O   0  0  0  0  0  0  0  0  0  0  0  0
  130.7396  132.8671  157.1625 C   0  0  0  0  0  0  0  0  0  0  0  0
  129.4232  132.5355  160.4738 H   0  0  0  0  0  0  0  0  0  0  0  0
  128.7976  136.0289  161.2026 H   0  0  0  0  0  0  0  0  0  0  0  0
  126.2668  136.6325  161.0167 H   0  0  0  0  0  0  0  0  0  0  0  0
  126.0577  134.8361  163.3307 H   0  0  0  0  0  0  0  0  0  0  0  0
  125.9993  135.8865  165.4814 H   0  0  0  0  0  0  0  0  0  0  0  0
  125.9936  137.1637  167.6490 H   0  0  0  0  0  0  0  0  0  0  0  0
  126.3434  139.2708  168.8233 H   0  0  0  0  0  0  0  0  0  0  0  0
  127.0052  141.2981  167.6048 H   0  0  0  0  0  0  0  0  0  0  0  0
  127.3428  139.9555  163.0620 H   0  0  0  0  0  0  0  0  0  0  0  0
  124.8606  134.2572  161.3786 H   0  0  0  0  0  0  0  0  0  0  0  0
  125.3962  134.8301  159.7631 H   0  0  0  0  0  0  0  0  0  0  0  0
  126.6296  132.8181  159.7833 H   0  0  0  0  0  0  0  0  0  0  0  0
  126.6558  132.7427  161.5710 H   0  0  0  0  0  0  0  0  0  0  0  0
  132.1189  130.9410  159.5629 H   0  0  0  0  0  0  0  0  0  0  0  0
  131.6797  129.2042  157.8755 H   0  0  0  0  0  0  0  0  0  0  0  0
  130.6472  129.8090  155.7240 H   0  0  0  0  0  0  0  0  0  0  0  0
  129.7262  133.1687  154.9328 H   0  0  0  0  0  0  0  0  0  0  0  0
  130.4765  133.8955  156.9634 H   0  0  0  0  0  0  0  0  0  0  0  0
  1  2  1  0
  1  3  1  0
  1  4  1  0
  1  5  1  0
  5  6  1  1
  5  7  1  0
  5 27  1  0
  7  8  2  0
  7  9  1  0
  9 10  1  0
  9 34  1  0
 10 26  1  0
 10 11  2  0
 11 12  1  0
 11 35  1  0
 12 13  1  0
 12 25  1  0
 12 36  1  6
 13 14  1  0
 13 37  1  0
 14 24  1  0
 14 15  2  0
 15 16  1  0
 15 38  1  0
 16 22  2  0
 16 17  1  0
 17 18  2  0
 17 39  1  0
 18 19  1  0
 18 40  1  0
 19 20  2  0
 19 41  1  0
 20 21  1  0
 20 22  1  0
 22 23  1  0
 23 24  2  0
 23 42  1  0
 25 26  1  0
 25 43  1  0
 25 44  1  0
 26 45  1  0
 26 46  1  0
 27 33  1  0
 27 28  2  0
 28 29  1  0
 28 47  1  0
 29 30  2  0
 29 48  1  0
 30 31  1  0
 30 49  1  0
 31 32  1  0
 31 33  2  0
 32 50  1  0
 33 51  1  0
M  CHG  1   1   1
M  END
>  <DOCK_score>  (1) 
-43.60136

>  <SMILES>  (1) 
[NH3+][C@@H](C(=O)NC1=CC(Nc2cc3cccc(Br)c3cn2)CC1)c1cccc(O)c1

$$$$
