Nc1ccc(-c2c[nH]c(N[C@@H](C3=CCOCC3)c3cccc4ccccc34)[nH+]2)cc1
     RDKit          3D

 55 59  0  0  1  0  0  0  0  0999 V2000
  131.0295  129.5439  150.7879 N   0  0  0  0  0  0  0  0  0  0  0  0
  130.9307  130.1058  152.0630 C   0  0  0  0  0  0  0  0  0  0  0  0
  130.2085  131.2786  152.2504 C   0  0  0  0  0  0  0  0  0  0  0  0
  130.1097  131.8350  153.5081 C   0  0  0  0  0  0  0  0  0  0  0  0
  130.7348  131.2204  154.5922 C   0  0  0  0  0  0  0  0  0  0  0  0
  130.6299  131.8172  155.9463 C   0  0  0  0  0  0  0  0  0  0  0  0
  130.0909  131.2243  157.0401 C   0  0  0  0  0  0  0  0  0  0  0  0
  130.1987  132.1232  158.0748 N   0  0  0  0  0  0  0  0  0  0  0  0
  129.9009  131.9869  158.9878 H   0  0  0  0  0  0  0  0  0  0  0  0
  130.8010  133.2392  157.5814 C   0  0  0  0  0  0  0  0  0  0  0  0
  131.0949  134.3831  158.3037 N   0  0  0  0  0  0  0  0  0  0  0  0
  130.7525  134.4594  159.7262 C   0  0  1  0  0  0  0  0  0  0  0  0
  130.9596  133.5007  160.2017 H   0  0  0  0  0  0  0  0  0  0  0  0
  131.5774  135.5352  160.3843 C   0  0  0  0  0  0  0  0  0  0  0  0
  132.7299  135.2157  160.8934 C   0  0  0  0  0  0  0  0  0  0  0  0
  133.6227  136.2108  161.5786 C   0  0  0  0  0  0  0  0  0  0  0  0
  133.2070  137.5416  161.2655 O   0  0  0  0  0  0  0  0  0  0  0  0
  131.8053  137.7534  161.4694 C   0  0  0  0  0  0  0  0  0  0  0  0
  131.0360  136.9376  160.4264 C   0  0  0  0  0  0  0  0  0  0  0  0
  129.2890  134.7875  159.8736 C   0  0  0  0  0  0  0  0  0  0  0  0
  128.5123  134.9621  158.7694 C   0  0  0  0  0  0  0  0  0  0  0  0
  127.1560  135.2590  158.8860 C   0  0  0  0  0  0  0  0  0  0  0  0
  126.5711  135.3960  160.1076 C   0  0  0  0  0  0  0  0  0  0  0  0
  127.3423  135.2294  161.2701 C   0  0  0  0  0  0  0  0  0  0  0  0
  126.7736  135.3629  162.5486 C   0  0  0  0  0  0  0  0  0  0  0  0
  127.5515  135.1950  163.6524 C   0  0  0  0  0  0  0  0  0  0  0  0
  128.9070  134.8918  163.5357 C   0  0  0  0  0  0  0  0  0  0  0  0
  129.4919  134.7545  162.3147 C   0  0  0  0  0  0  0  0  0  0  0  0
  128.7206  134.9205  161.1516 C   0  0  0  0  0  0  0  0  0  0  0  0
  131.0520  133.0547  156.3081 N   0  0  0  0  0  0  0  0  0  0  0  0
  131.4741  133.6994  155.7190 H   0  0  0  0  0  0  0  0  0  0  0  0
  131.4631  130.0473  154.4009 C   0  0  0  0  0  0  0  0  0  0  0  0
  131.5540  129.4910  153.1423 C   0  0  0  0  0  0  0  0  0  0  0  0
  130.5940  129.9720  150.0340 H   0  0  0  0  0  0  0  0  0  0  0  0
  131.5328  128.7253  150.6562 H   0  0  0  0  0  0  0  0  0  0  0  0
  129.7249  131.7546  151.4103 H   0  0  0  0  0  0  0  0  0  0  0  0
  129.5485  132.7462  153.6535 H   0  0  0  0  0  0  0  0  0  0  0  0
  129.6592  130.2355  157.0890 H   0  0  0  0  0  0  0  0  0  0  0  0
  131.5276  135.1340  157.8680 H   0  0  0  0  0  0  0  0  0  0  0  0
  133.0598  134.1899  160.8211 H   0  0  0  0  0  0  0  0  0  0  0  0
  133.5710  136.0603  162.6570 H   0  0  0  0  0  0  0  0  0  0  0  0
  134.6498  136.0650  161.2443 H   0  0  0  0  0  0  0  0  0  0  0  0
  131.5734  138.8118  161.3516 H   0  0  0  0  0  0  0  0  0  0  0  0
  131.5265  137.4251  162.4707 H   0  0  0  0  0  0  0  0  0  0  0  0
  131.1510  137.4007  159.4465 H   0  0  0  0  0  0  0  0  0  0  0  0
  129.9795  136.9109  160.6936 H   0  0  0  0  0  0  0  0  0  0  0  0
  128.9530  134.8636  157.7883 H   0  0  0  0  0  0  0  0  0  0  0  0
  126.5611  135.3877  157.9938 H   0  0  0  0  0  0  0  0  0  0  0  0
  125.5197  135.6313  160.1826 H   0  0  0  0  0  0  0  0  0  0  0  0
  125.7245  135.5971  162.6542 H   0  0  0  0  0  0  0  0  0  0  0  0
  127.1122  135.2985  164.6335 H   0  0  0  0  0  0  0  0  0  0  0  0
  129.5020  134.7635  164.4280 H   0  0  0  0  0  0  0  0  0  0  0  0
  130.5432  134.5187  162.2397 H   0  0  0  0  0  0  0  0  0  0  0  0
  131.9517  129.5719  155.2384 H   0  0  0  0  0  0  0  0  0  0  0  0
  132.1138  128.5794  152.9945 H   0  0  0  0  0  0  0  0  0  0  0  0
  1  2  1  0
  1 34  1  0
  1 35  1  0
  2 33  2  0
  2  3  1  0
  3  4  2  0
  3 36  1  0
  4  5  1  0
  4 37  1  0
  5  6  1  0
  5 32  2  0
  6 30  1  0
  6  7  2  0
  7  8  1  0
  7 38  1  0
  8  9  1  0
  8 10  1  0
 10 11  1  0
 10 30  2  0
 11 12  1  0
 11 39  1  0
 12 13  1  1
 12 14  1  0
 12 20  1  0
 14 19  1  0
 14 15  2  0
 15 16  1  0
 15 40  1  0
 16 17  1  0
 16 41  1  0
 16 42  1  0
 17 18  1  0
 18 19  1  0
 18 43  1  0
 18 44  1  0
 19 45  1  0
 19 46  1  0
 20 29  1  0
 20 21  2  0
 21 22  1  0
 21 47  1  0
 22 23  2  0
 22 48  1  0
 23 24  1  0
 23 49  1  0
 24 29  2  0
 24 25  1  0
 25 26  2  0
 25 50  1  0
 26 27  1  0
 26 51  1  0
 27 28  2  0
 27 52  1  0
 28 29  1  0
 28 53  1  0
 30 31  1  0
 32 33  1  0
 32 54  1  0
 33 55  1  0
M  CHG  1  30   1
M  END
>  <DOCK_score>  (1) 
-60.9133

>  <SMILES>  (1) 
Nc1ccc(-c2c[nH]c(N[C@@H](C3=CCOCC3)c3cccc4ccccc34)[nH+]2)cc1

$$$$
