Cc1cccnc1CN(Cc1ccn(C(C)C)n1)C(=O)c1c[nH]nc1[C@H]1CCC[NH2+]C1
     RDKit          3D

 63 66  0  0  1  0  0  0  0  0999 V2000
  129.3679  140.4797  162.1235 C   0  0  0  0  0  0  0  0  0  0  0  0
  130.3539  139.6813  161.3102 C   0  0  0  0  0  0  0  0  0  0  0  0
  130.8849  140.2034  160.1404 C   0  0  0  0  0  0  0  0  0  0  0  0
  131.7881  139.4332  159.4243 C   0  0  0  0  0  0  0  0  0  0  0  0
  132.1269  138.1790  159.8969 C   0  0  0  0  0  0  0  0  0  0  0  0
  131.6061  137.7168  161.0165 N   0  0  0  0  0  0  0  0  0  0  0  0
  130.7399  138.4196  161.7204 C   0  0  0  0  0  0  0  0  0  0  0  0
  130.1692  137.8421  162.9901 C   0  0  0  0  0  0  0  0  0  0  0  0
  130.7256  136.5050  163.2117 N   0  0  0  0  0  0  0  0  0  0  0  0
  131.9605  136.3441  163.9834 C   0  0  0  0  0  0  0  0  0  0  0  0
  133.0774  137.0954  163.3061 C   0  0  0  0  0  0  0  0  0  0  0  0
  133.9455  136.5782  162.3390 C   0  0  0  0  0  0  0  0  0  0  0  0
  134.8017  137.5623  161.9791 C   0  0  0  0  0  0  0  0  0  0  0  0
  134.4922  138.6606  162.6996 N   0  0  0  0  0  0  0  0  0  0  0  0
  135.1718  139.9566  162.6302 C   0  0  0  0  0  0  0  0  0  0  0  0
  134.1714  141.0353  162.2104 C   0  0  0  0  0  0  0  0  0  0  0  0
  135.7497  140.3037  164.0036 C   0  0  0  0  0  0  0  0  0  0  0  0
  133.4064  138.3427  163.5255 N   0  0  0  0  0  0  0  0  0  0  0  0
  130.1012  135.4231  162.7058 C   0  0  0  0  0  0  0  0  0  0  0  0
  130.5629  134.3133  162.8896 O   0  0  0  0  0  0  0  0  0  0  0  0
  128.8586  135.5851  161.9292 C   0  0  0  0  0  0  0  0  0  0  0  0
  127.6790  136.1448  162.3775 C   0  0  0  0  0  0  0  0  0  0  0  0
  126.8014  136.0995  161.3626 N   0  0  0  0  0  0  0  0  0  0  0  0
  125.8875  136.4234  161.3887 H   0  0  0  0  0  0  0  0  0  0  0  0
  127.4275  135.5066  160.2605 N   0  0  0  0  0  0  0  0  0  0  0  0
  128.6519  135.1965  160.5865 C   0  0  0  0  0  0  0  0  0  0  0  0
  129.6680  134.5390  159.6885 C   0  0  1  0  0  0  0  0  0  0  0  0
  130.6691  134.8629  159.9733 H   0  0  0  0  0  0  0  0  0  0  0  0
  129.5640  133.0174  159.8268 C   0  0  0  0  0  0  0  0  0  0  0  0
  130.5455  132.3580  158.8535 C   0  0  0  0  0  0  0  0  0  0  0  0
  130.2415  132.8332  157.4311 C   0  0  0  0  0  0  0  0  0  0  0  0
  130.3834  134.2923  157.3579 N   0  0  0  0  0  0  0  0  0  0  0  0
  131.3127  134.5539  157.6512 H   0  0  0  0  0  0  0  0  0  0  0  0
  130.2336  134.5966  156.4076 H   0  0  0  0  0  0  0  0  0  0  0  0
  129.3972  134.9342  158.2352 C   0  0  0  0  0  0  0  0  0  0  0  0
  129.9074  141.1561  162.7865 H   0  0  0  0  0  0  0  0  0  0  0  0
  128.7297  141.0580  161.4554 H   0  0  0  0  0  0  0  0  0  0  0  0
  128.7536  139.8025  162.7168 H   0  0  0  0  0  0  0  0  0  0  0  0
  130.6013  141.1866  159.7951 H   0  0  0  0  0  0  0  0  0  0  0  0
  132.2217  139.8081  158.5091 H   0  0  0  0  0  0  0  0  0  0  0  0
  132.8301  137.5728  159.3452 H   0  0  0  0  0  0  0  0  0  0  0  0
  129.0849  137.7746  162.9032 H   0  0  0  0  0  0  0  0  0  0  0  0
  130.4270  138.4867  163.8304 H   0  0  0  0  0  0  0  0  0  0  0  0
  131.8145  136.7386  164.9890 H   0  0  0  0  0  0  0  0  0  0  0  0
  132.2171  135.2863  164.0418 H   0  0  0  0  0  0  0  0  0  0  0  0
  133.9332  135.5719  161.9471 H   0  0  0  0  0  0  0  0  0  0  0  0
  135.5938  137.4819  161.2493 H   0  0  0  0  0  0  0  0  0  0  0  0
  135.9786  139.9050  161.8991 H   0  0  0  0  0  0  0  0  0  0  0  0
  133.3645  141.0869  162.9415 H   0  0  0  0  0  0  0  0  0  0  0  0
  134.6770  141.9997  162.1588 H   0  0  0  0  0  0  0  0  0  0  0  0
  133.7596  140.7881  161.2319 H   0  0  0  0  0  0  0  0  0  0  0  0
  136.4626  139.5351  164.3028 H   0  0  0  0  0  0  0  0  0  0  0  0
  136.2555  141.2680  163.9520 H   0  0  0  0  0  0  0  0  0  0  0  0
  134.9429  140.3553  164.7348 H   0  0  0  0  0  0  0  0  0  0  0  0
  127.4961  136.5456  163.3636 H   0  0  0  0  0  0  0  0  0  0  0  0
  129.8121  132.7264  160.8476 H   0  0  0  0  0  0  0  0  0  0  0  0
  128.5485  132.6987  159.5922 H   0  0  0  0  0  0  0  0  0  0  0  0
  131.5650  132.6365  159.1203 H   0  0  0  0  0  0  0  0  0  0  0  0
  130.4383  131.2746  158.9068 H   0  0  0  0  0  0  0  0  0  0  0  0
  130.9383  132.3654  156.7356 H   0  0  0  0  0  0  0  0  0  0  0  0
  129.2218  132.5544  157.1656 H   0  0  0  0  0  0  0  0  0  0  0  0
  128.3956  134.6109  157.9518 H   0  0  0  0  0  0  0  0  0  0  0  0
  129.4708  136.0170  158.1339 H   0  0  0  0  0  0  0  0  0  0  0  0
  1  2  1  0
  1 36  1  0
  1 37  1  0
  1 38  1  0
  2  7  2  0
  2  3  1  0
  3  4  2  0
  3 39  1  0
  4  5  1  0
  4 40  1  0
  5  6  2  0
  5 41  1  0
  6  7  1  0
  7  8  1  0
  8  9  1  0
  8 42  1  0
  8 43  1  0
  9 10  1  0
  9 19  1  0
 10 11  1  0
 10 44  1  0
 10 45  1  0
 11 18  2  0
 11 12  1  0
 12 13  2  0
 12 46  1  0
 13 14  1  0
 13 47  1  0
 14 15  1  0
 14 18  1  0
 15 16  1  0
 15 17  1  0
 15 48  1  0
 16 49  1  0
 16 50  1  0
 16 51  1  0
 17 52  1  0
 17 53  1  0
 17 54  1  0
 19 20  2  0
 19 21  1  0
 21 26  1  0
 21 22  2  0
 22 23  1  0
 22 55  1  0
 23 24  1  0
 23 25  1  0
 25 26  2  0
 26 27  1  0
 27 28  1  1
 27 35  1  0
 27 29  1  0
 29 30  1  0
 29 56  1  0
 29 57  1  0
 30 31  1  0
 30 58  1  0
 30 59  1  0
 31 32  1  0
 31 60  1  0
 31 61  1  0
 32 33  1  0
 32 34  1  0
 32 35  1  0
 35 62  1  0
 35 63  1  0
M  CHG  1  32   1
M  END
>  <DOCK_score>  (1) 
-41.635067

>  <SMILES>  (1) 
Cc1cccnc1CN(Cc1ccn(C(C)C)n1)C(=O)c1c[nH]nc1[C@H]1CCC[NH2+]C1

$$$$
