C[C@H](Nc1cc(Nc2[nH]cc(-c3cccnc3)[nH+]2)ccn1)C1CCCCC1
     RDKit          3D

 54 57  0  0  1  0  0  0  0  0999 V2000
  127.2285  137.6287  164.5796 C   0  0  0  0  0  0  0  0  0  0  0  0
  127.2794  138.5388  163.3507 C   0  0  2  0  0  0  0  0  0  0  0  0
  126.3427  138.4576  162.7994 H   0  0  0  0  0  0  0  0  0  0  0  0
  128.3909  138.1319  162.4876 N   0  0  0  0  0  0  0  0  0  0  0  0
  128.1860  137.1855  161.4897 C   0  0  0  0  0  0  0  0  0  0  0  0
  129.2459  136.8010  160.6794 C   0  0  0  0  0  0  0  0  0  0  0  0
  129.0254  135.8531  159.6852 C   0  0  0  0  0  0  0  0  0  0  0  0
  130.0616  135.4400  158.8503 N   0  0  0  0  0  0  0  0  0  0  0  0
  130.0612  134.1561  158.3286 C   0  0  0  0  0  0  0  0  0  0  0  0
  129.5266  133.0571  158.9277 N   0  0  0  0  0  0  0  0  0  0  0  0
  129.0813  133.0318  159.7891 H   0  0  0  0  0  0  0  0  0  0  0  0
  129.7321  131.9913  158.0868 C   0  0  0  0  0  0  0  0  0  0  0  0
  130.3929  132.4674  157.0022 C   0  0  0  0  0  0  0  0  0  0  0  0
  130.8320  131.6726  155.8292 C   0  0  0  0  0  0  0  0  0  0  0  0
  130.9148  132.2604  154.5635 C   0  0  0  0  0  0  0  0  0  0  0  0
  131.3356  131.4776  153.5025 C   0  0  0  0  0  0  0  0  0  0  0  0
  131.6467  130.1483  153.7239 C   0  0  0  0  0  0  0  0  0  0  0  0
  131.5538  129.6197  154.9287 N   0  0  0  0  0  0  0  0  0  0  0  0
  131.1632  130.3264  155.9698 C   0  0  0  0  0  0  0  0  0  0  0  0
  130.5806  133.7988  157.1795 N   0  0  0  0  0  0  0  0  0  0  0  0
  131.0276  134.3918  156.5556 H   0  0  0  0  0  0  0  0  0  0  0  0
  127.7394  135.3260  159.5446 C   0  0  0  0  0  0  0  0  0  0  0  0
  126.7394  135.7581  160.3875 C   0  0  0  0  0  0  0  0  0  0  0  0
  126.9826  136.6559  161.3254 N   0  0  0  0  0  0  0  0  0  0  0  0
  127.4844  139.9877  163.7974 C   0  0  0  0  0  0  0  0  0  0  0  0
  126.1480  140.5732  164.2581 C   0  0  0  0  0  0  0  0  0  0  0  0
  126.3531  142.0221  164.7048 C   0  0  0  0  0  0  0  0  0  0  0  0
  127.3535  142.0626  165.8616 C   0  0  0  0  0  0  0  0  0  0  0  0
  128.6898  141.4770  165.4008 C   0  0  0  0  0  0  0  0  0  0  0  0
  128.4848  140.0281  164.9542 C   0  0  0  0  0  0  0  0  0  0  0  0
  126.4016  137.9314  165.2219 H   0  0  0  0  0  0  0  0  0  0  0  0
  127.0825  136.5964  164.2615 H   0  0  0  0  0  0  0  0  0  0  0  0
  128.1654  137.7099  165.1310 H   0  0  0  0  0  0  0  0  0  0  0  0
  129.2700  138.5227  162.6122 H   0  0  0  0  0  0  0  0  0  0  0  0
  130.2264  137.2315  160.8185 H   0  0  0  0  0  0  0  0  0  0  0  0
  130.7832  136.0510  158.6340 H   0  0  0  0  0  0  0  0  0  0  0  0
  129.4295  130.9689  158.2582 H   0  0  0  0  0  0  0  0  0  0  0  0
  130.6611  133.3001  154.4183 H   0  0  0  0  0  0  0  0  0  0  0  0
  131.4159  131.8993  152.5113 H   0  0  0  0  0  0  0  0  0  0  0  0
  131.9711  129.5334  152.8974 H   0  0  0  0  0  0  0  0  0  0  0  0
  131.0996  129.8582  156.9410 H   0  0  0  0  0  0  0  0  0  0  0  0
  127.5317  134.5886  158.7834 H   0  0  0  0  0  0  0  0  0  0  0  0
  125.7434  135.3538  160.2829 H   0  0  0  0  0  0  0  0  0  0  0  0
  127.8696  140.5741  162.9631 H   0  0  0  0  0  0  0  0  0  0  0  0
  125.4353  140.5444  163.4339 H   0  0  0  0  0  0  0  0  0  0  0  0
  125.7628  139.9869  165.0924 H   0  0  0  0  0  0  0  0  0  0  0  0
  125.4010  142.4392  165.0330 H   0  0  0  0  0  0  0  0  0  0  0  0
  126.7382  142.6085  163.8706 H   0  0  0  0  0  0  0  0  0  0  0  0
  126.9683  141.4762  166.6959 H   0  0  0  0  0  0  0  0  0  0  0  0
  127.4994  143.0948  166.1799 H   0  0  0  0  0  0  0  0  0  0  0  0
  129.4026  141.5058  166.2251 H   0  0  0  0  0  0  0  0  0  0  0  0
  129.0750  142.0634  164.5667 H   0  0  0  0  0  0  0  0  0  0  0  0
  128.0996  139.4419  165.7884 H   0  0  0  0  0  0  0  0  0  0  0  0
  129.4369  139.6110  164.6259 H   0  0  0  0  0  0  0  0  0  0  0  0
  1  2  1  0
  1 31  1  0
  1 32  1  0
  1 33  1  0
  2  3  1  6
  2  4  1  0
  2 25  1  0
  4  5  1  0
  4 34  1  0
  5 24  1  0
  5  6  2  0
  6  7  1  0
  6 35  1  0
  7  8  1  0
  7 22  2  0
  8 36  1  0
  9  8  1  0
  9 20  2  0
  9 10  1  0
 10 11  1  0
 10 12  1  0
 12 13  2  0
 12 37  1  0
 13 14  1  0
 13 20  1  0
 14 19  1  0
 14 15  2  0
 15 16  1  0
 15 38  1  0
 16 17  2  0
 16 39  1  0
 17 18  1  0
 17 40  1  0
 18 19  2  0
 19 41  1  0
 20 21  1  0
 22 23  1  0
 22 42  1  0
 23 24  2  0
 23 43  1  0
 25 30  1  0
 25 26  1  0
 25 44  1  0
 26 27  1  0
 26 45  1  0
 26 46  1  0
 27 28  1  0
 27 47  1  0
 27 48  1  0
 28 29  1  0
 28 49  1  0
 28 50  1  0
 29 30  1  0
 29 51  1  0
 29 52  1  0
 30 53  1  0
 30 54  1  0
M  CHG  1  20   1
M  END
>  <DOCK_score>  (1) 
-51.91357

>  <SMILES>  (1) 
C[C@H](Nc1cc(Nc2[nH]cc(-c3cccnc3)[nH+]2)ccn1)C1CCCCC1

$$$$
