C[C@@H](Cc1ccccc1Cl)NC(NC1CC=CC1)=[NH+]C1CCC(=O)NC1
     RDKit          3D

 54 56  0  0  1  0  0  0  0  0999 V2000
  131.1586  133.3929  160.1303 C   0  0  0  0  0  0  0  0  0  0  0  0
  130.1757  134.2856  159.3702 C   0  0  1  0  0  0  0  0  0  0  0  0
  130.7048  134.8185  158.5802 H   0  0  0  0  0  0  0  0  0  0  0  0
  129.0742  133.4215  158.7532 C   0  0  0  0  0  0  0  0  0  0  0  0
  129.5835  132.7896  157.4834 C   0  0  0  0  0  0  0  0  0  0  0  0
  130.2110  131.5587  157.5272 C   0  0  0  0  0  0  0  0  0  0  0  0
  130.6782  130.9790  156.3626 C   0  0  0  0  0  0  0  0  0  0  0  0
  130.5173  131.6294  155.1532 C   0  0  0  0  0  0  0  0  0  0  0  0
  129.8898  132.8597  155.1080 C   0  0  0  0  0  0  0  0  0  0  0  0
  129.4274  133.4435  156.2744 C   0  0  0  0  0  0  0  0  0  0  0  0
  128.6458  134.9926  156.2195 Cl  0  0  0  0  0  0  0  0  0  0  0  0
  129.5779  135.2517  160.2953 N   0  0  0  0  0  0  0  0  0  0  0  0
  130.3784  136.1407  160.9728 C   0  0  0  0  0  0  0  0  0  0  0  0
  131.5538  136.5760  160.4080 N   0  0  0  0  0  0  0  0  0  0  0  0
  132.4066  137.5234  161.1301 C   0  0  0  0  0  0  0  0  0  0  0  0
  131.7259  138.9070  161.2453 C   0  0  0  0  0  0  0  0  0  0  0  0
  132.8515  139.9029  161.0894 C   0  0  0  0  0  0  0  0  0  0  0  0
  133.9115  139.3381  160.5784 C   0  0  0  0  0  0  0  0  0  0  0  0
  133.6695  137.8712  160.3084 C   0  0  0  0  0  0  0  0  0  0  0  0
  130.0228  136.5709  162.1508 N   0  0  0  0  0  0  0  0  0  0  0  0
  130.5875  137.1981  162.6288 H   0  0  0  0  0  0  0  0  0  0  0  0
  128.7703  136.1071  162.7526 C   0  0  1  0  0  0  0  0  0  0  0  0
  128.9002  136.1141  164.2806 C   0  0  0  0  0  0  0  0  0  0  0  0
  127.6525  135.4565  164.8753 C   0  0  0  0  0  0  0  0  0  0  0  0
  126.4188  136.0477  164.2556 C   0  0  0  0  0  0  0  0  0  0  0  0
  125.3587  135.8884  164.8230 O   0  0  0  0  0  0  0  0  0  0  0  0
  126.4265  136.7385  163.1150 N   0  0  0  0  0  0  0  0  0  0  0  0
  127.6302  137.0435  162.3504 C   0  0  0  0  0  0  0  0  0  0  0  0
  130.6490  132.9265  160.9732 H   0  0  0  0  0  0  0  0  0  0  0  0
  131.5385  132.6198  159.4623 H   0  0  0  0  0  0  0  0  0  0  0  0
  131.9891  133.9965  160.4966 H   0  0  0  0  0  0  0  0  0  0  0  0
  128.2080  134.0434  158.5274 H   0  0  0  0  0  0  0  0  0  0  0  0
  128.7872  132.6408  159.4578 H   0  0  0  0  0  0  0  0  0  0  0  0
  130.3366  131.0500  158.4715 H   0  0  0  0  0  0  0  0  0  0  0  0
  131.1687  130.0175  156.3974 H   0  0  0  0  0  0  0  0  0  0  0  0
  130.8819  131.1757  154.2435 H   0  0  0  0  0  0  0  0  0  0  0  0
  129.7641  133.3677  154.1633 H   0  0  0  0  0  0  0  0  0  0  0  0
  128.6173  135.2641  160.4296 H   0  0  0  0  0  0  0  0  0  0  0  0
  131.8184  136.2560  159.5314 H   0  0  0  0  0  0  0  0  0  0  0  0
  132.6740  137.1351  162.1130 H   0  0  0  0  0  0  0  0  0  0  0  0
  130.9916  139.0363  160.4501 H   0  0  0  0  0  0  0  0  0  0  0  0
  131.2534  139.0177  162.2213 H   0  0  0  0  0  0  0  0  0  0  0  0
  132.7875  140.9452  161.3647 H   0  0  0  0  0  0  0  0  0  0  0  0
  134.8396  139.8516  160.3757 H   0  0  0  0  0  0  0  0  0  0  0  0
  134.5186  137.2776  160.6475 H   0  0  0  0  0  0  0  0  0  0  0  0
  133.4899  137.7033  159.2465 H   0  0  0  0  0  0  0  0  0  0  0  0
  128.5517  135.0961  162.4089 H   0  0  0  0  0  0  0  0  0  0  0  0
  129.7868  135.5532  164.5762 H   0  0  0  0  0  0  0  0  0  0  0  0
  128.9792  137.1411  164.6375 H   0  0  0  0  0  0  0  0  0  0  0  0
  127.6789  134.3849  164.6777 H   0  0  0  0  0  0  0  0  0  0  0  0
  127.6328  135.6246  165.9519 H   0  0  0  0  0  0  0  0  0  0  0  0
  125.5774  137.0563  162.7702 H   0  0  0  0  0  0  0  0  0  0  0  0
  127.9256  138.0746  162.5440 H   0  0  0  0  0  0  0  0  0  0  0  0
  127.4245  136.9245  161.2867 H   0  0  0  0  0  0  0  0  0  0  0  0
  1  2  1  0
  1 29  1  0
  1 30  1  0
  1 31  1  0
  2  3  1  6
  2  4  1  0
  2 12  1  0
  4  5  1  0
  4 32  1  0
  4 33  1  0
  5 10  1  0
  5  6  2  0
  6  7  1  0
  6 34  1  0
  7  8  2  0
  7 35  1  0
  8  9  1  0
  8 36  1  0
  9 10  2  0
  9 37  1  0
 10 11  1  0
 12 38  1  0
 13 12  1  0
 13 14  1  0
 13 20  2  0
 14 15  1  0
 14 39  1  0
 15 19  1  0
 15 16  1  0
 15 40  1  0
 16 17  1  0
 16 41  1  0
 16 42  1  0
 17 18  2  0
 17 43  1  0
 18 19  1  0
 18 44  1  0
 19 45  1  0
 19 46  1  0
 20 21  1  0
 20 22  1  0
 22 28  1  0
 22 23  1  0
 22 47  1  6
 23 24  1  0
 23 48  1  0
 23 49  1  0
 24 25  1  0
 24 50  1  0
 24 51  1  0
 25 26  2  0
 25 27  1  0
 27 28  1  0
 27 52  1  0
 28 53  1  0
 28 54  1  0
M  CHG  1  20   1
M  END
>  <DOCK_score>  (1) 
-43.971489

>  <SMILES>  (1) 
C[C@@H](Cc1ccccc1Cl)NC(NC1CC=CC1)=[NH+]C1CCC(=O)NC1

$$$$
