CCc1ccc(-c2c[nH]c(NC(C3=CCCC3)[C@H]3CC(O)C3(C)C)[nH+]2)cc1
     RDKit          3D

 59 62  0  0  1  0  0  0  0  0999 V2000
  129.6454  128.4621  151.2410 C   0  0  0  0  0  0  0  0  0  0  0  0
  130.7472  129.5187  151.3382 C   0  0  0  0  0  0  0  0  0  0  0  0
  130.7238  130.1442  152.7090 C   0  0  0  0  0  0  0  0  0  0  0  0
  131.4797  129.5961  153.7293 C   0  0  0  0  0  0  0  0  0  0  0  0
  131.4631  130.1650  154.9864 C   0  0  0  0  0  0  0  0  0  0  0  0
  130.6826  131.2944  155.2271 C   0  0  0  0  0  0  0  0  0  0  0  0
  130.6606  131.9104  156.5763 C   0  0  0  0  0  0  0  0  0  0  0  0
  130.2634  131.3059  157.7232 C   0  0  0  0  0  0  0  0  0  0  0  0
  130.4028  132.2301  158.7300 N   0  0  0  0  0  0  0  0  0  0  0  0
  130.1979  132.0930  159.6681 H   0  0  0  0  0  0  0  0  0  0  0  0
  130.8817  133.3735  158.1682 C   0  0  0  0  0  0  0  0  0  0  0  0
  131.1613  134.5485  158.8446 N   0  0  0  0  0  0  0  0  0  0  0  0
  130.3990  134.9022  160.0446 C   0  0  2  0  0  0  0  0  0  0  0  0
  128.9382  135.0226  159.6943 C   0  0  0  0  0  0  0  0  0  0  0  0
  127.9898  134.2996  160.2248 C   0  0  0  0  0  0  0  0  0  0  0  0
  126.6393  134.6702  159.6555 C   0  0  0  0  0  0  0  0  0  0  0  0
  126.9609  135.4663  158.3694 C   0  0  0  0  0  0  0  0  0  0  0  0
  128.3791  135.9964  158.6833 C   0  0  0  0  0  0  0  0  0  0  0  0
  130.9035  136.2380  160.5939 C   0  0  1  0  0  0  0  0  0  0  0  0
  130.7989  137.0556  159.8807 H   0  0  0  0  0  0  0  0  0  0  0  0
  130.3671  136.5693  161.9966 C   0  0  0  0  0  0  0  0  0  0  0  0
  131.7721  137.1032  162.3220 C   0  0  1  0  0  0  0  0  0  0  0  0
  132.2217  136.7724  163.6374 O   0  0  0  0  0  0  0  0  0  0  0  0
  132.2994  136.1533  161.2337 C   0  0  0  0  0  0  0  0  0  0  0  0
  132.6509  134.7585  161.7554 C   0  0  0  0  0  0  0  0  0  0  0  0
  133.4066  136.7631  160.3718 C   0  0  0  0  0  0  0  0  0  0  0  0
  131.0291  133.1804  156.8802 N   0  0  0  0  0  0  0  0  0  0  0  0
  131.3523  133.8393  156.2460 H   0  0  0  0  0  0  0  0  0  0  0  0
  129.9182  131.8392  154.1968 C   0  0  0  0  0  0  0  0  0  0  0  0
  129.9473  131.2655  152.9419 C   0  0  0  0  0  0  0  0  0  0  0  0
  128.6760  128.9310  151.4101 H   0  0  0  0  0  0  0  0  0  0  0  0
  129.6622  128.0098  150.2494 H   0  0  0  0  0  0  0  0  0  0  0  0
  129.8132  127.6924  151.9944 H   0  0  0  0  0  0  0  0  0  0  0  0
  130.5793  130.2891  150.5847 H   0  0  0  0  0  0  0  0  0  0  0  0
  131.7165  129.0506  151.1687 H   0  0  0  0  0  0  0  0  0  0  0  0
  132.0842  128.7209  153.5417 H   0  0  0  0  0  0  0  0  0  0  0  0
  132.0542  129.7363  155.7822 H   0  0  0  0  0  0  0  0  0  0  0  0
  129.9063  130.2919  157.8258 H   0  0  0  0  0  0  0  0  0  0  0  0
  131.8621  135.1377  158.5240 H   0  0  0  0  0  0  0  0  0  0  0  0
  130.5290  134.1265  160.7993 H   0  0  0  0  0  0  0  0  0  0  0  0
  128.1488  133.5361  160.9720 H   0  0  0  0  0  0  0  0  0  0  0  0
  126.0884  135.2933  160.3599 H   0  0  0  0  0  0  0  0  0  0  0  0
  126.0691  133.7731  159.4141 H   0  0  0  0  0  0  0  0  0  0  0  0
  126.2577  136.2876  158.2315 H   0  0  0  0  0  0  0  0  0  0  0  0
  126.9717  134.8128  157.4969 H   0  0  0  0  0  0  0  0  0  0  0  0
  128.9912  136.0007  157.7814 H   0  0  0  0  0  0  0  0  0  0  0  0
  128.3243  136.9985  159.1087 H   0  0  0  0  0  0  0  0  0  0  0  0
  129.5959  137.3396  161.9985 H   0  0  0  0  0  0  0  0  0  0  0  0
  130.0893  135.6893  162.5768 H   0  0  0  0  0  0  0  0  0  0  0  0
  131.9045  138.1582  162.0822 H   0  0  0  0  0  0  0  0  0  0  0  0
  133.1831  136.7883  163.7401 H   0  0  0  0  0  0  0  0  0  0  0  0
  132.6270  134.0457  160.9312 H   0  0  0  0  0  0  0  0  0  0  0  0
  133.6491  134.7751  162.1926 H   0  0  0  0  0  0  0  0  0  0  0  0
  131.9268  134.4613  162.5139 H   0  0  0  0  0  0  0  0  0  0  0  0
  133.1922  137.8176  160.1975 H   0  0  0  0  0  0  0  0  0  0  0  0
  134.3624  136.6671  160.8867 H   0  0  0  0  0  0  0  0  0  0  0  0
  133.4541  136.2394  159.4170 H   0  0  0  0  0  0  0  0  0  0  0  0
  129.3077  132.7113  154.3789 H   0  0  0  0  0  0  0  0  0  0  0  0
  129.3592  131.6896  152.1416 H   0  0  0  0  0  0  0  0  0  0  0  0
  1  2  1  0
  1 31  1  0
  1 32  1  0
  1 33  1  0
  2  3  1  0
  2 34  1  0
  2 35  1  0
  3 30  2  0
  3  4  1  0
  4  5  2  0
  4 36  1  0
  5  6  1  0
  5 37  1  0
  6  7  1  0
  6 29  2  0
  7 27  1  0
  7  8  2  0
  8  9  1  0
  8 38  1  0
  9 10  1  0
  9 11  1  0
 11 12  1  0
 11 27  2  0
 12 13  1  0
 12 39  1  0
 13 14  1  0
 13 19  1  0
 13 40  1  1
 14 18  1  0
 14 15  2  0
 15 16  1  0
 15 41  1  0
 16 17  1  0
 16 42  1  0
 16 43  1  0
 17 18  1  0
 17 44  1  0
 17 45  1  0
 18 46  1  0
 18 47  1  0
 19 20  1  6
 19 24  1  0
 19 21  1  0
 21 22  1  0
 21 48  1  0
 21 49  1  0
 22 23  1  0
 22 24  1  0
 22 50  1  6
 23 51  1  0
 24 25  1  0
 24 26  1  0
 25 52  1  0
 25 53  1  0
 25 54  1  0
 26 55  1  0
 26 56  1  0
 26 57  1  0
 27 28  1  0
 29 30  1  0
 29 58  1  0
 30 59  1  0
M  CHG  1  27   1
M  END
>  <DOCK_score>  (1) 
-56.727665

>  <SMILES>  (1) 
CCc1ccc(-c2c[nH]c(NC(C3=CCCC3)[C@H]3CC(O)C3(C)C)[nH+]2)cc1

$$$$
