CCc1ccc(-c2c[nH]c(NC[C@@H](Cc3ccccc3)c3ccccc3)[nH+]2)cc1
     RDKit          3D

 57 60  0  0  1  0  0  0  0  0999 V2000
  130.0167  128.6406  151.4542 C   0  0  0  0  0  0  0  0  0  0  0  0
  131.1904  129.5743  151.7564 C   0  0  0  0  0  0  0  0  0  0  0  0
  130.9324  130.3035  153.0498 C   0  0  0  0  0  0  0  0  0  0  0  0
  131.3598  129.7566  154.2458 C   0  0  0  0  0  0  0  0  0  0  0  0
  131.1313  130.4225  155.4329 C   0  0  0  0  0  0  0  0  0  0  0  0
  130.4584  131.6430  155.4258 C   0  0  0  0  0  0  0  0  0  0  0  0
  130.2050  132.3608  156.6989 C   0  0  0  0  0  0  0  0  0  0  0  0
  129.4975  131.8877  157.7547 C   0  0  0  0  0  0  0  0  0  0  0  0
  129.5110  132.8692  158.7156 N   0  0  0  0  0  0  0  0  0  0  0  0
  129.0884  132.8254  159.5876 H   0  0  0  0  0  0  0  0  0  0  0  0
  130.2271  133.9144  158.2185 C   0  0  0  0  0  0  0  0  0  0  0  0
  130.4777  135.1059  158.8772 N   0  0  0  0  0  0  0  0  0  0  0  0
  129.9537  135.3202  160.2284 C   0  0  0  0  0  0  0  0  0  0  0  0
  130.8936  136.2501  160.9984 C   0  0  1  0  0  0  0  0  0  0  0  0
  131.9276  135.9950  160.7664 H   0  0  0  0  0  0  0  0  0  0  0  0
  130.6227  137.7000  160.5914 C   0  0  0  0  0  0  0  0  0  0  0  0
  131.8163  138.5511  160.9406 C   0  0  0  0  0  0  0  0  0  0  0  0
  131.8915  139.1615  162.1786 C   0  0  0  0  0  0  0  0  0  0  0  0
  132.9888  139.9383  162.5006 C   0  0  0  0  0  0  0  0  0  0  0  0
  134.0058  140.1133  161.5807 C   0  0  0  0  0  0  0  0  0  0  0  0
  133.9279  139.5072  160.3408 C   0  0  0  0  0  0  0  0  0  0  0  0
  132.8332  138.7261  160.0207 C   0  0  0  0  0  0  0  0  0  0  0  0
  130.6566  136.0911  162.4780 C   0  0  0  0  0  0  0  0  0  0  0  0
  131.6952  136.2865  163.3692 C   0  0  0  0  0  0  0  0  0  0  0  0
  131.4768  136.1451  164.7269 C   0  0  0  0  0  0  0  0  0  0  0  0
  130.2220  135.7992  165.1927 C   0  0  0  0  0  0  0  0  0  0  0  0
  129.1848  135.5986  164.3011 C   0  0  0  0  0  0  0  0  0  0  0  0
  129.4022  135.7444  162.9437 C   0  0  0  0  0  0  0  0  0  0  0  0
  130.6450  133.6045  157.0155 N   0  0  0  0  0  0  0  0  0  0  0  0
  131.1812  134.1743  156.4422 H   0  0  0  0  0  0  0  0  0  0  0  0
  130.0249  132.1869  154.2179 C   0  0  0  0  0  0  0  0  0  0  0  0
  130.2639  131.5149  153.0364 C   0  0  0  0  0  0  0  0  0  0  0  0
  129.1007  129.2248  151.3657 H   0  0  0  0  0  0  0  0  0  0  0  0
  130.2033  128.1134  150.5187 H   0  0  0  0  0  0  0  0  0  0  0  0
  129.9101  127.9182  152.2634 H   0  0  0  0  0  0  0  0  0  0  0  0
  132.1062  128.9907  151.8445 H   0  0  0  0  0  0  0  0  0  0  0  0
  131.2968  130.2973  150.9467 H   0  0  0  0  0  0  0  0  0  0  0  0
  131.8769  128.8085  154.2506 H   0  0  0  0  0  0  0  0  0  0  0  0
  131.4696  129.9967  156.3660 H   0  0  0  0  0  0  0  0  0  0  0  0
  129.0160  130.9237  157.8264 H   0  0  0  0  0  0  0  0  0  0  0  0
  131.0005  135.7988  158.4441 H   0  0  0  0  0  0  0  0  0  0  0  0
  128.9644  135.7736  160.1667 H   0  0  0  0  0  0  0  0  0  0  0  0
  129.8835  134.3642  160.7469 H   0  0  0  0  0  0  0  0  0  0  0  0
  130.4435  137.7486  159.5174 H   0  0  0  0  0  0  0  0  0  0  0  0
  129.7456  138.0688  161.1231 H   0  0  0  0  0  0  0  0  0  0  0  0
  131.0951  139.0284  162.8956 H   0  0  0  0  0  0  0  0  0  0  0  0
  133.0494  140.4122  163.4691 H   0  0  0  0  0  0  0  0  0  0  0  0
  134.8607  140.7238  161.8306 H   0  0  0  0  0  0  0  0  0  0  0  0
  134.7223  139.6441  159.6219 H   0  0  0  0  0  0  0  0  0  0  0  0
  132.7724  138.2529  159.0518 H   0  0  0  0  0  0  0  0  0  0  0  0
  132.6763  136.5531  163.0051 H   0  0  0  0  0  0  0  0  0  0  0  0
  132.2870  136.3020  165.4234 H   0  0  0  0  0  0  0  0  0  0  0  0
  130.0520  135.6859  166.2532 H   0  0  0  0  0  0  0  0  0  0  0  0
  128.2045  135.3284  164.6650 H   0  0  0  0  0  0  0  0  0  0  0  0
  128.5918  135.5876  162.2473 H   0  0  0  0  0  0  0  0  0  0  0  0
  129.5028  133.1323  154.2066 H   0  0  0  0  0  0  0  0  0  0  0  0
  129.9289  131.9357  152.0999 H   0  0  0  0  0  0  0  0  0  0  0  0
  1  2  1  0
  1 33  1  0
  1 34  1  0
  1 35  1  0
  2  3  1  0
  2 36  1  0
  2 37  1  0
  3 32  2  0
  3  4  1  0
  4  5  2  0
  4 38  1  0
  5  6  1  0
  5 39  1  0
  6  7  1  0
  6 31  2  0
  7 29  1  0
  7  8  2  0
  8  9  1  0
  8 40  1  0
  9 10  1  0
  9 11  1  0
 11 12  1  0
 11 29  2  0
 12 13  1  0
 12 41  1  0
 13 14  1  0
 13 42  1  0
 13 43  1  0
 14 15  1  1
 14 16  1  0
 14 23  1  0
 16 17  1  0
 16 44  1  0
 16 45  1  0
 17 22  1  0
 17 18  2  0
 18 19  1  0
 18 46  1  0
 19 20  2  0
 19 47  1  0
 20 21  1  0
 20 48  1  0
 21 22  2  0
 21 49  1  0
 22 50  1  0
 23 28  1  0
 23 24  2  0
 24 25  1  0
 24 51  1  0
 25 26  2  0
 25 52  1  0
 26 27  1  0
 26 53  1  0
 27 28  2  0
 27 54  1  0
 28 55  1  0
 29 30  1  0
 31 32  1  0
 31 56  1  0
 32 57  1  0
M  CHG  1  29   1
M  END
>  <DOCK_score>  (1) 
-59.977833

>  <SMILES>  (1) 
CCc1ccc(-c2c[nH]c(NC[C@@H](Cc3ccccc3)c3ccccc3)[nH+]2)cc1

$$$$
