CCNC(NC1CCC[C@H](Nc2ccc(NC(=O)C(=O)Nc3cccc(O)c3)cc2)CC1)=[NH+]CC
     RDKit          3D

 72 74  0  0  1  0  0  0  0  0999 V2000
  132.3882  134.0747  161.1794 C   0  0  0  0  0  0  0  0  0  0  0  0
  131.9661  133.5847  159.7928 C   0  0  0  0  0  0  0  0  0  0  0  0
  130.5206  133.3462  159.7785 N   0  0  0  0  0  0  0  0  0  0  0  0
  129.9284  132.9122  158.6671 C   0  0  0  0  0  0  0  0  0  0  0  0
  128.5788  132.6895  158.6536 N   0  0  0  0  0  0  0  0  0  0  0  0
  127.6972  133.4800  159.5163 C   0  0  2  0  0  0  0  0  0  0  0  0
  126.2329  133.0487  159.2949 C   0  0  0  0  0  0  0  0  0  0  0  0
  125.3687  133.4311  160.4018 C   0  0  0  0  0  0  0  0  0  0  0  0
  125.3060  134.9596  160.5979 C   0  0  0  0  0  0  0  0  0  0  0  0
  126.5364  135.3961  161.3461 C   0  0  2  0  0  0  0  0  0  0  0  0
  126.8956  134.5633  161.9507 H   0  0  0  0  0  0  0  0  0  0  0  0
  126.1825  136.5070  162.2332 N   0  0  0  0  0  0  0  0  0  0  0  0
  127.1600  137.0945  163.0422 C   0  0  0  0  0  0  0  0  0  0  0  0
  128.2289  136.3357  163.5024 C   0  0  0  0  0  0  0  0  0  0  0  0
  129.1936  136.9154  164.3013 C   0  0  0  0  0  0  0  0  0  0  0  0
  129.0959  138.2579  164.6452 C   0  0  0  0  0  0  0  0  0  0  0  0
  130.0734  138.8453  165.4553 N   0  0  0  0  0  0  0  0  0  0  0  0
  131.3413  138.3896  165.4195 C   0  0  0  0  0  0  0  0  0  0  0  0
  131.6351  137.4694  164.6843 O   0  0  0  0  0  0  0  0  0  0  0  0
  132.3841  139.0164  166.2837 C   0  0  0  0  0  0  0  0  0  0  0  0
  132.0904  139.9366  167.0189 O   0  0  0  0  0  0  0  0  0  0  0  0
  133.6521  138.5607  166.2480 N   0  0  0  0  0  0  0  0  0  0  0  0
  134.6284  139.1475  167.0571 C   0  0  0  0  0  0  0  0  0  0  0  0
  135.6950  138.3877  167.5226 C   0  0  0  0  0  0  0  0  0  0  0  0
  136.6594  138.9678  168.3232 C   0  0  0  0  0  0  0  0  0  0  0  0
  136.5668  140.3044  168.6633 C   0  0  0  0  0  0  0  0  0  0  0  0
  135.5043  141.0680  168.2009 C   0  0  0  0  0  0  0  0  0  0  0  0
  135.4147  142.3818  168.5368 O   0  0  0  0  0  0  0  0  0  0  0  0
  134.5316  140.4887  167.4014 C   0  0  0  0  0  0  0  0  0  0  0  0
  128.0243  139.0153  164.1895 C   0  0  0  0  0  0  0  0  0  0  0  0
  127.0622  138.4369  163.3862 C   0  0  0  0  0  0  0  0  0  0  0  0
  127.6666  135.8517  160.4035 C   0  0  0  0  0  0  0  0  0  0  0  0
  127.8229  134.9395  159.1726 C   0  0  0  0  0  0  0  0  0  0  0  0
  130.6503  132.6951  157.5690 N   0  0  0  0  0  0  0  0  0  0  0  0
  131.6072  132.8530  157.5785 H   0  0  0  0  0  0  0  0  0  0  0  0
  129.9988  132.2177  156.3467 C   0  0  0  0  0  0  0  0  0  0  0  0
  131.0449  132.0513  155.2428 C   0  0  0  0  0  0  0  0  0  0  0  0
  131.8645  135.0019  161.4120 H   0  0  0  0  0  0  0  0  0  0  0  0
  132.1372  133.3191  161.9239 H   0  0  0  0  0  0  0  0  0  0  0  0
  133.4635  134.2522  161.1902 H   0  0  0  0  0  0  0  0  0  0  0  0
  132.4897  132.6575  159.5603 H   0  0  0  0  0  0  0  0  0  0  0  0
  132.2170  134.3403  159.0485 H   0  0  0  0  0  0  0  0  0  0  0  0
  129.9950  133.5041  160.5781 H   0  0  0  0  0  0  0  0  0  0  0  0
  128.2056  132.0082  158.0728 H   0  0  0  0  0  0  0  0  0  0  0  0
  127.9708  133.3246  160.5598 H   0  0  0  0  0  0  0  0  0  0  0  0
  126.1978  131.9657  159.1775 H   0  0  0  0  0  0  0  0  0  0  0  0
  125.8635  133.5146  158.3813 H   0  0  0  0  0  0  0  0  0  0  0  0
  125.7436  132.9728  161.3169 H   0  0  0  0  0  0  0  0  0  0  0  0
  124.3629  133.0587  160.2074 H   0  0  0  0  0  0  0  0  0  0  0  0
  124.4168  135.2190  161.1725 H   0  0  0  0  0  0  0  0  0  0  0  0
  125.2742  135.4526  159.6263 H   0  0  0  0  0  0  0  0  0  0  0  0
  125.2701  136.8352  162.2593 H   0  0  0  0  0  0  0  0  0  0  0  0
  128.3050  135.2922  163.2345 H   0  0  0  0  0  0  0  0  0  0  0  0
  130.0244  136.3254  164.6592 H   0  0  0  0  0  0  0  0  0  0  0  0
  129.8387  139.5807  166.0428 H   0  0  0  0  0  0  0  0  0  0  0  0
  133.8867  137.8253  165.6605 H   0  0  0  0  0  0  0  0  0  0  0  0
  135.7695  137.3432  167.2586 H   0  0  0  0  0  0  0  0  0  0  0  0
  137.4875  138.3759  168.6843 H   0  0  0  0  0  0  0  0  0  0  0  0
  137.3226  140.7550  169.2894 H   0  0  0  0  0  0  0  0  0  0  0  0
  136.1361  142.6938  169.1000 H   0  0  0  0  0  0  0  0  0  0  0  0
  133.7019  141.0807  167.0441 H   0  0  0  0  0  0  0  0  0  0  0  0
  127.9460  140.0580  164.4602 H   0  0  0  0  0  0  0  0  0  0  0  0
  126.2314  139.0269  163.0285 H   0  0  0  0  0  0  0  0  0  0  0  0
  127.4553  136.8663  160.0658 H   0  0  0  0  0  0  0  0  0  0  0  0
  128.6057  135.8562  160.9570 H   0  0  0  0  0  0  0  0  0  0  0  0
  128.8019  135.1134  158.7258 H   0  0  0  0  0  0  0  0  0  0  0  0
  127.0530  135.1982  158.4455 H   0  0  0  0  0  0  0  0  0  0  0  0
  129.5199  131.2580  156.5413 H   0  0  0  0  0  0  0  0  0  0  0  0
  129.2473  132.9408  156.0293 H   0  0  0  0  0  0  0  0  0  0  0  0
  130.5602  131.6962  154.3334 H   0  0  0  0  0  0  0  0  0  0  0  0
  131.5236  133.0110  155.0482 H   0  0  0  0  0  0  0  0  0  0  0  0
  131.7963  131.3283  155.5602 H   0  0  0  0  0  0  0  0  0  0  0  0
  1  2  1  0
  1 38  1  0
  1 39  1  0
  1 40  1  0
  2  3  1  0
  2 41  1  0
  2 42  1  0
  3  4  1  0
  3 43  1  0
  4  5  1  0
  4 34  2  0
  5  6  1  0
  5 44  1  0
  6 33  1  0
  6  7  1  0
  6 45  1  1
  7  8  1  0
  7 46  1  0
  7 47  1  0
  8  9  1  0
  8 48  1  0
  8 49  1  0
  9 10  1  0
  9 50  1  0
  9 51  1  0
 10 11  1  1
 10 12  1  0
 10 32  1  0
 12 13  1  0
 12 52  1  0
 13 31  1  0
 13 14  2  0
 14 15  1  0
 14 53  1  0
 15 16  2  0
 15 54  1  0
 16 17  1  0
 16 30  1  0
 17 18  1  0
 17 55  1  0
 18 19  2  0
 18 20  1  0
 20 21  2  0
 20 22  1  0
 22 23  1  0
 22 56  1  0
 23 29  1  0
 23 24  2  0
 24 25  1  0
 24 57  1  0
 25 26  2  0
 25 58  1  0
 26 27  1  0
 26 59  1  0
 27 28  1  0
 27 29  2  0
 28 60  1  0
 29 61  1  0
 30 31  2  0
 30 62  1  0
 31 63  1  0
 32 33  1  0
 32 64  1  0
 32 65  1  0
 33 66  1  0
 33 67  1  0
 34 35  1  0
 34 36  1  0
 36 37  1  0
 36 68  1  0
 36 69  1  0
 37 70  1  0
 37 71  1  0
 37 72  1  0
M  CHG  1  34   1
M  END
>  <DOCK_score>  (1) 
-41.023811

>  <SMILES>  (1) 
CCNC(NC1CCC[C@H](Nc2ccc(NC(=O)C(=O)Nc3cccc(O)c3)cc2)CC1)=[NH+]CC

$$$$
