O=C1C[C@@H](C[NH2+]Cc2c[nH]nc2-c2ccc(NCC3CC4CC4C3)o2)CN1
     RDKit          3D

 55 59  0  0  1  0  0  0  0  0999 V2000
  136.9747  139.4938  159.5214 O   0  0  0  0  0  0  0  0  0  0  0  0
  135.8335  139.5081  159.9317 C   0  0  0  0  0  0  0  0  0  0  0  0
  134.8427  138.3755  159.7766 C   0  0  0  0  0  0  0  0  0  0  0  0
  133.4720  139.0278  160.0710 C   0  0  1  0  0  0  0  0  0  0  0  0
  132.9948  139.3665  159.1514 H   0  0  0  0  0  0  0  0  0  0  0  0
  132.5603  138.0653  160.8352 C   0  0  0  0  0  0  0  0  0  0  0  0
  132.3435  136.8547  160.0319 N   0  0  0  0  0  0  0  0  0  0  0  0
  131.9094  137.1053  159.1562 H   0  0  0  0  0  0  0  0  0  0  0  0
  133.2297  136.4071  159.8521 H   0  0  0  0  0  0  0  0  0  0  0  0
  131.4683  135.9306  160.7656 C   0  0  0  0  0  0  0  0  0  0  0  0
  131.2457  134.6886  159.9415 C   0  0  0  0  0  0  0  0  0  0  0  0
  132.1949  133.9930  159.2796 C   0  0  0  0  0  0  0  0  0  0  0  0
  131.5966  132.9496  158.6648 N   0  0  0  0  0  0  0  0  0  0  0  0
  132.0388  132.2823  158.1169 H   0  0  0  0  0  0  0  0  0  0  0  0
  130.2271  132.9982  158.9546 N   0  0  0  0  0  0  0  0  0  0  0  0
  130.0096  134.0425  159.7297 C   0  0  0  0  0  0  0  0  0  0  0  0
  128.7030  134.4635  160.2759 C   0  0  0  0  0  0  0  0  0  0  0  0
  127.5155  133.8341  160.0737 C   0  0  0  0  0  0  0  0  0  0  0  0
  126.5391  134.5701  160.7738 C   0  0  0  0  0  0  0  0  0  0  0  0
  127.1771  135.6096  161.3672 C   0  0  0  0  0  0  0  0  0  0  0  0
  126.5799  136.5843  162.1581 N   0  0  0  0  0  0  0  0  0  0  0  0
  127.3928  137.6556  162.7392 C   0  0  0  0  0  0  0  0  0  0  0  0
  126.4980  138.5875  163.5588 C   0  0  2  0  0  0  0  0  0  0  0  0
  127.2430  139.9010  163.9033 C   0  0  0  0  0  0  0  0  0  0  0  0
  126.5246  140.4205  165.1682 C   0  0  1  0  0  0  0  0  0  0  0  0
  124.9996  140.3095  165.2277 C   0  0  0  0  0  0  0  0  0  0  0  0
  125.8628  139.2007  165.8328 C   0  0  1  0  0  0  0  0  0  0  0  0
  126.2040  137.9803  164.9531 C   0  0  0  0  0  0  0  0  0  0  0  0
  128.4848  135.5357  161.0661 O   0  0  0  0  0  0  0  0  0  0  0  0
  133.8773  140.2263  160.9574 C   0  0  0  0  0  0  0  0  0  0  0  0
  135.2652  140.5325  160.5910 N   0  0  0  0  0  0  0  0  0  0  0  0
  135.0514  137.5847  160.4970 H   0  0  0  0  0  0  0  0  0  0  0  0
  134.8678  137.9831  158.7599 H   0  0  0  0  0  0  0  0  0  0  0  0
  133.0294  137.7947  161.7811 H   0  0  0  0  0  0  0  0  0  0  0  0
  131.6030  138.5488  161.0295 H   0  0  0  0  0  0  0  0  0  0  0  0
  131.9373  135.6599  161.7114 H   0  0  0  0  0  0  0  0  0  0  0  0
  130.5109  136.4141  160.9598 H   0  0  0  0  0  0  0  0  0  0  0  0
  133.2483  134.2290  159.2477 H   0  0  0  0  0  0  0  0  0  0  0  0
  127.3516  132.9413  159.4887 H   0  0  0  0  0  0  0  0  0  0  0  0
  125.4835  134.3484  160.8282 H   0  0  0  0  0  0  0  0  0  0  0  0
  125.6248  136.5552  162.3251 H   0  0  0  0  0  0  0  0  0  0  0  0
  128.1557  137.2226  163.3862 H   0  0  0  0  0  0  0  0  0  0  0  0
  127.8723  138.2218  161.9407 H   0  0  0  0  0  0  0  0  0  0  0  0
  125.5707  138.7978  163.0257 H   0  0  0  0  0  0  0  0  0  0  0  0
  128.2924  139.6992  164.1182 H   0  0  0  0  0  0  0  0  0  0  0  0
  127.1506  140.6174  163.0870 H   0  0  0  0  0  0  0  0  0  0  0  0
  127.0272  141.1854  165.7602 H   0  0  0  0  0  0  0  0  0  0  0  0
  124.4752  140.0876  164.2982 H   0  0  0  0  0  0  0  0  0  0  0  0
  124.4741  140.9703  165.9170 H   0  0  0  0  0  0  0  0  0  0  0  0
  125.8859  139.0622  166.9137 H   0  0  0  0  0  0  0  0  0  0  0  0
  125.3553  137.2984  164.9009 H   0  0  0  0  0  0  0  0  0  0  0  0
  127.0838  137.4642  165.3376 H   0  0  0  0  0  0  0  0  0  0  0  0
  133.2351  141.0825  160.7509 H   0  0  0  0  0  0  0  0  0  0  0  0
  133.8167  139.9539  162.0111 H   0  0  0  0  0  0  0  0  0  0  0  0
  135.7144  141.3668  160.7980 H   0  0  0  0  0  0  0  0  0  0  0  0
  1  2  2  0
  2 31  1  0
  2  3  1  0
  3  4  1  0
  3 32  1  0
  3 33  1  0
  4  5  1  6
  4  6  1  0
  4 30  1  0
  6  7  1  0
  6 34  1  0
  6 35  1  0
  7  8  1  0
  7  9  1  0
  7 10  1  0
 10 11  1  0
 10 36  1  0
 10 37  1  0
 11 16  1  0
 11 12  2  0
 12 13  1  0
 12 38  1  0
 13 14  1  0
 13 15  1  0
 15 16  2  0
 16 17  1  0
 17 29  1  0
 17 18  2  0
 18 19  1  0
 18 39  1  0
 19 20  2  0
 19 40  1  0
 20 21  1  0
 20 29  1  0
 21 22  1  0
 21 41  1  0
 22 23  1  0
 22 42  1  0
 22 43  1  0
 23 28  1  0
 23 24  1  0
 23 44  1  6
 24 25  1  0
 24 45  1  0
 24 46  1  0
 25 27  1  0
 25 26  1  0
 25 47  1  1
 26 27  1  0
 26 48  1  0
 26 49  1  0
 27 28  1  0
 27 50  1  1
 28 51  1  0
 28 52  1  0
 30 31  1  0
 30 53  1  0
 30 54  1  0
 31 55  1  0
M  CHG  1   7   1
M  END
>  <DOCK_score>  (1) 
-44.47084

>  <SMILES>  (1) 
O=C1C[C@@H](C[NH2+]Cc2c[nH]nc2-c2ccc(NCC3CC4CC4C3)o2)CN1

$$$$
