O[C@@H]1COC[C@H]1Nc1c[nH]c(NC(c2ccccc2)c2ccccc2)[nH+]1
     RDKit          3D

 49 52  0  0  1  0  0  0  0  0999 V2000
  123.9104  134.6077  161.9836 O   0  0  0  0  0  0  0  0  0  0  0  0
  124.6357  134.0815  160.8705 C   0  0  2  0  0  0  0  0  0  0  0  0
  124.2659  134.5088  159.9384 H   0  0  0  0  0  0  0  0  0  0  0  0
  124.5368  132.5402  160.8360 C   0  0  0  0  0  0  0  0  0  0  0  0
  125.7217  132.0790  161.5211 O   0  0  0  0  0  0  0  0  0  0  0  0
  126.7861  132.9512  161.0755 C   0  0  0  0  0  0  0  0  0  0  0  0
  126.1476  134.3572  161.0302 C   0  0  1  0  0  0  0  0  0  0  0  0
  126.3418  134.8949  161.9582 H   0  0  0  0  0  0  0  0  0  0  0  0
  126.6551  135.1147  159.8837 N   0  0  0  0  0  0  0  0  0  0  0  0
  128.0112  135.4743  159.8245 C   0  0  0  0  0  0  0  0  0  0  0  0
  128.6030  136.1680  158.8297 C   0  0  0  0  0  0  0  0  0  0  0  0
  129.9365  136.2995  159.1730 N   0  0  0  0  0  0  0  0  0  0  0  0
  130.6233  136.7506  158.6575 H   0  0  0  0  0  0  0  0  0  0  0  0
  130.1031  135.6712  160.3669 C   0  0  0  0  0  0  0  0  0  0  0  0
  131.2946  135.5638  161.0644 N   0  0  0  0  0  0  0  0  0  0  0  0
  131.5398  134.4008  161.9207 C   0  0  0  0  0  0  0  0  0  0  0  0
  131.4904  133.1452  161.0888 C   0  0  0  0  0  0  0  0  0  0  0  0
  131.0816  131.9540  161.6589 C   0  0  0  0  0  0  0  0  0  0  0  0
  131.0321  130.8031  160.8947 C   0  0  0  0  0  0  0  0  0  0  0  0
  131.4005  130.8414  159.5629 C   0  0  0  0  0  0  0  0  0  0  0  0
  131.8138  132.0315  158.9940 C   0  0  0  0  0  0  0  0  0  0  0  0
  131.8593  133.1833  159.7571 C   0  0  0  0  0  0  0  0  0  0  0  0
  132.8981  134.5258  162.5613 C   0  0  0  0  0  0  0  0  0  0  0  0
  134.0104  133.9997  161.9314 C   0  0  0  0  0  0  0  0  0  0  0  0
  135.2571  134.1183  162.5168 C   0  0  0  0  0  0  0  0  0  0  0  0
  135.3900  134.7546  163.7367 C   0  0  0  0  0  0  0  0  0  0  0  0
  134.2771  135.2767  164.3689 C   0  0  0  0  0  0  0  0  0  0  0  0
  133.0311  135.1619  163.7814 C   0  0  0  0  0  0  0  0  0  0  0  0
  128.9449  135.1866  160.7499 N   0  0  0  0  0  0  0  0  0  0  0  0
  128.7875  134.6935  161.5703 H   0  0  0  0  0  0  0  0  0  0  0  0
  124.0059  135.5630  162.0990 H   0  0  0  0  0  0  0  0  0  0  0  0
  123.6412  132.2056  161.3597 H   0  0  0  0  0  0  0  0  0  0  0  0
  124.5308  132.1833  159.8061 H   0  0  0  0  0  0  0  0  0  0  0  0
  127.1265  132.6569  160.0828 H   0  0  0  0  0  0  0  0  0  0  0  0
  127.6154  132.9337  161.7826 H   0  0  0  0  0  0  0  0  0  0  0  0
  126.0545  135.3679  159.1653 H   0  0  0  0  0  0  0  0  0  0  0  0
  128.1272  136.5474  157.9375 H   0  0  0  0  0  0  0  0  0  0  0  0
  131.9669  136.2587  160.9860 H   0  0  0  0  0  0  0  0  0  0  0  0
  130.7755  134.3530  162.6962 H   0  0  0  0  0  0  0  0  0  0  0  0
  130.7978  131.9233  162.7005 H   0  0  0  0  0  0  0  0  0  0  0  0
  130.7088  129.8734  161.3391 H   0  0  0  0  0  0  0  0  0  0  0  0
  131.3650  129.9415  158.9668 H   0  0  0  0  0  0  0  0  0  0  0  0
  132.1016  132.0615  157.9535 H   0  0  0  0  0  0  0  0  0  0  0  0
  132.1825  134.1132  159.3128 H   0  0  0  0  0  0  0  0  0  0  0  0
  133.9060  133.4989  160.9801 H   0  0  0  0  0  0  0  0  0  0  0  0
  136.1267  133.7108  162.0227 H   0  0  0  0  0  0  0  0  0  0  0  0
  136.3635  134.8444  164.1957 H   0  0  0  0  0  0  0  0  0  0  0  0
  134.3809  135.7739  165.3220 H   0  0  0  0  0  0  0  0  0  0  0  0
  132.1614  135.5693  164.2755 H   0  0  0  0  0  0  0  0  0  0  0  0
  1  2  1  0
  1 31  1  0
  2  3  1  6
  2  7  1  0
  2  4  1  0
  4  5  1  0
  4 32  1  0
  4 33  1  0
  5  6  1  0
  6  7  1  0
  6 34  1  0
  6 35  1  0
  7  8  1  1
  7  9  1  0
  9 10  1  0
  9 36  1  0
 10 29  1  0
 10 11  2  0
 11 12  1  0
 11 37  1  0
 12 13  1  0
 12 14  1  0
 14 15  1  0
 14 29  2  0
 15 16  1  0
 15 38  1  0
 16 17  1  0
 16 23  1  0
 16 39  1  0
 17 22  1  0
 17 18  2  0
 18 19  1  0
 18 40  1  0
 19 20  2  0
 19 41  1  0
 20 21  1  0
 20 42  1  0
 21 22  2  0
 21 43  1  0
 22 44  1  0
 23 28  1  0
 23 24  2  0
 24 25  1  0
 24 45  1  0
 25 26  2  0
 25 46  1  0
 26 27  1  0
 26 47  1  0
 27 28  2  0
 27 48  1  0
 28 49  1  0
 29 30  1  0
M  CHG  1  29   1
M  END
>  <DOCK_score>  (1) 
-44.933228

>  <SMILES>  (1) 
O[C@@H]1COC[C@H]1Nc1c[nH]c(NC(c2ccccc2)c2ccccc2)[nH+]1

$$$$
