CC[C@@H]([NH3+])C(=O)Nc1cc(NC2CCc3c(C)cccc32)ccc1Sc1ccccc1
     RDKit          3D

 61 64  0  0  1  0  0  0  0  0999 V2000
  132.5162  138.1023  161.9485 C   0  0  0  0  0  0  0  0  0  0  0  0
  133.2104  136.7713  161.6528 C   0  0  0  0  0  0  0  0  0  0  0  0
  132.5584  136.1158  160.4337 C   0  0  1  0  0  0  0  0  0  0  0  0
  132.6550  136.7755  159.5713 H   0  0  0  0  0  0  0  0  0  0  0  0
  133.2250  134.8379  160.1498 N   0  0  0  0  0  0  0  0  0  0  0  0
  132.7952  134.4055  159.3459 H   0  0  0  0  0  0  0  0  0  0  0  0
  134.2023  135.0031  159.9604 H   0  0  0  0  0  0  0  0  0  0  0  0
  133.1358  134.2273  160.9481 H   0  0  0  0  0  0  0  0  0  0  0  0
  131.0990  135.8690  160.7165 C   0  0  0  0  0  0  0  0  0  0  0  0
  130.7726  135.1561  161.6421 O   0  0  0  0  0  0  0  0  0  0  0  0
  130.1563  136.4403  159.9410 N   0  0  0  0  0  0  0  0  0  0  0  0
  128.7994  136.2108  160.2039 C   0  0  0  0  0  0  0  0  0  0  0  0
  128.2581  136.5733  161.4277 C   0  0  0  0  0  0  0  0  0  0  0  0
  126.9134  136.3452  161.6853 C   0  0  0  0  0  0  0  0  0  0  0  0
  126.3664  136.7105  162.9207 N   0  0  0  0  0  0  0  0  0  0  0  0
  127.2029  136.7024  164.1233 C   0  0  2  0  0  0  0  0  0  0  0  0
  126.5689  135.8094  165.2107 C   0  0  0  0  0  0  0  0  0  0  0  0
  126.9395  136.5510  166.5127 C   0  0  0  0  0  0  0  0  0  0  0  0
  127.1093  137.9997  166.1087 C   0  0  0  0  0  0  0  0  0  0  0  0
  127.1285  139.1502  166.8798 C   0  0  0  0  0  0  0  0  0  0  0  0
  126.9609  139.0554  168.3743 C   0  0  0  0  0  0  0  0  0  0  0  0
  127.2990  140.3840  166.2831 C   0  0  0  0  0  0  0  0  0  0  0  0
  127.4524  140.4720  164.9119 C   0  0  0  0  0  0  0  0  0  0  0  0
  127.4344  139.3259  164.1415 C   0  0  0  0  0  0  0  0  0  0  0  0
  127.2627  138.0877  164.7379 C   0  0  0  0  0  0  0  0  0  0  0  0
  126.1114  135.7495  160.7202 C   0  0  0  0  0  0  0  0  0  0  0  0
  126.6469  135.3920  159.4977 C   0  0  0  0  0  0  0  0  0  0  0  0
  127.9904  135.6176  159.2348 C   0  0  0  0  0  0  0  0  0  0  0  0
  128.6740  135.1558  157.6778 S   0  0  0  0  0  0  0  0  0  0  0  0
  129.2117  133.5012  157.9562 C   0  0  0  0  0  0  0  0  0  0  0  0
  129.0303  132.9097  159.2008 C   0  0  0  0  0  0  0  0  0  0  0  0
  129.4474  131.6108  159.4133 C   0  0  0  0  0  0  0  0  0  0  0  0
  130.0558  130.9023  158.3931 C   0  0  0  0  0  0  0  0  0  0  0  0
  130.2436  131.4896  157.1551 C   0  0  0  0  0  0  0  0  0  0  0  0
  129.8235  132.7861  156.9333 C   0  0  0  0  0  0  0  0  0  0  0  0
  131.4604  137.9239  162.1529 H   0  0  0  0  0  0  0  0  0  0  0  0
  132.9806  138.5691  162.8170 H   0  0  0  0  0  0  0  0  0  0  0  0
  132.6128  138.7619  161.0862 H   0  0  0  0  0  0  0  0  0  0  0  0
  133.1137  136.1116  162.5151 H   0  0  0  0  0  0  0  0  0  0  0  0
  134.2661  136.9496  161.4484 H   0  0  0  0  0  0  0  0  0  0  0  0
  130.4172  137.0102  159.2007 H   0  0  0  0  0  0  0  0  0  0  0  0
  128.8824  137.0324  162.1800 H   0  0  0  0  0  0  0  0  0  0  0  0
  125.4334  136.9691  162.9806 H   0  0  0  0  0  0  0  0  0  0  0  0
  128.2070  136.3520  163.8842 H   0  0  0  0  0  0  0  0  0  0  0  0
  127.0059  134.8110  165.1956 H   0  0  0  0  0  0  0  0  0  0  0  0
  125.4869  135.7588  165.0882 H   0  0  0  0  0  0  0  0  0  0  0  0
  126.1376  136.4539  167.2446 H   0  0  0  0  0  0  0  0  0  0  0  0
  127.8725  136.1595  166.9184 H   0  0  0  0  0  0  0  0  0  0  0  0
  127.9385  138.9430  168.8432 H   0  0  0  0  0  0  0  0  0  0  0  0
  126.4826  139.9623  168.7445 H   0  0  0  0  0  0  0  0  0  0  0  0
  126.3405  138.1926  168.6165 H   0  0  0  0  0  0  0  0  0  0  0  0
  127.3125  141.2792  166.8872 H   0  0  0  0  0  0  0  0  0  0  0  0
  127.5857  141.4359  164.4436 H   0  0  0  0  0  0  0  0  0  0  0  0
  127.5543  139.3954  163.0704 H   0  0  0  0  0  0  0  0  0  0  0  0
  125.0663  135.5693  160.9243 H   0  0  0  0  0  0  0  0  0  0  0  0
  126.0202  134.9328  158.7477 H   0  0  0  0  0  0  0  0  0  0  0  0
  128.5596  133.4639  159.9993 H   0  0  0  0  0  0  0  0  0  0  0  0
  129.3023  131.1488  160.3788 H   0  0  0  0  0  0  0  0  0  0  0  0
  130.3855  129.8880  158.5637 H   0  0  0  0  0  0  0  0  0  0  0  0
  130.7191  130.9334  156.3607 H   0  0  0  0  0  0  0  0  0  0  0  0
  129.9705  133.2441  155.9663 H   0  0  0  0  0  0  0  0  0  0  0  0
  1  2  1  0
  1 36  1  0
  1 37  1  0
  1 38  1  0
  2  3  1  0
  2 39  1  0
  2 40  1  0
  3  4  1  6
  3  5  1  0
  3  9  1  0
  5  6  1  0
  5  7  1  0
  5  8  1  0
  9 10  2  0
  9 11  1  0
 11 12  1  0
 11 41  1  0
 12 28  2  0
 12 13  1  0
 13 14  2  0
 13 42  1  0
 14 15  1  0
 14 26  1  0
 15 16  1  0
 15 43  1  0
 16 25  1  0
 16 17  1  0
 16 44  1  6
 17 18  1  0
 17 45  1  0
 17 46  1  0
 18 19  1  0
 18 47  1  0
 18 48  1  0
 19 25  2  0
 19 20  1  0
 20 21  1  0
 20 22  2  0
 21 49  1  0
 21 50  1  0
 21 51  1  0
 22 23  1  0
 22 52  1  0
 23 24  2  0
 23 53  1  0
 24 25  1  0
 24 54  1  0
 26 27  2  0
 26 55  1  0
 27 28  1  0
 27 56  1  0
 28 29  1  0
 29 30  1  0
 30 35  1  0
 30 31  2  0
 31 32  1  0
 31 57  1  0
 32 33  2  0
 32 58  1  0
 33 34  1  0
 33 59  1  0
 34 35  2  0
 34 60  1  0
 35 61  1  0
M  CHG  1   5   1
M  END
>  <DOCK_score>  (1) 
-43.269657

>  <SMILES>  (1) 
CC[C@@H]([NH3+])C(=O)Nc1cc(NC2CCc3c(C)cccc32)ccc1Sc1ccccc1

$$$$
