CCc1ccc(-c2c[nH]c(N[C@H](c3c[nH]c4ccccc34)C(C)C)[nH+]2)cc1
     RDKit          3D

 54 57  0  0  1  0  0  0  0  0999 V2000
  129.7131  128.9013  150.8946 C   0  0  0  0  0  0  0  0  0  0  0  0
  130.8030  129.9503  151.1232 C   0  0  0  0  0  0  0  0  0  0  0  0
  130.7584  130.4172  152.5554 C   0  0  0  0  0  0  0  0  0  0  0  0
  131.5084  129.7644  153.5164 C   0  0  0  0  0  0  0  0  0  0  0  0
  131.4753  130.1906  154.8286 C   0  0  0  0  0  0  0  0  0  0  0  0
  130.6757  131.2747  155.1865 C   0  0  0  0  0  0  0  0  0  0  0  0
  130.6320  131.7342  156.5961 C   0  0  0  0  0  0  0  0  0  0  0  0
  130.2442  130.9950  157.6648 C   0  0  0  0  0  0  0  0  0  0  0  0
  130.3568  131.8027  158.7702 N   0  0  0  0  0  0  0  0  0  0  0  0
  130.1506  131.5560  159.6854 H   0  0  0  0  0  0  0  0  0  0  0  0
  130.8105  133.0131  158.3444 C   0  0  0  0  0  0  0  0  0  0  0  0
  131.0581  134.1107  159.1508 N   0  0  0  0  0  0  0  0  0  0  0  0
  130.2812  134.3088  160.3769 C   0  0  2  0  0  0  0  0  0  0  0  0
  130.4261  133.4564  161.0406 H   0  0  0  0  0  0  0  0  0  0  0  0
  128.8197  134.4335  160.0310 C   0  0  0  0  0  0  0  0  0  0  0  0
  127.7827  134.0721  160.8030 C   0  0  0  0  0  0  0  0  0  0  0  0
  126.6059  134.3351  160.1563 N   0  0  0  0  0  0  0  0  0  0  0  0
  125.7218  134.1599  160.5150 H   0  0  0  0  0  0  0  0  0  0  0  0
  126.8636  134.8861  158.9211 C   0  0  0  0  0  0  0  0  0  0  0  0
  126.0516  135.3300  157.8823 C   0  0  0  0  0  0  0  0  0  0  0  0
  126.6231  135.8463  156.7401 C   0  0  0  0  0  0  0  0  0  0  0  0
  128.0031  135.9289  156.6140 C   0  0  0  0  0  0  0  0  0  0  0  0
  128.8192  135.4988  157.6218 C   0  0  0  0  0  0  0  0  0  0  0  0
  128.2612  134.9777  158.7910 C   0  0  0  0  0  0  0  0  0  0  0  0
  130.7501  135.5859  161.0771 C   0  0  0  0  0  0  0  0  0  0  0  0
  129.9388  135.7928  162.3577 C   0  0  0  0  0  0  0  0  0  0  0  0
  132.2339  135.4595  161.4282 C   0  0  0  0  0  0  0  0  0  0  0  0
  130.9786  132.9666  157.0453 N   0  0  0  0  0  0  0  0  0  0  0  0
  131.2980  133.6973  156.4931 H   0  0  0  0  0  0  0  0  0  0  0  0
  129.9180  131.9257  154.2147 C   0  0  0  0  0  0  0  0  0  0  0  0
  129.9629  131.4942  152.9046 C   0  0  0  0  0  0  0  0  0  0  0  0
  129.8806  128.0532  151.5586 H   0  0  0  0  0  0  0  0  0  0  0  0
  128.7372  129.3393  151.1039 H   0  0  0  0  0  0  0  0  0  0  0  0
  129.7454  128.5636  149.8587 H   0  0  0  0  0  0  0  0  0  0  0  0
  131.7787  129.5128  150.9138 H   0  0  0  0  0  0  0  0  0  0  0  0
  130.6352  130.7989  150.4591 H   0  0  0  0  0  0  0  0  0  0  0  0
  132.1243  128.9217  153.2388 H   0  0  0  0  0  0  0  0  0  0  0  0
  132.0650  129.6827  155.5775 H   0  0  0  0  0  0  0  0  0  0  0  0
  129.9104  129.9680  157.6497 H   0  0  0  0  0  0  0  0  0  0  0  0
  131.7459  134.7486  158.9040 H   0  0  0  0  0  0  0  0  0  0  0  0
  127.8651  133.6380  161.7885 H   0  0  0  0  0  0  0  0  0  0  0  0
  124.9770  135.2695  157.9707 H   0  0  0  0  0  0  0  0  0  0  0  0
  125.9911  136.1901  155.9347 H   0  0  0  0  0  0  0  0  0  0  0  0
  128.4352  136.3360  155.7117 H   0  0  0  0  0  0  0  0  0  0  0  0
  129.8919  135.5666  157.5168 H   0  0  0  0  0  0  0  0  0  0  0  0
  130.6051  136.4382  160.4133 H   0  0  0  0  0  0  0  0  0  0  0  0
  130.0838  134.9404  163.0214 H   0  0  0  0  0  0  0  0  0  0  0  0
  130.2728  136.7026  162.8564 H   0  0  0  0  0  0  0  0  0  0  0  0
  128.8818  135.8828  162.1074 H   0  0  0  0  0  0  0  0  0  0  0  0
  132.8119  135.3121  160.5160 H   0  0  0  0  0  0  0  0  0  0  0  0
  132.5679  136.3693  161.9270 H   0  0  0  0  0  0  0  0  0  0  0  0
  132.3788  134.6072  162.0919 H   0  0  0  0  0  0  0  0  0  0  0  0
  129.2964  132.7661  154.4864 H   0  0  0  0  0  0  0  0  0  0  0  0
  129.3757  131.9976  152.1508 H   0  0  0  0  0  0  0  0  0  0  0  0
  1  2  1  0
  1 32  1  0
  1 33  1  0
  1 34  1  0
  2  3  1  0
  2 35  1  0
  2 36  1  0
  3 31  2  0
  3  4  1  0
  4  5  2  0
  4 37  1  0
  5  6  1  0
  5 38  1  0
  6  7  1  0
  6 30  2  0
  7 28  1  0
  7  8  2  0
  8  9  1  0
  8 39  1  0
  9 10  1  0
  9 11  1  0
 11 12  1  0
 11 28  2  0
 12 13  1  0
 12 40  1  0
 13 14  1  1
 13 15  1  0
 13 25  1  0
 15 24  1  0
 15 16  2  0
 16 17  1  0
 16 41  1  0
 17 18  1  0
 17 19  1  0
 19 24  2  0
 19 20  1  0
 20 21  2  0
 20 42  1  0
 21 22  1  0
 21 43  1  0
 22 23  2  0
 22 44  1  0
 23 24  1  0
 23 45  1  0
 25 26  1  0
 25 27  1  0
 25 46  1  0
 26 47  1  0
 26 48  1  0
 26 49  1  0
 27 50  1  0
 27 51  1  0
 27 52  1  0
 28 29  1  0
 30 31  1  0
 30 53  1  0
 31 54  1  0
M  CHG  1  28   1
M  END
>  <DOCK_score>  (1) 
-58.425343

>  <SMILES>  (1) 
CCc1ccc(-c2c[nH]c(N[C@H](c3c[nH]c4ccccc34)C(C)C)[nH+]2)cc1

$$$$
