CCc1ccc(-c2c[nH]c(N[C@H](Cc3ccccc3)c3ccc[nH]3)[nH+]2)cc1
     RDKit          3D

 52 55  0  0  1  0  0  0  0  0999 V2000
  129.6358  129.1338  151.1026 C   0  0  0  0  0  0  0  0  0  0  0  0
  130.8636  129.9393  151.5320 C   0  0  0  0  0  0  0  0  0  0  0  0
  130.5936  130.5969  152.8608 C   0  0  0  0  0  0  0  0  0  0  0  0
  130.9057  129.9338  154.0334 C   0  0  0  0  0  0  0  0  0  0  0  0
  130.6660  130.5332  155.2532 C   0  0  0  0  0  0  0  0  0  0  0  0
  130.0976  131.8049  155.3020 C   0  0  0  0  0  0  0  0  0  0  0  0
  129.8324  132.4521  156.6100 C   0  0  0  0  0  0  0  0  0  0  0  0
  129.0295  131.9700  157.5908 C   0  0  0  0  0  0  0  0  0  0  0  0
  129.0694  132.8780  158.6209 N   0  0  0  0  0  0  0  0  0  0  0  0
  128.5955  132.8109  159.4646 H   0  0  0  0  0  0  0  0  0  0  0  0
  129.8964  133.8892  158.2392 C   0  0  0  0  0  0  0  0  0  0  0  0
  130.2067  135.0062  158.9958 N   0  0  0  0  0  0  0  0  0  0  0  0
  129.6263  135.1710  160.3308 C   0  0  2  0  0  0  0  0  0  0  0  0
  129.9835  136.1028  160.7697 H   0  0  0  0  0  0  0  0  0  0  0  0
  130.0446  133.9964  161.2173 C   0  0  0  0  0  0  0  0  0  0  0  0
  131.4447  134.2246  161.7262 C   0  0  0  0  0  0  0  0  0  0  0  0
  132.5270  133.7579  161.0040 C   0  0  0  0  0  0  0  0  0  0  0  0
  133.8116  133.9715  161.4683 C   0  0  0  0  0  0  0  0  0  0  0  0
  134.0131  134.6426  162.6598 C   0  0  0  0  0  0  0  0  0  0  0  0
  132.9305  135.1046  163.3846 C   0  0  0  0  0  0  0  0  0  0  0  0
  131.6463  134.8957  162.9178 C   0  0  0  0  0  0  0  0  0  0  0  0
  128.1236  135.2097  160.2240 C   0  0  0  0  0  0  0  0  0  0  0  0
  127.4036  136.1097  159.5239 C   0  0  0  0  0  0  0  0  0  0  0  0
  126.0434  135.7828  159.6904 C   0  0  0  0  0  0  0  0  0  0  0  0
  125.9836  134.7006  160.4926 C   0  0  0  0  0  0  0  0  0  0  0  0
  127.2572  134.3442  160.8233 N   0  0  0  0  0  0  0  0  0  0  0  0
  127.5059  133.5984  161.3916 H   0  0  0  0  0  0  0  0  0  0  0  0
  130.3549  133.6283  157.0394 N   0  0  0  0  0  0  0  0  0  0  0  0
  130.9680  134.1880  156.5376 H   0  0  0  0  0  0  0  0  0  0  0  0
  129.7798  132.4664  154.1171 C   0  0  0  0  0  0  0  0  0  0  0  0
  130.0293  131.8596  152.9028 C   0  0  0  0  0  0  0  0  0  0  0  0
  129.8310  128.6583  150.1415 H   0  0  0  0  0  0  0  0  0  0  0  0
  129.4242  128.3690  151.8500 H   0  0  0  0  0  0  0  0  0  0  0  0
  128.7777  129.7996  151.0111 H   0  0  0  0  0  0  0  0  0  0  0  0
  131.7215  129.2742  151.6231 H   0  0  0  0  0  0  0  0  0  0  0  0
  131.0750  130.7047  150.7842 H   0  0  0  0  0  0  0  0  0  0  0  0
  131.3417  128.9465  153.9945 H   0  0  0  0  0  0  0  0  0  0  0  0
  130.9144  130.0163  156.1683 H   0  0  0  0  0  0  0  0  0  0  0  0
  128.4662  131.0489  157.5665 H   0  0  0  0  0  0  0  0  0  0  0  0
  130.8087  135.6797  158.6420 H   0  0  0  0  0  0  0  0  0  0  0  0
  129.3598  133.9166  162.0616 H   0  0  0  0  0  0  0  0  0  0  0  0
  130.0148  133.0743  160.6368 H   0  0  0  0  0  0  0  0  0  0  0  0
  132.3695  133.2297  160.0752 H   0  0  0  0  0  0  0  0  0  0  0  0
  134.6573  133.6101  160.9023 H   0  0  0  0  0  0  0  0  0  0  0  0
  135.0165  134.8055  163.0249 H   0  0  0  0  0  0  0  0  0  0  0  0
  133.0880  135.6286  164.3157 H   0  0  0  0  0  0  0  0  0  0  0  0
  130.8004  135.2564  163.4842 H   0  0  0  0  0  0  0  0  0  0  0  0
  127.7976  136.9291  158.9408 H   0  0  0  0  0  0  0  0  0  0  0  0
  125.2028  136.3056  159.2583 H   0  0  0  0  0  0  0  0  0  0  0  0
  125.0820  134.2018  160.8167 H   0  0  0  0  0  0  0  0  0  0  0  0
  129.3390  133.4519  154.1490 H   0  0  0  0  0  0  0  0  0  0  0  0
  129.7831  132.3712  151.9840 H   0  0  0  0  0  0  0  0  0  0  0  0
  1  2  1  0
  1 32  1  0
  1 33  1  0
  1 34  1  0
  2  3  1  0
  2 35  1  0
  2 36  1  0
  3 31  2  0
  3  4  1  0
  4  5  2  0
  4 37  1  0
  5  6  1  0
  5 38  1  0
  6  7  1  0
  6 30  2  0
  7 28  1  0
  7  8  2  0
  8  9  1  0
  8 39  1  0
  9 10  1  0
  9 11  1  0
 11 12  1  0
 11 28  2  0
 12 13  1  0
 12 40  1  0
 13 14  1  1
 13 15  1  0
 13 22  1  0
 15 16  1  0
 15 41  1  0
 15 42  1  0
 16 21  1  0
 16 17  2  0
 17 18  1  0
 17 43  1  0
 18 19  2  0
 18 44  1  0
 19 20  1  0
 19 45  1  0
 20 21  2  0
 20 46  1  0
 21 47  1  0
 22 26  1  0
 22 23  2  0
 23 24  1  0
 23 48  1  0
 24 25  2  0
 24 49  1  0
 25 26  1  0
 25 50  1  0
 26 27  1  0
 28 29  1  0
 30 31  1  0
 30 51  1  0
 31 52  1  0
M  CHG  1  28   1
M  END
>  <DOCK_score>  (1) 
-59.494648

>  <SMILES>  (1) 
CCc1ccc(-c2c[nH]c(N[C@H](Cc3ccccc3)c3ccc[nH]3)[nH+]2)cc1

$$$$
