Nc1ccc(-c2c[nH]c(N[C@@H](C=Cc3ccccc3)c3ccccc3)[nH+]2)cc1
     RDKit          3D

 51 54  0  0  1  0  0  0  0  0999 V2000
  131.3148  129.4037  152.0946 N   0  0  0  0  0  0  0  0  0  0  0  0
  131.0552  130.0827  153.2875 C   0  0  0  0  0  0  0  0  0  0  0  0
  130.1398  131.1282  153.3059 C   0  0  0  0  0  0  0  0  0  0  0  0
  129.8816  131.7994  154.4824 C   0  0  0  0  0  0  0  0  0  0  0  0
  130.5396  131.4285  155.6541 C   0  0  0  0  0  0  0  0  0  0  0  0
  130.2639  132.1493  156.9210 C   0  0  0  0  0  0  0  0  0  0  0  0
  129.7765  131.6007  158.0613 C   0  0  0  0  0  0  0  0  0  0  0  0
  129.6753  132.6174  158.9812 N   0  0  0  0  0  0  0  0  0  0  0  0
  129.3568  132.5369  159.8939 H   0  0  0  0  0  0  0  0  0  0  0  0
  130.1043  133.7575  158.3747 C   0  0  0  0  0  0  0  0  0  0  0  0
  130.1616  135.0102  158.9611 N   0  0  0  0  0  0  0  0  0  0  0  0
  129.7377  135.1881  160.3520 C   0  0  1  0  0  0  0  0  0  0  0  0
  130.0795  134.3413  160.9471 H   0  0  0  0  0  0  0  0  0  0  0  0
  130.3327  136.4596  160.8998 C   0  0  0  0  0  0  0  0  0  0  0  0
  131.4994  136.8952  160.4452 C   0  0  0  0  0  0  0  0  0  0  0  0
  132.0829  138.1422  160.9825 C   0  0  0  0  0  0  0  0  0  0  0  0
  131.6607  138.6387  162.2164 C   0  0  0  0  0  0  0  0  0  0  0  0
  132.2132  139.8006  162.7147 C   0  0  0  0  0  0  0  0  0  0  0  0
  133.1761  140.4789  161.9891 C   0  0  0  0  0  0  0  0  0  0  0  0
  133.5953  139.9949  160.7627 C   0  0  0  0  0  0  0  0  0  0  0  0
  133.0544  138.8314  160.2555 C   0  0  0  0  0  0  0  0  0  0  0  0
  128.2341  135.2703  160.4124 C   0  0  0  0  0  0  0  0  0  0  0  0
  127.5618  134.8224  161.5339 C   0  0  0  0  0  0  0  0  0  0  0  0
  126.1829  134.9020  161.5910 C   0  0  0  0  0  0  0  0  0  0  0  0
  125.4758  135.4212  160.5228 C   0  0  0  0  0  0  0  0  0  0  0  0
  126.1478  135.8643  159.3990 C   0  0  0  0  0  0  0  0  0  0  0  0
  127.5269  135.7887  159.3436 C   0  0  0  0  0  0  0  0  0  0  0  0
  130.4550  133.4737  157.1439 N   0  0  0  0  0  0  0  0  0  0  0  0
  130.7966  134.1094  156.4958 H   0  0  0  0  0  0  0  0  0  0  0  0
  131.4613  130.3828  155.6322 C   0  0  0  0  0  0  0  0  0  0  0  0
  131.7124  129.7110  154.4545 C   0  0  0  0  0  0  0  0  0  0  0  0
  130.8563  129.6624  151.2798 H   0  0  0  0  0  0  0  0  0  0  0  0
  131.9536  128.6738  152.0809 H   0  0  0  0  0  0  0  0  0  0  0  0
  129.6306  131.4154  152.3979 H   0  0  0  0  0  0  0  0  0  0  0  0
  129.1699  132.6115  154.4963 H   0  0  0  0  0  0  0  0  0  0  0  0
  129.5212  130.5631  158.2182 H   0  0  0  0  0  0  0  0  0  0  0  0
  130.4824  135.7703  158.4508 H   0  0  0  0  0  0  0  0  0  0  0  0
  129.8088  137.0160  161.6629 H   0  0  0  0  0  0  0  0  0  0  0  0
  132.0232  136.3387  159.6821 H   0  0  0  0  0  0  0  0  0  0  0  0
  130.9058  138.1125  162.7818 H   0  0  0  0  0  0  0  0  0  0  0  0
  131.8899  140.1839  163.6711 H   0  0  0  0  0  0  0  0  0  0  0  0
  133.6024  141.3903  162.3815 H   0  0  0  0  0  0  0  0  0  0  0  0
  134.3472  140.5292  160.2009 H   0  0  0  0  0  0  0  0  0  0  0  0
  133.3819  138.4549  159.2977 H   0  0  0  0  0  0  0  0  0  0  0  0
  128.1141  134.4134  162.3671 H   0  0  0  0  0  0  0  0  0  0  0  0
  125.6579  134.5560  162.4692 H   0  0  0  0  0  0  0  0  0  0  0  0
  124.3984  135.4809  160.5662 H   0  0  0  0  0  0  0  0  0  0  0  0
  125.5953  136.2700  158.5643 H   0  0  0  0  0  0  0  0  0  0  0  0
  128.0520  136.1350  158.4656 H   0  0  0  0  0  0  0  0  0  0  0  0
  131.9755  130.0967  156.5378 H   0  0  0  0  0  0  0  0  0  0  0  0
  132.4236  128.8984  154.4380 H   0  0  0  0  0  0  0  0  0  0  0  0
  1  2  1  0
  1 32  1  0
  1 33  1  0
  2 31  2  0
  2  3  1  0
  3  4  2  0
  3 34  1  0
  4  5  1  0
  4 35  1  0
  5  6  1  0
  5 30  2  0
  6 28  1  0
  6  7  2  0
  7  8  1  0
  7 36  1  0
  8  9  1  0
  8 10  1  0
 10 11  1  0
 10 28  2  0
 11 12  1  0
 11 37  1  0
 12 13  1  1
 12 14  1  0
 12 22  1  0
 14 15  2  0
 14 38  1  0
 15 16  1  0
 15 39  1  0
 16 21  1  0
 16 17  2  0
 17 18  1  0
 17 40  1  0
 18 19  2  0
 18 41  1  0
 19 20  1  0
 19 42  1  0
 20 21  2  0
 20 43  1  0
 21 44  1  0
 22 27  1  0
 22 23  2  0
 23 24  1  0
 23 45  1  0
 24 25  2  0
 24 46  1  0
 25 26  1  0
 25 47  1  0
 26 27  2  0
 26 48  1  0
 27 49  1  0
 28 29  1  0
 30 31  1  0
 30 50  1  0
 31 51  1  0
M  CHG  1  28   1
M  END
>  <DOCK_score>  (1) 
-59.978848

>  <SMILES>  (1) 
Nc1ccc(-c2c[nH]c(N[C@@H](C=Cc3ccccc3)c3ccccc3)[nH+]2)cc1

$$$$
