Oc1cc(F)c(Nc2ncc(C[NH2+]C[C@H]3CC3(F)F)[nH]2)cc1-c1ccccc1Br
     RDKit          3D

 48 51  0  0  1  0  0  0  0  0999 V2000
  126.1443  137.0034  162.9749 O   0  0  0  0  0  0  0  0  0  0  0  0
  127.0245  136.6432  162.0037 C   0  0  0  0  0  0  0  0  0  0  0  0
  126.5619  136.1089  160.8118 C   0  0  0  0  0  0  0  0  0  0  0  0
  127.4556  135.7468  159.8206 C   0  0  0  0  0  0  0  0  0  0  0  0
  126.9997  135.2262  158.6602 F   0  0  0  0  0  0  0  0  0  0  0  0
  128.8233  135.9174  160.0147 C   0  0  0  0  0  0  0  0  0  0  0  0
  129.7247  135.5492  159.0068 N   0  0  0  0  0  0  0  0  0  0  0  0
  129.7740  134.2362  158.5674 C   0  0  0  0  0  0  0  0  0  0  0  0
  129.0328  133.2493  159.0130 N   0  0  0  0  0  0  0  0  0  0  0  0
  129.3534  132.1216  158.3570 C   0  0  0  0  0  0  0  0  0  0  0  0
  130.3246  132.4084  157.4733 C   0  0  0  0  0  0  0  0  0  0  0  0
  130.9874  131.4433  156.5243 C   0  0  0  0  0  0  0  0  0  0  0  0
  130.2454  131.4155  155.2568 N   0  0  0  0  0  0  0  0  0  0  0  0
  129.2963  131.1197  155.4289 H   0  0  0  0  0  0  0  0  0  0  0  0
  130.2413  132.3385  154.8492 H   0  0  0  0  0  0  0  0  0  0  0  0
  130.8915  130.4748  154.3318 C   0  0  0  0  0  0  0  0  0  0  0  0
  130.1188  130.4458  153.0116 C   0  0  1  0  0  0  0  0  0  0  0  0
  129.0758  130.1375  153.0839 H   0  0  0  0  0  0  0  0  0  0  0  0
  130.4726  131.5021  151.9626 C   0  0  0  0  0  0  0  0  0  0  0  0
  130.8882  130.0448  151.7513 C   0  0  0  0  0  0  0  0  0  0  0  0
  132.2444  129.7326  151.8945 F   0  0  0  0  0  0  0  0  0  0  0  0
  130.1990  129.3109  150.7800 F   0  0  0  0  0  0  0  0  0  0  0  0
  130.5952  133.7522  157.5963 N   0  0  0  0  0  0  0  0  0  0  0  0
  131.2485  134.2581  157.0883 H   0  0  0  0  0  0  0  0  0  0  0  0
  129.2945  136.4512  161.2030 C   0  0  0  0  0  0  0  0  0  0  0  0
  128.3968  136.8167  162.2039 C   0  0  0  0  0  0  0  0  0  0  0  0
  128.8960  137.3886  163.4780 C   0  0  0  0  0  0  0  0  0  0  0  0
  129.0653  138.7660  163.6077 C   0  0  0  0  0  0  0  0  0  0  0  0
  129.5246  139.2932  164.7974 C   0  0  0  0  0  0  0  0  0  0  0  0
  129.8285  138.4566  165.8568 C   0  0  0  0  0  0  0  0  0  0  0  0
  129.6677  137.0887  165.7328 C   0  0  0  0  0  0  0  0  0  0  0  0
  129.2032  136.5500  164.5488 C   0  0  0  0  0  0  0  0  0  0  0  0
  128.9837  134.6793  164.3807 Br  0  0  0  0  0  0  0  0  0  0  0  0
  125.2184  136.8455  162.7448 H   0  0  0  0  0  0  0  0  0  0  0  0
  125.5015  135.9748  160.6569 H   0  0  0  0  0  0  0  0  0  0  0  0
  130.3140  136.2135  158.6167 H   0  0  0  0  0  0  0  0  0  0  0  0
  128.9070  131.1506  158.5130 H   0  0  0  0  0  0  0  0  0  0  0  0
  132.0127  131.7630  156.3383 H   0  0  0  0  0  0  0  0  0  0  0  0
  130.9919  130.4462  156.9646 H   0  0  0  0  0  0  0  0  0  0  0  0
  131.9168  130.7945  154.1457 H   0  0  0  0  0  0  0  0  0  0  0  0
  130.8961  129.4777  154.7720 H   0  0  0  0  0  0  0  0  0  0  0  0
  129.6622  131.8889  151.3447 H   0  0  0  0  0  0  0  0  0  0  0  0
  131.2559  132.2175  152.2131 H   0  0  0  0  0  0  0  0  0  0  0  0
  130.3557  136.5832  161.3537 H   0  0  0  0  0  0  0  0  0  0  0  0
  128.8332  139.4199  162.7802 H   0  0  0  0  0  0  0  0  0  0  0  0
  129.6519  140.3608  164.9003 H   0  0  0  0  0  0  0  0  0  0  0  0
  130.1923  138.8736  166.7842 H   0  0  0  0  0  0  0  0  0  0  0  0
  129.9060  136.4406  166.5631 H   0  0  0  0  0  0  0  0  0  0  0  0
  1  2  1  0
  1 34  1  0
  2 26  2  0
  2  3  1  0
  3  4  2  0
  3 35  1  0
  4  5  1  0
  4  6  1  0
  6  7  1  0
  6 25  2  0
  7  8  1  0
  7 36  1  0
  8 23  1  0
  8  9  2  0
  9 10  1  0
 10 11  2  0
 10 37  1  0
 11 12  1  0
 11 23  1  0
 12 13  1  0
 12 38  1  0
 12 39  1  0
 13 14  1  0
 13 15  1  0
 13 16  1  0
 16 17  1  0
 16 40  1  0
 16 41  1  0
 17 18  1  1
 17 20  1  0
 17 19  1  0
 19 20  1  0
 19 42  1  0
 19 43  1  0
 20 21  1  0
 20 22  1  0
 23 24  1  0
 25 26  1  0
 25 44  1  0
 26 27  1  0
 27 32  1  0
 27 28  2  0
 28 29  1  0
 28 45  1  0
 29 30  2  0
 29 46  1  0
 30 31  1  0
 30 47  1  0
 31 32  2  0
 31 48  1  0
 32 33  1  0
M  CHG  1  13   1
M  END
>  <DOCK_score>  (1) 
-43.307266

>  <SMILES>  (1) 
Oc1cc(F)c(Nc2ncc(C[NH2+]C[C@H]3CC3(F)F)[nH]2)cc1-c1ccccc1Br

$$$$
