Nc1ccc(-c2c[nH]c(Nc3ccc(N)c(-c4ccc(C(F)(F)F)cc4)c3)[nH+]2)cc1
     RDKit          3D

 49 52  0  0  1  0  0  0  0  0999 V2000
  131.3402  129.1349  151.4427 N   0  0  0  0  0  0  0  0  0  0  0  0
  131.0698  129.8579  152.6071 C   0  0  0  0  0  0  0  0  0  0  0  0
  130.1805  130.9260  152.5691 C   0  0  0  0  0  0  0  0  0  0  0  0
  129.9120  131.6417  153.7168 C   0  0  0  0  0  0  0  0  0  0  0  0
  130.5327  131.2935  154.9153 C   0  0  0  0  0  0  0  0  0  0  0  0
  130.2459  132.0622  156.1514 C   0  0  0  0  0  0  0  0  0  0  0  0
  129.7138  131.5644  157.2952 C   0  0  0  0  0  0  0  0  0  0  0  0
  129.6192  132.6121  158.1798 N   0  0  0  0  0  0  0  0  0  0  0  0
  129.2759  132.5698  159.0860 H   0  0  0  0  0  0  0  0  0  0  0  0
  130.0968  133.7198  157.5493 C   0  0  0  0  0  0  0  0  0  0  0  0
  130.1750  134.9893  158.0973 N   0  0  0  0  0  0  0  0  0  0  0  0
  129.2466  135.3927  159.0653 C   0  0  0  0  0  0  0  0  0  0  0  0
  127.8906  135.4128  158.7599 C   0  0  0  0  0  0  0  0  0  0  0  0
  126.9700  135.8149  159.7075 C   0  0  0  0  0  0  0  0  0  0  0  0
  127.3936  136.1904  160.9743 C   0  0  0  0  0  0  0  0  0  0  0  0
  126.4605  136.5911  161.9342 N   0  0  0  0  0  0  0  0  0  0  0  0
  128.7568  136.1667  161.2890 C   0  0  0  0  0  0  0  0  0  0  0  0
  129.2156  136.5664  162.6414 C   0  0  0  0  0  0  0  0  0  0  0  0
  129.5436  137.8953  162.9044 C   0  0  0  0  0  0  0  0  0  0  0  0
  129.9650  138.2626  164.1662 C   0  0  0  0  0  0  0  0  0  0  0  0
  130.0730  137.3127  165.1658 C   0  0  0  0  0  0  0  0  0  0  0  0
  130.5398  137.7188  166.5400 C   0  0  0  0  0  0  0  0  0  0  0  0
  130.8000  139.0933  166.5568 F   0  0  0  0  0  0  0  0  0  0  0  0
  129.5450  137.4210  167.4774 F   0  0  0  0  0  0  0  0  0  0  0  0
  131.7079  137.0193  166.8615 F   0  0  0  0  0  0  0  0  0  0  0  0
  129.7540  135.9914  164.9091 C   0  0  0  0  0  0  0  0  0  0  0  0
  129.3261  135.6137  163.6527 C   0  0  0  0  0  0  0  0  0  0  0  0
  129.6811  135.7658  160.3276 C   0  0  0  0  0  0  0  0  0  0  0  0
  130.4654  133.3878  156.3357 N   0  0  0  0  0  0  0  0  0  0  0  0
  130.8374  133.9933  155.6756 H   0  0  0  0  0  0  0  0  0  0  0  0
  131.4279  130.2253  154.9496 C   0  0  0  0  0  0  0  0  0  0  0  0
  131.6897  129.5096  153.8005 C   0  0  0  0  0  0  0  0  0  0  0  0
  130.9075  129.3776  150.6091 H   0  0  0  0  0  0  0  0  0  0  0  0
  131.9606  128.3897  151.4680 H   0  0  0  0  0  0  0  0  0  0  0  0
  129.6997  131.1955  151.6403 H   0  0  0  0  0  0  0  0  0  0  0  0
  129.2209  132.4711  153.6872 H   0  0  0  0  0  0  0  0  0  0  0  0
  129.4211  130.5408  157.4764 H   0  0  0  0  0  0  0  0  0  0  0  0
  130.8728  135.5991  157.8107 H   0  0  0  0  0  0  0  0  0  0  0  0
  127.5561  135.1167  157.7767 H   0  0  0  0  0  0  0  0  0  0  0  0
  125.9182  135.8327  159.4634 H   0  0  0  0  0  0  0  0  0  0  0  0
  125.5156  136.6069  161.7151 H   0  0  0  0  0  0  0  0  0  0  0  0
  126.7575  136.8534  162.8195 H   0  0  0  0  0  0  0  0  0  0  0  0
  129.4641  138.6370  162.1233 H   0  0  0  0  0  0  0  0  0  0  0  0
  130.2154  139.2928  164.3723 H   0  0  0  0  0  0  0  0  0  0  0  0
  129.8402  135.2538  165.6934 H   0  0  0  0  0  0  0  0  0  0  0  0
  129.0775  134.5818  163.4532 H   0  0  0  0  0  0  0  0  0  0  0  0
  130.7343  135.7453  160.5651 H   0  0  0  0  0  0  0  0  0  0  0  0
  131.9134  129.9567  155.8762 H   0  0  0  0  0  0  0  0  0  0  0  0
  132.3804  128.6796  153.8274 H   0  0  0  0  0  0  0  0  0  0  0  0
  1  2  1  0
  1 33  1  0
  1 34  1  0
  2 32  2  0
  2  3  1  0
  3  4  2  0
  3 35  1  0
  4  5  1  0
  4 36  1  0
  5  6  1  0
  5 31  2  0
  6 29  1  0
  6  7  2  0
  7  8  1  0
  7 37  1  0
  8  9  1  0
  8 10  1  0
 10 11  1  0
 10 29  2  0
 11 12  1  0
 11 38  1  0
 12 28  1  0
 12 13  2  0
 13 14  1  0
 13 39  1  0
 14 15  2  0
 14 40  1  0
 15 16  1  0
 15 17  1  0
 16 41  1  0
 16 42  1  0
 17 18  1  0
 17 28  2  0
 18 27  1  0
 18 19  2  0
 19 20  1  0
 19 43  1  0
 20 21  2  0
 20 44  1  0
 21 22  1  0
 21 26  1  0
 22 23  1  0
 22 24  1  0
 22 25  1  0
 26 27  2  0
 26 45  1  0
 27 46  1  0
 28 47  1  0
 29 30  1  0
 31 32  1  0
 31 48  1  0
 32 49  1  0
M  CHG  1  29   1
M  END
>  <DOCK_score>  (1) 
-54.624592

>  <SMILES>  (1) 
Nc1ccc(-c2c[nH]c(Nc3ccc(N)c(-c4ccc(C(F)(F)F)cc4)c3)[nH+]2)cc1

$$$$
