CCNc1ccc(Nc2cc(Cl)c(Nc3[nH]c4ccccc4[nH+]3)cc2Cl)cc1
     RDKit          3D

 48 51  0  0  0  0  0  0  0  0999 V2000
  130.6637  138.0023  169.1613 C   0  0  0  0  0  0  0  0  0  0  0  0
  129.7887  137.0957  168.2935 C   0  0  0  0  0  0  0  0  0  0  0  0
  128.5862  137.8246  167.8841 N   0  0  0  0  0  0  0  0  0  0  0  0
  127.9664  137.5248  166.6653 C   0  0  0  0  0  0  0  0  0  0  0  0
  127.1100  138.4462  166.0767 C   0  0  0  0  0  0  0  0  0  0  0  0
  126.4988  138.1508  164.8743 C   0  0  0  0  0  0  0  0  0  0  0  0
  126.7408  136.9321  164.2534 C   0  0  0  0  0  0  0  0  0  0  0  0
  126.1214  136.6324  163.0344 N   0  0  0  0  0  0  0  0  0  0  0  0
  126.8988  136.3672  161.9007 C   0  0  0  0  0  0  0  0  0  0  0  0
  128.1424  136.9682  161.7554 C   0  0  0  0  0  0  0  0  0  0  0  0
  128.9116  136.7024  160.6390 C   0  0  0  0  0  0  0  0  0  0  0  0
  130.4686  137.4489  160.4600 Cl  0  0  0  0  0  0  0  0  0  0  0  0
  128.4364  135.8421  159.6563 C   0  0  0  0  0  0  0  0  0  0  0  0
  129.2147  135.5765  158.5215 N   0  0  0  0  0  0  0  0  0  0  0  0
  129.6082  134.2878  158.2433 C   0  0  0  0  0  0  0  0  0  0  0  0
  129.3115  133.2230  158.9853 N   0  0  0  0  0  0  0  0  0  0  0  0
  128.7879  133.2287  159.8019 H   0  0  0  0  0  0  0  0  0  0  0  0
  129.8687  132.1172  158.3991 C   0  0  0  0  0  0  0  0  0  0  0  0
  129.8869  130.7630  158.7203 C   0  0  0  0  0  0  0  0  0  0  0  0
  130.5596  129.8756  157.9085 C   0  0  0  0  0  0  0  0  0  0  0  0
  131.2192  130.3220  156.7728 C   0  0  0  0  0  0  0  0  0  0  0  0
  131.2116  131.6594  156.4405 C   0  0  0  0  0  0  0  0  0  0  0  0
  130.5370  132.5694  157.2494 C   0  0  0  0  0  0  0  0  0  0  0  0
  130.3459  133.9249  157.1961 N   0  0  0  0  0  0  0  0  0  0  0  0
  130.6903  134.5195  156.5115 H   0  0  0  0  0  0  0  0  0  0  0  0
  127.1911  135.2455  159.7990 C   0  0  0  0  0  0  0  0  0  0  0  0
  126.4238  135.5069  160.9180 C   0  0  0  0  0  0  0  0  0  0  0  0
  124.8663  134.7612  161.0961 Cl  0  0  0  0  0  0  0  0  0  0  0  0
  127.5929  136.0085  164.8450 C   0  0  0  0  0  0  0  0  0  0  0  0
  128.2083  136.3065  166.0446 C   0  0  0  0  0  0  0  0  0  0  0  0
  131.5590  137.4602  169.4657 H   0  0  0  0  0  0  0  0  0  0  0  0
  130.9505  138.8855  168.5903 H   0  0  0  0  0  0  0  0  0  0  0  0
  130.1052  138.3074  170.0464 H   0  0  0  0  0  0  0  0  0  0  0  0
  129.5020  136.2126  168.8645 H   0  0  0  0  0  0  0  0  0  0  0  0
  130.3471  136.7907  167.4085 H   0  0  0  0  0  0  0  0  0  0  0  0
  128.2177  138.5145  168.4585 H   0  0  0  0  0  0  0  0  0  0  0  0
  126.9216  139.3937  166.5597 H   0  0  0  0  0  0  0  0  0  0  0  0
  125.8326  138.8671  164.4168 H   0  0  0  0  0  0  0  0  0  0  0  0
  125.1534  136.6126  162.9742 H   0  0  0  0  0  0  0  0  0  0  0  0
  128.5099  137.6398  162.5170 H   0  0  0  0  0  0  0  0  0  0  0  0
  129.4760  136.3013  157.9321 H   0  0  0  0  0  0  0  0  0  0  0  0
  129.3750  130.4087  159.6028 H   0  0  0  0  0  0  0  0  0  0  0  0
  130.5730  128.8249  158.1582 H   0  0  0  0  0  0  0  0  0  0  0  0
  131.7429  129.6166  156.1447 H   0  0  0  0  0  0  0  0  0  0  0  0
  131.7272  132.0004  155.5550 H   0  0  0  0  0  0  0  0  0  0  0  0
  126.8222  134.5767  159.0355 H   0  0  0  0  0  0  0  0  0  0  0  0
  127.7774  135.0590  164.3647 H   0  0  0  0  0  0  0  0  0  0  0  0
  128.8745  135.5902  166.5023 H   0  0  0  0  0  0  0  0  0  0  0  0
  1  2  1  0
  1 31  1  0
  1 32  1  0
  1 33  1  0
  2  3  1  0
  2 34  1  0
  2 35  1  0
  3  4  1  0
  3 36  1  0
  4 30  2  0
  4  5  1  0
  5  6  2  0
  5 37  1  0
  6  7  1  0
  6 38  1  0
  7  8  1  0
  7 29  2  0
  8  9  1  0
  8 39  1  0
  9 27  1  0
  9 10  2  0
 10 11  1  0
 10 40  1  0
 11 12  1  0
 11 13  2  0
 13 14  1  0
 13 26  1  0
 14 15  1  0
 14 41  1  0
 15 24  1  0
 15 16  2  0
 16 17  1  0
 16 18  1  0
 18 23  2  0
 18 19  1  0
 19 20  2  0
 19 42  1  0
 20 21  1  0
 20 43  1  0
 21 22  2  0
 21 44  1  0
 22 23  1  0
 22 45  1  0
 23 24  1  0
 24 25  1  0
 26 27  2  0
 26 46  1  0
 27 28  1  0
 29 30  1  0
 29 47  1  0
 30 48  1  0
M  CHG  1  16   1
M  END
>  <DOCK_score>  (1) 
-46.978283

>  <SMILES>  (1) 
CCNc1ccc(Nc2cc(Cl)c(Nc3[nH]c4ccccc4[nH+]3)cc2Cl)cc1

$$$$
