CCc1ccc(C[C@H](Nc2[nH]cc(-c3ccc(CC)cc3)[nH+]2)c2ccnn2C)cc1
     RDKit          3D

 60 63  0  0  1  0  0  0  0  0999 V2000
  133.5979  137.4239  165.1955 C   0  0  0  0  0  0  0  0  0  0  0  0
  133.2051  136.0692  164.6029 C   0  0  0  0  0  0  0  0  0  0  0  0
  132.2414  136.2796  163.4636 C   0  0  0  0  0  0  0  0  0  0  0  0
  132.7180  136.4440  162.1766 C   0  0  0  0  0  0  0  0  0  0  0  0
  131.8342  136.6375  161.1315 C   0  0  0  0  0  0  0  0  0  0  0  0
  130.4734  136.6664  161.3736 C   0  0  0  0  0  0  0  0  0  0  0  0
  129.5098  136.8778  160.2344 C   0  0  0  0  0  0  0  0  0  0  0  0
  129.1111  135.5230  159.6458 C   0  0  2  0  0  0  0  0  0  0  0  0
  128.9710  134.8034  160.4523 H   0  0  0  0  0  0  0  0  0  0  0  0
  130.1678  135.0506  158.7479 N   0  0  0  0  0  0  0  0  0  0  0  0
  130.0300  133.8382  158.0941 C   0  0  0  0  0  0  0  0  0  0  0  0
  129.3476  132.7579  158.5629 N   0  0  0  0  0  0  0  0  0  0  0  0
  128.8746  132.6995  159.4078 H   0  0  0  0  0  0  0  0  0  0  0  0
  129.4519  131.7659  157.6185 C   0  0  0  0  0  0  0  0  0  0  0  0
  130.1943  132.2677  156.6007 C   0  0  0  0  0  0  0  0  0  0  0  0
  130.5686  131.5510  155.3571 C   0  0  0  0  0  0  0  0  0  0  0  0
  130.1739  132.0495  154.1168 C   0  0  0  0  0  0  0  0  0  0  0  0
  130.5254  131.3788  152.9630 C   0  0  0  0  0  0  0  0  0  0  0  0
  131.2676  130.2131  153.0363 C   0  0  0  0  0  0  0  0  0  0  0  0
  131.6478  129.4850  151.7728 C   0  0  0  0  0  0  0  0  0  0  0  0
  130.5560  128.4735  151.4189 C   0  0  0  0  0  0  0  0  0  0  0  0
  131.6570  129.7113  154.2645 C   0  0  0  0  0  0  0  0  0  0  0  0
  131.3166  130.3770  155.4245 C   0  0  0  0  0  0  0  0  0  0  0  0
  130.5390  133.5395  156.9238 N   0  0  0  0  0  0  0  0  0  0  0  0
  131.0745  134.1338  156.3751 H   0  0  0  0  0  0  0  0  0  0  0  0
  127.8248  135.6695  158.8744 C   0  0  0  0  0  0  0  0  0  0  0  0
  127.7126  135.9732  157.5604 C   0  0  0  0  0  0  0  0  0  0  0  0
  126.3511  136.0111  157.2422 C   0  0  0  0  0  0  0  0  0  0  0  0
  125.6704  135.7400  158.3261 N   0  0  0  0  0  0  0  0  0  0  0  0
  126.5786  135.5156  159.3688 N   0  0  0  0  0  0  0  0  0  0  0  0
  126.2359  135.1769  160.7522 C   0  0  0  0  0  0  0  0  0  0  0  0
  129.9970  136.5072  162.6615 C   0  0  0  0  0  0  0  0  0  0  0  0
  130.8807  136.3085  163.7057 C   0  0  0  0  0  0  0  0  0  0  0  0
  134.0724  138.0331  164.4261 H   0  0  0  0  0  0  0  0  0  0  0  0
  132.7063  137.9321  165.5628 H   0  0  0  0  0  0  0  0  0  0  0  0
  134.2950  137.2718  166.0196 H   0  0  0  0  0  0  0  0  0  0  0  0
  132.7307  135.4599  165.3722 H   0  0  0  0  0  0  0  0  0  0  0  0
  134.0966  135.5610  164.2356 H   0  0  0  0  0  0  0  0  0  0  0  0
  133.7811  136.4216  161.9875 H   0  0  0  0  0  0  0  0  0  0  0  0
  132.2065  136.7663  160.1260 H   0  0  0  0  0  0  0  0  0  0  0  0
  129.9861  137.4830  159.4631 H   0  0  0  0  0  0  0  0  0  0  0  0
  128.6205  137.3904  160.6011 H   0  0  0  0  0  0  0  0  0  0  0  0
  130.9642  135.5874  158.6114 H   0  0  0  0  0  0  0  0  0  0  0  0
  129.0244  130.7757  157.6757 H   0  0  0  0  0  0  0  0  0  0  0  0
  129.5940  132.9588  154.0587 H   0  0  0  0  0  0  0  0  0  0  0  0
  130.2201  131.7641  152.0014 H   0  0  0  0  0  0  0  0  0  0  0  0
  132.5921  128.9631  151.9245 H   0  0  0  0  0  0  0  0  0  0  0  0
  131.7559  130.2024  150.9586 H   0  0  0  0  0  0  0  0  0  0  0  0
  130.4477  127.7567  152.2328 H   0  0  0  0  0  0  0  0  0  0  0  0
  129.6117  128.9960  151.2669 H   0  0  0  0  0  0  0  0  0  0  0  0
  130.8311  127.9469  150.5051 H   0  0  0  0  0  0  0  0  0  0  0  0
  132.2323  128.7987  154.3158 H   0  0  0  0  0  0  0  0  0  0  0  0
  131.6253  129.9865  156.3830 H   0  0  0  0  0  0  0  0  0  0  0  0
  128.5299  136.1544  156.8782 H   0  0  0  0  0  0  0  0  0  0  0  0
  125.9338  136.2274  156.2698 H   0  0  0  0  0  0  0  0  0  0  0  0
  126.1218  136.0924  161.3329 H   0  0  0  0  0  0  0  0  0  0  0  0
  125.3007  134.6174  160.7685 H   0  0  0  0  0  0  0  0  0  0  0  0
  127.0306  134.5690  161.1850 H   0  0  0  0  0  0  0  0  0  0  0  0
  128.9341  136.5342  162.8512 H   0  0  0  0  0  0  0  0  0  0  0  0
  130.5082  136.1805  164.7113 H   0  0  0  0  0  0  0  0  0  0  0  0
  1  2  1  0
  1 34  1  0
  1 35  1  0
  1 36  1  0
  2  3  1  0
  2 37  1  0
  2 38  1  0
  3 33  2  0
  3  4  1  0
  4  5  2  0
  4 39  1  0
  5  6  1  0
  5 40  1  0
  6  7  1  0
  6 32  2  0
  7  8  1  0
  7 41  1  0
  7 42  1  0
  8  9  1  1
  8 10  1  0
  8 26  1  0
 10 43  1  0
 11 10  1  0
 11 24  2  0
 11 12  1  0
 12 13  1  0
 12 14  1  0
 14 15  2  0
 14 44  1  0
 15 16  1  0
 15 24  1  0
 16 23  1  0
 16 17  2  0
 17 18  1  0
 17 45  1  0
 18 19  2  0
 18 46  1  0
 19 20  1  0
 19 22  1  0
 20 21  1  0
 20 47  1  0
 20 48  1  0
 21 49  1  0
 21 50  1  0
 21 51  1  0
 22 23  2  0
 22 52  1  0
 23 53  1  0
 24 25  1  0
 26 30  1  0
 26 27  2  0
 27 28  1  0
 27 54  1  0
 28 29  2  0
 28 55  1  0
 29 30  1  0
 30 31  1  0
 31 56  1  0
 31 57  1  0
 31 58  1  0
 32 33  1  0
 32 59  1  0
 33 60  1  0
M  CHG  1  24   1
M  END
>  <DOCK_score>  (1) 
-59.232063

>  <SMILES>  (1) 
CCc1ccc(C[C@H](Nc2[nH]cc(-c3ccc(CC)cc3)[nH+]2)c2ccnn2C)cc1

$$$$
