[NH3+][C@@H](C(=O)Nc1cccc(O)c1)c1cccc(Oc2cccc(NCC3=CCCC3)c2)c1
     RDKit          3D

 60 63  0  0  1  0  0  0  0  0999 V2000
  130.7843  134.0590  157.4719 N   0  0  0  0  0  0  0  0  0  0  0  0
  130.1693  134.2555  156.6966 H   0  0  0  0  0  0  0  0  0  0  0  0
  131.6845  134.4828  157.3030 H   0  0  0  0  0  0  0  0  0  0  0  0
  130.8954  133.0608  157.5686 H   0  0  0  0  0  0  0  0  0  0  0  0
  130.2080  134.6094  158.7059 C   0  0  1  0  0  0  0  0  0  0  0  0
  130.0881  135.6878  158.6015 H   0  0  0  0  0  0  0  0  0  0  0  0
  128.8637  133.9767  158.9582 C   0  0  0  0  0  0  0  0  0  0  0  0
  128.4286  133.1486  158.1861 O   0  0  0  0  0  0  0  0  0  0  0  0
  128.1449  134.3307  160.0419 N   0  0  0  0  0  0  0  0  0  0  0  0
  126.8968  133.7432  160.2762 C   0  0  0  0  0  0  0  0  0  0  0  0
  126.6445  132.4487  159.8395 C   0  0  0  0  0  0  0  0  0  0  0  0
  125.4144  131.8666  160.0759 C   0  0  0  0  0  0  0  0  0  0  0  0
  124.4280  132.5738  160.7368 C   0  0  0  0  0  0  0  0  0  0  0  0
  124.6724  133.8693  161.1702 C   0  0  0  0  0  0  0  0  0  0  0  0
  123.7013  134.5636  161.8195 O   0  0  0  0  0  0  0  0  0  0  0  0
  125.9077  134.4548  160.9398 C   0  0  0  0  0  0  0  0  0  0  0  0
  131.1266  134.3159  159.8639 C   0  0  0  0  0  0  0  0  0  0  0  0
  130.9741  133.1476  160.5878 C   0  0  0  0  0  0  0  0  0  0  0  0
  131.8149  132.8755  161.6512 C   0  0  0  0  0  0  0  0  0  0  0  0
  132.8140  133.7680  161.9890 C   0  0  0  0  0  0  0  0  0  0  0  0
  132.9661  134.9430  161.2674 C   0  0  0  0  0  0  0  0  0  0  0  0
  133.9451  135.8245  161.6007 O   0  0  0  0  0  0  0  0  0  0  0  0
  133.6241  137.1438  161.6553 C   0  0  0  0  0  0  0  0  0  0  0  0
  134.4647  138.0876  161.0808 C   0  0  0  0  0  0  0  0  0  0  0  0
  134.1398  139.4294  161.1359 C   0  0  0  0  0  0  0  0  0  0  0  0
  132.9750  139.8360  161.7577 C   0  0  0  0  0  0  0  0  0  0  0  0
  132.1327  138.8966  162.3394 C   0  0  0  0  0  0  0  0  0  0  0  0
  130.9580  139.3082  162.9731 N   0  0  0  0  0  0  0  0  0  0  0  0
  130.6133  140.7310  163.0247 C   0  0  0  0  0  0  0  0  0  0  0  0
  129.3082  140.9054  163.7578 C   0  0  0  0  0  0  0  0  0  0  0  0
  128.2321  141.4409  163.2419 C   0  0  0  0  0  0  0  0  0  0  0  0
  127.1005  141.4630  164.2429 C   0  0  0  0  0  0  0  0  0  0  0  0
  127.5306  140.4665  165.3444 C   0  0  0  0  0  0  0  0  0  0  0  0
  129.0689  140.4840  165.1889 C   0  0  0  0  0  0  0  0  0  0  0  0
  132.4574  137.5479  162.2849 C   0  0  0  0  0  0  0  0  0  0  0  0
  132.1205  135.2139  160.2010 C   0  0  0  0  0  0  0  0  0  0  0  0
  128.4928  134.9929  160.6594 H   0  0  0  0  0  0  0  0  0  0  0  0
  127.4123  131.8955  159.3188 H   0  0  0  0  0  0  0  0  0  0  0  0
  125.2215  130.8587  159.7393 H   0  0  0  0  0  0  0  0  0  0  0  0
  123.4656  132.1176  160.9165 H   0  0  0  0  0  0  0  0  0  0  0  0
  123.9648  135.4563  162.0822 H   0  0  0  0  0  0  0  0  0  0  0  0
  126.0999  135.4627  161.2767 H   0  0  0  0  0  0  0  0  0  0  0  0
  130.1965  132.4466  160.3226 H   0  0  0  0  0  0  0  0  0  0  0  0
  131.6936  131.9624  162.2149 H   0  0  0  0  0  0  0  0  0  0  0  0
  133.4737  133.5527  162.8167 H   0  0  0  0  0  0  0  0  0  0  0  0
  135.3735  137.7725  160.5899 H   0  0  0  0  0  0  0  0  0  0  0  0
  134.7957  140.1614  160.6882 H   0  0  0  0  0  0  0  0  0  0  0  0
  132.7211  140.8851  161.7951 H   0  0  0  0  0  0  0  0  0  0  0  0
  130.3703  138.6516  163.3789 H   0  0  0  0  0  0  0  0  0  0  0  0
  130.5148  141.1181  162.0105 H   0  0  0  0  0  0  0  0  0  0  0  0
  131.3993  141.2765  163.5471 H   0  0  0  0  0  0  0  0  0  0  0  0
  128.1620  141.8175  162.2322 H   0  0  0  0  0  0  0  0  0  0  0  0
  126.1728  141.1342  163.7746 H   0  0  0  0  0  0  0  0  0  0  0  0
  126.9824  142.4628  164.6606 H   0  0  0  0  0  0  0  0  0  0  0  0
  127.1290  139.4719  165.1506 H   0  0  0  0  0  0  0  0  0  0  0  0
  127.2329  140.8215  166.3311 H   0  0  0  0  0  0  0  0  0  0  0  0
  129.5118  141.2049  165.8762 H   0  0  0  0  0  0  0  0  0  0  0  0
  129.4798  139.4900  165.3659 H   0  0  0  0  0  0  0  0  0  0  0  0
  131.8024  136.8153  162.7327 H   0  0  0  0  0  0  0  0  0  0  0  0
  132.2397  136.1258  159.6347 H   0  0  0  0  0  0  0  0  0  0  0  0
  1  2  1  0
  1  3  1  0
  1  4  1  0
  1  5  1  0
  5  6  1  6
  5  7  1  0
  5 17  1  0
  7  8  2  0
  7  9  1  0
  9 10  1  0
  9 37  1  0
 10 16  1  0
 10 11  2  0
 11 12  1  0
 11 38  1  0
 12 13  2  0
 12 39  1  0
 13 14  1  0
 13 40  1  0
 14 15  1  0
 14 16  2  0
 15 41  1  0
 16 42  1  0
 17 36  1  0
 17 18  2  0
 18 19  1  0
 18 43  1  0
 19 20  2  0
 19 44  1  0
 20 21  1  0
 20 45  1  0
 21 22  1  0
 21 36  2  0
 22 23  1  0
 23 35  1  0
 23 24  2  0
 24 25  1  0
 24 46  1  0
 25 26  2  0
 25 47  1  0
 26 27  1  0
 26 48  1  0
 27 28  1  0
 27 35  2  0
 28 29  1  0
 28 49  1  0
 29 30  1  0
 29 50  1  0
 29 51  1  0
 30 34  1  0
 30 31  2  0
 31 32  1  0
 31 52  1  0
 32 33  1  0
 32 53  1  0
 32 54  1  0
 33 34  1  0
 33 55  1  0
 33 56  1  0
 34 57  1  0
 34 58  1  0
 35 59  1  0
 36 60  1  0
M  CHG  1   1   1
M  END
>  <DOCK_score>  (1) 
-46.597168

>  <SMILES>  (1) 
[NH3+][C@@H](C(=O)Nc1cccc(O)c1)c1cccc(Oc2cccc(NCC3=CCCC3)c2)c1

$$$$
