CCc1ccc(NC(=O)Nc2cccc([C@H](Nc3[nH]cc(-c4ccc(CC)cc4)[nH+]3)C(F)F)c2)cc1
     RDKit          3D

 66 69  0  0  1  0  0  0  0  0999 V2000
  138.7613  134.9519  165.4926 C   0  0  0  0  0  0  0  0  0  0  0  0
  138.8692  136.4756  165.5606 C   0  0  0  0  0  0  0  0  0  0  0  0
  137.5080  137.0869  165.3502 C   0  0  0  0  0  0  0  0  0  0  0  0
  136.6846  137.3277  166.4348 C   0  0  0  0  0  0  0  0  0  0  0  0
  135.4361  137.8868  166.2452 C   0  0  0  0  0  0  0  0  0  0  0  0
  135.0078  138.2070  164.9635 C   0  0  0  0  0  0  0  0  0  0  0  0
  133.7433  138.7738  164.7680 N   0  0  0  0  0  0  0  0  0  0  0  0
  133.0726  138.5457  163.6214 C   0  0  0  0  0  0  0  0  0  0  0  0
  133.5662  137.8475  162.7570 O   0  0  0  0  0  0  0  0  0  0  0  0
  131.8548  139.0916  163.4331 N   0  0  0  0  0  0  0  0  0  0  0  0
  131.1584  138.8547  162.2426 C   0  0  0  0  0  0  0  0  0  0  0  0
  130.7956  139.9175  161.4253 C   0  0  0  0  0  0  0  0  0  0  0  0
  130.1085  139.6805  160.2512 C   0  0  0  0  0  0  0  0  0  0  0  0
  129.7815  138.3864  159.8888 C   0  0  0  0  0  0  0  0  0  0  0  0
  130.1411  137.3264  160.7002 C   0  0  0  0  0  0  0  0  0  0  0  0
  129.7824  135.9180  160.3017 C   0  0  2  0  0  0  0  0  0  0  0  0
  130.1454  135.2225  161.0584 H   0  0  0  0  0  0  0  0  0  0  0  0
  130.4012  135.6028  159.0117 N   0  0  0  0  0  0  0  0  0  0  0  0
  130.2117  134.3566  158.4392 C   0  0  0  0  0  0  0  0  0  0  0  0
  129.4715  133.3450  158.9692 N   0  0  0  0  0  0  0  0  0  0  0  0
  128.9863  133.3670  159.8089 H   0  0  0  0  0  0  0  0  0  0  0  0
  129.5390  132.2868  158.0960 C   0  0  0  0  0  0  0  0  0  0  0  0
  130.3176  132.6817  157.0583 C   0  0  0  0  0  0  0  0  0  0  0  0
  130.6711  131.8648  155.8719 C   0  0  0  0  0  0  0  0  0  0  0  0
  130.3112  132.2932  154.5953 C   0  0  0  0  0  0  0  0  0  0  0  0
  130.6474  131.5317  153.4944 C   0  0  0  0  0  0  0  0  0  0  0  0
  131.3307  130.3402  153.6570 C   0  0  0  0  0  0  0  0  0  0  0  0
  131.6899  129.5101  152.4517 C   0  0  0  0  0  0  0  0  0  0  0  0
  130.5572  128.5249  152.1549 C   0  0  0  0  0  0  0  0  0  0  0  0
  131.6856  129.9072  154.9222 C   0  0  0  0  0  0  0  0  0  0  0  0
  131.3592  130.6631  156.0297 C   0  0  0  0  0  0  0  0  0  0  0  0
  130.7111  133.9585  157.2947 N   0  0  0  0  0  0  0  0  0  0  0  0
  131.2737  134.4909  156.7108 H   0  0  0  0  0  0  0  0  0  0  0  0
  128.2621  135.7934  160.1821 C   0  0  0  0  0  0  0  0  0  0  0  0
  127.8965  134.4458  160.2673 F   0  0  0  0  0  0  0  0  0  0  0  0
  127.8472  136.3123  158.9508 F   0  0  0  0  0  0  0  0  0  0  0  0
  130.8241  137.5572  161.8786 C   0  0  0  0  0  0  0  0  0  0  0  0
  135.8346  137.9583  163.8758 C   0  0  0  0  0  0  0  0  0  0  0  0
  137.0844  137.4045  164.0727 C   0  0  0  0  0  0  0  0  0  0  0  0
  139.7461  134.5104  165.6449 H   0  0  0  0  0  0  0  0  0  0  0  0
  138.0817  134.6008  166.2691 H   0  0  0  0  0  0  0  0  0  0  0  0
  138.3787  134.6583  164.5149 H   0  0  0  0  0  0  0  0  0  0  0  0
  139.5492  136.8277  164.7842 H   0  0  0  0  0  0  0  0  0  0  0  0
  139.2522  136.7702  166.5384 H   0  0  0  0  0  0  0  0  0  0  0  0
  137.0183  137.0784  167.4312 H   0  0  0  0  0  0  0  0  0  0  0  0
  134.7935  138.0746  167.0927 H   0  0  0  0  0  0  0  0  0  0  0  0
  133.3495  139.3308  165.4577 H   0  0  0  0  0  0  0  0  0  0  0  0
  131.4611  139.6485  164.1228 H   0  0  0  0  0  0  0  0  0  0  0  0
  131.0504  140.9283  161.7079 H   0  0  0  0  0  0  0  0  0  0  0  0
  129.8258  140.5065  159.6155 H   0  0  0  0  0  0  0  0  0  0  0  0
  129.2438  138.2037  158.9703 H   0  0  0  0  0  0  0  0  0  0  0  0
  130.9435  136.2673  158.5588 H   0  0  0  0  0  0  0  0  0  0  0  0
  129.0629  131.3245  158.2133 H   0  0  0  0  0  0  0  0  0  0  0  0
  129.7737  133.2211  154.4675 H   0  0  0  0  0  0  0  0  0  0  0  0
  130.3727  131.8647  152.5045 H   0  0  0  0  0  0  0  0  0  0  0  0
  131.8376  130.1632  151.5918 H   0  0  0  0  0  0  0  0  0  0  0  0
  132.6083  128.9579  152.6510 H   0  0  0  0  0  0  0  0  0  0  0  0
  130.8169  127.9246  151.2829 H   0  0  0  0  0  0  0  0  0  0  0  0
  130.4092  127.8716  153.0147 H   0  0  0  0  0  0  0  0  0  0  0  0
  129.6386  129.0768  151.9554 H   0  0  0  0  0  0  0  0  0  0  0  0
  132.2188  128.9758  155.0434 H   0  0  0  0  0  0  0  0  0  0  0  0
  131.6369  130.3243  157.0169 H   0  0  0  0  0  0  0  0  0  0  0  0
  127.7872  136.3506  160.9897 H   0  0  0  0  0  0  0  0  0  0  0  0
  131.1011  136.7290  162.5139 H   0  0  0  0  0  0  0  0  0  0  0  0
  135.5025  138.2021  162.8775 H   0  0  0  0  0  0  0  0  0  0  0  0
  137.7298  137.2153  163.2279 H   0  0  0  0  0  0  0  0  0  0  0  0
  1  2  1  0
  1 40  1  0
  1 41  1  0
  1 42  1  0
  2  3  1  0
  2 43  1  0
  2 44  1  0
  3 39  2  0
  3  4  1  0
  4  5  2  0
  4 45  1  0
  5  6  1  0
  5 46  1  0
  6  7  1  0
  6 38  2  0
  7  8  1  0
  7 47  1  0
  8  9  2  0
  8 10  1  0
 10 11  1  0
 10 48  1  0
 11 37  1  0
 11 12  2  0
 12 13  1  0
 12 49  1  0
 13 14  2  0
 13 50  1  0
 14 15  1  0
 14 51  1  0
 15 16  1  0
 15 37  2  0
 16 17  1  1
 16 18  1  0
 16 34  1  0
 18 52  1  0
 19 18  1  0
 19 32  2  0
 19 20  1  0
 20 21  1  0
 20 22  1  0
 22 23  2  0
 22 53  1  0
 23 24  1  0
 23 32  1  0
 24 31  1  0
 24 25  2  0
 25 26  1  0
 25 54  1  0
 26 27  2  0
 26 55  1  0
 27 28  1  0
 27 30  1  0
 28 29  1  0
 28 56  1  0
 28 57  1  0
 29 58  1  0
 29 59  1  0
 29 60  1  0
 30 31  2  0
 30 61  1  0
 31 62  1  0
 32 33  1  0
 34 35  1  0
 34 36  1  0
 34 63  1  0
 37 64  1  0
 38 39  1  0
 38 65  1  0
 39 66  1  0
M  CHG  1  32   1
M  END
>  <DOCK_score>  (1) 
-56.965019

>  <SMILES>  (1) 
CCc1ccc(NC(=O)Nc2cccc([C@H](Nc3[nH]cc(-c4ccc(CC)cc4)[nH+]3)C(F)F)c2)cc1

$$$$
