
     RDKit          2D

 35 39  0  0  0  0  0  0  0  0999 V2000
    4.6740   -4.8322    0.0000 C   0  0  0  0  0  0  0  0  0  0  0  0
    3.3037   -4.2221    0.0000 C   0  0  0  0  0  0  0  0  0  0  0  0
    2.9918   -2.7549    0.0000 N   0  0  0  0  0  0  0  0  0  0  0  0
    1.5000   -2.5981    0.0000 N   0  0  0  0  0  0  0  0  0  0  0  0
    0.7500   -1.2990    0.0000 C   0  0  0  0  0  0  0  0  0  0  0  0
    1.5000    0.0000    0.0000 C   0  0  0  0  0  0  0  0  0  0  0  0
    0.7500    1.2990    0.0000 C   0  0  0  0  0  0  0  0  0  0  0  0
   -0.7500    1.2990    0.0000 C   0  0  0  0  0  0  0  0  0  0  0  0
   -1.5000    2.5981    0.0000 F   0  0  0  0  0  0  0  0  0  0  0  0
   -1.5000    0.0000    0.0000 C   0  0  0  0  0  0  0  0  0  0  0  0
   -0.7500   -1.2990    0.0000 C   0  0  0  0  0  0  0  0  0  0  0  0
    0.8899   -3.9684    0.0000 C   0  0  0  0  0  0  0  0  0  0  0  0
    2.0046   -4.9721    0.0000 C   0  0  0  0  0  0  0  0  0  0  0  0
    1.8478   -6.4639    0.0000 C   0  0  0  0  0  0  0  0  0  0  0  0
    0.4775   -7.0740    0.0000 N   0  0  0  0  0  0  0  0  0  0  0  0
    0.3207   -8.5658    0.0000 C   0  0  0  0  0  0  0  0  0  0  0  0
    1.5342   -9.4474    0.0000 N   0  0  0  0  0  0  0  0  0  0  0  0
    1.3774  -10.9392    0.0000 C   0  0  0  0  0  0  0  0  0  0  0  0
    2.4922  -11.9429    0.0000 C   0  0  0  0  0  0  0  0  0  0  0  0
    1.8821  -13.3132    0.0000 C   0  0  0  0  0  0  0  0  0  0  0  0
    0.3903  -13.1564    0.0000 C   0  0  0  0  0  0  0  0  0  0  0  0
    0.0784  -11.6892    0.0000 C   0  0  0  0  0  0  0  0  0  0  0  0
   -1.0496   -9.1759    0.0000 N   0  0  0  0  0  0  0  0  0  0  0  0
   -1.2064  -10.6676    0.0000 C   0  0  0  0  0  0  0  0  0  0  0  0
   -0.5963  -12.0380    0.0000 C   0  0  0  0  0  0  0  0  0  0  0  0
   -2.0881  -11.8812    0.0000 C   0  0  0  0  0  0  0  0  0  0  0  0
   -3.4584  -12.4913    0.0000 N   0  0  0  0  0  0  0  0  0  0  0  0
   -4.6719  -11.6096    0.0000 C   0  0  0  0  0  0  0  0  0  0  0  0
   -4.5151  -10.1178    0.0000 O   0  0  0  0  0  0  0  0  0  0  0  0
   -6.0422  -12.2197    0.0000 N   0  0  0  0  0  0  0  0  0  0  0  0
   -7.2558  -11.3380    0.0000 C   0  0  0  0  0  0  0  0  0  0  0  0
   -8.6824  -11.8016    0.0000 C   0  0  0  0  0  0  0  0  0  0  0  0
   -9.5640  -10.5880    0.0000 C   0  0  0  0  0  0  0  0  0  0  0  0
   -8.6824   -9.3745    0.0000 C   0  0  0  0  0  0  0  0  0  0  0  0
   -7.2558   -9.8380    0.0000 C   0  0  0  0  0  0  0  0  0  0  0  0
  1  2  1  0
  2  3  2  0
  3  4  1  0
  4  5  1  0
  5  6  2  0
  6  7  1  0
  7  8  2  0
  8  9  1  0
  8 10  1  0
 10 11  2  0
  4 12  1  0
 12 13  2  0
 13 14  1  0
 14 15  1  0
 15 16  1  0
 16 17  2  3
 17 18  1  0
 18 19  1  0
 19 20  1  0
 20 21  1  0
 21 22  1  0
 16 23  1  0
 24 23  1  1
 24 25  1  0
 25 26  1  0
 26 27  1  1
 27 28  1  0
 28 29  2  0
 28 30  1  0
 30 31  1  0
 31 32  1  0
 32 33  2  0
 33 34  1  0
 34 35  1  0
 13  2  1  0
 22 18  1  0
 26 24  1  0
 35 31  1  0
 11  5  1  0
M  END
$$$$
