CCc1ccc(NC[C@H](Nc2[nH]cc(-c3ccc(F)cc3)[nH+]2)c2ccccc2C)cc1
     RDKit          3D

 59 62  0  0  1  0  0  0  0  0999 V2000
  131.8758  141.7079  164.2224 C   0  0  0  0  0  0  0  0  0  0  0  0
  132.7400  141.3537  163.0105 C   0  0  0  0  0  0  0  0  0  0  0  0
  132.1745  140.1344  162.3291 C   0  0  0  0  0  0  0  0  0  0  0  0
  131.2339  140.2787  161.3259 C   0  0  0  0  0  0  0  0  0  0  0  0
  130.7131  139.1632  160.6997 C   0  0  0  0  0  0  0  0  0  0  0  0
  131.1353  137.8953  161.0788 C   0  0  0  0  0  0  0  0  0  0  0  0
  130.6104  136.7651  160.4480 N   0  0  0  0  0  0  0  0  0  0  0  0
  129.3394  136.8539  159.7247 C   0  0  0  0  0  0  0  0  0  0  0  0
  128.9935  135.4866  159.1317 C   0  0  2  0  0  0  0  0  0  0  0  0
  128.9044  134.7546  159.9344 H   0  0  0  0  0  0  0  0  0  0  0  0
  130.0528  135.0726  158.2085 N   0  0  0  0  0  0  0  0  0  0  0  0
  129.9593  133.8602  157.5465 C   0  0  0  0  0  0  0  0  0  0  0  0
  129.3295  132.7482  158.0143 N   0  0  0  0  0  0  0  0  0  0  0  0
  128.8698  132.6630  158.8642 H   0  0  0  0  0  0  0  0  0  0  0  0
  129.4658  131.7683  157.0607 C   0  0  0  0  0  0  0  0  0  0  0  0
  130.1741  132.3096  156.0389 C   0  0  0  0  0  0  0  0  0  0  0  0
  130.5645  131.6191  154.7852 C   0  0  0  0  0  0  0  0  0  0  0  0
  130.1291  132.1062  153.5541 C   0  0  0  0  0  0  0  0  0  0  0  0
  130.4989  131.4639  152.3905 C   0  0  0  0  0  0  0  0  0  0  0  0
  131.2923  130.3299  152.4448 C   0  0  0  0  0  0  0  0  0  0  0  0
  131.6473  129.7010  151.3030 F   0  0  0  0  0  0  0  0  0  0  0  0
  131.7233  129.8387  153.6668 C   0  0  0  0  0  0  0  0  0  0  0  0
  131.3630  130.4778  154.8353 C   0  0  0  0  0  0  0  0  0  0  0  0
  130.4578  133.5959  156.3634 N   0  0  0  0  0  0  0  0  0  0  0  0
  130.9527  134.2197  155.8096 H   0  0  0  0  0  0  0  0  0  0  0  0
  127.6860  135.5780  158.3878 C   0  0  0  0  0  0  0  0  0  0  0  0
  127.6764  135.9052  157.0446 C   0  0  0  0  0  0  0  0  0  0  0  0
  126.4774  135.9886  156.3622 C   0  0  0  0  0  0  0  0  0  0  0  0
  125.2878  135.7417  157.0221 C   0  0  0  0  0  0  0  0  0  0  0  0
  125.2970  135.4199  158.3661 C   0  0  0  0  0  0  0  0  0  0  0  0
  126.4966  135.3351  159.0484 C   0  0  0  0  0  0  0  0  0  0  0  0
  126.5071  134.9786  160.5126 C   0  0  0  0  0  0  0  0  0  0  0  0
  132.0763  137.7537  162.0909 C   0  0  0  0  0  0  0  0  0  0  0  0
  132.5968  138.8736  162.7091 C   0  0  0  0  0  0  0  0  0  0  0  0
  132.2848  142.5897  164.7152 H   0  0  0  0  0  0  0  0  0  0  0  0
  130.8571  141.9146  163.8941 H   0  0  0  0  0  0  0  0  0  0  0  0
  131.8696  140.8712  164.9212 H   0  0  0  0  0  0  0  0  0  0  0  0
  133.7587  141.1469  163.3387 H   0  0  0  0  0  0  0  0  0  0  0  0
  132.7462  142.1904  162.3118 H   0  0  0  0  0  0  0  0  0  0  0  0
  130.9064  141.2648  161.0313 H   0  0  0  0  0  0  0  0  0  0  0  0
  129.9783  139.2767  159.9164 H   0  0  0  0  0  0  0  0  0  0  0  0
  131.0873  135.9215  160.4887 H   0  0  0  0  0  0  0  0  0  0  0  0
  129.4286  137.5860  158.9221 H   0  0  0  0  0  0  0  0  0  0  0  0
  128.5512  137.1621  160.4116 H   0  0  0  0  0  0  0  0  0  0  0  0
  130.8198  135.6478  158.0608 H   0  0  0  0  0  0  0  0  0  0  0  0
  129.0818  130.7604  157.1144 H   0  0  0  0  0  0  0  0  0  0  0  0
  129.5066  132.9878  153.5110 H   0  0  0  0  0  0  0  0  0  0  0  0
  130.1656  131.8433  151.4357 H   0  0  0  0  0  0  0  0  0  0  0  0
  132.3417  128.9540  153.7047 H   0  0  0  0  0  0  0  0  0  0  0  0
  131.6996  130.0947  155.7874 H   0  0  0  0  0  0  0  0  0  0  0  0
  128.6059  136.0953  156.5284 H   0  0  0  0  0  0  0  0  0  0  0  0
  126.4700  136.2437  155.3127 H   0  0  0  0  0  0  0  0  0  0  0  0
  124.3511  135.8035  156.4880 H   0  0  0  0  0  0  0  0  0  0  0  0
  124.3676  135.2302  158.8824 H   0  0  0  0  0  0  0  0  0  0  0  0
  126.5776  133.8964  160.6225 H   0  0  0  0  0  0  0  0  0  0  0  0
  127.3636  135.4493  160.9951 H   0  0  0  0  0  0  0  0  0  0  0  0
  125.5877  135.3320  160.9792 H   0  0  0  0  0  0  0  0  0  0  0  0
  132.4034  136.7693  162.3910 H   0  0  0  0  0  0  0  0  0  0  0  0
  133.3316  138.7644  163.4931 H   0  0  0  0  0  0  0  0  0  0  0  0
  1  2  1  0
  1 35  1  0
  1 36  1  0
  1 37  1  0
  2  3  1  0
  2 38  1  0
  2 39  1  0
  3 34  2  0
  3  4  1  0
  4  5  2  0
  4 40  1  0
  5  6  1  0
  5 41  1  0
  6  7  1  0
  6 33  2  0
  7  8  1  0
  7 42  1  0
  8  9  1  0
  8 43  1  0
  8 44  1  0
  9 10  1  1
  9 11  1  0
  9 26  1  0
 11 45  1  0
 12 11  1  0
 12 24  2  0
 12 13  1  0
 13 14  1  0
 13 15  1  0
 15 16  2  0
 15 46  1  0
 16 17  1  0
 16 24  1  0
 17 23  1  0
 17 18  2  0
 18 19  1  0
 18 47  1  0
 19 20  2  0
 19 48  1  0
 20 21  1  0
 20 22  1  0
 22 23  2  0
 22 49  1  0
 23 50  1  0
 24 25  1  0
 26 31  1  0
 26 27  2  0
 27 28  1  0
 27 51  1  0
 28 29  2  0
 28 52  1  0
 29 30  1  0
 29 53  1  0
 30 31  2  0
 30 54  1  0
 31 32  1  0
 32 55  1  0
 32 56  1  0
 32 57  1  0
 33 34  1  0
 33 58  1  0
 34 59  1  0
M  CHG  1  24   1
M  END
>  <DOCK_score>  (1) 
-64.116867

>  <SMILES>  (1) 
CCc1ccc(NC[C@H](Nc2[nH]cc(-c3ccc(F)cc3)[nH+]2)c2ccccc2C)cc1

$$$$
