Nc1ccc(-c2c[nH]c(NC(Cc3ccccc3)C3=C[C@@H](CO)C=CC3CO)[nH+]2)cc1
     RDKit          3D

 60 63  0  0  1  0  0  0  0  0999 V2000
  131.3801  129.5154  151.9100 N   0  0  0  0  0  0  0  0  0  0  0  0
  131.1099  130.1854  153.1057 C   0  0  0  0  0  0  0  0  0  0  0  0
  130.3477  131.3482  153.0918 C   0  0  0  0  0  0  0  0  0  0  0  0
  130.0800  132.0121  154.2704 C   0  0  0  0  0  0  0  0  0  0  0  0
  130.5738  131.5163  155.4761 C   0  0  0  0  0  0  0  0  0  0  0  0
  130.2876  132.2290  156.7453 C   0  0  0  0  0  0  0  0  0  0  0  0
  129.6297  131.7190  157.8157 C   0  0  0  0  0  0  0  0  0  0  0  0
  129.5917  132.7091  158.7689 N   0  0  0  0  0  0  0  0  0  0  0  0
  129.1889  132.6443  159.6489 H   0  0  0  0  0  0  0  0  0  0  0  0
  130.2205  133.7976  158.2483 C   0  0  0  0  0  0  0  0  0  0  0  0
  130.3960  135.0114  158.8908 N   0  0  0  0  0  0  0  0  0  0  0  0
  129.8828  135.2019  160.2496 C   0  0  2  0  0  0  0  0  0  0  0  0
  128.8695  136.3483  160.2561 C   0  0  0  0  0  0  0  0  0  0  0  0
  127.7282  136.0152  159.3301 C   0  0  0  0  0  0  0  0  0  0  0  0
  127.7858  136.3881  158.0002 C   0  0  0  0  0  0  0  0  0  0  0  0
  126.7408  136.0787  157.1499 C   0  0  0  0  0  0  0  0  0  0  0  0
  125.6341  135.4048  157.6315 C   0  0  0  0  0  0  0  0  0  0  0  0
  125.5744  135.0361  158.9624 C   0  0  0  0  0  0  0  0  0  0  0  0
  126.6213  135.3417  159.8118 C   0  0  0  0  0  0  0  0  0  0  0  0
  131.0241  135.5350  161.1756 C   0  0  0  0  0  0  0  0  0  0  0  0
  132.2234  135.6042  160.6833 C   0  0  0  0  0  0  0  0  0  0  0  0
  133.4269  135.9279  161.5165 C   0  0  1  0  0  0  0  0  0  0  0  0
  134.2600  135.3006  161.1998 H   0  0  0  0  0  0  0  0  0  0  0  0
  133.8000  137.3971  161.3091 C   0  0  0  0  0  0  0  0  0  0  0  0
  134.0961  137.6232  159.9294 O   0  0  0  0  0  0  0  0  0  0  0  0
  133.1581  135.6900  162.9720 C   0  0  0  0  0  0  0  0  0  0  0  0
  131.9587  135.6157  163.4635 C   0  0  0  0  0  0  0  0  0  0  0  0
  130.7256  135.7728  162.6253 C   0  0  2  0  0  0  0  0  0  0  0  0
  129.6739  134.7645  163.0927 C   0  0  0  0  0  0  0  0  0  0  0  0
  130.1747  133.4378  162.9168 O   0  0  0  0  0  0  0  0  0  0  0  0
  130.6377  133.5059  157.0405 N   0  0  0  0  0  0  0  0  0  0  0  0
  131.1197  134.1072  156.4514 H   0  0  0  0  0  0  0  0  0  0  0  0
  131.3420  130.3531  155.4865 C   0  0  0  0  0  0  0  0  0  0  0  0
  131.6036  129.6902  154.3061 C   0  0  0  0  0  0  0  0  0  0  0  0
  131.0361  129.8609  151.0715 H   0  0  0  0  0  0  0  0  0  0  0  0
  131.9119  128.7041  151.9185 H   0  0  0  0  0  0  0  0  0  0  0  0
  129.9653  131.7318  152.1575 H   0  0  0  0  0  0  0  0  0  0  0  0
  129.4884  132.9155  154.2594 H   0  0  0  0  0  0  0  0  0  0  0  0
  129.2185  130.7243  157.9043 H   0  0  0  0  0  0  0  0  0  0  0  0
  130.8588  135.7357  158.4411 H   0  0  0  0  0  0  0  0  0  0  0  0
  129.3972  134.2859  160.5864 H   0  0  0  0  0  0  0  0  0  0  0  0
  128.4876  136.4899  161.2672 H   0  0  0  0  0  0  0  0  0  0  0  0
  129.3551  137.2642  159.9195 H   0  0  0  0  0  0  0  0  0  0  0  0
  128.6487  136.9182  157.6249 H   0  0  0  0  0  0  0  0  0  0  0  0
  126.7876  136.3665  156.1100 H   0  0  0  0  0  0  0  0  0  0  0  0
  124.8161  135.1660  156.9678 H   0  0  0  0  0  0  0  0  0  0  0  0
  124.7098  134.5096  159.3387 H   0  0  0  0  0  0  0  0  0  0  0  0
  126.5745  135.0539  160.8518 H   0  0  0  0  0  0  0  0  0  0  0  0
  132.3600  135.4200  159.6278 H   0  0  0  0  0  0  0  0  0  0  0  0
  132.9649  138.0300  161.6098 H   0  0  0  0  0  0  0  0  0  0  0  0
  134.6747  137.6387  161.9128 H   0  0  0  0  0  0  0  0  0  0  0  0
  133.3607  137.4284  159.3324 H   0  0  0  0  0  0  0  0  0  0  0  0
  133.9984  135.5711  163.6399 H   0  0  0  0  0  0  0  0  0  0  0  0
  131.8445  135.4375  164.5226 H   0  0  0  0  0  0  0  0  0  0  0  0
  130.3323  136.7819  162.7483 H   0  0  0  0  0  0  0  0  0  0  0  0
  129.4527  134.9326  164.1467 H   0  0  0  0  0  0  0  0  0  0  0  0
  128.7641  134.8903  162.5060 H   0  0  0  0  0  0  0  0  0  0  0  0
  130.3934  133.2181  162.0009 H   0  0  0  0  0  0  0  0  0  0  0  0
  131.7291  129.9696  156.4191 H   0  0  0  0  0  0  0  0  0  0  0  0
  132.1956  128.7869  154.3143 H   0  0  0  0  0  0  0  0  0  0  0  0
  1  2  1  0
  1 35  1  0
  1 36  1  0
  2 34  2  0
  2  3  1  0
  3  4  2  0
  3 37  1  0
  4  5  1  0
  4 38  1  0
  5  6  1  0
  5 33  2  0
  6 31  1  0
  6  7  2  0
  7  8  1  0
  7 39  1  0
  8  9  1  0
  8 10  1  0
 10 11  1  0
 10 31  2  0
 11 12  1  0
 11 40  1  0
 12 13  1  0
 12 20  1  0
 12 41  1  1
 13 14  1  0
 13 42  1  0
 13 43  1  0
 14 19  1  0
 14 15  2  0
 15 16  1  0
 15 44  1  0
 16 17  2  0
 16 45  1  0
 17 18  1  0
 17 46  1  0
 18 19  2  0
 18 47  1  0
 19 48  1  0
 20 28  1  0
 20 21  2  0
 21 22  1  0
 21 49  1  0
 22 23  1  6
 22 24  1  0
 22 26  1  0
 24 25  1  0
 24 50  1  0
 24 51  1  0
 25 52  1  0
 26 27  2  0
 26 53  1  0
 27 28  1  0
 27 54  1  0
 28 29  1  0
 28 55  1  6
 29 30  1  0
 29 56  1  0
 29 57  1  0
 30 58  1  0
 31 32  1  0
 33 34  1  0
 33 59  1  0
 34 60  1  0
M  CHG  1  31   1
M  END
>  <DOCK_score>  (1) 
-66.004845

>  <SMILES>  (1) 
Nc1ccc(-c2c[nH]c(NC(Cc3ccccc3)C3=C[C@@H](CO)C=CC3CO)[nH+]2)cc1

$$$$
