CCc1cccc(-c2ccc(-c3n[nH]cc3C[NH2+]CCO)cc2)c1
     RDKit          3D

 48 50  0  0  0  0  0  0  0  0999 V2000
  129.0602  130.5660  151.4082 C   0  0  0  0  0  0  0  0  0  0  0  0
  130.3558  131.2548  151.8421 C   0  0  0  0  0  0  0  0  0  0  0  0
  130.5907  131.0045  153.3094 C   0  0  0  0  0  0  0  0  0  0  0  0
  131.3156  129.8976  153.7137 C   0  0  0  0  0  0  0  0  0  0  0  0
  131.5359  129.6621  155.0586 C   0  0  0  0  0  0  0  0  0  0  0  0
  131.0323  130.5311  156.0056 C   0  0  0  0  0  0  0  0  0  0  0  0
  130.3010  131.6473  155.6042 C   0  0  0  0  0  0  0  0  0  0  0  0
  129.7573  132.5846  156.6170 C   0  0  0  0  0  0  0  0  0  0  0  0
  129.5982  133.9340  156.3038 C   0  0  0  0  0  0  0  0  0  0  0  0
  129.0928  134.8044  157.2444 C   0  0  0  0  0  0  0  0  0  0  0  0
  128.7405  134.3361  158.5096 C   0  0  0  0  0  0  0  0  0  0  0  0
  128.1963  135.2735  159.5224 C   0  0  0  0  0  0  0  0  0  0  0  0
  126.9255  135.5663  159.7030 N   0  0  0  0  0  0  0  0  0  0  0  0
  126.8363  136.4886  160.7535 N   0  0  0  0  0  0  0  0  0  0  0  0
  126.0189  136.8780  161.1012 H   0  0  0  0  0  0  0  0  0  0  0  0
  128.0867  136.7458  161.1944 C   0  0  0  0  0  0  0  0  0  0  0  0
  128.9479  136.0081  160.4605 C   0  0  0  0  0  0  0  0  0  0  0  0
  130.4467  135.9802  160.6141 C   0  0  0  0  0  0  0  0  0  0  0  0
  131.0460  137.0130  159.7581 N   0  0  0  0  0  0  0  0  0  0  0  0
  132.0495  136.9943  159.8609 H   0  0  0  0  0  0  0  0  0  0  0  0
  130.8032  136.8340  158.7952 H   0  0  0  0  0  0  0  0  0  0  0  0
  130.5376  138.3329  160.1541 C   0  0  0  0  0  0  0  0  0  0  0  0
  131.1617  139.4084  159.2626 C   0  0  0  0  0  0  0  0  0  0  0  0
  130.8179  139.1550  157.8990 O   0  0  0  0  0  0  0  0  0  0  0  0
  128.9050  132.9878  158.8247 C   0  0  0  0  0  0  0  0  0  0  0  0
  129.4049  132.1162  157.8823 C   0  0  0  0  0  0  0  0  0  0  0  0
  130.0776  131.8767  154.2475 C   0  0  0  0  0  0  0  0  0  0  0  0
  128.2256  130.9667  151.9833 H   0  0  0  0  0  0  0  0  0  0  0  0
  128.8904  130.7470  150.3468 H   0  0  0  0  0  0  0  0  0  0  0  0
  129.1420  129.4936  151.5854 H   0  0  0  0  0  0  0  0  0  0  0  0
  130.2742  132.3271  151.6647 H   0  0  0  0  0  0  0  0  0  0  0  0
  131.1906  130.8540  151.2669 H   0  0  0  0  0  0  0  0  0  0  0  0
  131.7113  129.2150  152.9762 H   0  0  0  0  0  0  0  0  0  0  0  0
  132.1027  128.7967  155.3685 H   0  0  0  0  0  0  0  0  0  0  0  0
  131.2043  130.3458  157.0556 H   0  0  0  0  0  0  0  0  0  0  0  0
  129.8708  134.2968  155.3237 H   0  0  0  0  0  0  0  0  0  0  0  0
  128.9692  135.8495  157.0017 H   0  0  0  0  0  0  0  0  0  0  0  0
  128.3513  137.4210  161.9948 H   0  0  0  0  0  0  0  0  0  0  0  0
  130.7091  136.1734  161.6542 H   0  0  0  0  0  0  0  0  0  0  0  0
  130.8241  135.0008  160.3199 H   0  0  0  0  0  0  0  0  0  0  0  0
  129.4534  138.3530  160.0430 H   0  0  0  0  0  0  0  0  0  0  0  0
  130.7999  138.5261  161.1944 H   0  0  0  0  0  0  0  0  0  0  0  0
  130.7843  140.3879  159.5566 H   0  0  0  0  0  0  0  0  0  0  0  0
  132.2458  139.3883  159.3739 H   0  0  0  0  0  0  0  0  0  0  0  0
  131.1227  138.2985  157.5693 H   0  0  0  0  0  0  0  0  0  0  0  0
  128.6361  132.6260  159.8061 H   0  0  0  0  0  0  0  0  0  0  0  0
  129.5279  131.0710  158.1248 H   0  0  0  0  0  0  0  0  0  0  0  0
  129.5074  132.7376  153.9311 H   0  0  0  0  0  0  0  0  0  0  0  0
  1  2  1  0
  1 28  1  0
  1 29  1  0
  1 30  1  0
  2  3  1  0
  2 31  1  0
  2 32  1  0
  3 27  2  0
  3  4  1  0
  4  5  2  0
  4 33  1  0
  5  6  1  0
  5 34  1  0
  6  7  2  0
  6 35  1  0
  7  8  1  0
  7 27  1  0
  8 26  1  0
  8  9  2  0
  9 10  1  0
  9 36  1  0
 10 11  2  0
 10 37  1  0
 11 12  1  0
 11 25  1  0
 12 17  1  0
 12 13  2  0
 13 14  1  0
 14 15  1  0
 14 16  1  0
 16 17  2  0
 16 38  1  0
 17 18  1  0
 18 19  1  0
 18 39  1  0
 18 40  1  0
 19 20  1  0
 19 21  1  0
 19 22  1  0
 22 23  1  0
 22 41  1  0
 22 42  1  0
 23 24  1  0
 23 43  1  0
 23 44  1  0
 24 45  1  0
 25 26  2  0
 25 46  1  0
 26 47  1  0
 27 48  1  0
M  CHG  1  19   1
M  END
>  <DOCK_score>  (1) 
-47.050262

>  <SMILES>  (1) 
CCc1cccc(-c2ccc(-c3n[nH]cc3C[NH2+]CCO)cc2)c1

$$$$
