c1ccc(Nc2ccc(-c3n[nH]cc3C[NH2+]C3CC4C[C@@H]4C3)o2)cc1
     RDKit          3D

 48 52  0  0  1  0  0  0  0  0999 V2000
  129.6959  138.5534  161.5926 C   0  0  0  0  0  0  0  0  0  0  0  0
  129.2553  138.1644  160.3402 C   0  0  0  0  0  0  0  0  0  0  0  0
  128.1680  137.3218  160.2201 C   0  0  0  0  0  0  0  0  0  0  0  0
  127.5099  136.8733  161.3588 C   0  0  0  0  0  0  0  0  0  0  0  0
  126.4061  136.0253  161.2408 N   0  0  0  0  0  0  0  0  0  0  0  0
  126.5428  134.7879  160.6218 C   0  0  0  0  0  0  0  0  0  0  0  0
  125.5523  133.8793  160.4394 C   0  0  0  0  0  0  0  0  0  0  0  0
  126.1236  132.7762  159.7753 C   0  0  0  0  0  0  0  0  0  0  0  0
  127.4375  133.0682  159.5853 C   0  0  0  0  0  0  0  0  0  0  0  0
  128.4310  132.1965  158.9247 C   0  0  0  0  0  0  0  0  0  0  0  0
  128.4149  130.8783  158.9035 N   0  0  0  0  0  0  0  0  0  0  0  0
  129.5291  130.4417  158.1756 N   0  0  0  0  0  0  0  0  0  0  0  0
  129.7673  129.5180  157.9996 H   0  0  0  0  0  0  0  0  0  0  0  0
  130.2141  131.5293  157.7603 C   0  0  0  0  0  0  0  0  0  0  0  0
  129.5619  132.6270  158.1993 C   0  0  0  0  0  0  0  0  0  0  0  0
  129.9714  134.0575  157.9605 C   0  0  0  0  0  0  0  0  0  0  0  0
  131.4147  134.1993  158.1945 N   0  0  0  0  0  0  0  0  0  0  0  0
  131.9186  133.5953  157.5628 H   0  0  0  0  0  0  0  0  0  0  0  0
  131.6888  135.1570  158.0346 H   0  0  0  0  0  0  0  0  0  0  0  0
  131.7250  133.8261  159.5811 C   0  0  2  0  0  0  0  0  0  0  0  0
  131.1003  134.8373  160.5744 C   0  0  0  0  0  0  0  0  0  0  0  0
  131.9679  134.7060  161.8433 C   0  0  2  0  0  0  0  0  0  0  0  0
  133.2256  135.5705  161.9518 C   0  0  0  0  0  0  0  0  0  0  0  0
  133.3296  134.1514  161.3893 C   0  0  2  0  0  0  0  0  0  0  0  0
  133.8636  133.3901  161.9579 H   0  0  0  0  0  0  0  0  0  0  0  0
  133.2420  133.9651  159.8604 C   0  0  0  0  0  0  0  0  0  0  0  0
  127.6775  134.2932  160.0980 O   0  0  0  0  0  0  0  0  0  0  0  0
  127.9519  137.2702  162.6145 C   0  0  0  0  0  0  0  0  0  0  0  0
  129.0432  138.1089  162.7274 C   0  0  0  0  0  0  0  0  0  0  0  0
  130.5488  139.2095  161.6839 H   0  0  0  0  0  0  0  0  0  0  0  0
  129.7648  138.5172  159.4555 H   0  0  0  0  0  0  0  0  0  0  0  0
  127.8271  137.0150  159.2425 H   0  0  0  0  0  0  0  0  0  0  0  0
  125.5441  136.2998  161.5909 H   0  0  0  0  0  0  0  0  0  0  0  0
  124.5216  133.9821  160.7449 H   0  0  0  0  0  0  0  0  0  0  0  0
  125.6152  131.8722  159.4742 H   0  0  0  0  0  0  0  0  0  0  0  0
  131.1220  131.5221  157.1755 H   0  0  0  0  0  0  0  0  0  0  0  0
  129.7412  134.3344  156.9316 H   0  0  0  0  0  0  0  0  0  0  0  0
  129.4268  134.7102  158.6429 H   0  0  0  0  0  0  0  0  0  0  0  0
  131.3845  132.8124  159.7920 H   0  0  0  0  0  0  0  0  0  0  0  0
  131.1589  135.8498  160.1754 H   0  0  0  0  0  0  0  0  0  0  0  0
  130.0659  134.5704  160.7904 H   0  0  0  0  0  0  0  0  0  0  0  0
  131.4856  134.3493  162.7534 H   0  0  0  0  0  0  0  0  0  0  0  0
  133.6297  135.7469  162.9487 H   0  0  0  0  0  0  0  0  0  0  0  0
  133.3282  136.3982  161.2501 H   0  0  0  0  0  0  0  0  0  0  0  0
  133.7704  133.0619  159.5554 H   0  0  0  0  0  0  0  0  0  0  0  0
  133.6469  134.8355  159.3443 H   0  0  0  0  0  0  0  0  0  0  0  0
  127.4425  136.9237  163.5017 H   0  0  0  0  0  0  0  0  0  0  0  0
  129.3871  138.4182  163.7034 H   0  0  0  0  0  0  0  0  0  0  0  0
  1 29  2  0
  1  2  1  0
  1 30  1  0
  2  3  2  0
  2 31  1  0
  3  4  1  0
  3 32  1  0
  4  5  1  0
  4 28  2  0
  5  6  1  0
  5 33  1  0
  6 27  1  0
  6  7  2  0
  7  8  1  0
  7 34  1  0
  8  9  2  0
  8 35  1  0
  9 10  1  0
  9 27  1  0
 10 15  1  0
 10 11  2  0
 11 12  1  0
 12 13  1  0
 12 14  1  0
 14 15  2  0
 14 36  1  0
 15 16  1  0
 16 17  1  0
 16 37  1  0
 16 38  1  0
 17 18  1  0
 17 19  1  0
 17 20  1  0
 20 26  1  0
 20 21  1  0
 20 39  1  1
 21 22  1  0
 21 40  1  0
 21 41  1  0
 22 24  1  0
 22 23  1  0
 22 42  1  1
 23 24  1  0
 23 43  1  0
 23 44  1  0
 24 25  1  1
 24 26  1  0
 26 45  1  0
 26 46  1  0
 28 29  1  0
 28 47  1  0
 29 48  1  0
M  CHG  1  17   1
M  END
>  <DOCK_score>  (1) 
-44.478313

>  <SMILES>  (1) 
c1ccc(Nc2ccc(-c3n[nH]cc3C[NH2+]C3CC4C[C@@H]4C3)o2)cc1

$$$$
