CCOc1cccc(Nc2ccc(CNC3=[NH+]CCN3CCO)cc2)c1
     RDKit          3D

 53 55  0  0  1  0  0  0  0  0999 V2000
  126.9209  141.1169  166.3677 C   0  0  0  0  0  0  0  0  0  0  0  0
  126.6487  139.8813  165.5074 C   0  0  0  0  0  0  0  0  0  0  0  0
  127.4661  138.7987  165.9563 O   0  0  0  0  0  0  0  0  0  0  0  0
  127.8455  137.8846  165.0250 C   0  0  0  0  0  0  0  0  0  0  0  0
  129.0552  137.2171  165.1596 C   0  0  0  0  0  0  0  0  0  0  0  0
  129.4403  136.2839  164.2160 C   0  0  0  0  0  0  0  0  0  0  0  0
  128.6281  136.0199  163.1302 C   0  0  0  0  0  0  0  0  0  0  0  0
  127.4187  136.6888  162.9873 C   0  0  0  0  0  0  0  0  0  0  0  0
  126.5969  136.4217  161.8895 N   0  0  0  0  0  0  0  0  0  0  0  0
  127.1607  136.0245  160.6745 C   0  0  0  0  0  0  0  0  0  0  0  0
  126.8301  134.7942  160.1218 C   0  0  0  0  0  0  0  0  0  0  0  0
  127.3859  134.4074  158.9183 C   0  0  0  0  0  0  0  0  0  0  0  0
  128.2793  135.2393  158.2685 C   0  0  0  0  0  0  0  0  0  0  0  0
  128.8887  134.8111  156.9584 C   0  0  0  0  0  0  0  0  0  0  0  0
  129.3252  133.4161  157.0555 N   0  0  0  0  0  0  0  0  0  0  0  0
  129.9153  132.8036  155.9753 C   0  0  0  0  0  0  0  0  0  0  0  0
  130.1069  133.4041  154.8463 N   0  0  0  0  0  0  0  0  0  0  0  0
  129.8590  134.3224  154.6562 H   0  0  0  0  0  0  0  0  0  0  0  0
  130.7575  132.4932  153.8942 C   0  0  0  0  0  0  0  0  0  0  0  0
  130.9204  131.1803  154.6856 C   0  0  0  0  0  0  0  0  0  0  0  0
  130.3445  131.5050  156.0013 N   0  0  0  0  0  0  0  0  0  0  0  0
  130.2478  130.5928  157.1436 C   0  0  0  0  0  0  0  0  0  0  0  0
  131.5099  130.7128  158.0001 C   0  0  0  0  0  0  0  0  0  0  0  0
  131.6394  132.0553  158.4723 O   0  0  0  0  0  0  0  0  0  0  0  0
  128.6152  136.4629  158.8184 C   0  0  0  0  0  0  0  0  0  0  0  0
  128.0592  136.8582  160.0189 C   0  0  0  0  0  0  0  0  0  0  0  0
  127.0278  137.6229  163.9373 C   0  0  0  0  0  0  0  0  0  0  0  0
  126.2974  141.9427  166.0253 H   0  0  0  0  0  0  0  0  0  0  0  0
  126.6880  140.8932  167.4088 H   0  0  0  0  0  0  0  0  0  0  0  0
  127.9714  141.3949  166.2821 H   0  0  0  0  0  0  0  0  0  0  0  0
  126.8816  140.1051  164.4664 H   0  0  0  0  0  0  0  0  0  0  0  0
  125.5982  139.6034  165.5930 H   0  0  0  0  0  0  0  0  0  0  0  0
  129.6943  137.4241  166.0053 H   0  0  0  0  0  0  0  0  0  0  0  0
  130.3800  135.7630  164.3255 H   0  0  0  0  0  0  0  0  0  0  0  0
  128.9335  135.2933  162.3918 H   0  0  0  0  0  0  0  0  0  0  0  0
  125.6345  136.5115  161.9708 H   0  0  0  0  0  0  0  0  0  0  0  0
  126.1355  134.1424  160.6308 H   0  0  0  0  0  0  0  0  0  0  0  0
  127.1257  133.4526  158.4861 H   0  0  0  0  0  0  0  0  0  0  0  0
  128.1473  134.9054  156.1648 H   0  0  0  0  0  0  0  0  0  0  0  0
  129.7459  135.4451  156.7320 H   0  0  0  0  0  0  0  0  0  0  0  0
  129.1980  132.9245  157.8820 H   0  0  0  0  0  0  0  0  0  0  0  0
  131.7306  132.8813  153.5933 H   0  0  0  0  0  0  0  0  0  0  0  0
  130.1231  132.3373  153.0216 H   0  0  0  0  0  0  0  0  0  0  0  0
  131.9738  130.9171  154.7812 H   0  0  0  0  0  0  0  0  0  0  0  0
  130.3647  130.3712  154.2117 H   0  0  0  0  0  0  0  0  0  0  0  0
  129.3756  130.8528  157.7434 H   0  0  0  0  0  0  0  0  0  0  0  0
  130.1491  129.5689  156.7835 H   0  0  0  0  0  0  0  0  0  0  0  0
  131.4380  130.0341  158.8500 H   0  0  0  0  0  0  0  0  0  0  0  0
  132.3821  130.4529  157.4004 H   0  0  0  0  0  0  0  0  0  0  0  0
  131.7086  132.7149  157.7686 H   0  0  0  0  0  0  0  0  0  0  0  0
  129.3132  137.1102  158.3080 H   0  0  0  0  0  0  0  0  0  0  0  0
  128.3221  137.8138  160.4481 H   0  0  0  0  0  0  0  0  0  0  0  0
  126.0882  138.1441  163.8291 H   0  0  0  0  0  0  0  0  0  0  0  0
  1  2  1  0
  1 28  1  0
  1 29  1  0
  1 30  1  0
  2  3  1  0
  2 31  1  0
  2 32  1  0
  3  4  1  0
  4 27  2  0
  4  5  1  0
  5  6  2  0
  5 33  1  0
  6  7  1  0
  6 34  1  0
  7  8  2  0
  7 35  1  0
  8  9  1  0
  8 27  1  0
  9 10  1  0
  9 36  1  0
 10 26  1  0
 10 11  2  0
 11 12  1  0
 11 37  1  0
 12 13  2  0
 12 38  1  0
 13 14  1  0
 13 25  1  0
 14 15  1  0
 14 39  1  0
 14 40  1  0
 15 41  1  0
 16 15  1  0
 16 21  1  0
 16 17  2  0
 17 18  1  0
 17 19  1  0
 19 20  1  0
 19 42  1  0
 19 43  1  0
 20 21  1  0
 20 44  1  0
 20 45  1  0
 21 22  1  0
 22 23  1  0
 22 46  1  0
 22 47  1  0
 23 24  1  0
 23 48  1  0
 23 49  1  0
 24 50  1  0
 25 26  2  0
 25 51  1  0
 26 52  1  0
 27 53  1  0
M  CHG  1  17   1
M  END
>  <DOCK_score>  (1) 
-43.319046

>  <SMILES>  (1) 
CCOc1cccc(Nc2ccc(CNC3=[NH+]CCN3CCO)cc2)c1

$$$$
