Nc1ccc(-c2c[nH]c(N[C@@H](/C=C/C(=O)OCc3ccccc3)c3ccccc3)[nH+]2)cc1
     RDKit          3D

 57 60  0  0  1  0  0  0  0  0999 V2000
  131.4376  129.4592  151.3210 N   0  0  0  0  0  0  0  0  0  0  0  0
  131.1598  130.0999  152.5309 C   0  0  0  0  0  0  0  0  0  0  0  0
  130.2253  131.1279  152.5731 C   0  0  0  0  0  0  0  0  0  0  0  0
  129.9496  131.7619  153.7661 C   0  0  0  0  0  0  0  0  0  0  0  0
  130.6087  131.3708  154.9306 C   0  0  0  0  0  0  0  0  0  0  0  0
  130.3137  132.0514  156.2154 C   0  0  0  0  0  0  0  0  0  0  0  0
  129.8260  131.4639  157.3359 C   0  0  0  0  0  0  0  0  0  0  0  0
  129.7042  132.4525  158.2836 N   0  0  0  0  0  0  0  0  0  0  0  0
  129.3808  132.3416  159.1913 H   0  0  0  0  0  0  0  0  0  0  0  0
  130.1214  133.6152  157.7128 C   0  0  0  0  0  0  0  0  0  0  0  0
  130.1563  134.8516  158.3346 N   0  0  0  0  0  0  0  0  0  0  0  0
  129.7193  134.9841  159.7267 C   0  0  1  0  0  0  0  0  0  0  0  0
  130.0685  134.1257  160.3004 H   0  0  0  0  0  0  0  0  0  0  0  0
  130.2917  136.2480  160.3147 C   0  0  0  0  0  0  0  0  0  0  0  0
  131.6105  136.4162  160.3744 C   0  0  0  0  0  0  0  0  0  0  0  0
  132.1687  137.6487  160.9478 C   0  0  0  0  0  0  0  0  0  0  0  0
  131.4261  138.5144  161.3675 O   0  0  0  0  0  0  0  0  0  0  0  0
  133.5046  137.8191  161.0083 O   0  0  0  0  0  0  0  0  0  0  0  0
  133.9851  139.0609  161.5874 C   0  0  0  0  0  0  0  0  0  0  0  0
  135.3028  139.4322  160.9573 C   0  0  0  0  0  0  0  0  0  0  0  0
  136.2402  140.1429  161.6833 C   0  0  0  0  0  0  0  0  0  0  0  0
  137.4491  140.4829  161.1054 C   0  0  0  0  0  0  0  0  0  0  0  0
  137.7201  140.1131  159.8011 C   0  0  0  0  0  0  0  0  0  0  0  0
  136.7828  139.4023  159.0754 C   0  0  0  0  0  0  0  0  0  0  0  0
  135.5744  139.0614  159.6536 C   0  0  0  0  0  0  0  0  0  0  0  0
  128.2143  135.0433  159.7772 C   0  0  0  0  0  0  0  0  0  0  0  0
  127.5400  134.5541  160.8804 C   0  0  0  0  0  0  0  0  0  0  0  0
  126.1597  134.6125  160.9287 C   0  0  0  0  0  0  0  0  0  0  0  0
  125.4532  135.1515  159.8699 C   0  0  0  0  0  0  0  0  0  0  0  0
  126.1273  135.6358  158.7643 C   0  0  0  0  0  0  0  0  0  0  0  0
  127.5078  135.5815  158.7180 C   0  0  0  0  0  0  0  0  0  0  0  0
  130.4794  133.3725  156.4754 N   0  0  0  0  0  0  0  0  0  0  0  0
  130.8120  134.0320  155.8466 H   0  0  0  0  0  0  0  0  0  0  0  0
  131.5496  130.3433  154.8848 C   0  0  0  0  0  0  0  0  0  0  0  0
  131.8177  129.7080  153.6907 C   0  0  0  0  0  0  0  0  0  0  0  0
  130.9783  129.7315  150.5113 H   0  0  0  0  0  0  0  0  0  0  0  0
  132.0893  128.7413  151.2909 H   0  0  0  0  0  0  0  0  0  0  0  0
  129.7151  131.4307  151.6706 H   0  0  0  0  0  0  0  0  0  0  0  0
  129.2232  132.5604  153.7985 H   0  0  0  0  0  0  0  0  0  0  0  0
  129.5803  130.4197  157.4601 H   0  0  0  0  0  0  0  0  0  0  0  0
  130.4702  135.6302  157.8487 H   0  0  0  0  0  0  0  0  0  0  0  0
  129.6317  137.0171  160.6878 H   0  0  0  0  0  0  0  0  0  0  0  0
  132.2704  135.6471  160.0013 H   0  0  0  0  0  0  0  0  0  0  0  0
  134.1192  138.9331  162.6614 H   0  0  0  0  0  0  0  0  0  0  0  0
  133.2588  139.8526  161.4035 H   0  0  0  0  0  0  0  0  0  0  0  0
  136.0264  140.4364  162.7004 H   0  0  0  0  0  0  0  0  0  0  0  0
  138.1814  141.0385  161.6725 H   0  0  0  0  0  0  0  0  0  0  0  0
  138.6645  140.3792  159.3498 H   0  0  0  0  0  0  0  0  0  0  0  0
  136.9949  139.1127  158.0569 H   0  0  0  0  0  0  0  0  0  0  0  0
  134.8422  138.5058  159.0865 H   0  0  0  0  0  0  0  0  0  0  0  0
  128.0917  134.1296  161.7061 H   0  0  0  0  0  0  0  0  0  0  0  0
  125.6331  134.2344  161.7925 H   0  0  0  0  0  0  0  0  0  0  0  0
  124.3747  135.1947  159.9064 H   0  0  0  0  0  0  0  0  0  0  0  0
  125.5753  136.0569  157.9370 H   0  0  0  0  0  0  0  0  0  0  0  0
  128.0343  135.9598  157.8542 H   0  0  0  0  0  0  0  0  0  0  0  0
  132.0647  130.0417  155.7850 H   0  0  0  0  0  0  0  0  0  0  0  0
  132.5434  128.9089  153.6557 H   0  0  0  0  0  0  0  0  0  0  0  0
  1  2  1  0
  1 36  1  0
  1 37  1  0
  2 35  2  0
  2  3  1  0
  3  4  2  0
  3 38  1  0
  4  5  1  0
  4 39  1  0
  5  6  1  0
  5 34  2  0
  6 32  1  0
  6  7  2  0
  7  8  1  0
  7 40  1  0
  8  9  1  0
  8 10  1  0
 10 11  1  0
 10 32  2  0
 11 12  1  0
 11 41  1  0
 12 13  1  1
 12 14  1  0
 12 26  1  0
 14 15  2  0
 14 42  1  0
 15 16  1  0
 15 43  1  0
 16 17  2  0
 16 18  1  0
 18 19  1  0
 19 20  1  0
 19 44  1  0
 19 45  1  0
 20 25  1  0
 20 21  2  0
 21 22  1  0
 21 46  1  0
 22 23  2  0
 22 47  1  0
 23 24  1  0
 23 48  1  0
 24 25  2  0
 24 49  1  0
 25 50  1  0
 26 31  1  0
 26 27  2  0
 27 28  1  0
 27 51  1  0
 28 29  2  0
 28 52  1  0
 29 30  1  0
 29 53  1  0
 30 31  2  0
 30 54  1  0
 31 55  1  0
 32 33  1  0
 34 35  1  0
 34 56  1  0
 35 57  1  0
M  CHG  1  32   1
M  END
>  <DOCK_score>  (1) 
-63.537575

>  <SMILES>  (1) 
Nc1ccc(-c2c[nH]c(N[C@@H](/C=C/C(=O)OCc3ccccc3)c3ccccc3)[nH+]2)cc1

$$$$
