CC=Cc1ccc(Nc2ccc(-c3n[nH]cc3C[NH2+]CC3=CCCCC3)o2)cc1
     RDKit          3D

 58 61  0  0  0  0  0  0  0  0999 V2000
  129.2647  140.2682  167.8184 C   0  0  0  0  0  0  0  0  0  0  0  0
  128.4780  139.6320  166.7014 C   0  0  0  0  0  0  0  0  0  0  0  0
  128.9968  138.6217  166.0167 C   0  0  0  0  0  0  0  0  0  0  0  0
  128.2258  137.9980  164.9217 C   0  0  0  0  0  0  0  0  0  0  0  0
  127.1709  138.6919  164.3257 C   0  0  0  0  0  0  0  0  0  0  0  0
  126.4534  138.1079  163.3047 C   0  0  0  0  0  0  0  0  0  0  0  0
  126.7787  136.8280  162.8679 C   0  0  0  0  0  0  0  0  0  0  0  0
  126.0505  136.2391  161.8338 N   0  0  0  0  0  0  0  0  0  0  0  0
  126.6643  135.3263  160.9836 C   0  0  0  0  0  0  0  0  0  0  0  0
  126.0523  134.2883  160.3604 C   0  0  0  0  0  0  0  0  0  0  0  0
  127.0364  133.6281  159.5992 C   0  0  0  0  0  0  0  0  0  0  0  0
  128.2044  134.2926  159.8038 C   0  0  0  0  0  0  0  0  0  0  0  0
  129.5118  133.9486  159.2080 C   0  0  0  0  0  0  0  0  0  0  0  0
  129.7496  132.9488  158.3818 N   0  0  0  0  0  0  0  0  0  0  0  0
  131.1107  132.9716  158.0523 N   0  0  0  0  0  0  0  0  0  0  0  0
  131.5633  132.3499  157.4610 H   0  0  0  0  0  0  0  0  0  0  0  0
  131.6842  134.0087  158.7002 C   0  0  0  0  0  0  0  0  0  0  0  0
  130.7266  134.6350  159.4171 C   0  0  0  0  0  0  0  0  0  0  0  0
  130.9213  135.8494  160.2880 C   0  0  0  0  0  0  0  0  0  0  0  0
  130.7074  137.0638  159.4896 N   0  0  0  0  0  0  0  0  0  0  0  0
  131.3690  137.0865  158.7280 H   0  0  0  0  0  0  0  0  0  0  0  0
  129.7686  137.0621  159.1197 H   0  0  0  0  0  0  0  0  0  0  0  0
  130.8972  138.2476  160.3383 C   0  0  0  0  0  0  0  0  0  0  0  0
  132.2993  138.2501  160.8908 C   0  0  0  0  0  0  0  0  0  0  0  0
  132.4449  138.2245  162.1768 C   0  0  0  0  0  0  0  0  0  0  0  0
  133.7745  138.2285  162.8726 C   0  0  0  0  0  0  0  0  0  0  0  0
  134.8862  137.8530  161.8903 C   0  0  0  0  0  0  0  0  0  0  0  0
  134.7273  138.7093  160.6275 C   0  0  0  0  0  0  0  0  0  0  0  0
  133.4396  138.2882  159.9161 C   0  0  0  0  0  0  0  0  0  0  0  0
  127.9651  135.3203  160.6451 O   0  0  0  0  0  0  0  0  0  0  0  0
  127.8286  136.1341  163.4604 C   0  0  0  0  0  0  0  0  0  0  0  0
  128.5498  136.7133  164.4816 C   0  0  0  0  0  0  0  0  0  0  0  0
  128.6803  141.0751  168.2605 H   0  0  0  0  0  0  0  0  0  0  0  0
  129.4851  139.5198  168.5796 H   0  0  0  0  0  0  0  0  0  0  0  0
  130.1975  140.6697  167.4229 H   0  0  0  0  0  0  0  0  0  0  0  0
  127.4917  139.9989  166.4586 H   0  0  0  0  0  0  0  0  0  0  0  0
  129.9832  138.2548  166.2597 H   0  0  0  0  0  0  0  0  0  0  0  0
  126.9180  139.6859  164.6642 H   0  0  0  0  0  0  0  0  0  0  0  0
  125.6404  138.6460  162.8401 H   0  0  0  0  0  0  0  0  0  0  0  0
  125.1159  136.4664  161.7081 H   0  0  0  0  0  0  0  0  0  0  0  0
  125.0085  134.0206  160.4323 H   0  0  0  0  0  0  0  0  0  0  0  0
  126.8917  132.7580  158.9760 H   0  0  0  0  0  0  0  0  0  0  0  0
  132.7257  134.2903  158.6504 H   0  0  0  0  0  0  0  0  0  0  0  0
  130.2066  135.8249  161.1106 H   0  0  0  0  0  0  0  0  0  0  0  0
  131.9354  135.8512  160.6875 H   0  0  0  0  0  0  0  0  0  0  0  0
  130.7385  139.1487  159.7459 H   0  0  0  0  0  0  0  0  0  0  0  0
  130.1825  138.2231  161.1611 H   0  0  0  0  0  0  0  0  0  0  0  0
  131.5542  138.1949  162.7867 H   0  0  0  0  0  0  0  0  0  0  0  0
  133.7583  137.5096  163.6918 H   0  0  0  0  0  0  0  0  0  0  0  0
  133.9667  139.2242  163.2722 H   0  0  0  0  0  0  0  0  0  0  0  0
  134.8042  136.7977  161.6300 H   0  0  0  0  0  0  0  0  0  0  0  0
  135.8591  138.0443  162.3427 H   0  0  0  0  0  0  0  0  0  0  0  0
  135.5797  138.5499  159.9671 H   0  0  0  0  0  0  0  0  0  0  0  0
  134.6658  139.7619  160.9039 H   0  0  0  0  0  0  0  0  0  0  0  0
  133.5750  137.2987  159.4794 H   0  0  0  0  0  0  0  0  0  0  0  0
  133.2154  139.0043  159.1255 H   0  0  0  0  0  0  0  0  0  0  0  0
  128.0787  135.1403  163.1194 H   0  0  0  0  0  0  0  0  0  0  0  0
  129.3652  136.1742  164.9407 H   0  0  0  0  0  0  0  0  0  0  0  0
  1  2  1  0
  1 33  1  0
  1 34  1  0
  1 35  1  0
  2  3  2  0
  2 36  1  0
  3  4  1  0
  3 37  1  0
  4 32  2  0
  4  5  1  0
  5  6  2  0
  5 38  1  0
  6  7  1  0
  6 39  1  0
  7  8  1  0
  7 31  2  0
  8  9  1  0
  8 40  1  0
  9 30  1  0
  9 10  2  0
 10 11  1  0
 10 41  1  0
 11 12  2  0
 11 42  1  0
 12 13  1  0
 12 30  1  0
 13 18  1  0
 13 14  2  0
 14 15  1  0
 15 16  1  0
 15 17  1  0
 17 18  2  0
 17 43  1  0
 18 19  1  0
 19 20  1  0
 19 44  1  0
 19 45  1  0
 20 21  1  0
 20 22  1  0
 20 23  1  0
 23 24  1  0
 23 46  1  0
 23 47  1  0
 24 29  1  0
 24 25  2  0
 25 26  1  0
 25 48  1  0
 26 27  1  0
 26 49  1  0
 26 50  1  0
 27 28  1  0
 27 51  1  0
 27 52  1  0
 28 29  1  0
 28 53  1  0
 28 54  1  0
 29 55  1  0
 29 56  1  0
 31 32  1  0
 31 57  1  0
 32 58  1  0
M  CHG  1  20   1
M  END
>  <DOCK_score>  (1) 
-45.774689

>  <SMILES>  (1) 
CC=Cc1ccc(Nc2ccc(-c3n[nH]cc3C[NH2+]CC3=CCCCC3)o2)cc1

$$$$
