Brc1ccc([C@H](Nc2[nH]cc(-c3ccc(C4CC=CC4)cc3)[nH+]2)c2ccccc2)cc1
     RDKit          3D

 56 60  0  0  1  0  0  0  0  0999 V2000
  131.4921  141.4819  162.4168 Br  0  0  0  0  0  0  0  0  0  0  0  0
  130.9912  139.7386  161.8821 C   0  0  0  0  0  0  0  0  0  0  0  0
  130.8468  138.7395  162.8277 C   0  0  0  0  0  0  0  0  0  0  0  0
  130.4746  137.4670  162.4371 C   0  0  0  0  0  0  0  0  0  0  0  0
  130.2582  137.1898  161.1002 C   0  0  0  0  0  0  0  0  0  0  0  0
  129.8590  135.8005  160.6740 C   0  0  2  0  0  0  0  0  0  0  0  0
  130.2823  135.0724  161.3659 H   0  0  0  0  0  0  0  0  0  0  0  0
  130.3627  135.5405  159.3230 N   0  0  0  0  0  0  0  0  0  0  0  0
  130.1181  134.3206  158.7159 C   0  0  0  0  0  0  0  0  0  0  0  0
  129.4210  133.2881  159.2638 N   0  0  0  0  0  0  0  0  0  0  0  0
  129.0101  133.2745  160.1423 H   0  0  0  0  0  0  0  0  0  0  0  0
  129.4073  132.2686  158.3433 C   0  0  0  0  0  0  0  0  0  0  0  0
  130.0957  132.7069  157.2603 C   0  0  0  0  0  0  0  0  0  0  0  0
  130.3414  131.9416  156.0136 C   0  0  0  0  0  0  0  0  0  0  0  0
  129.8752  132.4255  154.7925 C   0  0  0  0  0  0  0  0  0  0  0  0
  130.1121  131.7122  153.6350 C   0  0  0  0  0  0  0  0  0  0  0  0
  130.8001  130.5128  153.6870 C   0  0  0  0  0  0  0  0  0  0  0  0
  131.0510  129.7358  152.4204 C   0  0  0  0  0  0  0  0  0  0  0  0
  129.8335  129.8165  151.4697 C   0  0  0  0  0  0  0  0  0  0  0  0
  129.7479  128.4452  150.8396 C   0  0  0  0  0  0  0  0  0  0  0  0
  130.4489  127.5738  151.5128 C   0  0  0  0  0  0  0  0  0  0  0  0
  131.1185  128.2180  152.7043 C   0  0  0  0  0  0  0  0  0  0  0  0
  131.2600  130.0254  154.8967 C   0  0  0  0  0  0  0  0  0  0  0  0
  131.0343  130.7331  156.0597 C   0  0  0  0  0  0  0  0  0  0  0  0
  130.5148  133.9716  157.5165 N   0  0  0  0  0  0  0  0  0  0  0  0
  131.0279  134.5280  156.9097 H   0  0  0  0  0  0  0  0  0  0  0  0
  128.3565  135.6852  160.6807 C   0  0  0  0  0  0  0  0  0  0  0  0
  127.7004  135.2672  161.8235 C   0  0  0  0  0  0  0  0  0  0  0  0
  126.3219  135.1656  161.8309 C   0  0  0  0  0  0  0  0  0  0  0  0
  125.5999  135.4733  160.6930 C   0  0  0  0  0  0  0  0  0  0  0  0
  126.2563  135.8861  159.5486 C   0  0  0  0  0  0  0  0  0  0  0  0
  127.6347  135.9919  159.5424 C   0  0  0  0  0  0  0  0  0  0  0  0
  130.4086  138.1863  160.1540 C   0  0  0  0  0  0  0  0  0  0  0  0
  130.7747  139.4607  160.5444 C   0  0  0  0  0  0  0  0  0  0  0  0
  131.0203  138.9548  163.8718 H   0  0  0  0  0  0  0  0  0  0  0  0
  130.3567  136.6882  163.1760 H   0  0  0  0  0  0  0  0  0  0  0  0
  130.8676  136.2231  158.8540 H   0  0  0  0  0  0  0  0  0  0  0  0
  128.9381  131.3028  158.4597 H   0  0  0  0  0  0  0  0  0  0  0  0
  129.3335  133.3589  154.7517 H   0  0  0  0  0  0  0  0  0  0  0  0
  129.7554  132.0885  152.6875 H   0  0  0  0  0  0  0  0  0  0  0  0
  131.9577  130.0826  151.9242 H   0  0  0  0  0  0  0  0  0  0  0  0
  128.9257  130.0329  152.0329 H   0  0  0  0  0  0  0  0  0  0  0  0
  129.9975  130.5765  150.7057 H   0  0  0  0  0  0  0  0  0  0  0  0
  129.1814  128.2166  149.9491 H   0  0  0  0  0  0  0  0  0  0  0  0
  130.5390  126.5296  151.2521 H   0  0  0  0  0  0  0  0  0  0  0  0
  132.1559  127.8916  152.7792 H   0  0  0  0  0  0  0  0  0  0  0  0
  130.5789  127.9788  153.6206 H   0  0  0  0  0  0  0  0  0  0  0  0
  131.7969  129.0889  154.9313 H   0  0  0  0  0  0  0  0  0  0  0  0
  131.3942  130.3516  157.0038 H   0  0  0  0  0  0  0  0  0  0  0  0
  128.2647  135.0232  162.7114 H   0  0  0  0  0  0  0  0  0  0  0  0
  125.8090  134.8432  162.7252 H   0  0  0  0  0  0  0  0  0  0  0  0
  124.5231  135.3913  160.6980 H   0  0  0  0  0  0  0  0  0  0  0  0
  125.6922  136.1265  158.6595 H   0  0  0  0  0  0  0  0  0  0  0  0
  128.1474  136.3145  158.6484 H   0  0  0  0  0  0  0  0  0  0  0  0
  130.2395  137.9693  159.1096 H   0  0  0  0  0  0  0  0  0  0  0  0
  130.8914  140.2395  159.8053 H   0  0  0  0  0  0  0  0  0  0  0  0
  1  2  1  0
  2 34  2  0
  2  3  1  0
  3  4  2  0
  3 35  1  0
  4  5  1  0
  4 36  1  0
  5  6  1  0
  5 33  2  0
  6  7  1  1
  6  8  1  0
  6 27  1  0
  8 37  1  0
  9  8  1  0
  9 25  2  0
  9 10  1  0
 10 11  1  0
 10 12  1  0
 12 13  2  0
 12 38  1  0
 13 14  1  0
 13 25  1  0
 14 24  1  0
 14 15  2  0
 15 16  1  0
 15 39  1  0
 16 17  2  0
 16 40  1  0
 17 18  1  0
 17 23  1  0
 18 22  1  0
 18 19  1  0
 18 41  1  0
 19 20  1  0
 19 42  1  0
 19 43  1  0
 20 21  2  0
 20 44  1  0
 21 22  1  0
 21 45  1  0
 22 46  1  0
 22 47  1  0
 23 24  2  0
 23 48  1  0
 24 49  1  0
 25 26  1  0
 27 32  1  0
 27 28  2  0
 28 29  1  0
 28 50  1  0
 29 30  2  0
 29 51  1  0
 30 31  1  0
 30 52  1  0
 31 32  2  0
 31 53  1  0
 32 54  1  0
 33 34  1  0
 33 55  1  0
 34 56  1  0
M  CHG  1  25   1
M  END
>  <DOCK_score>  (1) 
-65.430695

>  <SMILES>  (1) 
Brc1ccc([C@H](Nc2[nH]cc(-c3ccc(C4CC=CC4)cc3)[nH+]2)c2ccccc2)cc1

$$$$
