Cc1cccc(N2CC[NH+](C(c3ccccc3)c3ccccc3)CC2)c1CSC1[C@H](C)[C@H]1C
     RDKit          3D

 70 74  0  0  1  0  0  0  0  0999 V2000
  135.5880  138.9748  164.1595 C   0  0  0  0  0  0  0  0  0  0  0  0
  135.0788  138.7034  162.7675 C   0  0  0  0  0  0  0  0  0  0  0  0
  135.5836  139.4171  161.6958 C   0  0  0  0  0  0  0  0  0  0  0  0
  135.1193  139.1712  160.4169 C   0  0  0  0  0  0  0  0  0  0  0  0
  134.1489  138.2112  160.2056 C   0  0  0  0  0  0  0  0  0  0  0  0
  133.6397  137.4927  161.2795 C   0  0  0  0  0  0  0  0  0  0  0  0
  132.6586  136.5209  161.0693 N   0  0  0  0  0  0  0  0  0  0  0  0
  133.1743  135.4227  160.2399 C   0  0  0  0  0  0  0  0  0  0  0  0
  132.0907  134.3535  160.0832 C   0  0  0  0  0  0  0  0  0  0  0  0
  130.9032  134.9480  159.4557 N   0  0  0  0  0  0  0  0  0  0  0  0
  131.1525  135.3231  158.5528 H   0  0  0  0  0  0  0  0  0  0  0  0
  129.8698  133.9172  159.2890 C   0  0  0  0  0  0  0  0  0  0  0  0
  128.6513  134.5268  158.6452 C   0  0  0  0  0  0  0  0  0  0  0  0
  127.3964  134.0153  158.9183 C   0  0  0  0  0  0  0  0  0  0  0  0
  126.2781  134.5775  158.3316 C   0  0  0  0  0  0  0  0  0  0  0  0
  126.4158  135.6446  157.4636 C   0  0  0  0  0  0  0  0  0  0  0  0
  127.6711  136.1527  157.1864 C   0  0  0  0  0  0  0  0  0  0  0  0
  128.7889  135.5938  157.7773 C   0  0  0  0  0  0  0  0  0  0  0  0
  130.4003  132.8112  158.4137 C   0  0  0  0  0  0  0  0  0  0  0  0
  130.2267  132.8706  157.0435 C   0  0  0  0  0  0  0  0  0  0  0  0
  130.7174  131.8583  156.2402 C   0  0  0  0  0  0  0  0  0  0  0  0
  131.3726  130.7816  156.8077 C   0  0  0  0  0  0  0  0  0  0  0  0
  131.5415  130.7195  158.1783 C   0  0  0  0  0  0  0  0  0  0  0  0
  131.0554  131.7343  158.9812 C   0  0  0  0  0  0  0  0  0  0  0  0
  130.3853  136.0267  160.3076 C   0  0  0  0  0  0  0  0  0  0  0  0
  131.4545  137.1098  160.4660 C   0  0  0  0  0  0  0  0  0  0  0  0
  134.1085  137.7422  162.5632 C   0  0  0  0  0  0  0  0  0  0  0  0
  133.5593  136.9648  163.7314 C   0  0  0  0  0  0  0  0  0  0  0  0
  132.1221  137.8352  164.4153 S   0  0  0  0  0  0  0  0  0  0  0  0
  132.6257  139.5763  164.3397 C   0  0  0  0  0  0  0  0  0  0  0  0
  132.8838  140.2952  165.6654 C   0  0  2  0  0  0  0  0  0  0  0  0
  133.6789  141.0405  165.6871 H   0  0  0  0  0  0  0  0  0  0  0  0
  132.6977  139.4905  166.9533 C   0  0  0  0  0  0  0  0  0  0  0  0
  131.6313  140.6220  164.8484 C   0  0  1  0  0  0  0  0  0  0  0  0
  130.6745  140.2636  165.2281 H   0  0  0  0  0  0  0  0  0  0  0  0
  131.5915  141.9696  164.1250 C   0  0  0  0  0  0  0  0  0  0  0  0
  136.4419  138.3295  164.3664 H   0  0  0  0  0  0  0  0  0  0  0  0
  135.8937  140.0181  164.2377 H   0  0  0  0  0  0  0  0  0  0  0  0
  134.7968  138.7729  164.8816 H   0  0  0  0  0  0  0  0  0  0  0  0
  136.3428  140.1681  161.8582 H   0  0  0  0  0  0  0  0  0  0  0  0
  135.5190  139.7272  159.5818 H   0  0  0  0  0  0  0  0  0  0  0  0
  133.7863  138.0200  159.2065 H   0  0  0  0  0  0  0  0  0  0  0  0
  133.4504  135.8072  159.2580 H   0  0  0  0  0  0  0  0  0  0  0  0
  134.0501  134.9854  160.7191 H   0  0  0  0  0  0  0  0  0  0  0  0
  131.8246  133.9596  161.0641 H   0  0  0  0  0  0  0  0  0  0  0  0
  132.4664  133.5447  159.4565 H   0  0  0  0  0  0  0  0  0  0  0  0
  129.6009  133.5114  160.2643 H   0  0  0  0  0  0  0  0  0  0  0  0
  127.2893  133.1788  159.5931 H   0  0  0  0  0  0  0  0  0  0  0  0
  125.2974  134.1803  158.5478 H   0  0  0  0  0  0  0  0  0  0  0  0
  125.5425  136.0810  157.0016 H   0  0  0  0  0  0  0  0  0  0  0  0
  127.7787  136.9861  156.5080 H   0  0  0  0  0  0  0  0  0  0  0  0
  129.7697  135.9906  157.5604 H   0  0  0  0  0  0  0  0  0  0  0  0
  129.7110  133.7097  156.6005 H   0  0  0  0  0  0  0  0  0  0  0  0
  130.5851  131.9066  155.1694 H   0  0  0  0  0  0  0  0  0  0  0  0
  131.7521  129.9885  156.1804 H   0  0  0  0  0  0  0  0  0  0  0  0
  132.0531  129.8781  158.6218 H   0  0  0  0  0  0  0  0  0  0  0  0
  131.1871  131.6857  160.0521 H   0  0  0  0  0  0  0  0  0  0  0  0
  130.1278  135.6243  161.2872 H   0  0  0  0  0  0  0  0  0  0  0  0
  129.4965  136.4583  159.8472 H   0  0  0  0  0  0  0  0  0  0  0  0
  131.0760  137.9032  161.1102 H   0  0  0  0  0  0  0  0  0  0  0  0
  131.7024  137.5221  159.4879 H   0  0  0  0  0  0  0  0  0  0  0  0
  133.2576  135.9719  163.3975 H   0  0  0  0  0  0  0  0  0  0  0  0
  134.3272  136.8719  164.4995 H   0  0  0  0  0  0  0  0  0  0  0  0
  133.2511  139.8483  163.4895 H   0  0  0  0  0  0  0  0  0  0  0  0
  133.6667  139.3338  167.4269 H   0  0  0  0  0  0  0  0  0  0  0  0
  132.0455  140.0389  167.6331 H   0  0  0  0  0  0  0  0  0  0  0  0
  132.2482  138.5260  166.7173 H   0  0  0  0  0  0  0  0  0  0  0  0
  130.6480  142.0656  163.5876 H   0  0  0  0  0  0  0  0  0  0  0  0
  131.6784  142.7757  164.8535 H   0  0  0  0  0  0  0  0  0  0  0  0
  132.4194  142.0274  163.4186 H   0  0  0  0  0  0  0  0  0  0  0  0
  1  2  1  0
  1 37  1  0
  1 38  1  0
  1 39  1  0
  2 27  2  0
  2  3  1  0
  3  4  2  0
  3 40  1  0
  4  5  1  0
  4 41  1  0
  5  6  2  0
  5 42  1  0
  6  7  1  0
  6 27  1  0
  7 26  1  0
  7  8  1  0
  8  9  1  0
  8 43  1  0
  8 44  1  0
  9 10  1  0
  9 45  1  0
  9 46  1  0
 10 11  1  0
 10 12  1  0
 10 25  1  0
 12 13  1  0
 12 19  1  0
 12 47  1  0
 13 18  1  0
 13 14  2  0
 14 15  1  0
 14 48  1  0
 15 16  2  0
 15 49  1  0
 16 17  1  0
 16 50  1  0
 17 18  2  0
 17 51  1  0
 18 52  1  0
 19 24  1  0
 19 20  2  0
 20 21  1  0
 20 53  1  0
 21 22  2  0
 21 54  1  0
 22 23  1  0
 22 55  1  0
 23 24  2  0
 23 56  1  0
 24 57  1  0
 25 26  1  0
 25 58  1  0
 25 59  1  0
 26 60  1  0
 26 61  1  0
 27 28  1  0
 28 29  1  0
 28 62  1  0
 28 63  1  0
 29 30  1  0
 30 34  1  0
 30 31  1  0
 30 64  1  0
 31 32  1  6
 31 33  1  0
 31 34  1  0
 33 65  1  0
 33 66  1  0
 33 67  1  0
 34 35  1  1
 34 36  1  0
 36 68  1  0
 36 69  1  0
 36 70  1  0
M  CHG  1  10   1
M  END
>  <DOCK_score>  (1) 
-56.211178

>  <SMILES>  (1) 
Cc1cccc(N2CC[NH+](C(c3ccccc3)c3ccccc3)CC2)c1CSC1[C@H](C)[C@H]1C

$$$$
