Nc1ccc(-c2c[nH]c(NC(Cc3cccc4c3CCC4)[C@H]3CCCC(n4cccn4)C3=O)[nH+]2)cc1
     RDKit          3D

 69 74  0  0  1  0  0  0  0  0999 V2000
  131.3550  129.6050  152.4918 N   0  0  0  0  0  0  0  0  0  0  0  0
  131.1342  130.3694  153.6400 C   0  0  0  0  0  0  0  0  0  0  0  0
  130.5698  131.6351  153.5331 C   0  0  0  0  0  0  0  0  0  0  0  0
  130.3506  132.3913  154.6651 C   0  0  0  0  0  0  0  0  0  0  0  0
  130.6957  131.8855  155.9175 C   0  0  0  0  0  0  0  0  0  0  0  0
  130.4607  132.6971  157.1368 C   0  0  0  0  0  0  0  0  0  0  0  0
  130.1930  132.2162  158.3760 C   0  0  0  0  0  0  0  0  0  0  0  0
  130.0515  133.3046  159.2041 N   0  0  0  0  0  0  0  0  0  0  0  0
  129.8589  133.2823  160.1545 H   0  0  0  0  0  0  0  0  0  0  0  0
  130.2281  134.4188  158.4432 C   0  0  0  0  0  0  0  0  0  0  0  0
  130.1628  135.7246  158.8982 N   0  0  0  0  0  0  0  0  0  0  0  0
  129.8828  135.9950  160.3106 C   0  0  2  0  0  0  0  0  0  0  0  0
  128.6013  136.8228  160.4271 C   0  0  0  0  0  0  0  0  0  0  0  0
  127.4044  135.9168  160.2957 C   0  0  0  0  0  0  0  0  0  0  0  0
  126.8628  135.6681  159.0493 C   0  0  0  0  0  0  0  0  0  0  0  0
  125.7651  134.8370  158.9277 C   0  0  0  0  0  0  0  0  0  0  0  0
  125.2118  134.2567  160.0526 C   0  0  0  0  0  0  0  0  0  0  0  0
  125.7528  134.5051  161.3026 C   0  0  0  0  0  0  0  0  0  0  0  0
  126.8545  135.3318  161.4237 C   0  0  0  0  0  0  0  0  0  0  0  0
  127.2500  135.4469  162.8802 C   0  0  0  0  0  0  0  0  0  0  0  0
  126.0228  134.9512  163.6742 C   0  0  0  0  0  0  0  0  0  0  0  0
  125.3393  134.0006  162.6684 C   0  0  0  0  0  0  0  0  0  0  0  0
  131.0498  136.7728  160.9221 C   0  0  1  0  0  0  0  0  0  0  0  0
  130.8442  136.9754  161.9731 H   0  0  0  0  0  0  0  0  0  0  0  0
  132.3371  135.9507  160.7987 C   0  0  0  0  0  0  0  0  0  0  0  0
  133.5221  136.7859  161.2863 C   0  0  0  0  0  0  0  0  0  0  0  0
  133.7022  138.0073  160.3833 C   0  0  0  0  0  0  0  0  0  0  0  0
  132.4664  138.9068  160.4910 C   0  0  2  0  0  0  0  0  0  0  0  0
  132.3662  139.4445  161.8500 N   0  0  0  0  0  0  0  0  0  0  0  0
  133.2862  140.2132  162.4696 C   0  0  0  0  0  0  0  0  0  0  0  0
  132.8205  140.4965  163.7081 C   0  0  0  0  0  0  0  0  0  0  0  0
  131.5692  139.8873  163.8470 C   0  0  0  0  0  0  0  0  0  0  0  0
  131.2957  139.2564  162.7338 N   0  0  0  0  0  0  0  0  0  0  0  0
  131.2397  138.0777  160.1809 C   0  0  0  0  0  0  0  0  0  0  0  0
  130.4325  138.4482  159.3627 O   0  0  0  0  0  0  0  0  0  0  0  0
  130.4759  134.0517  157.2095 N   0  0  0  0  0  0  0  0  0  0  0  0
  130.6434  134.6527  156.4668 H   0  0  0  0  0  0  0  0  0  0  0  0
  131.2673  130.6184  156.0218 C   0  0  0  0  0  0  0  0  0  0  0  0
  131.4787  129.8631  154.8877 C   0  0  0  0  0  0  0  0  0  0  0  0
  131.1145  129.9576  151.6208 H   0  0  0  0  0  0  0  0  0  0  0  0
  131.7489  128.7216  152.5657 H   0  0  0  0  0  0  0  0  0  0  0  0
  130.3026  132.0263  152.5627 H   0  0  0  0  0  0  0  0  0  0  0  0
  129.9113  133.3743  154.5815 H   0  0  0  0  0  0  0  0  0  0  0  0
  130.1111  131.1772  158.6592 H   0  0  0  0  0  0  0  0  0  0  0  0
  130.3023  136.4606  158.2820 H   0  0  0  0  0  0  0  0  0  0  0  0
  129.7560  135.0522  160.8428 H   0  0  0  0  0  0  0  0  0  0  0  0
  128.5766  137.3192  161.3972 H   0  0  0  0  0  0  0  0  0  0  0  0
  128.5793  137.5714  159.6353 H   0  0  0  0  0  0  0  0  0  0  0  0
  127.2965  136.1229  158.1710 H   0  0  0  0  0  0  0  0  0  0  0  0
  125.3409  134.6412  157.9540 H   0  0  0  0  0  0  0  0  0  0  0  0
  124.3541  133.6074  159.9566 H   0  0  0  0  0  0  0  0  0  0  0  0
  127.4711  136.4837  163.1341 H   0  0  0  0  0  0  0  0  0  0  0  0
  128.1141  134.8153  163.0861 H   0  0  0  0  0  0  0  0  0  0  0  0
  125.3654  135.7822  163.9301 H   0  0  0  0  0  0  0  0  0  0  0  0
  126.3326  134.4110  164.5688 H   0  0  0  0  0  0  0  0  0  0  0  0
  124.2559  134.0499  162.7776 H   0  0  0  0  0  0  0  0  0  0  0  0
  125.6890  132.9789  162.8161 H   0  0  0  0  0  0  0  0  0  0  0  0
  132.4926  135.6730  159.7562 H   0  0  0  0  0  0  0  0  0  0  0  0
  132.2529  135.0497  161.4063 H   0  0  0  0  0  0  0  0  0  0  0  0
  134.4276  136.1797  161.2607 H   0  0  0  0  0  0  0  0  0  0  0  0
  133.3369  137.1155  162.3088 H   0  0  0  0  0  0  0  0  0  0  0  0
  133.8255  137.6809  159.3507 H   0  0  0  0  0  0  0  0  0  0  0  0
  134.5855  138.5641  160.6964 H   0  0  0  0  0  0  0  0  0  0  0  0
  132.5473  139.7271  159.7777 H   0  0  0  0  0  0  0  0  0  0  0  0
  134.2268  140.5413  162.0526 H   0  0  0  0  0  0  0  0  0  0  0  0
  133.3240  141.0915  164.4556 H   0  0  0  0  0  0  0  0  0  0  0  0
  130.9377  139.9298  164.7222 H   0  0  0  0  0  0  0  0  0  0  0  0
  131.5399  130.2265  156.9906 H   0  0  0  0  0  0  0  0  0  0  0  0
  131.9168  128.8792  154.9685 H   0  0  0  0  0  0  0  0  0  0  0  0
  1  2  1  0
  1 40  1  0
  1 41  1  0
  2 39  2  0
  2  3  1  0
  3  4  2  0
  3 42  1  0
  4  5  1  0
  4 43  1  0
  5  6  1  0
  5 38  2  0
  6 36  1  0
  6  7  2  0
  7  8  1  0
  7 44  1  0
  8  9  1  0
  8 10  1  0
 10 11  1  0
 10 36  2  0
 11 12  1  0
 11 45  1  0
 12 13  1  0
 12 23  1  0
 12 46  1  1
 13 14  1  0
 13 47  1  0
 13 48  1  0
 14 19  1  0
 14 15  2  0
 15 16  1  0
 15 49  1  0
 16 17  2  0
 16 50  1  0
 17 18  1  0
 17 51  1  0
 18 22  1  0
 18 19  2  0
 19 20  1  0
 20 21  1  0
 20 52  1  0
 20 53  1  0
 21 22  1  0
 21 54  1  0
 21 55  1  0
 22 56  1  0
 22 57  1  0
 23 24  1  1
 23 34  1  0
 23 25  1  0
 25 26  1  0
 25 58  1  0
 25 59  1  0
 26 27  1  0
 26 60  1  0
 26 61  1  0
 27 28  1  0
 27 62  1  0
 27 63  1  0
 28 29  1  0
 28 34  1  0
 28 64  1  6
 29 33  1  0
 29 30  1  0
 30 31  2  0
 30 65  1  0
 31 32  1  0
 31 66  1  0
 32 33  2  0
 32 67  1  0
 34 35  2  0
 36 37  1  0
 38 39  1  0
 38 68  1  0
 39 69  1  0
M  CHG  1  36   1
M  END
>  <DOCK_score>  (1) 
-58.350643

>  <SMILES>  (1) 
Nc1ccc(-c2c[nH]c(NC(Cc3cccc4c3CCC4)[C@H]3CCCC(n4cccn4)C3=O)[nH+]2)cc1

$$$$
