CC/C=C\COc1cccc([C@@H]([NH3+])C(=O)Nc2cccc(O)c2)c1
     RDKit          3D

 47 48  0  0  1  0  0  0  0  0999 V2000
  137.6003  135.7064  165.8483 C   0  0  0  0  0  0  0  0  0  0  0  0
  136.5250  135.5338  164.7736 C   0  0  0  0  0  0  0  0  0  0  0  0
  136.4120  136.8022  163.9677 C   0  0  0  0  0  0  0  0  0  0  0  0
  135.5472  136.8801  162.9868 C   0  0  0  0  0  0  0  0  0  0  0  0
  134.5548  135.7676  162.7671 C   0  0  0  0  0  0  0  0  0  0  0  0
  133.7264  136.0827  161.6461 O   0  0  0  0  0  0  0  0  0  0  0  0
  132.7711  135.1761  161.3107 C   0  0  0  0  0  0  0  0  0  0  0  0
  132.6337  134.0073  162.0456 C   0  0  0  0  0  0  0  0  0  0  0  0
  131.6617  133.0877  161.7030 C   0  0  0  0  0  0  0  0  0  0  0  0
  130.8226  133.3335  160.6317 C   0  0  0  0  0  0  0  0  0  0  0  0
  130.9610  134.4949  159.8946 C   0  0  0  0  0  0  0  0  0  0  0  0
  130.0482  134.7572  158.7245 C   0  0  1  0  0  0  0  0  0  0  0  0
  129.9099  135.8318  158.6052 H   0  0  0  0  0  0  0  0  0  0  0  0
  130.6461  134.2019  157.5029 N   0  0  0  0  0  0  0  0  0  0  0  0
  131.5399  134.6398  157.3371 H   0  0  0  0  0  0  0  0  0  0  0  0
  130.7741  133.2073  157.6133 H   0  0  0  0  0  0  0  0  0  0  0  0
  130.0350  134.3775  156.7195 H   0  0  0  0  0  0  0  0  0  0  0  0
  128.7133  134.1033  158.9724 C   0  0  0  0  0  0  0  0  0  0  0  0
  128.3006  133.2580  158.2068 O   0  0  0  0  0  0  0  0  0  0  0  0
  127.9754  134.4620  160.0417 N   0  0  0  0  0  0  0  0  0  0  0  0
  126.7334  133.8591  160.2686 C   0  0  0  0  0  0  0  0  0  0  0  0
  126.5059  132.5548  159.8474 C   0  0  0  0  0  0  0  0  0  0  0  0
  125.2817  131.9577  160.0765 C   0  0  0  0  0  0  0  0  0  0  0  0
  124.2763  132.6594  160.7147 C   0  0  0  0  0  0  0  0  0  0  0  0
  124.4959  133.9643  161.1324 C   0  0  0  0  0  0  0  0  0  0  0  0
  123.5063  134.6531  161.7595 O   0  0  0  0  0  0  0  0  0  0  0  0
  125.7252  134.5650  160.9094 C   0  0  0  0  0  0  0  0  0  0  0  0
  131.9317  135.4179  160.2333 C   0  0  0  0  0  0  0  0  0  0  0  0
  137.3275  136.5318  166.5059 H   0  0  0  0  0  0  0  0  0  0  0  0
  137.6821  134.7891  166.4312 H   0  0  0  0  0  0  0  0  0  0  0  0
  138.5575  135.9215  165.3730 H   0  0  0  0  0  0  0  0  0  0  0  0
  135.5679  135.3188  165.2488 H   0  0  0  0  0  0  0  0  0  0  0  0
  136.7977  134.7086  164.1160 H   0  0  0  0  0  0  0  0  0  0  0  0
  137.0440  137.6470  164.1988 H   0  0  0  0  0  0  0  0  0  0  0  0
  135.5457  137.7416  162.3355 H   0  0  0  0  0  0  0  0  0  0  0  0
  133.9348  135.6528  163.6562 H   0  0  0  0  0  0  0  0  0  0  0  0
  135.0889  134.8372  162.5741 H   0  0  0  0  0  0  0  0  0  0  0  0
  133.2858  133.8169  162.8852 H   0  0  0  0  0  0  0  0  0  0  0  0
  131.5541  132.1780  162.2750 H   0  0  0  0  0  0  0  0  0  0  0  0
  130.0602  132.6154  160.3680 H   0  0  0  0  0  0  0  0  0  0  0  0
  128.3054  135.1381  160.6541 H   0  0  0  0  0  0  0  0  0  0  0  0
  127.2884  132.0060  159.3444 H   0  0  0  0  0  0  0  0  0  0  0  0
  125.1080  130.9424  159.7520 H   0  0  0  0  0  0  0  0  0  0  0  0
  123.3187  132.1913  160.8888 H   0  0  0  0  0  0  0  0  0  0  0  0
  123.7532  135.5532  162.0126 H   0  0  0  0  0  0  0  0  0  0  0  0
  125.8981  135.5804  161.2342 H   0  0  0  0  0  0  0  0  0  0  0  0
  132.0369  136.3268  159.6595 H   0  0  0  0  0  0  0  0  0  0  0  0
  1  2  1  0
  1 29  1  0
  1 30  1  0
  1 31  1  0
  2  3  1  0
  2 32  1  0
  2 33  1  0
  3  4  2  0
  3 34  1  0
  4  5  1  0
  4 35  1  0
  5  6  1  0
  5 36  1  0
  5 37  1  0
  6  7  1  0
  7 28  2  0
  7  8  1  0
  8  9  2  0
  8 38  1  0
  9 10  1  0
  9 39  1  0
 10 11  2  0
 10 40  1  0
 11 12  1  0
 11 28  1  0
 12 13  1  6
 12 14  1  0
 12 18  1  0
 14 15  1  0
 14 16  1  0
 14 17  1  0
 18 19  2  0
 18 20  1  0
 20 21  1  0
 20 41  1  0
 21 27  1  0
 21 22  2  0
 22 23  1  0
 22 42  1  0
 23 24  2  0
 23 43  1  0
 24 25  1  0
 24 44  1  0
 25 26  1  0
 25 27  2  0
 26 45  1  0
 27 46  1  0
 28 47  1  0
M  CHG  1  14   1
M  END
>  <DOCK_score>  (1) 
-44.454105

>  <SMILES>  (1) 
CC/C=C\COc1cccc([C@@H]([NH3+])C(=O)Nc2cccc(O)c2)c1

$$$$
