CC(C)n1cc([C@H]2[NH2+]CCc3c2[nH]c2ccc(O)cc32)c(I)n1
     RDKit          3D

 43 46  0  0  1  0  0  0  0  0999 V2000
  131.1230  133.0066  153.1799 C   0  0  0  0  0  0  0  0  0  0  0  0
  130.0953  132.0150  153.7287 C   0  0  0  0  0  0  0  0  0  0  0  0
  130.2871  130.6555  153.0531 C   0  0  0  0  0  0  0  0  0  0  0  0
  130.2790  131.8716  155.1752 N   0  0  0  0  0  0  0  0  0  0  0  0
  130.1852  132.8600  156.0890 C   0  0  0  0  0  0  0  0  0  0  0  0
  130.4219  132.3199  157.3068 C   0  0  0  0  0  0  0  0  0  0  0  0
  130.4197  133.0589  158.6202 C   0  0  1  0  0  0  0  0  0  0  0  0
  131.1129  132.5818  159.3130 H   0  0  0  0  0  0  0  0  0  0  0  0
  130.8237  134.4565  158.4018 N   0  0  0  0  0  0  0  0  0  0  0  0
  130.2525  134.8594  157.6741 H   0  0  0  0  0  0  0  0  0  0  0  0
  131.7920  134.4818  158.1189 H   0  0  0  0  0  0  0  0  0  0  0  0
  130.6574  135.2336  159.6371 C   0  0  0  0  0  0  0  0  0  0  0  0
  129.1620  135.4636  159.9006 C   0  0  0  0  0  0  0  0  0  0  0  0
  128.4653  134.1324  159.7788 C   0  0  0  0  0  0  0  0  0  0  0  0
  129.0273  133.0471  159.2068 C   0  0  0  0  0  0  0  0  0  0  0  0
  128.1518  132.0026  159.2527 N   0  0  0  0  0  0  0  0  0  0  0  0
  128.3260  131.1141  158.9048 H   0  0  0  0  0  0  0  0  0  0  0  0
  126.9802  132.3981  159.8675 C   0  0  0  0  0  0  0  0  0  0  0  0
  125.7923  131.7393  160.1651 C   0  0  0  0  0  0  0  0  0  0  0  0
  124.7703  132.4115  160.7966 C   0  0  0  0  0  0  0  0  0  0  0  0
  124.9164  133.7501  161.1523 C   0  0  0  0  0  0  0  0  0  0  0  0
  123.8993  134.3987  161.7800 O   0  0  0  0  0  0  0  0  0  0  0  0
  126.0872  134.4223  160.8665 C   0  0  0  0  0  0  0  0  0  0  0  0
  127.1308  133.7531  160.2217 C   0  0  0  0  0  0  0  0  0  0  0  0
  130.6750  130.9552  157.1305 C   0  0  0  0  0  0  0  0  0  0  0  0
  131.1174  129.5814  158.6490 I   0  0  0  0  0  0  0  0  0  0  0  0
  130.5834  130.6845  155.8534 N   0  0  0  0  0  0  0  0  0  0  0  0
  132.1285  132.6383  153.3838 H   0  0  0  0  0  0  0  0  0  0  0  0
  130.9864  133.1132  152.1038 H   0  0  0  0  0  0  0  0  0  0  0  0
  130.9864  133.9751  153.6612 H   0  0  0  0  0  0  0  0  0  0  0  0
  129.0900  132.3834  153.5248 H   0  0  0  0  0  0  0  0  0  0  0  0
  131.2925  130.2871  153.2571 H   0  0  0  0  0  0  0  0  0  0  0  0
  129.5549  129.9491  153.4442 H   0  0  0  0  0  0  0  0  0  0  0  0
  130.1505  130.7622  151.9771 H   0  0  0  0  0  0  0  0  0  0  0  0
  129.9615  133.8968  155.8849 H   0  0  0  0  0  0  0  0  0  0  0  0
  131.1597  136.1951  159.5318 H   0  0  0  0  0  0  0  0  0  0  0  0
  131.0932  134.6855  160.4725 H   0  0  0  0  0  0  0  0  0  0  0  0
  128.7599  136.1598  159.1646 H   0  0  0  0  0  0  0  0  0  0  0  0
  129.0201  135.8645  160.9043 H   0  0  0  0  0  0  0  0  0  0  0  0
  125.6697  130.7005  159.8963 H   0  0  0  0  0  0  0  0  0  0  0  0
  123.8486  131.8953  161.0214 H   0  0  0  0  0  0  0  0  0  0  0  0
  124.0913  135.3234  161.9876 H   0  0  0  0  0  0  0  0  0  0  0  0
  126.1965  135.4612  161.1403 H   0  0  0  0  0  0  0  0  0  0  0  0
  1  2  1  0
  1 28  1  0
  1 29  1  0
  1 30  1  0
  2  3  1  0
  2  4  1  0
  2 31  1  0
  3 32  1  0
  3 33  1  0
  3 34  1  0
  4 27  1  0
  4  5  1  0
  5  6  2  0
  5 35  1  0
  6  7  1  0
  6 25  1  0
  7  8  1  1
  7 15  1  0
  7  9  1  0
  9 10  1  0
  9 11  1  0
  9 12  1  0
 12 13  1  0
 12 36  1  0
 12 37  1  0
 13 14  1  0
 13 38  1  0
 13 39  1  0
 14 24  1  0
 14 15  2  0
 15 16  1  0
 16 17  1  0
 16 18  1  0
 18 24  2  0
 18 19  1  0
 19 20  2  0
 19 40  1  0
 20 21  1  0
 20 41  1  0
 21 22  1  0
 21 23  2  0
 22 42  1  0
 23 24  1  0
 23 43  1  0
 25 26  1  0
 25 27  2  0
M  CHG  1   9   1
M  END
>  <DOCK_score>  (1) 
-47.710091

>  <SMILES>  (1) 
CC(C)n1cc([C@H]2[NH2+]CCc3c2[nH]c2ccc(O)cc32)c(I)n1

$$$$
