CCc1ccc(-c2c[nH]c(Nc3ccc(NC4CC4)cc3)[nH+]2)cc1
     RDKit          3D

 47 50  0  0  1  0  0  0  0  0999 V2000
  130.2686  128.0937  151.7386 C   0  0  0  0  0  0  0  0  0  0  0  0
  131.2619  129.2537  151.8247 C   0  0  0  0  0  0  0  0  0  0  0  0
  130.9829  130.0638  153.0645 C   0  0  0  0  0  0  0  0  0  0  0  0
  131.6111  129.7410  154.2539 C   0  0  0  0  0  0  0  0  0  0  0  0
  131.3597  130.4791  155.3926 C   0  0  0  0  0  0  0  0  0  0  0  0
  130.4709  131.5515  155.3425 C   0  0  0  0  0  0  0  0  0  0  0  0
  130.1965  132.3486  156.5630 C   0  0  0  0  0  0  0  0  0  0  0  0
  129.6774  131.8774  157.7241 C   0  0  0  0  0  0  0  0  0  0  0  0
  129.5946  132.9438  158.5856 N   0  0  0  0  0  0  0  0  0  0  0  0
  129.2647  132.9214  159.4975 H   0  0  0  0  0  0  0  0  0  0  0  0
  130.0582  134.0384  157.9224 C   0  0  0  0  0  0  0  0  0  0  0  0
  130.1397  135.3206  158.4399 N   0  0  0  0  0  0  0  0  0  0  0  0
  129.2245  135.7427  159.4125 C   0  0  0  0  0  0  0  0  0  0  0  0
  129.6756  136.1418  160.6638 C   0  0  0  0  0  0  0  0  0  0  0  0
  128.7737  136.5634  161.6206 C   0  0  0  0  0  0  0  0  0  0  0  0
  127.4147  136.5771  161.3356 C   0  0  0  0  0  0  0  0  0  0  0  0
  126.5000  136.9993  162.3071 N   0  0  0  0  0  0  0  0  0  0  0  0
  126.9765  137.4268  163.6249 C   0  0  0  0  0  0  0  0  0  0  0  0
  126.4916  138.7810  164.1465 C   0  0  0  0  0  0  0  0  0  0  0  0
  127.9390  138.6148  163.6771 C   0  0  0  0  0  0  0  0  0  0  0  0
  126.9631  136.1727  160.0861 C   0  0  0  0  0  0  0  0  0  0  0  0
  127.8655  135.7565  159.1273 C   0  0  0  0  0  0  0  0  0  0  0  0
  130.4199  133.6778  156.7152 N   0  0  0  0  0  0  0  0  0  0  0  0
  130.7886  134.2673  156.0388 H   0  0  0  0  0  0  0  0  0  0  0  0
  129.8364  131.8686  154.1427 C   0  0  0  0  0  0  0  0  0  0  0  0
  130.0998  131.1270  153.0090 C   0  0  0  0  0  0  0  0  0  0  0  0
  130.4704  127.5084  150.8416 H   0  0  0  0  0  0  0  0  0  0  0  0
  130.3745  127.4590  152.6183 H   0  0  0  0  0  0  0  0  0  0  0  0
  129.2529  128.4873  151.6947 H   0  0  0  0  0  0  0  0  0  0  0  0
  131.1560  129.8890  150.9447 H   0  0  0  0  0  0  0  0  0  0  0  0
  132.2774  128.8607  151.8682 H   0  0  0  0  0  0  0  0  0  0  0  0
  132.2994  128.9096  154.2915 H   0  0  0  0  0  0  0  0  0  0  0  0
  131.8510  130.2265  156.3206 H   0  0  0  0  0  0  0  0  0  0  0  0
  129.3887  130.8578  157.9327 H   0  0  0  0  0  0  0  0  0  0  0  0
  130.8331  135.9248  158.1317 H   0  0  0  0  0  0  0  0  0  0  0  0
  130.7322  136.1265  160.8870 H   0  0  0  0  0  0  0  0  0  0  0  0
  129.1249  136.8779  162.5922 H   0  0  0  0  0  0  0  0  0  0  0  0
  125.5508  137.0089  162.1080 H   0  0  0  0  0  0  0  0  0  0  0  0
  127.1213  136.6293  164.3538 H   0  0  0  0  0  0  0  0  0  0  0  0
  125.8181  139.3539  163.5091 H   0  0  0  0  0  0  0  0  0  0  0  0
  126.3177  138.8745  165.2185 H   0  0  0  0  0  0  0  0  0  0  0  0
  128.7169  138.5993  164.4404 H   0  0  0  0  0  0  0  0  0  0  0  0
  128.2181  139.0783  162.7308 H   0  0  0  0  0  0  0  0  0  0  0  0
  125.9062  136.1837  159.8643 H   0  0  0  0  0  0  0  0  0  0  0  0
  127.5143  135.4423  158.1555 H   0  0  0  0  0  0  0  0  0  0  0  0
  129.1432  132.6958  154.0994 H   0  0  0  0  0  0  0  0  0  0  0  0
  129.6121  131.3745  152.0777 H   0  0  0  0  0  0  0  0  0  0  0  0
  1  2  1  0
  1 27  1  0
  1 28  1  0
  1 29  1  0
  2  3  1  0
  2 30  1  0
  2 31  1  0
  3 26  2  0
  3  4  1  0
  4  5  2  0
  4 32  1  0
  5  6  1  0
  5 33  1  0
  6  7  1  0
  6 25  2  0
  7 23  1  0
  7  8  2  0
  8  9  1  0
  8 34  1  0
  9 10  1  0
  9 11  1  0
 11 12  1  0
 11 23  2  0
 12 13  1  0
 12 35  1  0
 13 22  1  0
 13 14  2  0
 14 15  1  0
 14 36  1  0
 15 16  2  0
 15 37  1  0
 16 17  1  0
 16 21  1  0
 17 18  1  0
 17 38  1  0
 18 20  1  0
 18 19  1  0
 18 39  1  0
 19 20  1  0
 19 40  1  0
 19 41  1  0
 20 42  1  0
 20 43  1  0
 21 22  2  0
 21 44  1  0
 22 45  1  0
 23 24  1  0
 25 26  1  0
 25 46  1  0
 26 47  1  0
M  CHG  1  23   1
M  END
>  <DOCK_score>  (1) 
-56.006226

>  <SMILES>  (1) 
CCc1ccc(-c2c[nH]c(Nc3ccc(NC4CC4)cc3)[nH+]2)cc1

$$$$
