[NH3+][C@H](C(=O)Nc1cccc(O)c1)c1ccc(NC(c2ccccc2)c2ccccc2)cc1
     RDKit          3D

 58 61  0  0  1  0  0  0  0  0999 V2000
  129.6837  135.2219  157.5581 N   0  0  0  0  0  0  0  0  0  0  0  0
  129.2504  136.0576  157.9216 H   0  0  0  0  0  0  0  0  0  0  0  0
  130.5784  135.4555  157.1544 H   0  0  0  0  0  0  0  0  0  0  0  0
  129.0906  134.8163  156.8497 H   0  0  0  0  0  0  0  0  0  0  0  0
  129.8755  134.2560  158.6482 C   0  0  2  0  0  0  0  0  0  0  0  0
  130.3436  133.3534  158.2556 H   0  0  0  0  0  0  0  0  0  0  0  0
  128.5392  133.9073  159.2513 C   0  0  0  0  0  0  0  0  0  0  0  0
  127.6412  134.7226  159.2483 O   0  0  0  0  0  0  0  0  0  0  0  0
  128.3419  132.6895  159.7939 N   0  0  0  0  0  0  0  0  0  0  0  0
  127.1012  132.3657  160.3539 C   0  0  0  0  0  0  0  0  0  0  0  0
  126.6555  131.0499  160.3435 C   0  0  0  0  0  0  0  0  0  0  0  0
  125.4308  130.7303  160.8963 C   0  0  0  0  0  0  0  0  0  0  0  0
  124.6486  131.7168  161.4669 C   0  0  0  0  0  0  0  0  0  0  0  0
  125.0862  133.0337  161.4750 C   0  0  0  0  0  0  0  0  0  0  0  0
  124.3134  134.0035  162.0309 O   0  0  0  0  0  0  0  0  0  0  0  0
  126.3147  133.3584  160.9207 C   0  0  0  0  0  0  0  0  0  0  0  0
  130.7614  134.8620  159.7061 C   0  0  0  0  0  0  0  0  0  0  0  0
  130.3718  136.0217  160.3508 C   0  0  0  0  0  0  0  0  0  0  0  0
  131.1785  136.5764  161.3249 C   0  0  0  0  0  0  0  0  0  0  0  0
  132.3879  135.9743  161.6486 C   0  0  0  0  0  0  0  0  0  0  0  0
  133.2091  136.5361  162.6289 N   0  0  0  0  0  0  0  0  0  0  0  0
  134.6627  136.3721  162.5490 C   0  0  0  0  0  0  0  0  0  0  0  0
  135.3169  137.7267  162.4591 C   0  0  0  0  0  0  0  0  0  0  0  0
  135.5512  138.3005  161.2235 C   0  0  0  0  0  0  0  0  0  0  0  0
  136.1469  139.5451  161.1412 C   0  0  0  0  0  0  0  0  0  0  0  0
  136.5175  140.2116  162.2943 C   0  0  0  0  0  0  0  0  0  0  0  0
  136.2879  139.6355  163.5296 C   0  0  0  0  0  0  0  0  0  0  0  0
  135.6876  138.3931  163.6121 C   0  0  0  0  0  0  0  0  0  0  0  0
  135.1560  135.6568  163.7804 C   0  0  0  0  0  0  0  0  0  0  0  0
  136.2755  134.8490  163.7085 C   0  0  0  0  0  0  0  0  0  0  0  0
  136.7307  134.1967  164.8391 C   0  0  0  0  0  0  0  0  0  0  0  0
  136.0604  134.3438  166.0390 C   0  0  0  0  0  0  0  0  0  0  0  0
  134.9379  135.1475  166.1096 C   0  0  0  0  0  0  0  0  0  0  0  0
  134.4856  135.8038  164.9802 C   0  0  0  0  0  0  0  0  0  0  0  0
  132.7788  134.8126  160.9951 C   0  0  0  0  0  0  0  0  0  0  0  0
  131.9645  134.2600  160.0260 C   0  0  0  0  0  0  0  0  0  0  0  0
  129.0601  132.0375  159.7962 H   0  0  0  0  0  0  0  0  0  0  0  0
  127.2669  130.2765  159.9025 H   0  0  0  0  0  0  0  0  0  0  0  0
  125.0857  129.7070  160.8870 H   0  0  0  0  0  0  0  0  0  0  0  0
  123.6937  131.4632  161.9030 H   0  0  0  0  0  0  0  0  0  0  0  0
  124.7016  134.8881  161.9889 H   0  0  0  0  0  0  0  0  0  0  0  0
  126.6590  134.3820  160.9305 H   0  0  0  0  0  0  0  0  0  0  0  0
  129.4337  136.4917  160.0952 H   0  0  0  0  0  0  0  0  0  0  0  0
  130.8718  137.4796  161.8311 H   0  0  0  0  0  0  0  0  0  0  0  0
  132.8169  137.0348  163.3626 H   0  0  0  0  0  0  0  0  0  0  0  0
  134.9142  135.7876  161.6641 H   0  0  0  0  0  0  0  0  0  0  0  0
  135.2657  137.7778  160.3225 H   0  0  0  0  0  0  0  0  0  0  0  0
  136.3266  139.9951  160.1760 H   0  0  0  0  0  0  0  0  0  0  0  0
  136.9869  141.1821  162.2299 H   0  0  0  0  0  0  0  0  0  0  0  0
  136.5779  140.1560  164.4305 H   0  0  0  0  0  0  0  0  0  0  0  0
  135.5084  137.9428  164.5773 H   0  0  0  0  0  0  0  0  0  0  0  0
  136.7967  134.7306  162.7700 H   0  0  0  0  0  0  0  0  0  0  0  0
  137.6076  133.5685  164.7838 H   0  0  0  0  0  0  0  0  0  0  0  0
  136.4135  133.8308  166.9212 H   0  0  0  0  0  0  0  0  0  0  0  0
  134.4139  135.2621  167.0470 H   0  0  0  0  0  0  0  0  0  0  0  0
  133.6084  136.4315  165.0353 H   0  0  0  0  0  0  0  0  0  0  0  0
  133.7182  134.3418  161.2446 H   0  0  0  0  0  0  0  0  0  0  0  0
  132.2676  133.3566  159.5178 H   0  0  0  0  0  0  0  0  0  0  0  0
  1  2  1  0
  1  3  1  0
  1  4  1  0
  1  5  1  0
  5  6  1  6
  5  7  1  0
  5 17  1  0
  7  8  2  0
  7  9  1  0
  9 10  1  0
  9 37  1  0
 10 16  1  0
 10 11  2  0
 11 12  1  0
 11 38  1  0
 12 13  2  0
 12 39  1  0
 13 14  1  0
 13 40  1  0
 14 15  1  0
 14 16  2  0
 15 41  1  0
 16 42  1  0
 17 36  1  0
 17 18  2  0
 18 19  1  0
 18 43  1  0
 19 20  2  0
 19 44  1  0
 20 21  1  0
 20 35  1  0
 21 22  1  0
 21 45  1  0
 22 23  1  0
 22 29  1  0
 22 46  1  0
 23 28  1  0
 23 24  2  0
 24 25  1  0
 24 47  1  0
 25 26  2  0
 25 48  1  0
 26 27  1  0
 26 49  1  0
 27 28  2  0
 27 50  1  0
 28 51  1  0
 29 34  1  0
 29 30  2  0
 30 31  1  0
 30 52  1  0
 31 32  2  0
 31 53  1  0
 32 33  1  0
 32 54  1  0
 33 34  2  0
 33 55  1  0
 34 56  1  0
 35 36  2  0
 35 57  1  0
 36 58  1  0
M  CHG  1   1   1
M  END
>  <DOCK_score>  (1) 
-48.566368

>  <SMILES>  (1) 
[NH3+][C@H](C(=O)Nc1cccc(O)c1)c1ccc(NC(c2ccccc2)c2ccccc2)cc1

$$$$
