Nc1ccc(NC2CC=CC2)c(C[NH+]=C(NC2CC=CC2)NC2CCC2)n1
     RDKit          3D

 58 61  0  0  1  0  0  0  0  0999 V2000
  126.3704  137.3941  162.8202 N   0  0  0  0  0  0  0  0  0  0  0  0
  127.0456  136.8491  161.7302 C   0  0  0  0  0  0  0  0  0  0  0  0
  126.3963  135.9366  160.9055 C   0  0  0  0  0  0  0  0  0  0  0  0
  127.0755  135.4011  159.8266 C   0  0  0  0  0  0  0  0  0  0  0  0
  128.3914  135.8044  159.6037 C   0  0  0  0  0  0  0  0  0  0  0  0
  129.1156  135.2928  158.5198 N   0  0  0  0  0  0  0  0  0  0  0  0
  128.8295  133.9466  158.0175 C   0  0  0  0  0  0  0  0  0  0  0  0
  129.2411  132.8703  159.0488 C   0  0  0  0  0  0  0  0  0  0  0  0
  129.7903  131.7333  158.2177 C   0  0  0  0  0  0  0  0  0  0  0  0
  130.0649  132.1276  157.0041 C   0  0  0  0  0  0  0  0  0  0  0  0
  129.7457  133.5934  156.8230 C   0  0  0  0  0  0  0  0  0  0  0  0
  128.9756  136.7142  160.4712 C   0  0  0  0  0  0  0  0  0  0  0  0
  130.3993  137.1525  160.2431 C   0  0  0  0  0  0  0  0  0  0  0  0
  131.1256  137.1344  161.5153 N   0  0  0  0  0  0  0  0  0  0  0  0
  130.6716  136.8656  162.3293 H   0  0  0  0  0  0  0  0  0  0  0  0
  132.3821  137.4793  161.5534 C   0  0  0  0  0  0  0  0  0  0  0  0
  133.0257  137.8601  160.3997 N   0  0  0  0  0  0  0  0  0  0  0  0
  134.4377  138.2478  160.4425 C   0  0  0  0  0  0  0  0  0  0  0  0
  134.6261  139.5750  161.2133 C   0  0  0  0  0  0  0  0  0  0  0  0
  135.7170  140.3033  160.4634 C   0  0  0  0  0  0  0  0  0  0  0  0
  135.8935  139.7911  159.2760 C   0  0  0  0  0  0  0  0  0  0  0  0
  134.9498  138.6357  159.0360 C   0  0  0  0  0  0  0  0  0  0  0  0
  133.0637  137.4624  162.7474 N   0  0  0  0  0  0  0  0  0  0  0  0
  132.3777  137.0568  163.9766 C   0  0  0  0  0  0  0  0  0  0  0  0
  132.3048  135.5326  164.1671 C   0  0  0  0  0  0  0  0  0  0  0  0
  133.6555  135.6379  164.8946 C   0  0  0  0  0  0  0  0  0  0  0  0
  133.2752  137.0909  165.2250 C   0  0  0  0  0  0  0  0  0  0  0  0
  128.2975  137.2052  161.4917 N   0  0  0  0  0  0  0  0  0  0  0  0
  126.8181  138.0307  163.3992 H   0  0  0  0  0  0  0  0  0  0  0  0
  125.4526  137.1369  163.0002 H   0  0  0  0  0  0  0  0  0  0  0  0
  125.3746  135.6494  161.1055 H   0  0  0  0  0  0  0  0  0  0  0  0
  126.5964  134.6907  159.1692 H   0  0  0  0  0  0  0  0  0  0  0  0
  129.8067  135.8297  158.1015 H   0  0  0  0  0  0  0  0  0  0  0  0
  127.7782  133.8475  157.7470 H   0  0  0  0  0  0  0  0  0  0  0  0
  130.0103  133.2586  159.7164 H   0  0  0  0  0  0  0  0  0  0  0  0
  128.3733  132.5397  159.6195 H   0  0  0  0  0  0  0  0  0  0  0  0
  129.9356  130.7264  158.5805 H   0  0  0  0  0  0  0  0  0  0  0  0
  130.4671  131.4900  156.2309 H   0  0  0  0  0  0  0  0  0  0  0  0
  129.2207  133.7541  155.8813 H   0  0  0  0  0  0  0  0  0  0  0  0
  130.6587  134.1878  156.8560 H   0  0  0  0  0  0  0  0  0  0  0  0
  130.4074  138.1629  159.8345 H   0  0  0  0  0  0  0  0  0  0  0  0
  130.8807  136.4724  159.5403 H   0  0  0  0  0  0  0  0  0  0  0  0
  132.5447  137.8721  159.5574 H   0  0  0  0  0  0  0  0  0  0  0  0
  135.0463  137.4536  160.8752 H   0  0  0  0  0  0  0  0  0  0  0  0
  133.7037  140.1556  161.2005 H   0  0  0  0  0  0  0  0  0  0  0  0
  134.9372  139.3775  162.2393 H   0  0  0  0  0  0  0  0  0  0  0  0
  136.2773  141.1379  160.8582 H   0  0  0  0  0  0  0  0  0  0  0  0
  136.6192  140.1462  158.5591 H   0  0  0  0  0  0  0  0  0  0  0  0
  135.4810  137.7995  158.5813 H   0  0  0  0  0  0  0  0  0  0  0  0
  134.1194  138.9468  158.4021 H   0  0  0  0  0  0  0  0  0  0  0  0
  133.9986  137.7192  162.7757 H   0  0  0  0  0  0  0  0  0  0  0  0
  131.4207  137.5603  164.1131 H   0  0  0  0  0  0  0  0  0  0  0  0
  132.3544  134.9730  163.2331 H   0  0  0  0  0  0  0  0  0  0  0  0
  131.4863  135.2103  164.8106 H   0  0  0  0  0  0  0  0  0  0  0  0
  133.7300  134.9958  165.7723 H   0  0  0  0  0  0  0  0  0  0  0  0
  134.5165  135.5518  164.2318 H   0  0  0  0  0  0  0  0  0  0  0  0
  132.7217  137.1959  166.1580 H   0  0  0  0  0  0  0  0  0  0  0  0
  134.1083  137.7892  165.1449 H   0  0  0  0  0  0  0  0  0  0  0  0
  1  2  1  0
  1 29  1  0
  1 30  1  0
  2 28  2  0
  2  3  1  0
  3  4  2  0
  3 31  1  0
  4  5  1  0
  4 32  1  0
  5  6  1  0
  5 12  2  0
  6  7  1  0
  6 33  1  0
  7 11  1  0
  7  8  1  0
  7 34  1  0
  8  9  1  0
  8 35  1  0
  8 36  1  0
  9 10  2  0
  9 37  1  0
 10 11  1  0
 10 38  1  0
 11 39  1  0
 11 40  1  0
 12 13  1  0
 12 28  1  0
 13 14  1  0
 13 41  1  0
 13 42  1  0
 14 15  1  0
 16 14  2  0
 16 17  1  0
 16 23  1  0
 17 18  1  0
 17 43  1  0
 18 22  1  0
 18 19  1  0
 18 44  1  0
 19 20  1  0
 19 45  1  0
 19 46  1  0
 20 21  2  0
 20 47  1  0
 21 22  1  0
 21 48  1  0
 22 49  1  0
 22 50  1  0
 23 24  1  0
 23 51  1  0
 24 27  1  0
 24 25  1  0
 24 52  1  0
 25 26  1  0
 25 53  1  0
 25 54  1  0
 26 27  1  0
 26 55  1  0
 26 56  1  0
 27 57  1  0
 27 58  1  0
M  CHG  1  14   1
M  END
>  <DOCK_score>  (1) 
-47.569912

>  <SMILES>  (1) 
Nc1ccc(NC2CC=CC2)c(C[NH+]=C(NC2CC=CC2)NC2CCC2)n1

$$$$
