Cc1ccn2ncc(C(Cc3c[nH]c4cc(F)ccc34)[NH2+][C@@H]3CC(O)C3(C)C)c2c1
     RDKit          3D

 58 62  0  0  1  0  0  0  0  0999 V2000
  134.7389  139.3180  158.4601 C   0  0  0  0  0  0  0  0  0  0  0  0
  134.6167  138.5919  159.7750 C   0  0  0  0  0  0  0  0  0  0  0  0
  135.6525  138.6646  160.7212 C   0  0  0  0  0  0  0  0  0  0  0  0
  135.5501  138.0123  161.8980 C   0  0  0  0  0  0  0  0  0  0  0  0
  134.4366  137.2793  162.1932 N   0  0  0  0  0  0  0  0  0  0  0  0
  134.0735  136.5222  163.3139 N   0  0  0  0  0  0  0  0  0  0  0  0
  132.8860  135.9969  163.1067 C   0  0  0  0  0  0  0  0  0  0  0  0
  132.4322  136.3859  161.8569 C   0  0  0  0  0  0  0  0  0  0  0  0
  131.1167  136.0042  161.2288 C   0  0  1  0  0  0  0  0  0  0  0  0
  130.3047  137.2679  160.9379 C   0  0  0  0  0  0  0  0  0  0  0  0
  128.8501  136.9057  160.7825 C   0  0  0  0  0  0  0  0  0  0  0  0
  127.9286  136.8670  161.7575 C   0  0  0  0  0  0  0  0  0  0  0  0
  126.7166  136.4967  161.2393 N   0  0  0  0  0  0  0  0  0  0  0  0
  125.8980  136.3997  161.7508 H   0  0  0  0  0  0  0  0  0  0  0  0
  126.8327  136.2830  159.8842 C   0  0  0  0  0  0  0  0  0  0  0  0
  125.9323  135.9011  158.8947 C   0  0  0  0  0  0  0  0  0  0  0  0
  126.3597  135.7838  157.5883 C   0  0  0  0  0  0  0  0  0  0  0  0
  125.4833  135.4169  156.6279 F   0  0  0  0  0  0  0  0  0  0  0  0
  127.6859  136.0313  157.2524 C   0  0  0  0  0  0  0  0  0  0  0  0
  128.5861  136.4028  158.2104 C   0  0  0  0  0  0  0  0  0  0  0  0
  128.1723  136.5354  159.5373 C   0  0  0  0  0  0  0  0  0  0  0  0
  131.3646  135.2819  159.9738 N   0  0  0  0  0  0  0  0  0  0  0  0
  130.5364  135.3134  159.3984 H   0  0  0  0  0  0  0  0  0  0  0  0
  132.1323  135.7148  159.4826 H   0  0  0  0  0  0  0  0  0  0  0  0
  131.7007  133.8833  160.2721 C   0  0  2  0  0  0  0  0  0  0  0  0
  132.3474  133.7799  161.1435 H   0  0  0  0  0  0  0  0  0  0  0  0
  132.1846  133.0911  159.0461 C   0  0  0  0  0  0  0  0  0  0  0  0
  131.3609  131.9088  159.5832 C   0  0  2  0  0  0  0  0  0  0  0  0
  130.6745  131.1794  158.5640 O   0  0  0  0  0  0  0  0  0  0  0  0
  130.4801  132.9481  160.2964 C   0  0  0  0  0  0  0  0  0  0  0  0
  130.0569  132.5292  161.7058 C   0  0  0  0  0  0  0  0  0  0  0  0
  129.3094  133.4461  159.4464 C   0  0  0  0  0  0  0  0  0  0  0  0
  133.4106  137.1915  161.2876 C   0  0  0  0  0  0  0  0  0  0  0  0
  133.5027  137.8618  160.0529 C   0  0  0  0  0  0  0  0  0  0  0  0
  134.3285  140.3229  158.5603 H   0  0  0  0  0  0  0  0  0  0  0  0
  135.7892  139.3812  158.1761 H   0  0  0  0  0  0  0  0  0  0  0  0
  134.1870  138.7751  157.6927 H   0  0  0  0  0  0  0  0  0  0  0  0
  136.5381  139.2432  160.5039 H   0  0  0  0  0  0  0  0  0  0  0  0
  136.3557  138.0729  162.6147 H   0  0  0  0  0  0  0  0  0  0  0  0
  132.3506  135.3646  163.7996 H   0  0  0  0  0  0  0  0  0  0  0  0
  130.5596  135.3637  161.9126 H   0  0  0  0  0  0  0  0  0  0  0  0
  130.4180  137.9706  161.7635 H   0  0  0  0  0  0  0  0  0  0  0  0
  130.6650  137.7275  160.0177 H   0  0  0  0  0  0  0  0  0  0  0  0
  128.1152  137.0947  162.7965 H   0  0  0  0  0  0  0  0  0  0  0  0
  124.8999  135.7087  159.1465 H   0  0  0  0  0  0  0  0  0  0  0  0
  128.0070  135.9286  156.2264 H   0  0  0  0  0  0  0  0  0  0  0  0
  129.6147  136.5939  157.9421 H   0  0  0  0  0  0  0  0  0  0  0  0
  131.8166  133.4849  158.0987 H   0  0  0  0  0  0  0  0  0  0  0  0
  133.2591  132.9081  159.0408 H   0  0  0  0  0  0  0  0  0  0  0  0
  131.9155  131.2644  160.2655 H   0  0  0  0  0  0  0  0  0  0  0  0
  130.3215  131.7330  157.8540 H   0  0  0  0  0  0  0  0  0  0  0  0
  129.7995  133.4152  162.2863 H   0  0  0  0  0  0  0  0  0  0  0  0
  129.1905  131.8707  161.6443 H   0  0  0  0  0  0  0  0  0  0  0  0
  130.8792  132.0033  162.1908 H   0  0  0  0  0  0  0  0  0  0  0  0
  129.6279  133.5384  158.4080 H   0  0  0  0  0  0  0  0  0  0  0  0
  128.4850  132.7361  159.5118 H   0  0  0  0  0  0  0  0  0  0  0  0
  128.9815  134.4185  159.8137 H   0  0  0  0  0  0  0  0  0  0  0  0
  132.6985  137.7976  159.3350 H   0  0  0  0  0  0  0  0  0  0  0  0
  1  2  1  0
  1 35  1  0
  1 36  1  0
  1 37  1  0
  2 34  2  0
  2  3  1  0
  3  4  2  0
  3 38  1  0
  4  5  1  0
  4 39  1  0
  5 33  1  0
  5  6  1  0
  6  7  2  0
  7  8  1  0
  7 40  1  0
  8  9  1  0
  8 33  2  0
  9 10  1  0
  9 22  1  0
  9 41  1  1
 10 11  1  0
 10 42  1  0
 10 43  1  0
 11 21  1  0
 11 12  2  0
 12 13  1  0
 12 44  1  0
 13 14  1  0
 13 15  1  0
 15 21  2  0
 15 16  1  0
 16 17  2  0
 16 45  1  0
 17 18  1  0
 17 19  1  0
 19 20  2  0
 19 46  1  0
 20 21  1  0
 20 47  1  0
 22 23  1  0
 22 24  1  0
 22 25  1  0
 25 26  1  1
 25 30  1  0
 25 27  1  0
 27 28  1  0
 27 48  1  0
 27 49  1  0
 28 29  1  0
 28 30  1  0
 28 50  1  1
 29 51  1  0
 30 31  1  0
 30 32  1  0
 31 52  1  0
 31 53  1  0
 31 54  1  0
 32 55  1  0
 32 56  1  0
 32 57  1  0
 33 34  1  0
 34 58  1  0
M  CHG  1  22   1
M  END
>  <DOCK_score>  (1) 
-47.801025

>  <SMILES>  (1) 
Cc1ccn2ncc(C(Cc3c[nH]c4cc(F)ccc34)[NH2+][C@@H]3CC(O)C3(C)C)c2c1

$$$$
