Cc1ccc(CC(C[N@@H+]2CCC2C2CCC2)NC(=O)c2cccc3cnccc23)cc1C
     RDKit          3D

 66 70  0  0  1  0  0  0  0  0999 V2000
  136.2121  141.7782  160.7416 C   0  0  0  0  0  0  0  0  0  0  0  0
  135.3226  140.5630  160.6841 C   0  0  0  0  0  0  0  0  0  0  0  0
  134.9542  140.0331  159.4615 C   0  0  0  0  0  0  0  0  0  0  0  0
  134.1427  138.9155  159.4089 C   0  0  0  0  0  0  0  0  0  0  0  0
  133.6902  138.3342  160.5787 C   0  0  0  0  0  0  0  0  0  0  0  0
  132.8003  137.1193  160.5214 C   0  0  0  0  0  0  0  0  0  0  0  0
  131.3362  137.5612  160.4764 C   0  0  1  0  0  0  0  0  0  0  0  0
  130.4328  136.3277  160.4182 C   0  0  0  0  0  0  0  0  0  0  0  0
  130.3878  135.8184  159.0411 N   0  0  2  0  0  0  0  0  0  0  0  0
  131.2841  135.8534  158.5791 H   0  0  0  0  0  0  0  0  0  0  0  0
  129.2917  136.3930  158.2388 C   0  0  0  0  0  0  0  0  0  0  0  0
  129.1059  135.0084  157.6026 C   0  0  0  0  0  0  0  0  0  0  0  0
  129.7154  134.5113  158.9209 C   0  0  1  0  0  0  0  0  0  0  0  0
  130.6849  133.3413  158.7413 C   0  0  0  0  0  0  0  0  0  0  0  0
  129.9909  131.9705  158.6768 C   0  0  0  0  0  0  0  0  0  0  0  0
  131.1499  131.4314  159.5318 C   0  0  0  0  0  0  0  0  0  0  0  0
  131.3274  132.8664  160.0554 C   0  0  0  0  0  0  0  0  0  0  0  0
  131.0238  138.3390  161.6779 N   0  0  0  0  0  0  0  0  0  0  0  0
  130.0867  139.3064  161.6296 C   0  0  0  0  0  0  0  0  0  0  0  0
  129.5003  139.5336  160.5888 O   0  0  0  0  0  0  0  0  0  0  0  0
  129.7721  140.0891  162.8389 C   0  0  0  0  0  0  0  0  0  0  0  0
  130.7575  140.8376  163.4691 C   0  0  0  0  0  0  0  0  0  0  0  0
  130.4650  141.5805  164.6058 C   0  0  0  0  0  0  0  0  0  0  0  0
  129.2111  141.5902  165.1417 C   0  0  0  0  0  0  0  0  0  0  0  0
  128.1852  140.8439  164.5406 C   0  0  0  0  0  0  0  0  0  0  0  0
  126.8795  140.8234  165.0581 C   0  0  0  0  0  0  0  0  0  0  0  0
  125.9512  140.1107  164.4634 N   0  0  0  0  0  0  0  0  0  0  0  0
  126.1867  139.3923  163.3746 C   0  0  0  0  0  0  0  0  0  0  0  0
  127.4206  139.3466  162.7966 C   0  0  0  0  0  0  0  0  0  0  0  0
  128.4641  140.0836  163.3765 C   0  0  0  0  0  0  0  0  0  0  0  0
  134.0541  138.8669  161.8010 C   0  0  0  0  0  0  0  0  0  0  0  0
  134.8706  139.9815  161.8537 C   0  0  0  0  0  0  0  0  0  0  0  0
  135.2670  140.5628  163.1864 C   0  0  0  0  0  0  0  0  0  0  0  0
  137.2553  141.4636  160.7738 H   0  0  0  0  0  0  0  0  0  0  0  0
  136.0450  142.3928  159.8571 H   0  0  0  0  0  0  0  0  0  0  0  0
  135.9793  142.3569  161.6355 H   0  0  0  0  0  0  0  0  0  0  0  0
  135.3038  140.4902  158.5474 H   0  0  0  0  0  0  0  0  0  0  0  0
  133.8585  138.4990  158.4538 H   0  0  0  0  0  0  0  0  0  0  0  0
  133.0328  136.5405  159.6273 H   0  0  0  0  0  0  0  0  0  0  0  0
  132.9674  136.5044  161.4058 H   0  0  0  0  0  0  0  0  0  0  0  0
  131.1691  138.1759  159.5920 H   0  0  0  0  0  0  0  0  0  0  0  0
  130.8287  135.5559  161.0782 H   0  0  0  0  0  0  0  0  0  0  0  0
  129.4269  136.5987  160.7384 H   0  0  0  0  0  0  0  0  0  0  0  0
  128.4386  136.7144  158.8363 H   0  0  0  0  0  0  0  0  0  0  0  0
  129.6233  137.1551  157.5336 H   0  0  0  0  0  0  0  0  0  0  0  0
  128.0649  134.7208  157.4556 H   0  0  0  0  0  0  0  0  0  0  0  0
  129.7288  134.8331  156.7254 H   0  0  0  0  0  0  0  0  0  0  0  0
  128.9753  134.3304  159.7005 H   0  0  0  0  0  0  0  0  0  0  0  0
  131.4036  133.5065  157.9387 H   0  0  0  0  0  0  0  0  0  0  0  0
  129.0261  131.9453  159.1834 H   0  0  0  0  0  0  0  0  0  0  0  0
  129.9545  131.5464  157.6734 H   0  0  0  0  0  0  0  0  0  0  0  0
  131.9956  131.0731  158.9448 H   0  0  0  0  0  0  0  0  0  0  0  0
  130.8346  130.7229  160.2978 H   0  0  0  0  0  0  0  0  0  0  0  0
  132.3697  133.1655  160.1648 H   0  0  0  0  0  0  0  0  0  0  0  0
  130.7286  133.0874  160.9389 H   0  0  0  0  0  0  0  0  0  0  0  0
  131.4915  138.1577  162.5082 H   0  0  0  0  0  0  0  0  0  0  0  0
  131.7606  140.8453  163.0690 H   0  0  0  0  0  0  0  0  0  0  0  0
  131.2468  142.1580  165.0766 H   0  0  0  0  0  0  0  0  0  0  0  0
  129.0072  142.1724  166.0283 H   0  0  0  0  0  0  0  0  0  0  0  0
  126.6397  141.3928  165.9440 H   0  0  0  0  0  0  0  0  0  0  0  0
  125.3790  138.8275  162.9334 H   0  0  0  0  0  0  0  0  0  0  0  0
  127.5913  138.7550  161.9093 H   0  0  0  0  0  0  0  0  0  0  0  0
  133.7006  138.4129  162.7149 H   0  0  0  0  0  0  0  0  0  0  0  0
  134.5339  141.3104  163.4893 H   0  0  0  0  0  0  0  0  0  0  0  0
  135.3058  139.7687  163.9320 H   0  0  0  0  0  0  0  0  0  0  0  0
  136.2484  141.0296  163.1016 H   0  0  0  0  0  0  0  0  0  0  0  0
  1  2  1  0
  1 34  1  0
  1 35  1  0
  1 36  1  0
  2 32  2  0
  2  3  1  0
  3  4  2  0
  3 37  1  0
  4  5  1  0
  4 38  1  0
  5  6  1  0
  5 31  2  0
  6  7  1  0
  6 39  1  0
  6 40  1  0
  7  8  1  0
  7 18  1  0
  7 41  1  6
  8  9  1  0
  8 42  1  0
  8 43  1  0
  9 10  1  6
  9 13  1  0
  9 11  1  0
 11 12  1  0
 11 44  1  0
 11 45  1  0
 12 13  1  0
 12 46  1  0
 12 47  1  0
 13 14  1  0
 13 48  1  1
 14 17  1  0
 14 15  1  0
 14 49  1  0
 15 16  1  0
 15 50  1  0
 15 51  1  0
 16 17  1  0
 16 52  1  0
 16 53  1  0
 17 54  1  0
 17 55  1  0
 18 19  1  0
 18 56  1  0
 19 20  2  0
 19 21  1  0
 21 30  1  0
 21 22  2  0
 22 23  1  0
 22 57  1  0
 23 24  2  0
 23 58  1  0
 24 25  1  0
 24 59  1  0
 25 30  2  0
 25 26  1  0
 26 27  2  0
 26 60  1  0
 27 28  1  0
 28 29  2  0
 28 61  1  0
 29 30  1  0
 29 62  1  0
 31 32  1  0
 31 63  1  0
 32 33  1  0
 33 64  1  0
 33 65  1  0
 33 66  1  0
M  CHG  1   9   1
M  END
>  <DOCK_score>  (1) 
-56.956188

>  <SMILES>  (1) 
Cc1ccc(CC(C[N@@H+]2CCC2C2CCC2)NC(=O)c2cccc3cnccc23)cc1C

$$$$
