Nc1ccc(-c2c[nH]c(N[C@H](c3ccccc3)c3cccc(-c4ccc(N)cc4)c3Cl)[nH+]2)cc1
     RDKit          3D

 59 63  0  0  1  0  0  0  0  0999 V2000
  131.4190  129.4701  152.1067 N   0  0  0  0  0  0  0  0  0  0  0  0
  131.1387  130.1456  153.2968 C   0  0  0  0  0  0  0  0  0  0  0  0
  130.1919  131.1629  153.3110 C   0  0  0  0  0  0  0  0  0  0  0  0
  129.9141  131.8315  154.4847 C   0  0  0  0  0  0  0  0  0  0  0  0
  130.5834  131.4857  155.6576 C   0  0  0  0  0  0  0  0  0  0  0  0
  130.2865  132.2038  156.9214 C   0  0  0  0  0  0  0  0  0  0  0  0
  129.8106  131.6472  158.0625 C   0  0  0  0  0  0  0  0  0  0  0  0
  129.6812  132.6643  158.9784 N   0  0  0  0  0  0  0  0  0  0  0  0
  129.3629  132.5791  159.8907 H   0  0  0  0  0  0  0  0  0  0  0  0
  130.0823  133.8128  158.3686 C   0  0  0  0  0  0  0  0  0  0  0  0
  130.1055  135.0689  158.9501 N   0  0  0  0  0  0  0  0  0  0  0  0
  129.6729  135.2411  160.3391 C   0  0  2  0  0  0  0  0  0  0  0  0
  130.0348  134.4058  160.9385 H   0  0  0  0  0  0  0  0  0  0  0  0
  128.1676  135.2846  160.3948 C   0  0  0  0  0  0  0  0  0  0  0  0
  127.5037  134.8236  161.5161 C   0  0  0  0  0  0  0  0  0  0  0  0
  126.1231  134.8677  161.5689 C   0  0  0  0  0  0  0  0  0  0  0  0
  125.4060  135.3638  160.4963 C   0  0  0  0  0  0  0  0  0  0  0  0
  126.0696  135.8203  159.3730 C   0  0  0  0  0  0  0  0  0  0  0  0
  127.4505  135.7804  159.3219 C   0  0  0  0  0  0  0  0  0  0  0  0
  130.2332  136.5298  160.8836 C   0  0  0  0  0  0  0  0  0  0  0  0
  129.3775  137.5194  161.3331 C   0  0  0  0  0  0  0  0  0  0  0  0
  129.8846  138.7046  161.8342 C   0  0  0  0  0  0  0  0  0  0  0  0
  131.2492  138.9044  161.8946 C   0  0  0  0  0  0  0  0  0  0  0  0
  132.1164  137.9142  161.4382 C   0  0  0  0  0  0  0  0  0  0  0  0
  133.5836  138.1258  161.4943 C   0  0  0  0  0  0  0  0  0  0  0  0
  134.2464  138.7100  160.4159 C   0  0  0  0  0  0  0  0  0  0  0  0
  135.6100  138.9055  160.4701 C   0  0  0  0  0  0  0  0  0  0  0  0
  136.3249  138.5156  161.5969 C   0  0  0  0  0  0  0  0  0  0  0  0
  137.7062  138.7095  161.6476 N   0  0  0  0  0  0  0  0  0  0  0  0
  135.6651  137.9377  162.6754 C   0  0  0  0  0  0  0  0  0  0  0  0
  134.3017  137.7404  162.6255 C   0  0  0  0  0  0  0  0  0  0  0  0
  131.6001  136.7207  160.9334 C   0  0  0  0  0  0  0  0  0  0  0  0
  132.6732  135.4781  160.3695 Cl  0  0  0  0  0  0  0  0  0  0  0  0
  130.4379  133.5344  157.1380 N   0  0  0  0  0  0  0  0  0  0  0  0
  130.7598  134.1772  156.4866 H   0  0  0  0  0  0  0  0  0  0  0  0
  131.5361  130.4683  155.6400 C   0  0  0  0  0  0  0  0  0  0  0  0
  131.8070  129.7989  154.4653 C   0  0  0  0  0  0  0  0  0  0  0  0
  130.9529  129.7112  151.2908 H   0  0  0  0  0  0  0  0  0  0  0  0
  132.0796  128.7599  152.0959 H   0  0  0  0  0  0  0  0  0  0  0  0
  129.6736  131.4304  152.4020 H   0  0  0  0  0  0  0  0  0  0  0  0
  129.1782  132.6219  154.4951 H   0  0  0  0  0  0  0  0  0  0  0  0
  129.5774  130.6048  158.2213 H   0  0  0  0  0  0  0  0  0  0  0  0
  130.4079  135.8350  158.4378 H   0  0  0  0  0  0  0  0  0  0  0  0
  128.0638  134.4323  162.3524 H   0  0  0  0  0  0  0  0  0  0  0  0
  125.6045  134.5114  162.4467 H   0  0  0  0  0  0  0  0  0  0  0  0
  124.3272  135.3951  160.5361 H   0  0  0  0  0  0  0  0  0  0  0  0
  125.5093  136.2080  158.5349 H   0  0  0  0  0  0  0  0  0  0  0  0
  127.9690  136.1367  158.4441 H   0  0  0  0  0  0  0  0  0  0  0  0
  128.3092  137.3660  161.2924 H   0  0  0  0  0  0  0  0  0  0  0  0
  129.2115  139.4735  162.1836 H   0  0  0  0  0  0  0  0  0  0  0  0
  131.6435  139.8283  162.2908 H   0  0  0  0  0  0  0  0  0  0  0  0
  133.6920  139.0095  159.5390 H   0  0  0  0  0  0  0  0  0  0  0  0
  136.1239  139.3576  159.6348 H   0  0  0  0  0  0  0  0  0  0  0  0
  138.1666  139.1160  160.8967 H   0  0  0  0  0  0  0  0  0  0  0  0
  138.2056  138.4377  162.4334 H   0  0  0  0  0  0  0  0  0  0  0  0
  136.2218  137.6390  163.5514 H   0  0  0  0  0  0  0  0  0  0  0  0
  133.7900  137.2881  163.4621 H   0  0  0  0  0  0  0  0  0  0  0  0
  132.0588  130.2017  156.5468 H   0  0  0  0  0  0  0  0  0  0  0  0
  132.5420  129.0078  154.4520 H   0  0  0  0  0  0  0  0  0  0  0  0
  1  2  1  0
  1 38  1  0
  1 39  1  0
  2 37  2  0
  2  3  1  0
  3  4  2  0
  3 40  1  0
  4  5  1  0
  4 41  1  0
  5  6  1  0
  5 36  2  0
  6 34  1  0
  6  7  2  0
  7  8  1  0
  7 42  1  0
  8  9  1  0
  8 10  1  0
 10 11  1  0
 10 34  2  0
 11 12  1  0
 11 43  1  0
 12 13  1  1
 12 14  1  0
 12 20  1  0
 14 19  1  0
 14 15  2  0
 15 16  1  0
 15 44  1  0
 16 17  2  0
 16 45  1  0
 17 18  1  0
 17 46  1  0
 18 19  2  0
 18 47  1  0
 19 48  1  0
 20 32  1  0
 20 21  2  0
 21 22  1  0
 21 49  1  0
 22 23  2  0
 22 50  1  0
 23 24  1  0
 23 51  1  0
 24 25  1  0
 24 32  2  0
 25 31  1  0
 25 26  2  0
 26 27  1  0
 26 52  1  0
 27 28  2  0
 27 53  1  0
 28 29  1  0
 28 30  1  0
 29 54  1  0
 29 55  1  0
 30 31  2  0
 30 56  1  0
 31 57  1  0
 32 33  1  0
 34 35  1  0
 36 37  1  0
 36 58  1  0
 37 59  1  0
M  CHG  1  34   1
M  END
>  <DOCK_score>  (1) 
-59.737507

>  <SMILES>  (1) 
Nc1ccc(-c2c[nH]c(N[C@H](c3ccccc3)c3cccc(-c4ccc(N)cc4)c3Cl)[nH+]2)cc1

$$$$
