C=C[C@H](O)C=Cc1c[nH]c(NC(Cc2ccccc2)c2ccccc2)[nH+]1
     RDKit          3D

 50 52  0  0  1  0  0  0  0  0999 V2000
  130.1447  130.8796  151.2361 C   0  0  0  0  0  0  0  0  0  0  0  0
  130.4745  131.6757  152.2228 C   0  0  0  0  0  0  0  0  0  0  0  0
  131.1007  131.1090  153.4709 C   0  0  2  0  0  0  0  0  0  0  0  0
  132.1850  131.0964  153.3598 H   0  0  0  0  0  0  0  0  0  0  0  0
  130.6277  129.7768  153.6786 O   0  0  0  0  0  0  0  0  0  0  0  0
  130.7268  131.9649  154.6535 C   0  0  0  0  0  0  0  0  0  0  0  0
  130.6217  131.4213  155.8589 C   0  0  0  0  0  0  0  0  0  0  0  0
  130.2552  132.2605  157.0182 C   0  0  0  0  0  0  0  0  0  0  0  0
  129.5798  131.8483  158.1225 C   0  0  0  0  0  0  0  0  0  0  0  0
  129.4545  132.9415  158.9436 N   0  0  0  0  0  0  0  0  0  0  0  0
  129.0174  132.9625  159.8092 H   0  0  0  0  0  0  0  0  0  0  0  0
  130.0561  133.9908  158.3190 C   0  0  0  0  0  0  0  0  0  0  0  0
  130.1492  135.2791  158.8170 N   0  0  0  0  0  0  0  0  0  0  0  0
  129.5700  135.6032  160.1230 C   0  0  1  0  0  0  0  0  0  0  0  0
  129.8097  137.0817  160.4344 C   0  0  0  0  0  0  0  0  0  0  0  0
  131.2914  137.3560  160.4600 C   0  0  0  0  0  0  0  0  0  0  0  0
  131.7701  138.6014  160.0988 C   0  0  0  0  0  0  0  0  0  0  0  0
  133.1288  138.8544  160.1270 C   0  0  0  0  0  0  0  0  0  0  0  0
  134.0094  137.8593  160.5069 C   0  0  0  0  0  0  0  0  0  0  0  0
  133.5311  136.6117  160.8625 C   0  0  0  0  0  0  0  0  0  0  0  0
  132.1720  136.3603  160.8394 C   0  0  0  0  0  0  0  0  0  0  0  0
  128.0884  135.3290  160.0973 C   0  0  0  0  0  0  0  0  0  0  0  0
  127.4359  134.9469  161.2545 C   0  0  0  0  0  0  0  0  0  0  0  0
  126.0759  134.7001  161.2319 C   0  0  0  0  0  0  0  0  0  0  0  0
  125.3704  134.8256  160.0500 C   0  0  0  0  0  0  0  0  0  0  0  0
  126.0237  135.2022  158.8914 C   0  0  0  0  0  0  0  0  0  0  0  0
  127.3827  135.4541  158.9151 C   0  0  0  0  0  0  0  0  0  0  0  0
  130.5384  133.5797  157.1721 N   0  0  0  0  0  0  0  0  0  0  0  0
  131.0185  134.1301  156.5339 H   0  0  0  0  0  0  0  0  0  0  0  0
  129.6959  131.2856  150.3416 H   0  0  0  0  0  0  0  0  0  0  0  0
  130.3217  129.8172  151.3170 H   0  0  0  0  0  0  0  0  0  0  0  0
  130.2977  132.7379  152.1418 H   0  0  0  0  0  0  0  0  0  0  0  0
  129.6687  129.7120  153.7858 H   0  0  0  0  0  0  0  0  0  0  0  0
  130.5446  133.0211  154.5197 H   0  0  0  0  0  0  0  0  0  0  0  0
  130.8040  130.3652  155.9927 H   0  0  0  0  0  0  0  0  0  0  0  0
  129.2120  130.8516  158.3173 H   0  0  0  0  0  0  0  0  0  0  0  0
  130.5979  135.9671  158.3012 H   0  0  0  0  0  0  0  0  0  0  0  0
  130.0399  134.9892  160.8914 H   0  0  0  0  0  0  0  0  0  0  0  0
  129.3398  137.6958  159.6660 H   0  0  0  0  0  0  0  0  0  0  0  0
  129.3787  137.3230  161.4061 H   0  0  0  0  0  0  0  0  0  0  0  0
  131.0824  139.3780  159.7982 H   0  0  0  0  0  0  0  0  0  0  0  0
  133.5026  139.8287  159.8488 H   0  0  0  0  0  0  0  0  0  0  0  0
  135.0713  138.0557  160.5253 H   0  0  0  0  0  0  0  0  0  0  0  0
  134.2192  135.8339  161.1588 H   0  0  0  0  0  0  0  0  0  0  0  0
  131.7983  135.3859  161.1172 H   0  0  0  0  0  0  0  0  0  0  0  0
  127.9880  134.8449  162.1771 H   0  0  0  0  0  0  0  0  0  0  0  0
  125.5655  134.4056  162.1369 H   0  0  0  0  0  0  0  0  0  0  0  0
  124.3084  134.6292  160.0315 H   0  0  0  0  0  0  0  0  0  0  0  0
  125.4724  135.2998  157.9679 H   0  0  0  0  0  0  0  0  0  0  0  0
  127.8933  135.7483  158.0101 H   0  0  0  0  0  0  0  0  0  0  0  0
  1  2  2  0
  1 30  1  0
  1 31  1  0
  2  3  1  0
  2 32  1  0
  3  4  1  6
  3  5  1  0
  3  6  1  0
  5 33  1  0
  6  7  2  0
  6 34  1  0
  7  8  1  0
  7 35  1  0
  8 28  1  0
  8  9  2  0
  9 10  1  0
  9 36  1  0
 10 11  1  0
 10 12  1  0
 12 13  1  0
 12 28  2  0
 13 14  1  0
 13 37  1  0
 14 15  1  0
 14 22  1  0
 14 38  1  1
 15 16  1  0
 15 39  1  0
 15 40  1  0
 16 21  1  0
 16 17  2  0
 17 18  1  0
 17 41  1  0
 18 19  2  0
 18 42  1  0
 19 20  1  0
 19 43  1  0
 20 21  2  0
 20 44  1  0
 21 45  1  0
 22 27  1  0
 22 23  2  0
 23 24  1  0
 23 46  1  0
 24 25  2  0
 24 47  1  0
 25 26  1  0
 25 48  1  0
 26 27  2  0
 26 49  1  0
 27 50  1  0
 28 29  1  0
M  CHG  1  28   1
M  END
>  <DOCK_score>  (1) 
-57.384426

>  <SMILES>  (1) 
C=C[C@H](O)C=Cc1c[nH]c(NC(Cc2ccccc2)c2ccccc2)[nH+]1

$$$$
