CNc1ccc(Sc2c[nH+]ccc2N)c(N[C@H](C)c2n[nH]c(C)n2)c1
     RDKit          3D

 47 49  0  0  1  0  0  0  0  0999 V2000
  125.4591  134.3300  160.5110 C   0  0  0  0  0  0  0  0  0  0  0  0
  125.8087  135.5591  161.2276 N   0  0  0  0  0  0  0  0  0  0  0  0
  127.0786  135.6987  161.7990 C   0  0  0  0  0  0  0  0  0  0  0  0
  127.4095  136.8641  162.4781 C   0  0  0  0  0  0  0  0  0  0  0  0
  128.6610  137.0033  163.0479 C   0  0  0  0  0  0  0  0  0  0  0  0
  129.5939  135.9833  162.9338 C   0  0  0  0  0  0  0  0  0  0  0  0
  131.1912  136.1642  163.6553 S   0  0  0  0  0  0  0  0  0  0  0  0
  132.1308  136.8990  162.3583 C   0  0  0  0  0  0  0  0  0  0  0  0
  131.8226  136.6407  161.0322 C   0  0  0  0  0  0  0  0  0  0  0  0
  132.5239  137.1888  160.0576 N   0  0  0  0  0  0  0  0  0  0  0  0
  132.2866  136.9907  159.1382 H   0  0  0  0  0  0  0  0  0  0  0  0
  133.5383  137.9981  160.2969 C   0  0  0  0  0  0  0  0  0  0  0  0
  133.9082  138.3114  161.5898 C   0  0  0  0  0  0  0  0  0  0  0  0
  133.2015  137.7533  162.6514 C   0  0  0  0  0  0  0  0  0  0  0  0
  133.5468  138.0414  163.9715 N   0  0  0  0  0  0  0  0  0  0  0  0
  129.2644  134.8115  162.2522 C   0  0  0  0  0  0  0  0  0  0  0  0
  130.2020  133.7786  162.1396 N   0  0  0  0  0  0  0  0  0  0  0  0
  129.8546  132.5486  161.4237 C   0  0  2  0  0  0  0  0  0  0  0  0
  128.8279  132.2685  161.6596 H   0  0  0  0  0  0  0  0  0  0  0  0
  130.8009  131.4250  161.8514 C   0  0  0  0  0  0  0  0  0  0  0  0
  129.9846  132.7773  159.9399 C   0  0  0  0  0  0  0  0  0  0  0  0
  130.3501  133.8970  159.3730 N   0  0  0  0  0  0  0  0  0  0  0  0
  130.3380  133.6727  157.9867 N   0  0  0  0  0  0  0  0  0  0  0  0
  130.5624  134.3118  157.2924 H   0  0  0  0  0  0  0  0  0  0  0  0
  129.9547  132.3960  157.8131 C   0  0  0  0  0  0  0  0  0  0  0  0
  129.7926  131.6928  156.4901 C   0  0  0  0  0  0  0  0  0  0  0  0
  129.7510  131.8692  158.9931 N   0  0  0  0  0  0  0  0  0  0  0  0
  128.0067  134.6721  161.6862 C   0  0  0  0  0  0  0  0  0  0  0  0
  126.1418  134.1915  159.6727 H   0  0  0  0  0  0  0  0  0  0  0  0
  125.5380  133.4797  161.1883 H   0  0  0  0  0  0  0  0  0  0  0  0
  124.4372  134.4045  160.1391 H   0  0  0  0  0  0  0  0  0  0  0  0
  125.1601  136.2760  161.3058 H   0  0  0  0  0  0  0  0  0  0  0  0
  126.6861  137.6613  162.5647 H   0  0  0  0  0  0  0  0  0  0  0  0
  128.9142  137.9089  163.5793 H   0  0  0  0  0  0  0  0  0  0  0  0
  130.9991  135.9840  160.7936 H   0  0  0  0  0  0  0  0  0  0  0  0
  134.0849  138.4249  159.4690 H   0  0  0  0  0  0  0  0  0  0  0  0
  134.7374  138.9781  161.7751 H   0  0  0  0  0  0  0  0  0  0  0  0
  133.0429  137.6487  164.7015 H   0  0  0  0  0  0  0  0  0  0  0  0
  134.2932  138.6318  164.1599 H   0  0  0  0  0  0  0  0  0  0  0  0
  131.0819  133.8771  162.5358 H   0  0  0  0  0  0  0  0  0  0  0  0
  131.8275  131.7051  161.6155 H   0  0  0  0  0  0  0  0  0  0  0  0
  130.7069  131.2596  162.9246 H   0  0  0  0  0  0  0  0  0  0  0  0
  130.5424  130.5098  161.3187 H   0  0  0  0  0  0  0  0  0  0  0  0
  130.7355  131.2226  156.2107 H   0  0  0  0  0  0  0  0  0  0  0  0
  129.0181  130.9307  156.5761 H   0  0  0  0  0  0  0  0  0  0  0  0
  129.5072  132.4163  155.7265 H   0  0  0  0  0  0  0  0  0  0  0  0
  127.7490  133.7663  161.1578 H   0  0  0  0  0  0  0  0  0  0  0  0
  1  2  1  0
  1 29  1  0
  1 30  1  0
  1 31  1  0
  2  3  1  0
  2 32  1  0
  3 28  2  0
  3  4  1  0
  4  5  2  0
  4 33  1  0
  5  6  1  0
  5 34  1  0
  6  7  1  0
  6 16  2  0
  7  8  1  0
  8 14  1  0
  8  9  2  0
  9 10  1  0
  9 35  1  0
 10 11  1  0
 10 12  2  0
 12 13  1  0
 12 36  1  0
 13 14  2  0
 13 37  1  0
 14 15  1  0
 15 38  1  0
 15 39  1  0
 16 17  1  0
 16 28  1  0
 17 18  1  0
 17 40  1  0
 18 19  1  6
 18 20  1  0
 18 21  1  0
 20 41  1  0
 20 42  1  0
 20 43  1  0
 21 27  1  0
 21 22  2  0
 22 23  1  0
 23 24  1  0
 23 25  1  0
 25 26  1  0
 25 27  2  0
 26 44  1  0
 26 45  1  0
 26 46  1  0
 28 47  1  0
M  CHG  1  10   1
M  END
>  <DOCK_score>  (1) 
-40.959583

>  <SMILES>  (1) 
CNc1ccc(Sc2c[nH+]ccc2N)c(N[C@H](C)c2n[nH]c(C)n2)c1

$$$$
