CC1(C)CC1[C@H](Nc1[nH]cc(-c2ccc(N)cc2)[nH+]1)C1=C(Br)CCCCC1
     RDKit          3D

 57 60  0  0  1  0  0  0  0  0999 V2000
  132.9175  135.8765  161.0987 C   0  0  0  0  0  0  0  0  0  0  0  0
  131.8373  136.9451  161.2780 C   0  0  0  0  0  0  0  0  0  0  0  0
  132.2774  138.3826  160.9938 C   0  0  0  0  0  0  0  0  0  0  0  0
  130.8061  136.7282  162.3873 C   0  0  0  0  0  0  0  0  0  0  0  0
  130.3994  136.5630  160.9216 C   0  0  2  0  0  0  0  0  0  0  0  0
  130.1516  135.1414  160.4132 C   0  0  2  0  0  0  0  0  0  0  0  0
  130.7610  134.4403  160.9832 H   0  0  0  0  0  0  0  0  0  0  0  0
  130.5108  135.0602  158.9953 N   0  0  0  0  0  0  0  0  0  0  0  0
  130.3705  133.8637  158.3132 C   0  0  0  0  0  0  0  0  0  0  0  0
  129.9070  132.6991  158.8427 N   0  0  0  0  0  0  0  0  0  0  0  0
  129.6182  132.5588  159.7580 H   0  0  0  0  0  0  0  0  0  0  0  0
  129.9238  131.7579  157.8406 C   0  0  0  0  0  0  0  0  0  0  0  0
  130.3967  132.3749  156.7297 C   0  0  0  0  0  0  0  0  0  0  0  0
  130.5891  131.7489  155.3986 C   0  0  0  0  0  0  0  0  0  0  0  0
  130.4633  132.5162  154.2415 C   0  0  0  0  0  0  0  0  0  0  0  0
  130.6483  131.9335  153.0055 C   0  0  0  0  0  0  0  0  0  0  0  0
  130.9484  130.5797  152.9123 C   0  0  0  0  0  0  0  0  0  0  0  0
  131.1300  129.9899  151.6590 N   0  0  0  0  0  0  0  0  0  0  0  0
  131.0685  129.8115  154.0642 C   0  0  0  0  0  0  0  0  0  0  0  0
  130.8901  130.3911  155.3026 C   0  0  0  0  0  0  0  0  0  0  0  0
  130.6572  133.6673  157.0492 N   0  0  0  0  0  0  0  0  0  0  0  0
  131.0026  134.3385  156.4401 H   0  0  0  0  0  0  0  0  0  0  0  0
  128.6950  134.7940  160.5831 C   0  0  0  0  0  0  0  0  0  0  0  0
  128.3545  133.7862  161.3244 C   0  0  0  0  0  0  0  0  0  0  0  0
  129.6886  132.7603  162.1868 Br  0  0  0  0  0  0  0  0  0  0  0  0
  126.8951  133.4262  161.5028 C   0  0  0  0  0  0  0  0  0  0  0  0
  126.3776  132.8224  160.1954 C   0  0  0  0  0  0  0  0  0  0  0  0
  125.9178  133.9128  159.2440 C   0  0  0  0  0  0  0  0  0  0  0  0
  127.0440  134.8018  158.7397 C   0  0  0  0  0  0  0  0  0  0  0  0
  127.6372  135.6231  159.8866 C   0  0  0  0  0  0  0  0  0  0  0  0
  132.8872  135.4971  160.0773 H   0  0  0  0  0  0  0  0  0  0  0  0
  133.8967  136.3131  161.2953 H   0  0  0  0  0  0  0  0  0  0  0  0
  132.7380  135.0579  161.7957 H   0  0  0  0  0  0  0  0  0  0  0  0
  131.6482  139.0730  161.5556 H   0  0  0  0  0  0  0  0  0  0  0  0
  133.3169  138.5108  161.2955 H   0  0  0  0  0  0  0  0  0  0  0  0
  132.1805  138.5883  159.9278 H   0  0  0  0  0  0  0  0  0  0  0  0
  130.4411  137.6096  162.9146 H   0  0  0  0  0  0  0  0  0  0  0  0
  130.8968  135.8241  162.9893 H   0  0  0  0  0  0  0  0  0  0  0  0
  129.7664  137.3354  160.4848 H   0  0  0  0  0  0  0  0  0  0  0  0
  130.8470  135.8447  158.5344 H   0  0  0  0  0  0  0  0  0  0  0  0
  129.6187  130.7252  157.9227 H   0  0  0  0  0  0  0  0  0  0  0  0
  130.2255  133.5673  154.3134 H   0  0  0  0  0  0  0  0  0  0  0  0
  130.5551  132.5285  152.1091 H   0  0  0  0  0  0  0  0  0  0  0  0
  131.3398  129.0456  151.5929 H   0  0  0  0  0  0  0  0  0  0  0  0
  131.0464  130.5258  150.8544 H   0  0  0  0  0  0  0  0  0  0  0  0
  131.3014  128.7594  153.9894 H   0  0  0  0  0  0  0  0  0  0  0  0
  130.9838  129.7939  156.1975 H   0  0  0  0  0  0  0  0  0  0  0  0
  126.7936  132.6981  162.3076 H   0  0  0  0  0  0  0  0  0  0  0  0
  126.3244  134.3224  161.7462 H   0  0  0  0  0  0  0  0  0  0  0  0
  127.1755  132.2483  159.7247 H   0  0  0  0  0  0  0  0  0  0  0  0
  125.5400  132.1597  160.4131 H   0  0  0  0  0  0  0  0  0  0  0  0
  125.4333  133.4457  158.3866 H   0  0  0  0  0  0  0  0  0  0  0  0
  125.1862  134.5372  159.7567 H   0  0  0  0  0  0  0  0  0  0  0  0
  126.6597  135.4776  157.9758 H   0  0  0  0  0  0  0  0  0  0  0  0
  127.8240  134.1766  158.3054 H   0  0  0  0  0  0  0  0  0  0  0  0
  126.8508  135.8832  160.5953 H   0  0  0  0  0  0  0  0  0  0  0  0
  128.0878  136.5330  159.4901 H   0  0  0  0  0  0  0  0  0  0  0  0
  1  2  1  0
  1 31  1  0
  1 32  1  0
  1 33  1  0
  2  5  1  0
  2  3  1  0
  2  4  1  0
  3 34  1  0
  3 35  1  0
  3 36  1  0
  4  5  1  0
  4 37  1  0
  4 38  1  0
  5  6  1  0
  5 39  1  6
  6  7  1  1
  6  8  1  0
  6 23  1  0
  8 40  1  0
  9  8  1  0
  9 21  2  0
  9 10  1  0
 10 11  1  0
 10 12  1  0
 12 13  2  0
 12 41  1  0
 13 14  1  0
 13 21  1  0
 14 20  1  0
 14 15  2  0
 15 16  1  0
 15 42  1  0
 16 17  2  0
 16 43  1  0
 17 18  1  0
 17 19  1  0
 18 44  1  0
 18 45  1  0
 19 20  2  0
 19 46  1  0
 20 47  1  0
 21 22  1  0
 23 30  1  0
 23 24  2  0
 24 25  1  0
 24 26  1  0
 26 27  1  0
 26 48  1  0
 26 49  1  0
 27 28  1  0
 27 50  1  0
 27 51  1  0
 28 29  1  0
 28 52  1  0
 28 53  1  0
 29 30  1  0
 29 54  1  0
 29 55  1  0
 30 56  1  0
 30 57  1  0
M  CHG  1  21   1
M  END
>  <DOCK_score>  (1) 
-57.502739

>  <SMILES>  (1) 
CC1(C)CC1[C@H](Nc1[nH]cc(-c2ccc(N)cc2)[nH+]1)C1=C(Br)CCCCC1

$$$$
