Brc1ccccc1C[NH2+]Cc1c[nH]nc1-c1ccc(NCC2=CCCC2)o1
     RDKit          3D

 51 54  0  0  0  0  0  0  0  0999 V2000
  131.2268  139.1905  158.8333 Br  0  0  0  0  0  0  0  0  0  0  0  0
  133.0638  139.1054  159.2733 C   0  0  0  0  0  0  0  0  0  0  0  0
  133.9692  139.9270  158.6258 C   0  0  0  0  0  0  0  0  0  0  0  0
  135.3124  139.8609  158.9442 C   0  0  0  0  0  0  0  0  0  0  0  0
  135.7507  138.9774  159.9133 C   0  0  0  0  0  0  0  0  0  0  0  0
  134.8457  138.1605  160.5645 C   0  0  0  0  0  0  0  0  0  0  0  0
  133.5020  138.2261  160.2468 C   0  0  0  0  0  0  0  0  0  0  0  0
  132.5154  137.3349  160.9565 C   0  0  0  0  0  0  0  0  0  0  0  0
  132.3816  136.0699  160.2217 N   0  0  0  0  0  0  0  0  0  0  0  0
  133.2787  135.6101  160.1773 H   0  0  0  0  0  0  0  0  0  0  0  0
  132.0531  136.2573  159.2863 H   0  0  0  0  0  0  0  0  0  0  0  0
  131.4201  135.2011  160.9135 C   0  0  0  0  0  0  0  0  0  0  0  0
  131.2829  133.9034  160.1598 C   0  0  0  0  0  0  0  0  0  0  0  0
  132.2955  133.1623  159.6614 C   0  0  0  0  0  0  0  0  0  0  0  0
  131.7623  132.0801  159.0541 N   0  0  0  0  0  0  0  0  0  0  0  0
  132.2585  131.3767  158.6068 H   0  0  0  0  0  0  0  0  0  0  0  0
  130.3696  132.1458  159.1870 N   0  0  0  0  0  0  0  0  0  0  0  0
  130.0736  133.2442  159.8536 C   0  0  0  0  0  0  0  0  0  0  0  0
  128.7166  133.7034  160.2151 C   0  0  0  0  0  0  0  0  0  0  0  0
  127.5547  133.0618  159.9229 C   0  0  0  0  0  0  0  0  0  0  0  0
  126.5110  133.8463  160.4524 C   0  0  0  0  0  0  0  0  0  0  0  0
  127.0857  134.9251  161.0400 C   0  0  0  0  0  0  0  0  0  0  0  0
  126.4102  135.9537  161.6866 N   0  0  0  0  0  0  0  0  0  0  0  0
  127.1604  137.0634  162.2799 C   0  0  0  0  0  0  0  0  0  0  0  0
  128.1012  136.5294  163.3292 C   0  0  0  0  0  0  0  0  0  0  0  0
  129.2456  137.0742  163.6407 C   0  0  0  0  0  0  0  0  0  0  0  0
  129.9405  136.2937  164.7322 C   0  0  0  0  0  0  0  0  0  0  0  0
  128.8382  135.3929  165.3360 C   0  0  0  0  0  0  0  0  0  0  0  0
  127.8463  135.2894  164.1543 C   0  0  0  0  0  0  0  0  0  0  0  0
  128.4186  134.8292  160.8974 O   0  0  0  0  0  0  0  0  0  0  0  0
  133.6271  140.6169  157.8686 H   0  0  0  0  0  0  0  0  0  0  0  0
  136.0198  140.4995  158.4361 H   0  0  0  0  0  0  0  0  0  0  0  0
  136.8005  138.9260  160.1618 H   0  0  0  0  0  0  0  0  0  0  0  0
  135.1885  137.4705  161.3214 H   0  0  0  0  0  0  0  0  0  0  0  0
  131.5464  137.8314  161.0045 H   0  0  0  0  0  0  0  0  0  0  0  0
  132.8703  137.1323  161.9669 H   0  0  0  0  0  0  0  0  0  0  0  0
  130.4510  135.6977  160.9615 H   0  0  0  0  0  0  0  0  0  0  0  0
  131.7749  134.9986  161.9240 H   0  0  0  0  0  0  0  0  0  0  0  0
  133.3476  133.3954  159.7334 H   0  0  0  0  0  0  0  0  0  0  0  0
  127.4514  132.1293  159.3878 H   0  0  0  0  0  0  0  0  0  0  0  0
  125.4543  133.6294  160.4006 H   0  0  0  0  0  0  0  0  0  0  0  0
  125.4421  135.9365  161.7450 H   0  0  0  0  0  0  0  0  0  0  0  0
  127.7326  137.5712  161.5035 H   0  0  0  0  0  0  0  0  0  0  0  0
  126.4660  137.7671  162.7387 H   0  0  0  0  0  0  0  0  0  0  0  0
  129.6427  137.9669  163.1804 H   0  0  0  0  0  0  0  0  0  0  0  0
  130.3376  136.9682  165.4907 H   0  0  0  0  0  0  0  0  0  0  0  0
  130.7401  135.6846  164.3108 H   0  0  0  0  0  0  0  0  0  0  0  0
  128.3716  135.8699  166.1978 H   0  0  0  0  0  0  0  0  0  0  0  0
  129.2352  134.4129  165.6006 H   0  0  0  0  0  0  0  0  0  0  0  0
  126.8196  135.2810  164.5200 H   0  0  0  0  0  0  0  0  0  0  0  0
  128.0464  134.3940  163.5657 H   0  0  0  0  0  0  0  0  0  0  0  0
  1  2  1  0
  2  7  2  0
  2  3  1  0
  3  4  2  0
  3 31  1  0
  4  5  1  0
  4 32  1  0
  5  6  2  0
  5 33  1  0
  6  7  1  0
  6 34  1  0
  7  8  1  0
  8  9  1  0
  8 35  1  0
  8 36  1  0
  9 10  1  0
  9 11  1  0
  9 12  1  0
 12 13  1  0
 12 37  1  0
 12 38  1  0
 13 18  1  0
 13 14  2  0
 14 15  1  0
 14 39  1  0
 15 16  1  0
 15 17  1  0
 17 18  2  0
 18 19  1  0
 19 30  1  0
 19 20  2  0
 20 21  1  0
 20 40  1  0
 21 22  2  0
 21 41  1  0
 22 23  1  0
 22 30  1  0
 23 24  1  0
 23 42  1  0
 24 25  1  0
 24 43  1  0
 24 44  1  0
 25 29  1  0
 25 26  2  0
 26 27  1  0
 26 45  1  0
 27 28  1  0
 27 46  1  0
 27 47  1  0
 28 29  1  0
 28 48  1  0
 28 49  1  0
 29 50  1  0
 29 51  1  0
M  CHG  1   9   1
M  END
>  <DOCK_score>  (1) 
-43.285217

>  <SMILES>  (1) 
Brc1ccccc1C[NH2+]Cc1c[nH]nc1-c1ccc(NCC2=CCCC2)o1

$$$$
