Nc1ccc(-c2c[nH]c(Nc3ccccc3C3=CCN([C@H](Cl)c4ccccc4)CC3)[nH+]2)cc1
     RDKit          3D

 60 64  0  0  1  0  0  0  0  0999 V2000
  131.5231  129.6471  152.0268 N   0  0  0  0  0  0  0  0  0  0  0  0
  131.1908  130.3864  153.1645 C   0  0  0  0  0  0  0  0  0  0  0  0
  130.7287  131.6901  153.0341 C   0  0  0  0  0  0  0  0  0  0  0  0
  130.3999  132.4219  154.1556 C   0  0  0  0  0  0  0  0  0  0  0  0
  130.5311  131.8525  155.4212 C   0  0  0  0  0  0  0  0  0  0  0  0
  130.1786  132.6380  156.6295 C   0  0  0  0  0  0  0  0  0  0  0  0
  129.7100  132.1358  157.7990 C   0  0  0  0  0  0  0  0  0  0  0  0
  129.5111  133.2041  158.6401 N   0  0  0  0  0  0  0  0  0  0  0  0
  129.1776  133.1648  159.5501 H   0  0  0  0  0  0  0  0  0  0  0  0
  129.8692  134.3277  157.9606 C   0  0  0  0  0  0  0  0  0  0  0  0
  129.8186  135.6207  158.4554 N   0  0  0  0  0  0  0  0  0  0  0  0
  128.8615  135.9652  159.4104 C   0  0  0  0  0  0  0  0  0  0  0  0
  127.6364  135.3140  159.4357 C   0  0  0  0  0  0  0  0  0  0  0  0
  126.6901  135.6565  160.3819 C   0  0  0  0  0  0  0  0  0  0  0  0
  126.9557  136.6490  161.3101 C   0  0  0  0  0  0  0  0  0  0  0  0
  128.1689  137.3055  161.2993 C   0  0  0  0  0  0  0  0  0  0  0  0
  129.1353  136.9667  160.3521 C   0  0  0  0  0  0  0  0  0  0  0  0
  130.4377  137.6628  160.3384 C   0  0  0  0  0  0  0  0  0  0  0  0
  130.5610  138.7569  159.6183 C   0  0  0  0  0  0  0  0  0  0  0  0
  131.8407  139.5374  159.5273 C   0  0  0  0  0  0  0  0  0  0  0  0
  132.7434  139.1631  160.6232 N   0  0  0  0  0  0  0  0  0  0  0  0
  134.0486  139.8215  160.4785 C   0  0  2  0  0  0  0  0  0  0  0  0
  133.9135  140.9030  160.4910 H   0  0  0  0  0  0  0  0  0  0  0  0
  134.8006  139.3278  158.9158 Cl  0  0  0  0  0  0  0  0  0  0  0  0
  134.9460  139.4141  161.6185 C   0  0  0  0  0  0  0  0  0  0  0  0
  134.9650  140.1587  162.7831 C   0  0  0  0  0  0  0  0  0  0  0  0
  135.7846  139.7822  163.8308 C   0  0  0  0  0  0  0  0  0  0  0  0
  136.5923  138.6671  163.7101 C   0  0  0  0  0  0  0  0  0  0  0  0
  136.5775  137.9258  162.5434 C   0  0  0  0  0  0  0  0  0  0  0  0
  135.7542  138.2993  161.4978 C   0  0  0  0  0  0  0  0  0  0  0  0
  132.8943  137.6999  160.6826 C   0  0  0  0  0  0  0  0  0  0  0  0
  131.5669  137.0957  161.1529 C   0  0  0  0  0  0  0  0  0  0  0  0
  130.2702  133.9846  156.7606 N   0  0  0  0  0  0  0  0  0  0  0  0
  130.5792  134.5967  156.0745 H   0  0  0  0  0  0  0  0  0  0  0  0
  130.9997  130.5459  155.5503 C   0  0  0  0  0  0  0  0  0  0  0  0
  131.3226  129.8163  154.4257 C   0  0  0  0  0  0  0  0  0  0  0  0
  131.4315  130.0432  151.1470 H   0  0  0  0  0  0  0  0  0  0  0  0
  131.8462  128.7361  152.1178 H   0  0  0  0  0  0  0  0  0  0  0  0
  130.6271  132.1308  152.0534 H   0  0  0  0  0  0  0  0  0  0  0  0
  130.0407  133.4352  154.0536 H   0  0  0  0  0  0  0  0  0  0  0  0
  129.5250  131.0960  158.0246 H   0  0  0  0  0  0  0  0  0  0  0  0
  130.4486  136.2864  158.1381 H   0  0  0  0  0  0  0  0  0  0  0  0
  127.4225  134.5389  158.7147 H   0  0  0  0  0  0  0  0  0  0  0  0
  125.7377  135.1475  160.3976 H   0  0  0  0  0  0  0  0  0  0  0  0
  126.2097  136.9099  162.0462 H   0  0  0  0  0  0  0  0  0  0  0  0
  128.3714  138.0791  162.0254 H   0  0  0  0  0  0  0  0  0  0  0  0
  129.7023  139.1099  159.0668 H   0  0  0  0  0  0  0  0  0  0  0  0
  132.3248  139.3274  158.5734 H   0  0  0  0  0  0  0  0  0  0  0  0
  131.6194  140.6027  159.5928 H   0  0  0  0  0  0  0  0  0  0  0  0
  134.3369  141.0323  162.8758 H   0  0  0  0  0  0  0  0  0  0  0  0
  135.7964  140.3616  164.7422 H   0  0  0  0  0  0  0  0  0  0  0  0
  137.2355  138.3750  164.5273 H   0  0  0  0  0  0  0  0  0  0  0  0
  137.2090  137.0546  162.4489 H   0  0  0  0  0  0  0  0  0  0  0  0
  135.7425  137.7200  160.5862 H   0  0  0  0  0  0  0  0  0  0  0  0
  133.1447  137.3173  159.6931 H   0  0  0  0  0  0  0  0  0  0  0  0
  133.6859  137.4417  161.3860 H   0  0  0  0  0  0  0  0  0  0  0  0
  131.4094  137.3321  162.2052 H   0  0  0  0  0  0  0  0  0  0  0  0
  131.5981  136.0136  161.0256 H   0  0  0  0  0  0  0  0  0  0  0  0
  131.1060  130.1043  156.5302 H   0  0  0  0  0  0  0  0  0  0  0  0
  131.6821  128.8027  154.5251 H   0  0  0  0  0  0  0  0  0  0  0  0
  1  2  1  0
  1 37  1  0
  1 38  1  0
  2 36  2  0
  2  3  1  0
  3  4  2  0
  3 39  1  0
  4  5  1  0
  4 40  1  0
  5  6  1  0
  5 35  2  0
  6 33  1  0
  6  7  2  0
  7  8  1  0
  7 41  1  0
  8  9  1  0
  8 10  1  0
 10 11  1  0
 10 33  2  0
 11 12  1  0
 11 42  1  0
 12 17  1  0
 12 13  2  0
 13 14  1  0
 13 43  1  0
 14 15  2  0
 14 44  1  0
 15 16  1  0
 15 45  1  0
 16 17  2  0
 16 46  1  0
 17 18  1  0
 18 32  1  0
 18 19  2  0
 19 20  1  0
 19 47  1  0
 20 21  1  0
 20 48  1  0
 20 49  1  0
 21 22  1  0
 21 31  1  0
 22 23  1  6
 22 24  1  0
 22 25  1  0
 25 30  1  0
 25 26  2  0
 26 27  1  0
 26 50  1  0
 27 28  2  0
 27 51  1  0
 28 29  1  0
 28 52  1  0
 29 30  2  0
 29 53  1  0
 30 54  1  0
 31 32  1  0
 31 55  1  0
 31 56  1  0
 32 57  1  0
 32 58  1  0
 33 34  1  0
 35 36  1  0
 35 59  1  0
 36 60  1  0
M  CHG  1  33   1
M  END
>  <DOCK_score>  (1) 
-64.583916

>  <SMILES>  (1) 
Nc1ccc(-c2c[nH]c(Nc3ccccc3C3=CCN([C@H](Cl)c4ccccc4)CC3)[nH+]2)cc1

$$$$
