Cn1nccc1C([C@H](Nc1[nH]cc(-c2ccc(N)cc2)[nH+]1)c1ccnn1C)C(F)(F)F
     RDKit          3D

 53 56  0  0  1  0  0  0  0  0999 V2000
  131.0382  139.0094  159.1013 C   0  0  0  0  0  0  0  0  0  0  0  0
  131.5961  138.0184  160.0249 N   0  0  0  0  0  0  0  0  0  0  0  0
  132.9377  137.9194  160.4155 N   0  0  0  0  0  0  0  0  0  0  0  0
  133.0493  136.9114  161.2423 C   0  0  0  0  0  0  0  0  0  0  0  0
  131.7834  136.3403  161.4084 C   0  0  0  0  0  0  0  0  0  0  0  0
  130.9077  137.0414  160.6517 C   0  0  0  0  0  0  0  0  0  0  0  0
  129.4298  136.7748  160.5261 C   0  0  1  0  0  0  0  0  0  0  0  0
  129.2109  135.3611  159.9837 C   0  0  2  0  0  0  0  0  0  0  0  0
  129.3202  134.6401  160.7938 H   0  0  0  0  0  0  0  0  0  0  0  0
  130.2013  135.0789  158.9418 N   0  0  0  0  0  0  0  0  0  0  0  0
  130.2007  133.8522  158.3002 C   0  0  0  0  0  0  0  0  0  0  0  0
  129.7985  132.6724  158.8461 N   0  0  0  0  0  0  0  0  0  0  0  0
  129.4635  132.5407  159.7467 H   0  0  0  0  0  0  0  0  0  0  0  0
  129.9554  131.7017  157.8852 C   0  0  0  0  0  0  0  0  0  0  0  0
  130.4428  132.3176  156.7800 C   0  0  0  0  0  0  0  0  0  0  0  0
  130.7640  131.6650  155.4870 C   0  0  0  0  0  0  0  0  0  0  0  0
  130.6466  132.3800  154.2960 C   0  0  0  0  0  0  0  0  0  0  0  0
  130.9514  131.7731  153.0959 C   0  0  0  0  0  0  0  0  0  0  0  0
  131.3637  130.4464  153.0719 C   0  0  0  0  0  0  0  0  0  0  0  0
  131.6661  129.8322  151.8541 N   0  0  0  0  0  0  0  0  0  0  0  0
  131.4765  129.7297  154.2578 C   0  0  0  0  0  0  0  0  0  0  0  0
  131.1783  130.3342  155.4606 C   0  0  0  0  0  0  0  0  0  0  0  0
  130.5883  133.6355  157.0668 N   0  0  0  0  0  0  0  0  0  0  0  0
  130.9218  134.3106  156.4553 H   0  0  0  0  0  0  0  0  0  0  0  0
  127.8250  135.2557  159.4010 C   0  0  0  0  0  0  0  0  0  0  0  0
  127.3304  135.9937  158.3805 C   0  0  0  0  0  0  0  0  0  0  0  0
  126.0132  135.5829  158.1511 C   0  0  0  0  0  0  0  0  0  0  0  0
  125.7273  134.6322  159.0034 N   0  0  0  0  0  0  0  0  0  0  0  0
  126.8569  134.4043  159.8001 N   0  0  0  0  0  0  0  0  0  0  0  0
  126.9667  133.4182  160.8778 C   0  0  0  0  0  0  0  0  0  0  0  0
  128.7702  136.9015  161.9009 C   0  0  0  0  0  0  0  0  0  0  0  0
  128.9705  138.1942  162.3969 F   0  0  0  0  0  0  0  0  0  0  0  0
  127.3983  136.6540  161.7845 F   0  0  0  0  0  0  0  0  0  0  0  0
  129.3389  135.9721  162.7784 F   0  0  0  0  0  0  0  0  0  0  0  0
  130.7192  139.8886  159.6612 H   0  0  0  0  0  0  0  0  0  0  0  0
  131.7981  139.2972  158.3750 H   0  0  0  0  0  0  0  0  0  0  0  0
  130.1823  138.5797  158.5809 H   0  0  0  0  0  0  0  0  0  0  0  0
  133.9615  136.5779  161.7146 H   0  0  0  0  0  0  0  0  0  0  0  0
  131.5468  135.4897  162.0304 H   0  0  0  0  0  0  0  0  0  0  0  0
  128.9868  137.4989  159.8425 H   0  0  0  0  0  0  0  0  0  0  0  0
  130.8575  135.7516  158.7015 H   0  0  0  0  0  0  0  0  0  0  0  0
  129.7291  130.6508  157.9892 H   0  0  0  0  0  0  0  0  0  0  0  0
  130.3212  133.4095  154.3137 H   0  0  0  0  0  0  0  0  0  0  0  0
  130.8647  132.3278  152.1734 H   0  0  0  0  0  0  0  0  0  0  0  0
  131.9540  128.9054  151.8370 H   0  0  0  0  0  0  0  0  0  0  0  0
  131.5873  130.3306  151.0266 H   0  0  0  0  0  0  0  0  0  0  0  0
  131.7975  128.6988  154.2369 H   0  0  0  0  0  0  0  0  0  0  0  0
  131.2662  129.7773  156.3819 H   0  0  0  0  0  0  0  0  0  0  0  0
  127.8591  136.7642  157.8389 H   0  0  0  0  0  0  0  0  0  0  0  0
  125.3470  135.9817  157.4005 H   0  0  0  0  0  0  0  0  0  0  0  0
  126.5682  133.8416  161.7998 H   0  0  0  0  0  0  0  0  0  0  0  0
  126.3996  132.5258  160.6129 H   0  0  0  0  0  0  0  0  0  0  0  0
  128.0142  133.1534  161.0227 H   0  0  0  0  0  0  0  0  0  0  0  0
  1  2  1  0
  1 35  1  0
  1 36  1  0
  1 37  1  0
  2  6  1  0
  2  3  1  0
  3  4  2  0
  4  5  1  0
  4 38  1  0
  5  6  2  0
  5 39  1  0
  6  7  1  0
  7  8  1  0
  7 31  1  0
  7 40  1  6
  8  9  1  1
  8 10  1  0
  8 25  1  0
 10 41  1  0
 11 10  1  0
 11 23  2  0
 11 12  1  0
 12 13  1  0
 12 14  1  0
 14 15  2  0
 14 42  1  0
 15 16  1  0
 15 23  1  0
 16 22  1  0
 16 17  2  0
 17 18  1  0
 17 43  1  0
 18 19  2  0
 18 44  1  0
 19 20  1  0
 19 21  1  0
 20 45  1  0
 20 46  1  0
 21 22  2  0
 21 47  1  0
 22 48  1  0
 23 24  1  0
 25 29  1  0
 25 26  2  0
 26 27  1  0
 26 49  1  0
 27 28  2  0
 27 50  1  0
 28 29  1  0
 29 30  1  0
 30 51  1  0
 30 52  1  0
 30 53  1  0
 31 32  1  0
 31 33  1  0
 31 34  1  0
M  CHG  1  23   1
M  END
>  <DOCK_score>  (1) 
-60.649208

>  <SMILES>  (1) 
Cn1nccc1C([C@H](Nc1[nH]cc(-c2ccc(N)cc2)[nH+]1)c1ccnn1C)C(F)(F)F

$$$$
