Nc1ccc(-c2c[nH]c(N[C@@H](C=CC3=COCCO3)c3ccc(F)cc3)[nH+]2)cc1
     RDKit          3D

 51 54  0  0  1  0  0  0  0  0999 V2000
  131.4465  129.4198  151.2551 N   0  0  0  0  0  0  0  0  0  0  0  0
  131.1474  130.0879  152.4450 C   0  0  0  0  0  0  0  0  0  0  0  0
  130.3774  131.2446  152.4166 C   0  0  0  0  0  0  0  0  0  0  0  0
  130.0811  131.9057  153.5899 C   0  0  0  0  0  0  0  0  0  0  0  0
  130.5544  131.4131  154.8050 C   0  0  0  0  0  0  0  0  0  0  0  0
  130.2368  132.1226  156.0686 C   0  0  0  0  0  0  0  0  0  0  0  0
  129.5572  131.6085  157.1232 C   0  0  0  0  0  0  0  0  0  0  0  0
  129.4898  132.5986  158.0748 N   0  0  0  0  0  0  0  0  0  0  0  0
  129.0641  132.5322  158.9439 H   0  0  0  0  0  0  0  0  0  0  0  0
  130.1307  133.6885  157.5722 C   0  0  0  0  0  0  0  0  0  0  0  0
  130.2871  134.9019  158.2203 N   0  0  0  0  0  0  0  0  0  0  0  0
  129.2771  135.3558  159.1794 C   0  0  1  0  0  0  0  0  0  0  0  0
  129.1955  134.6325  159.9907 H   0  0  0  0  0  0  0  0  0  0  0  0
  129.6817  136.6950  159.7392 C   0  0  0  0  0  0  0  0  0  0  0  0
  129.3212  137.0366  160.9730 C   0  0  0  0  0  0  0  0  0  0  0  0
  129.7162  138.3438  161.5193 C   0  0  0  0  0  0  0  0  0  0  0  0
  129.3457  138.6696  162.7585 C   0  0  0  0  0  0  0  0  0  0  0  0
  129.6758  139.8639  163.3099 O   0  0  0  0  0  0  0  0  0  0  0  0
  130.7327  140.5950  162.6769 C   0  0  0  0  0  0  0  0  0  0  0  0
  130.4920  140.5623  161.1607 C   0  0  0  0  0  0  0  0  0  0  0  0
  130.4509  139.1908  160.7480 O   0  0  0  0  0  0  0  0  0  0  0  0
  127.9459  135.4833  158.4844 C   0  0  0  0  0  0  0  0  0  0  0  0
  126.7755  135.2767  159.1907 C   0  0  0  0  0  0  0  0  0  0  0  0
  125.5540  135.3989  158.5557 C   0  0  0  0  0  0  0  0  0  0  0  0
  125.5033  135.7175  157.2093 C   0  0  0  0  0  0  0  0  0  0  0  0
  124.3099  135.8316  156.5862 F   0  0  0  0  0  0  0  0  0  0  0  0
  126.6763  135.9186  156.5017 C   0  0  0  0  0  0  0  0  0  0  0  0
  127.8963  135.8010  157.1399 C   0  0  0  0  0  0  0  0  0  0  0  0
  130.5708  133.4021  156.3712 N   0  0  0  0  0  0  0  0  0  0  0  0
  131.0593  134.0078  155.7920 H   0  0  0  0  0  0  0  0  0  0  0  0
  131.3312  130.2559  154.8305 C   0  0  0  0  0  0  0  0  0  0  0  0
  131.6199  129.5944  153.6555 C   0  0  0  0  0  0  0  0  0  0  0  0
  131.1165  129.7630  150.4100 H   0  0  0  0  0  0  0  0  0  0  0  0
  131.9835  128.6122  151.2742 H   0  0  0  0  0  0  0  0  0  0  0  0
  130.0113  131.6261  151.4749 H   0  0  0  0  0  0  0  0  0  0  0  0
  129.4826  132.8044  153.5674 H   0  0  0  0  0  0  0  0  0  0  0  0
  129.1472  130.6124  157.2009 H   0  0  0  0  0  0  0  0  0  0  0  0
  131.0657  135.4516  158.0393 H   0  0  0  0  0  0  0  0  0  0  0  0
  130.2645  137.3777  159.1385 H   0  0  0  0  0  0  0  0  0  0  0  0
  128.7384  136.3540  161.5736 H   0  0  0  0  0  0  0  0  0  0  0  0
  128.7642  137.9661  163.3361 H   0  0  0  0  0  0  0  0  0  0  0  0
  131.6915  140.1307  162.9078 H   0  0  0  0  0  0  0  0  0  0  0  0
  130.7286  141.6268  163.0283 H   0  0  0  0  0  0  0  0  0  0  0  0
  131.3042  141.0773  160.6476 H   0  0  0  0  0  0  0  0  0  0  0  0
  129.5432  141.0457  160.9277 H   0  0  0  0  0  0  0  0  0  0  0  0
  126.8157  135.0238  160.2399 H   0  0  0  0  0  0  0  0  0  0  0  0
  124.6397  135.2422  159.1087 H   0  0  0  0  0  0  0  0  0  0  0  0
  126.6378  136.1668  155.4513 H   0  0  0  0  0  0  0  0  0  0  0  0
  128.8115  135.9578  156.5883 H   0  0  0  0  0  0  0  0  0  0  0  0
  131.7026  129.8748  155.7703 H   0  0  0  0  0  0  0  0  0  0  0  0
  132.2179  128.6954  153.6751 H   0  0  0  0  0  0  0  0  0  0  0  0
  1  2  1  0
  1 33  1  0
  1 34  1  0
  2 32  2  0
  2  3  1  0
  3  4  2  0
  3 35  1  0
  4  5  1  0
  4 36  1  0
  5  6  1  0
  5 31  2  0
  6 29  1  0
  6  7  2  0
  7  8  1  0
  7 37  1  0
  8  9  1  0
  8 10  1  0
 10 11  1  0
 10 29  2  0
 11 12  1  0
 11 38  1  0
 12 13  1  1
 12 14  1  0
 12 22  1  0
 14 15  2  0
 14 39  1  0
 15 16  1  0
 15 40  1  0
 16 21  1  0
 16 17  2  0
 17 18  1  0
 17 41  1  0
 18 19  1  0
 19 20  1  0
 19 42  1  0
 19 43  1  0
 20 21  1  0
 20 44  1  0
 20 45  1  0
 22 28  1  0
 22 23  2  0
 23 24  1  0
 23 46  1  0
 24 25  2  0
 24 47  1  0
 25 26  1  0
 25 27  1  0
 27 28  2  0
 27 48  1  0
 28 49  1  0
 29 30  1  0
 31 32  1  0
 31 50  1  0
 32 51  1  0
M  CHG  1  29   1
M  END
>  <DOCK_score>  (1) 
-63.114315

>  <SMILES>  (1) 
Nc1ccc(-c2c[nH]c(N[C@@H](C=CC3=COCCO3)c3ccc(F)cc3)[nH+]2)cc1

$$$$
