CC1(c2ccc(N[C@@H]3C=CCC3)cc2)CC[NH+](C[C@@H](O)c2ccc(Br)cc2)CC1
     RDKit          3D

 61 64  0  0  1  0  0  0  0  0999 V2000
  129.6147  132.1264  159.2046 C   0  0  0  0  0  0  0  0  0  0  0  0
  130.2803  133.0021  158.1410 C   0  0  2  0  0  0  0  0  0  0  0  0
  130.4732  132.2024  156.8784 C   0  0  0  0  0  0  0  0  0  0  0  0
  131.2465  131.0562  156.8991 C   0  0  0  0  0  0  0  0  0  0  0  0
  131.4207  130.3179  155.7451 C   0  0  0  0  0  0  0  0  0  0  0  0
  130.8274  130.7342  154.5599 C   0  0  0  0  0  0  0  0  0  0  0  0
  131.0063  129.9925  153.3899 N   0  0  0  0  0  0  0  0  0  0  0  0
  130.3801  130.4334  152.1407 C   0  0  2  0  0  0  0  0  0  0  0  0
  130.4428  131.5175  152.0471 H   0  0  0  0  0  0  0  0  0  0  0  0
  128.9396  129.9804  152.0863 C   0  0  0  0  0  0  0  0  0  0  0  0
  128.8029  128.9406  151.3093 C   0  0  0  0  0  0  0  0  0  0  0  0
  130.1296  128.5267  150.7159 C   0  0  0  0  0  0  0  0  0  0  0  0
  131.0537  129.7482  150.9292 C   0  0  0  0  0  0  0  0  0  0  0  0
  130.0558  131.8890  154.5414 C   0  0  0  0  0  0  0  0  0  0  0  0
  129.8811  132.6195  155.7004 C   0  0  0  0  0  0  0  0  0  0  0  0
  131.6398  133.4859  158.6536 C   0  0  0  0  0  0  0  0  0  0  0  0
  131.4301  134.3628  159.8900 C   0  0  0  0  0  0  0  0  0  0  0  0
  130.5982  135.5199  159.5382 N   0  0  2  0  0  0  0  0  0  0  0  0
  131.0340  136.0293  158.7842 H   0  0  0  0  0  0  0  0  0  0  0  0
  130.4643  136.3985  160.7079 C   0  0  0  0  0  0  0  0  0  0  0  0
  131.7216  137.2594  160.8455 C   0  0  1  0  0  0  0  0  0  0  0  0
  132.6012  136.6570  160.6187 H   0  0  0  0  0  0  0  0  0  0  0  0
  131.6487  138.3579  159.9345 O   0  0  0  0  0  0  0  0  0  0  0  0
  131.8206  137.7820  162.2555 C   0  0  0  0  0  0  0  0  0  0  0  0
  133.0602  138.0286  162.8156 C   0  0  0  0  0  0  0  0  0  0  0  0
  133.1516  138.5079  164.1087 C   0  0  0  0  0  0  0  0  0  0  0  0
  132.0024  138.7405  164.8428 C   0  0  0  0  0  0  0  0  0  0  0  0
  132.1266  139.3962  166.6121 Br  0  0  0  0  0  0  0  0  0  0  0  0
  130.7625  138.4877  164.2841 C   0  0  0  0  0  0  0  0  0  0  0  0
  130.6719  138.0142  162.9887 C   0  0  0  0  0  0  0  0  0  0  0  0
  129.2682  135.0663  159.1140 C   0  0  0  0  0  0  0  0  0  0  0  0
  129.3948  134.2166  157.8477 C   0  0  0  0  0  0  0  0  0  0  0  0
  129.4731  132.7066  160.1164 H   0  0  0  0  0  0  0  0  0  0  0  0
  128.6472  131.7826  158.8387 H   0  0  0  0  0  0  0  0  0  0  0  0
  130.2496  131.2661  159.4163 H   0  0  0  0  0  0  0  0  0  0  0  0
  131.7115  130.7359  157.8198 H   0  0  0  0  0  0  0  0  0  0  0  0
  132.0213  129.4205  155.7630 H   0  0  0  0  0  0  0  0  0  0  0  0
  131.5462  129.1871  153.4037 H   0  0  0  0  0  0  0  0  0  0  0  0
  128.1295  130.4546  152.6205 H   0  0  0  0  0  0  0  0  0  0  0  0
  127.8650  128.4418  151.1156 H   0  0  0  0  0  0  0  0  0  0  0  0
  130.0202  128.3146  149.6524 H   0  0  0  0  0  0  0  0  0  0  0  0
  130.5255  127.6553  151.2374 H   0  0  0  0  0  0  0  0  0  0  0  0
  131.0468  130.4012  150.0566 H   0  0  0  0  0  0  0  0  0  0  0  0
  132.0688  129.4338  151.1720 H   0  0  0  0  0  0  0  0  0  0  0  0
  129.5929  132.2152  153.6218 H   0  0  0  0  0  0  0  0  0  0  0  0
  129.2816  133.5178  155.6866 H   0  0  0  0  0  0  0  0  0  0  0  0
  132.1366  134.0660  157.8759 H   0  0  0  0  0  0  0  0  0  0  0  0
  132.2563  132.6265  158.9173 H   0  0  0  0  0  0  0  0  0  0  0  0
  132.3961  134.7088  160.2576 H   0  0  0  0  0  0  0  0  0  0  0  0
  130.9333  133.7814  160.6667 H   0  0  0  0  0  0  0  0  0  0  0  0
  130.3391  135.7924  161.6051 H   0  0  0  0  0  0  0  0  0  0  0  0
  129.5947  137.0430  160.5804 H   0  0  0  0  0  0  0  0  0  0  0  0
  131.5829  138.0953  159.0062 H   0  0  0  0  0  0  0  0  0  0  0  0
  133.9574  137.8471  162.2425 H   0  0  0  0  0  0  0  0  0  0  0  0
  134.1200  138.7012  164.5460 H   0  0  0  0  0  0  0  0  0  0  0  0
  129.8651  138.6646  164.8586 H   0  0  0  0  0  0  0  0  0  0  0  0
  129.7037  137.8219  162.5506 H   0  0  0  0  0  0  0  0  0  0  0  0
  128.8177  134.4703  159.9076 H   0  0  0  0  0  0  0  0  0  0  0  0
  128.6381  135.9318  158.9086 H   0  0  0  0  0  0  0  0  0  0  0  0
  129.8449  134.8119  157.0533 H   0  0  0  0  0  0  0  0  0  0  0  0
  128.4064  133.8794  157.5354 H   0  0  0  0  0  0  0  0  0  0  0  0
  1 33  1  0
  1 34  1  0
  1 35  1  0
  2  1  1  1
  2 32  1  0
  2  3  1  0
  2 16  1  0
  3 15  1  0
  3  4  2  0
  4  5  1  0
  4 36  1  0
  5  6  2  0
  5 37  1  0
  6  7  1  0
  6 14  1  0
  7  8  1  0
  7 38  1  0
  8  9  1  6
  8 13  1  0
  8 10  1  0
 10 11  2  0
 10 39  1  0
 11 12  1  0
 11 40  1  0
 12 13  1  0
 12 41  1  0
 12 42  1  0
 13 43  1  0
 13 44  1  0
 14 15  2  0
 14 45  1  0
 15 46  1  0
 16 17  1  0
 16 47  1  0
 16 48  1  0
 17 18  1  0
 17 49  1  0
 17 50  1  0
 18 19  1  6
 18 20  1  0
 18 31  1  0
 20 21  1  0
 20 51  1  0
 20 52  1  0
 21 22  1  6
 21 23  1  0
 21 24  1  0
 23 53  1  0
 24 30  1  0
 24 25  2  0
 25 26  1  0
 25 54  1  0
 26 27  2  0
 26 55  1  0
 27 28  1  0
 27 29  1  0
 29 30  2  0
 29 56  1  0
 30 57  1  0
 31 32  1  0
 31 58  1  0
 31 59  1  0
 32 60  1  0
 32 61  1  0
M  CHG  1  18   1
M  END
>  <DOCK_score>  (1) 
-56.357166

>  <SMILES>  (1) 
CC1(c2ccc(N[C@@H]3C=CCC3)cc2)CC[NH+](C[C@@H](O)c2ccc(Br)cc2)CC1

$$$$
