Nc1c(Nc2ccc(O)cc2)cccc1Nc1[nH]c2cccc(N)c2[nH+]1
     RDKit          3D

 45 48  0  0  1  0  0  0  0  0999 V2000
  132.5422  135.1989  160.3872 N   0  0  0  0  0  0  0  0  0  0  0  0
  131.2024  135.5002  160.1008 C   0  0  0  0  0  0  0  0  0  0  0  0
  130.4979  134.7390  159.1712 C   0  0  0  0  0  0  0  0  0  0  0  0
  131.1258  133.6703  158.5196 N   0  0  0  0  0  0  0  0  0  0  0  0
  131.0823  132.3879  159.0777 C   0  0  0  0  0  0  0  0  0  0  0  0
  131.1055  131.2702  158.2534 C   0  0  0  0  0  0  0  0  0  0  0  0
  131.0674  130.0050  158.8053 C   0  0  0  0  0  0  0  0  0  0  0  0
  130.9958  129.8501  160.1819 C   0  0  0  0  0  0  0  0  0  0  0  0
  130.9530  128.6037  160.7243 O   0  0  0  0  0  0  0  0  0  0  0  0
  130.9672  130.9658  161.0058 C   0  0  0  0  0  0  0  0  0  0  0  0
  131.0102  132.2319  160.4559 C   0  0  0  0  0  0  0  0  0  0  0  0
  129.1723  135.0414  158.8920 C   0  0  0  0  0  0  0  0  0  0  0  0
  128.5512  136.0964  159.5346 C   0  0  0  0  0  0  0  0  0  0  0  0
  129.2437  136.8511  160.4623 C   0  0  0  0  0  0  0  0  0  0  0  0
  130.5719  136.5612  160.7451 C   0  0  0  0  0  0  0  0  0  0  0  0
  131.2744  137.3311  161.6814 N   0  0  0  0  0  0  0  0  0  0  0  0
  132.4121  138.0141  161.2993 C   0  0  0  0  0  0  0  0  0  0  0  0
  132.9442  138.0120  160.0406 N   0  0  0  0  0  0  0  0  0  0  0  0
  132.5954  137.5382  159.2694 H   0  0  0  0  0  0  0  0  0  0  0  0
  134.0743  138.8119  160.0713 C   0  0  0  0  0  0  0  0  0  0  0  0
  135.0135  139.1865  159.1193 C   0  0  0  0  0  0  0  0  0  0  0  0
  136.0551  140.0200  159.4694 C   0  0  0  0  0  0  0  0  0  0  0  0
  136.1742  140.4898  160.7688 C   0  0  0  0  0  0  0  0  0  0  0  0
  135.2491  140.1284  161.7314 C   0  0  0  0  0  0  0  0  0  0  0  0
  135.3739  140.6048  163.0396 N   0  0  0  0  0  0  0  0  0  0  0  0
  134.1851  139.2812  161.3881 C   0  0  0  0  0  0  0  0  0  0  0  0
  133.1428  138.7603  162.0888 N   0  0  0  0  0  0  0  0  0  0  0  0
  132.9655  138.9203  163.0289 H   0  0  0  0  0  0  0  0  0  0  0  0
  133.0311  135.7301  161.0351 H   0  0  0  0  0  0  0  0  0  0  0  0
  132.9800  134.4595  159.9373 H   0  0  0  0  0  0  0  0  0  0  0  0
  131.5908  133.8190  157.6815 H   0  0  0  0  0  0  0  0  0  0  0  0
  131.1572  131.3907  157.1814 H   0  0  0  0  0  0  0  0  0  0  0  0
  131.0893  129.1357  158.1647 H   0  0  0  0  0  0  0  0  0  0  0  0
  130.9772  127.8900  160.0723 H   0  0  0  0  0  0  0  0  0  0  0  0
  130.9111  130.8441  162.0774 H   0  0  0  0  0  0  0  0  0  0  0  0
  130.9872  133.1004  161.0974 H   0  0  0  0  0  0  0  0  0  0  0  0
  128.6251  134.4519  158.1713 H   0  0  0  0  0  0  0  0  0  0  0  0
  127.5196  136.3282  159.3144 H   0  0  0  0  0  0  0  0  0  0  0  0
  128.7522  137.6711  160.9650 H   0  0  0  0  0  0  0  0  0  0  0  0
  130.9615  137.3844  162.5980 H   0  0  0  0  0  0  0  0  0  0  0  0
  134.9285  138.8249  158.1052 H   0  0  0  0  0  0  0  0  0  0  0  0
  136.7836  140.3086  158.7263 H   0  0  0  0  0  0  0  0  0  0  0  0
  136.9940  141.1422  161.0305 H   0  0  0  0  0  0  0  0  0  0  0  0
  136.1106  141.1904  163.2744 H   0  0  0  0  0  0  0  0  0  0  0  0
  134.7237  140.3497  163.7128 H   0  0  0  0  0  0  0  0  0  0  0  0
  1  2  1  0
  1 29  1  0
  1 30  1  0
  2 15  2  0
  2  3  1  0
  3  4  1  0
  3 12  2  0
  4  5  1  0
  4 31  1  0
  5 11  1  0
  5  6  2  0
  6  7  1  0
  6 32  1  0
  7  8  2  0
  7 33  1  0
  8  9  1  0
  8 10  1  0
  9 34  1  0
 10 11  2  0
 10 35  1  0
 11 36  1  0
 12 13  1  0
 12 37  1  0
 13 14  2  0
 13 38  1  0
 14 15  1  0
 14 39  1  0
 15 16  1  0
 16 40  1  0
 17 16  1  0
 17 27  2  0
 17 18  1  0
 18 19  1  0
 18 20  1  0
 20 26  2  0
 20 21  1  0
 21 22  2  0
 21 41  1  0
 22 23  1  0
 22 42  1  0
 23 24  2  0
 23 43  1  0
 24 25  1  0
 24 26  1  0
 25 44  1  0
 25 45  1  0
 26 27  1  0
 27 28  1  0
M  CHG  1  27   1
M  END
>  <DOCK_score>  (1) 
-58.528603

>  <SMILES>  (1) 
Nc1c(Nc2ccc(O)cc2)cccc1Nc1[nH]c2cccc(N)c2[nH+]1

$$$$
