O=C1CC[C@H](NC(NC2CCC2)=[NH+][C@H]2COc3ccccc3C2)CN1
     RDKit          3D

 52 55  0  0  1  0  0  0  0  0999 V2000
  123.8613  133.6511  161.4543 O   0  0  0  0  0  0  0  0  0  0  0  0
  125.0241  133.8941  161.2095 C   0  0  0  0  0  0  0  0  0  0  0  0
  125.9036  132.7678  160.7479 C   0  0  0  0  0  0  0  0  0  0  0  0
  127.3752  133.1551  160.9123 C   0  0  0  0  0  0  0  0  0  0  0  0
  127.5817  134.5462  160.3009 C   0  0  2  0  0  0  0  0  0  0  0  0
  127.1936  134.5620  159.2824 H   0  0  0  0  0  0  0  0  0  0  0  0
  129.0105  134.8700  160.2875 N   0  0  0  0  0  0  0  0  0  0  0  0
  129.7816  134.5321  159.2007 C   0  0  0  0  0  0  0  0  0  0  0  0
  129.2120  133.8904  158.1265 N   0  0  0  0  0  0  0  0  0  0  0  0
  130.0127  132.9717  157.3132 C   0  0  0  0  0  0  0  0  0  0  0  0
  129.1719  131.9476  156.5325 C   0  0  0  0  0  0  0  0  0  0  0  0
  130.2544  130.9110  156.8843 C   0  0  0  0  0  0  0  0  0  0  0  0
  130.5834  131.7844  158.1066 C   0  0  0  0  0  0  0  0  0  0  0  0
  131.0527  134.8201  159.1886 N   0  0  0  0  0  0  0  0  0  0  0  0
  131.5014  134.9993  158.3476 H   0  0  0  0  0  0  0  0  0  0  0  0
  131.8039  134.8729  160.4453 C   0  0  1  0  0  0  0  0  0  0  0  0
  131.1403  134.6456  161.2796 H   0  0  0  0  0  0  0  0  0  0  0  0
  132.9516  133.8560  160.4058 C   0  0  0  0  0  0  0  0  0  0  0  0
  133.5989  133.8578  161.6790 O   0  0  0  0  0  0  0  0  0  0  0  0
  133.9525  135.0573  162.2095 C   0  0  0  0  0  0  0  0  0  0  0  0
  134.8825  135.0773  163.2443 C   0  0  0  0  0  0  0  0  0  0  0  0
  135.2607  136.2752  163.8147 C   0  0  0  0  0  0  0  0  0  0  0  0
  134.7145  137.4606  163.3578 C   0  0  0  0  0  0  0  0  0  0  0  0
  133.7921  137.4446  162.3301 C   0  0  0  0  0  0  0  0  0  0  0  0
  133.4100  136.2452  161.7522 C   0  0  0  0  0  0  0  0  0  0  0  0
  132.4043  136.2689  160.6293 C   0  0  0  0  0  0  0  0  0  0  0  0
  126.8313  135.5714  161.1519 C   0  0  0  0  0  0  0  0  0  0  0  0
  125.4530  135.1472  161.3642 N   0  0  0  0  0  0  0  0  0  0  0  0
  125.6948  131.8783  161.3424 H   0  0  0  0  0  0  0  0  0  0  0  0
  125.7010  132.5571  159.6978 H   0  0  0  0  0  0  0  0  0  0  0  0
  128.0053  132.4304  160.3966 H   0  0  0  0  0  0  0  0  0  0  0  0
  127.6324  133.1779  161.9713 H   0  0  0  0  0  0  0  0  0  0  0  0
  129.4123  135.3228  161.0454 H   0  0  0  0  0  0  0  0  0  0  0  0
  128.2800  134.0458  157.9070 H   0  0  0  0  0  0  0  0  0  0  0  0
  130.7544  133.4849  156.7013 H   0  0  0  0  0  0  0  0  0  0  0  0
  128.2037  131.7396  156.9880 H   0  0  0  0  0  0  0  0  0  0  0  0
  129.1019  132.1624  155.4662 H   0  0  0  0  0  0  0  0  0  0  0  0
  131.0621  130.8600  156.1541 H   0  0  0  0  0  0  0  0  0  0  0  0
  129.8539  129.9308  157.1433 H   0  0  0  0  0  0  0  0  0  0  0  0
  131.6512  131.8675  158.3091 H   0  0  0  0  0  0  0  0  0  0  0  0
  130.0018  131.5318  158.9931 H   0  0  0  0  0  0  0  0  0  0  0  0
  132.5549  132.8624  160.1969 H   0  0  0  0  0  0  0  0  0  0  0  0
  133.6649  134.1373  159.6310 H   0  0  0  0  0  0  0  0  0  0  0  0
  135.3098  134.1522  163.6019 H   0  0  0  0  0  0  0  0  0  0  0  0
  135.9833  136.2872  164.6173 H   0  0  0  0  0  0  0  0  0  0  0  0
  135.0089  138.3988  163.8046 H   0  0  0  0  0  0  0  0  0  0  0  0
  133.3674  138.3718  161.9745 H   0  0  0  0  0  0  0  0  0  0  0  0
  132.8974  136.5759  159.7070 H   0  0  0  0  0  0  0  0  0  0  0  0
  131.6104  136.9765  160.8682 H   0  0  0  0  0  0  0  0  0  0  0  0
  127.3295  135.6732  162.1160 H   0  0  0  0  0  0  0  0  0  0  0  0
  126.8373  136.5354  160.6432 H   0  0  0  0  0  0  0  0  0  0  0  0
  124.8075  135.8186  161.6352 H   0  0  0  0  0  0  0  0  0  0  0  0
  1  2  2  0
  2 28  1  0
  2  3  1  0
  3  4  1  0
  3 29  1  0
  3 30  1  0
  4  5  1  0
  4 31  1  0
  4 32  1  0
  5  6  1  6
  5  7  1  0
  5 27  1  0
  7 33  1  0
  8  7  1  0
  8  9  1  0
  8 14  2  0
  9 10  1  0
  9 34  1  0
 10 13  1  0
 10 11  1  0
 10 35  1  0
 11 12  1  0
 11 36  1  0
 11 37  1  0
 12 13  1  0
 12 38  1  0
 12 39  1  0
 13 40  1  0
 13 41  1  0
 14 15  1  0
 14 16  1  0
 16 17  1  1
 16 26  1  0
 16 18  1  0
 18 19  1  0
 18 42  1  0
 18 43  1  0
 19 20  1  0
 20 25  2  0
 20 21  1  0
 21 22  2  0
 21 44  1  0
 22 23  1  0
 22 45  1  0
 23 24  2  0
 23 46  1  0
 24 25  1  0
 24 47  1  0
 25 26  1  0
 26 48  1  0
 26 49  1  0
 27 28  1  0
 27 50  1  0
 27 51  1  0
 28 52  1  0
M  CHG  1  14   1
M  END
>  <DOCK_score>  (1) 
-47.302288

>  <SMILES>  (1) 
O=C1CC[C@H](NC(NC2CCC2)=[NH+][C@H]2COc3ccccc3C2)CN1

$$$$
