CCc1ccc(-c2c[nH]c(N[C@@H](C3=CCCCC3)C3=CCOCC3)[nH+]2)cc1
     RDKit          3D

 57 60  0  0  1  0  0  0  0  0999 V2000
  130.1661  128.6214  151.5238 C   0  0  0  0  0  0  0  0  0  0  0  0
  131.3219  129.5573  151.8816 C   0  0  0  0  0  0  0  0  0  0  0  0
  130.9873  130.3093  153.1441 C   0  0  0  0  0  0  0  0  0  0  0  0
  131.3390  129.7814  154.3735 C   0  0  0  0  0  0  0  0  0  0  0  0
  131.0402  130.4678  155.5329 C   0  0  0  0  0  0  0  0  0  0  0  0
  130.3728  131.6894  155.4641 C   0  0  0  0  0  0  0  0  0  0  0  0
  130.0441  132.4291  156.7071 C   0  0  0  0  0  0  0  0  0  0  0  0
  129.2715  131.9754  157.7250 C   0  0  0  0  0  0  0  0  0  0  0  0
  129.2291  132.9728  158.6686 N   0  0  0  0  0  0  0  0  0  0  0  0
  128.7532  132.9448  159.5134 H   0  0  0  0  0  0  0  0  0  0  0  0
  129.9776  134.0080  158.1990 C   0  0  0  0  0  0  0  0  0  0  0  0
  130.1911  135.2099  158.8521 N   0  0  0  0  0  0  0  0  0  0  0  0
  130.1959  135.2572  160.3163 C   0  0  1  0  0  0  0  0  0  0  0  0
  130.7085  134.3782  160.7065 H   0  0  0  0  0  0  0  0  0  0  0  0
  130.9110  136.5015  160.7763 C   0  0  0  0  0  0  0  0  0  0  0  0
  132.1878  136.4285  160.9768 C   0  0  0  0  0  0  0  0  0  0  0  0
  133.0324  137.5778  161.4436 C   0  0  0  0  0  0  0  0  0  0  0  0
  132.2867  138.8980  161.2376 C   0  0  0  0  0  0  0  0  0  0  0  0
  130.8763  138.7549  161.8233 C   0  0  0  0  0  0  0  0  0  0  0  0
  130.0998  137.7494  160.9674 C   0  0  0  0  0  0  0  0  0  0  0  0
  128.7766  135.2774  160.8228 C   0  0  0  0  0  0  0  0  0  0  0  0
  128.5184  134.7453  161.9803 C   0  0  0  0  0  0  0  0  0  0  0  0
  127.1373  134.7064  162.5700 C   0  0  0  0  0  0  0  0  0  0  0  0
  126.2822  135.6203  161.8802 O   0  0  0  0  0  0  0  0  0  0  0  0
  126.3312  135.4675  160.4562 C   0  0  0  0  0  0  0  0  0  0  0  0
  127.7143  135.9177  159.9726 C   0  0  0  0  0  0  0  0  0  0  0  0
  130.4676  133.6770  157.0293 N   0  0  0  0  0  0  0  0  0  0  0  0
  131.0398  134.2360  156.4807 H   0  0  0  0  0  0  0  0  0  0  0  0
  130.0161  132.2137  154.2230 C   0  0  0  0  0  0  0  0  0  0  0  0
  130.3249  131.5213  153.0697 C   0  0  0  0  0  0  0  0  0  0  0  0
  130.0078  127.9129  152.3369 H   0  0  0  0  0  0  0  0  0  0  0  0
  129.2591  129.2058  151.3694 H   0  0  0  0  0  0  0  0  0  0  0  0
  130.4081  128.0778  150.6104 H   0  0  0  0  0  0  0  0  0  0  0  0
  132.2288  128.9736  152.0356 H   0  0  0  0  0  0  0  0  0  0  0  0
  131.4801  130.2664  151.0680 H   0  0  0  0  0  0  0  0  0  0  0  0
  131.8519  128.8325  154.4258 H   0  0  0  0  0  0  0  0  0  0  0  0
  131.3194  130.0571  156.4919 H   0  0  0  0  0  0  0  0  0  0  0  0
  128.7829  131.0139  157.7828 H   0  0  0  0  0  0  0  0  0  0  0  0
  130.3375  136.0208  158.3401 H   0  0  0  0  0  0  0  0  0  0  0  0
  132.6753  135.4817  160.7975 H   0  0  0  0  0  0  0  0  0  0  0  0
  133.2596  137.4526  162.5024 H   0  0  0  0  0  0  0  0  0  0  0  0
  133.9630  137.5961  160.8763 H   0  0  0  0  0  0  0  0  0  0  0  0
  132.8162  139.7016  161.7493 H   0  0  0  0  0  0  0  0  0  0  0  0
  132.2204  139.1189  160.1722 H   0  0  0  0  0  0  0  0  0  0  0  0
  130.9406  138.3949  162.8500 H   0  0  0  0  0  0  0  0  0  0  0  0
  130.3708  139.7204  161.8013 H   0  0  0  0  0  0  0  0  0  0  0  0
  129.8809  138.1905  159.9950 H   0  0  0  0  0  0  0  0  0  0  0  0
  129.1640  137.4990  161.4671 H   0  0  0  0  0  0  0  0  0  0  0  0
  129.3324  134.3118  162.5425 H   0  0  0  0  0  0  0  0  0  0  0  0
  126.7346  133.6975  162.4811 H   0  0  0  0  0  0  0  0  0  0  0  0
  127.1860  134.9845  163.6228 H   0  0  0  0  0  0  0  0  0  0  0  0
  126.1687  134.4223  160.1933 H   0  0  0  0  0  0  0  0  0  0  0  0
  125.5620  136.0862  159.9939 H   0  0  0  0  0  0  0  0  0  0  0  0
  127.7937  137.0022  160.0483 H   0  0  0  0  0  0  0  0  0  0  0  0
  127.8498  135.6158  158.9341 H   0  0  0  0  0  0  0  0  0  0  0  0
  129.4985  133.1597  154.1639 H   0  0  0  0  0  0  0  0  0  0  0  0
  130.0491  131.9268  152.1075 H   0  0  0  0  0  0  0  0  0  0  0  0
  1  2  1  0
  1 31  1  0
  1 32  1  0
  1 33  1  0
  2  3  1  0
  2 34  1  0
  2 35  1  0
  3 30  2  0
  3  4  1  0
  4  5  2  0
  4 36  1  0
  5  6  1  0
  5 37  1  0
  6  7  1  0
  6 29  2  0
  7 27  1  0
  7  8  2  0
  8  9  1  0
  8 38  1  0
  9 10  1  0
  9 11  1  0
 11 12  1  0
 11 27  2  0
 12 13  1  0
 12 39  1  0
 13 14  1  1
 13 15  1  0
 13 21  1  0
 15 20  1  0
 15 16  2  0
 16 17  1  0
 16 40  1  0
 17 18  1  0
 17 41  1  0
 17 42  1  0
 18 19  1  0
 18 43  1  0
 18 44  1  0
 19 20  1  0
 19 45  1  0
 19 46  1  0
 20 47  1  0
 20 48  1  0
 21 26  1  0
 21 22  2  0
 22 23  1  0
 22 49  1  0
 23 24  1  0
 23 50  1  0
 23 51  1  0
 24 25  1  0
 25 26  1  0
 25 52  1  0
 25 53  1  0
 26 54  1  0
 26 55  1  0
 27 28  1  0
 29 30  1  0
 29 56  1  0
 30 57  1  0
M  CHG  1  27   1
M  END
>  <DOCK_score>  (1) 
-53.380928

>  <SMILES>  (1) 
CCc1ccc(-c2c[nH]c(N[C@@H](C3=CCCCC3)C3=CCOCC3)[nH+]2)cc1

$$$$
