Nc1ccc(-c2c[nH]c(N[C@@H](c3ccccc3)c3ccc(F)cc3)[nH+]2)cc1
     RDKit          3D

 47 50  0  0  1  0  0  0  0  0999 V2000
  131.1585  129.4762  152.1652 N   0  0  0  0  0  0  0  0  0  0  0  0
  130.8931  130.2280  153.3125 C   0  0  0  0  0  0  0  0  0  0  0  0
  130.1733  131.4127  153.2144 C   0  0  0  0  0  0  0  0  0  0  0  0
  129.9102  132.1564  154.3454 C   0  0  0  0  0  0  0  0  0  0  0  0
  130.3668  131.7189  155.5878 C   0  0  0  0  0  0  0  0  0  0  0  0
  130.0850  132.5173  156.8061 C   0  0  0  0  0  0  0  0  0  0  0  0
  129.3883  132.0981  157.8912 C   0  0  0  0  0  0  0  0  0  0  0  0
  129.3670  133.1463  158.7805 N   0  0  0  0  0  0  0  0  0  0  0  0
  128.9424  133.1513  159.6527 H   0  0  0  0  0  0  0  0  0  0  0  0
  130.0519  134.1750  158.2115 C   0  0  0  0  0  0  0  0  0  0  0  0
  130.2626  135.4178  158.7839 N   0  0  0  0  0  0  0  0  0  0  0  0
  129.7268  135.7115  160.1154 C   0  0  1  0  0  0  0  0  0  0  0  0
  130.1484  135.0135  160.8387 H   0  0  0  0  0  0  0  0  0  0  0  0
  130.0930  137.1205  160.5047 C   0  0  0  0  0  0  0  0  0  0  0  0
  130.2709  137.4456  161.8364 C   0  0  0  0  0  0  0  0  0  0  0  0
  130.5999  138.7398  162.1941 C   0  0  0  0  0  0  0  0  0  0  0  0
  130.7533  139.7083  161.2196 C   0  0  0  0  0  0  0  0  0  0  0  0
  130.5759  139.3831  159.8879 C   0  0  0  0  0  0  0  0  0  0  0  0
  130.2456  138.0892  159.5305 C   0  0  0  0  0  0  0  0  0  0  0  0
  128.2266  135.5694  160.0957 C   0  0  0  0  0  0  0  0  0  0  0  0
  127.5551  135.1762  161.2383 C   0  0  0  0  0  0  0  0  0  0  0  0
  126.1788  135.0511  161.2230 C   0  0  0  0  0  0  0  0  0  0  0  0
  125.4737  135.3092  160.0596 C   0  0  0  0  0  0  0  0  0  0  0  0
  124.1288  135.1820  160.0420 F   0  0  0  0  0  0  0  0  0  0  0  0
  126.1480  135.6976  158.9144 C   0  0  0  0  0  0  0  0  0  0  0  0
  127.5237  135.8270  158.9335 C   0  0  0  0  0  0  0  0  0  0  0  0
  130.4745  133.7974  157.0295 N   0  0  0  0  0  0  0  0  0  0  0  0
  130.9862  134.3451  156.4137 H   0  0  0  0  0  0  0  0  0  0  0  0
  131.0936  130.5332  155.6829 C   0  0  0  0  0  0  0  0  0  0  0  0
  131.3490  129.7895  154.5501 C   0  0  0  0  0  0  0  0  0  0  0  0
  130.8405  129.7812  151.3013 H   0  0  0  0  0  0  0  0  0  0  0  0
  131.6609  128.6492  152.2329 H   0  0  0  0  0  0  0  0  0  0  0  0
  129.8200  131.7514  152.2518 H   0  0  0  0  0  0  0  0  0  0  0  0
  129.3505  133.0768  154.2689 H   0  0  0  0  0  0  0  0  0  0  0  0
  128.9364  131.1271  158.0300 H   0  0  0  0  0  0  0  0  0  0  0  0
  130.7651  136.0942  158.3034 H   0  0  0  0  0  0  0  0  0  0  0  0
  130.1516  136.6887  162.5976 H   0  0  0  0  0  0  0  0  0  0  0  0
  130.7390  138.9937  163.2345 H   0  0  0  0  0  0  0  0  0  0  0  0
  131.0120  140.7189  161.4990 H   0  0  0  0  0  0  0  0  0  0  0  0
  130.6959  140.1398  159.1267 H   0  0  0  0  0  0  0  0  0  0  0  0
  130.1070  137.8351  158.4900 H   0  0  0  0  0  0  0  0  0  0  0  0
  128.1057  134.9706  162.1444 H   0  0  0  0  0  0  0  0  0  0  0  0
  125.6539  134.7478  162.1168 H   0  0  0  0  0  0  0  0  0  0  0  0
  125.5990  135.8988  158.0063 H   0  0  0  0  0  0  0  0  0  0  0  0
  128.0499  136.1299  158.0403 H   0  0  0  0  0  0  0  0  0  0  0  0
  131.4521  130.1947  156.6439 H   0  0  0  0  0  0  0  0  0  0  0  0
  131.9076  128.8681  154.6241 H   0  0  0  0  0  0  0  0  0  0  0  0
  1  2  1  0
  1 31  1  0
  1 32  1  0
  2 30  2  0
  2  3  1  0
  3  4  2  0
  3 33  1  0
  4  5  1  0
  4 34  1  0
  5  6  1  0
  5 29  2  0
  6 27  1  0
  6  7  2  0
  7  8  1  0
  7 35  1  0
  8  9  1  0
  8 10  1  0
 10 11  1  0
 10 27  2  0
 11 12  1  0
 11 36  1  0
 12 13  1  1
 12 14  1  0
 12 20  1  0
 14 19  1  0
 14 15  2  0
 15 16  1  0
 15 37  1  0
 16 17  2  0
 16 38  1  0
 17 18  1  0
 17 39  1  0
 18 19  2  0
 18 40  1  0
 19 41  1  0
 20 26  1  0
 20 21  2  0
 21 22  1  0
 21 42  1  0
 22 23  2  0
 22 43  1  0
 23 24  1  0
 23 25  1  0
 25 26  2  0
 25 44  1  0
 26 45  1  0
 27 28  1  0
 29 30  1  0
 29 46  1  0
 30 47  1  0
M  CHG  1  27   1
M  END
>  <DOCK_score>  (1) 
-58.522324

>  <SMILES>  (1) 
Nc1ccc(-c2c[nH]c(N[C@@H](c3ccccc3)c3ccc(F)cc3)[nH+]2)cc1

$$$$
