Cc1ccc(C[C@@H](C=C2C3CCC2CC3)Nc2[nH]cc(-c3ccc(C(F)(F)F)cc3)[nH+]2)cc1
     RDKit          3D

 62 66  0  0  1  0  0  0  0  0999 V2000
  135.0007  136.9755  162.5985 C   0  0  0  0  0  0  0  0  0  0  0  0
  133.5926  136.9365  162.0631 C   0  0  0  0  0  0  0  0  0  0  0  0
  133.0384  138.0674  161.4932 C   0  0  0  0  0  0  0  0  0  0  0  0
  131.7487  138.0302  160.9968 C   0  0  0  0  0  0  0  0  0  0  0  0
  131.0113  136.8635  161.0755 C   0  0  0  0  0  0  0  0  0  0  0  0
  129.6050  136.8231  160.5355 C   0  0  0  0  0  0  0  0  0  0  0  0
  129.2857  135.4077  160.0499 C   0  0  1  0  0  0  0  0  0  0  0  0
  129.3755  134.7093  160.8819 H   0  0  0  0  0  0  0  0  0  0  0  0
  127.8793  135.3672  159.5098 C   0  0  0  0  0  0  0  0  0  0  0  0
  126.9929  134.5679  160.0497 C   0  0  0  0  0  0  0  0  0  0  0  0
  127.0636  133.6447  161.2875 C   0  0  2  0  0  0  0  0  0  0  0  0
  126.6334  132.2791  160.6451 C   0  0  0  0  0  0  0  0  0  0  0  0
  125.6092  132.6798  159.5573 C   0  0  0  0  0  0  0  0  0  0  0  0
  125.5366  134.2340  159.6537 C   0  0  1  0  0  0  0  0  0  0  0  0
  124.7943  134.5323  160.9917 C   0  0  0  0  0  0  0  0  0  0  0  0
  125.8205  134.1362  162.0897 C   0  0  0  0  0  0  0  0  0  0  0  0
  130.2261  135.0306  158.9919 N   0  0  0  0  0  0  0  0  0  0  0  0
  130.1329  133.7851  158.3946 C   0  0  0  0  0  0  0  0  0  0  0  0
  129.6706  132.6526  158.9910 N   0  0  0  0  0  0  0  0  0  0  0  0
  129.3500  132.5733  159.9030 H   0  0  0  0  0  0  0  0  0  0  0  0
  129.7418  131.6423  158.0629 C   0  0  0  0  0  0  0  0  0  0  0  0
  130.2452  132.1860  156.9271 C   0  0  0  0  0  0  0  0  0  0  0  0
  130.4995  131.4683  155.6541 C   0  0  0  0  0  0  0  0  0  0  0  0
  129.8491  131.8635  154.4864 C   0  0  0  0  0  0  0  0  0  0  0  0
  130.0940  131.1959  153.3037 C   0  0  0  0  0  0  0  0  0  0  0  0
  130.9746  130.1294  153.2778 C   0  0  0  0  0  0  0  0  0  0  0  0
  131.2337  129.4002  151.9847 C   0  0  0  0  0  0  0  0  0  0  0  0
  130.4753  129.9815  150.9621 F   0  0  0  0  0  0  0  0  0  0  0  0
  132.5924  129.4877  151.6641 F   0  0  0  0  0  0  0  0  0  0  0  0
  130.8727  128.0565  152.1262 F   0  0  0  0  0  0  0  0  0  0  0  0
  131.6182  129.7289  154.4350 C   0  0  0  0  0  0  0  0  0  0  0  0
  131.3853  130.3929  155.6222 C   0  0  0  0  0  0  0  0  0  0  0  0
  130.4700  133.5036  157.1596 N   0  0  0  0  0  0  0  0  0  0  0  0
  130.8257  134.1357  156.5156 H   0  0  0  0  0  0  0  0  0  0  0  0
  131.5636  135.7341  161.6502 C   0  0  0  0  0  0  0  0  0  0  0  0
  132.8536  135.7711  162.1457 C   0  0  0  0  0  0  0  0  0  0  0  0
  134.9826  137.2728  163.6470 H   0  0  0  0  0  0  0  0  0  0  0  0
  135.4510  135.9868  162.5090 H   0  0  0  0  0  0  0  0  0  0  0  0
  135.5871  137.6949  162.0269 H   0  0  0  0  0  0  0  0  0  0  0  0
  133.6144  138.9789  161.4317 H   0  0  0  0  0  0  0  0  0  0  0  0
  131.3170  138.9126  160.5479 H   0  0  0  0  0  0  0  0  0  0  0  0
  128.9053  137.1037  161.3227 H   0  0  0  0  0  0  0  0  0  0  0  0
  129.5152  137.5216  159.7034 H   0  0  0  0  0  0  0  0  0  0  0  0
  127.6022  135.9974  158.6776 H   0  0  0  0  0  0  0  0  0  0  0  0
  128.0124  133.6335  161.8237 H   0  0  0  0  0  0  0  0  0  0  0  0
  126.1646  131.6403  161.3935 H   0  0  0  0  0  0  0  0  0  0  0  0
  127.4888  131.7744  160.1960 H   0  0  0  0  0  0  0  0  0  0  0  0
  124.6353  132.2386  159.7693 H   0  0  0  0  0  0  0  0  0  0  0  0
  125.9584  132.3747  158.5708 H   0  0  0  0  0  0  0  0  0  0  0  0
  125.1501  134.7462  158.7726 H   0  0  0  0  0  0  0  0  0  0  0  0
  124.5459  135.5912  161.0623 H   0  0  0  0  0  0  0  0  0  0  0  0
  123.8949  133.9222  161.0730 H   0  0  0  0  0  0  0  0  0  0  0  0
  125.4241  133.3319  162.7094 H   0  0  0  0  0  0  0  0  0  0  0  0
  126.0798  134.9980  162.7047 H   0  0  0  0  0  0  0  0  0  0  0  0
  130.9141  135.6534  158.7099 H   0  0  0  0  0  0  0  0  0  0  0  0
  129.4521  130.6122  158.2097 H   0  0  0  0  0  0  0  0  0  0  0  0
  129.1581  132.6932  154.5063 H   0  0  0  0  0  0  0  0  0  0  0  0
  129.5942  131.5041  152.3973 H   0  0  0  0  0  0  0  0  0  0  0  0
  132.3044  128.8953  154.4092 H   0  0  0  0  0  0  0  0  0  0  0  0
  131.8883  130.0793  156.5250 H   0  0  0  0  0  0  0  0  0  0  0  0
  130.9873  134.8228  161.7124 H   0  0  0  0  0  0  0  0  0  0  0  0
  133.2851  134.8888  162.5950 H   0  0  0  0  0  0  0  0  0  0  0  0
  1  2  1  0
  1 37  1  0
  1 38  1  0
  1 39  1  0
  2 36  2  0
  2  3  1  0
  3  4  2  0
  3 40  1  0
  4  5  1  0
  4 41  1  0
  5  6  1  0
  5 35  2  0
  6  7  1  0
  6 42  1  0
  6 43  1  0
  7  8  1  1
  7  9  1  0
  7 17  1  0
  9 10  2  0
  9 44  1  0
 10 14  1  0
 10 11  1  0
 11 16  1  0
 11 12  1  0
 11 45  1  1
 12 13  1  0
 12 46  1  0
 12 47  1  0
 13 14  1  0
 13 48  1  0
 13 49  1  0
 14 15  1  0
 14 50  1  6
 15 16  1  0
 15 51  1  0
 15 52  1  0
 16 53  1  0
 16 54  1  0
 17 55  1  0
 18 17  1  0
 18 33  2  0
 18 19  1  0
 19 20  1  0
 19 21  1  0
 21 22  2  0
 21 56  1  0
 22 23  1  0
 22 33  1  0
 23 32  1  0
 23 24  2  0
 24 25  1  0
 24 57  1  0
 25 26  2  0
 25 58  1  0
 26 27  1  0
 26 31  1  0
 27 28  1  0
 27 29  1  0
 27 30  1  0
 31 32  2  0
 31 59  1  0
 32 60  1  0
 33 34  1  0
 35 36  1  0
 35 61  1  0
 36 62  1  0
M  CHG  1  33   1
M  END
>  <DOCK_score>  (1) 
-57.317657

>  <SMILES>  (1) 
Cc1ccc(C[C@@H](C=C2C3CCC2CC3)Nc2[nH]cc(-c3ccc(C(F)(F)F)cc3)[nH+]2)cc1

$$$$
