CCc1ccc(-c2c[nH]c(N[C@@H](C3=CCOCC3)c3cccc(C)n3)[nH+]2)cc1
     RDKit          3D

 55 58  0  0  1  0  0  0  0  0999 V2000
  130.2270  128.6066  151.8200 C   0  0  0  0  0  0  0  0  0  0  0  0
  131.3355  129.6230  152.1010 C   0  0  0  0  0  0  0  0  0  0  0  0
  131.0125  130.3831  153.3616 C   0  0  0  0  0  0  0  0  0  0  0  0
  131.4544  129.9099  154.5835 C   0  0  0  0  0  0  0  0  0  0  0  0
  131.1664  130.6048  155.7407 C   0  0  0  0  0  0  0  0  0  0  0  0
  130.4190  131.7796  155.6773 C   0  0  0  0  0  0  0  0  0  0  0  0
  130.1015  132.5278  156.9180 C   0  0  0  0  0  0  0  0  0  0  0  0
  129.4081  132.0517  157.9818 C   0  0  0  0  0  0  0  0  0  0  0  0
  129.3454  133.0679  158.9039 N   0  0  0  0  0  0  0  0  0  0  0  0
  128.9122  133.0309  159.7711 H   0  0  0  0  0  0  0  0  0  0  0  0
  130.0029  134.1363  158.3762 C   0  0  0  0  0  0  0  0  0  0  0  0
  130.1685  135.3654  158.9914 N   0  0  0  0  0  0  0  0  0  0  0  0
  129.6110  135.5975  160.3262 C   0  0  1  0  0  0  0  0  0  0  0  0
  128.5300  135.4612  160.2971 H   0  0  0  0  0  0  0  0  0  0  0  0
  130.2149  134.6188  161.3000 C   0  0  0  0  0  0  0  0  0  0  0  0
  129.5074  134.2360  162.3213 C   0  0  0  0  0  0  0  0  0  0  0  0
  130.0182  133.2675  163.3498 C   0  0  0  0  0  0  0  0  0  0  0  0
  131.1821  132.5976  162.8613 O   0  0  0  0  0  0  0  0  0  0  0  0
  132.1677  133.4965  162.3379 C   0  0  0  0  0  0  0  0  0  0  0  0
  131.6149  134.1267  161.0566 C   0  0  0  0  0  0  0  0  0  0  0  0
  129.9283  137.0037  160.7655 C   0  0  0  0  0  0  0  0  0  0  0  0
  129.0623  137.6656  161.6156 C   0  0  0  0  0  0  0  0  0  0  0  0
  129.3665  138.9568  162.0184 C   0  0  0  0  0  0  0  0  0  0  0  0
  130.5298  139.5406  161.5400 C   0  0  0  0  0  0  0  0  0  0  0  0
  131.3442  138.8193  160.6880 C   0  0  0  0  0  0  0  0  0  0  0  0
  132.6107  139.4438  160.1620 C   0  0  0  0  0  0  0  0  0  0  0  0
  131.0260  137.5904  160.3303 N   0  0  0  0  0  0  0  0  0  0  0  0
  130.4582  133.8079  157.1920 N   0  0  0  0  0  0  0  0  0  0  0  0
  130.9670  134.3880  156.6041 H   0  0  0  0  0  0  0  0  0  0  0  0
  129.9714  132.2488  154.4436 C   0  0  0  0  0  0  0  0  0  0  0  0
  130.2702  131.5487  153.2924 C   0  0  0  0  0  0  0  0  0  0  0  0
  130.1530  127.9102  152.6552 H   0  0  0  0  0  0  0  0  0  0  0  0
  129.2779  129.1284  151.6969 H   0  0  0  0  0  0  0  0  0  0  0  0
  130.4606  128.0571  150.9082 H   0  0  0  0  0  0  0  0  0  0  0  0
  132.2843  129.1017  152.2239 H   0  0  0  0  0  0  0  0  0  0  0  0
  131.4092  130.3200  151.2655 H   0  0  0  0  0  0  0  0  0  0  0  0
  132.0293  128.9971  154.6320 H   0  0  0  0  0  0  0  0  0  0  0  0
  131.5161  130.2368  156.6940 H   0  0  0  0  0  0  0  0  0  0  0  0
  128.9859  131.0630  158.0842 H   0  0  0  0  0  0  0  0  0  0  0  0
  130.6539  136.0729  158.5388 H   0  0  0  0  0  0  0  0  0  0  0  0
  128.5075  134.6286  162.4332 H   0  0  0  0  0  0  0  0  0  0  0  0
  129.2450  132.5323  163.5728 H   0  0  0  0  0  0  0  0  0  0  0  0
  130.2704  133.8138  164.2587 H   0  0  0  0  0  0  0  0  0  0  0  0
  133.0822  132.9478  162.1123 H   0  0  0  0  0  0  0  0  0  0  0  0
  132.3785  134.2767  163.0695 H   0  0  0  0  0  0  0  0  0  0  0  0
  131.6046  133.3817  160.2609 H   0  0  0  0  0  0  0  0  0  0  0  0
  132.2477  134.9637  160.7619 H   0  0  0  0  0  0  0  0  0  0  0  0
  128.1622  137.1816  161.9648 H   0  0  0  0  0  0  0  0  0  0  0  0
  128.7107  139.4969  162.6853 H   0  0  0  0  0  0  0  0  0  0  0  0
  130.7960  140.5463  161.8298 H   0  0  0  0  0  0  0  0  0  0  0  0
  132.3988  139.9634  159.2276 H   0  0  0  0  0  0  0  0  0  0  0  0
  132.9965  140.1541  160.8933 H   0  0  0  0  0  0  0  0  0  0  0  0
  133.3532  138.6656  159.9846 H   0  0  0  0  0  0  0  0  0  0  0  0
  129.3917  133.1583  154.3886 H   0  0  0  0  0  0  0  0  0  0  0  0
  129.9243  131.9115  152.3357 H   0  0  0  0  0  0  0  0  0  0  0  0
  1  2  1  0
  1 32  1  0
  1 33  1  0
  1 34  1  0
  2  3  1  0
  2 35  1  0
  2 36  1  0
  3 31  2  0
  3  4  1  0
  4  5  2  0
  4 37  1  0
  5  6  1  0
  5 38  1  0
  6  7  1  0
  6 30  2  0
  7 28  1  0
  7  8  2  0
  8  9  1  0
  8 39  1  0
  9 10  1  0
  9 11  1  0
 11 12  1  0
 11 28  2  0
 12 13  1  0
 12 40  1  0
 13 14  1  6
 13 15  1  0
 13 21  1  0
 15 20  1  0
 15 16  2  0
 16 17  1  0
 16 41  1  0
 17 18  1  0
 17 42  1  0
 17 43  1  0
 18 19  1  0
 19 20  1  0
 19 44  1  0
 19 45  1  0
 20 46  1  0
 20 47  1  0
 21 27  1  0
 21 22  2  0
 22 23  1  0
 22 48  1  0
 23 24  2  0
 23 49  1  0
 24 25  1  0
 24 50  1  0
 25 26  1  0
 25 27  2  0
 26 51  1  0
 26 52  1  0
 26 53  1  0
 28 29  1  0
 30 31  1  0
 30 54  1  0
 31 55  1  0
M  CHG  1  28   1
M  END
>  <DOCK_score>  (1) 
-56.58812

>  <SMILES>  (1) 
CCc1ccc(-c2c[nH]c(N[C@@H](C3=CCOCC3)c3cccc(C)n3)[nH+]2)cc1

$$$$
