Nc1ccc(-c2c[nH]c(N[C@H](c3cccc4ccccc34)C3(c4ccccc4)CC3)[nH+]2)cc1
     RDKit          3D

 60 65  0  0  1  0  0  0  0  0999 V2000
  130.6870  129.5069  152.2853 N   0  0  0  0  0  0  0  0  0  0  0  0
  130.6327  130.2050  153.4941 C   0  0  0  0  0  0  0  0  0  0  0  0
  129.7485  131.2673  153.6426 C   0  0  0  0  0  0  0  0  0  0  0  0
  129.6937  131.9585  154.8345 C   0  0  0  0  0  0  0  0  0  0  0  0
  130.5258  131.5912  155.8909 C   0  0  0  0  0  0  0  0  0  0  0  0
  130.4687  132.3333  157.1743 C   0  0  0  0  0  0  0  0  0  0  0  0
  130.1625  131.8083  158.3864 C   0  0  0  0  0  0  0  0  0  0  0  0
  130.2318  132.8375  159.2954 N   0  0  0  0  0  0  0  0  0  0  0  0
  130.0677  132.7737  160.2492 H   0  0  0  0  0  0  0  0  0  0  0  0
  130.5694  133.9628  158.6090 C   0  0  0  0  0  0  0  0  0  0  0  0
  130.7386  135.2222  159.1586 N   0  0  0  0  0  0  0  0  0  0  0  0
  129.9748  135.6118  160.3464 C   0  0  2  0  0  0  0  0  0  0  0  0
  130.2076  134.9330  161.1669 H   0  0  0  0  0  0  0  0  0  0  0  0
  128.5007  135.5431  160.0404 C   0  0  0  0  0  0  0  0  0  0  0  0
  128.0534  135.7691  158.7749 C   0  0  0  0  0  0  0  0  0  0  0  0
  126.6943  135.7095  158.4730 C   0  0  0  0  0  0  0  0  0  0  0  0
  125.7746  135.4235  159.4347 C   0  0  0  0  0  0  0  0  0  0  0  0
  126.1984  135.1843  160.7528 C   0  0  0  0  0  0  0  0  0  0  0  0
  125.2787  134.8856  161.7728 C   0  0  0  0  0  0  0  0  0  0  0  0
  125.7263  134.6591  163.0379 C   0  0  0  0  0  0  0  0  0  0  0  0
  127.0858  134.7188  163.3397 C   0  0  0  0  0  0  0  0  0  0  0  0
  128.0052  135.0052  162.3782 C   0  0  0  0  0  0  0  0  0  0  0  0
  127.5809  135.2449  161.0599 C   0  0  0  0  0  0  0  0  0  0  0  0
  130.3466  137.0411  160.7458 C   0  0  0  0  0  0  0  0  0  0  0  0
  129.7132  137.5466  162.0165 C   0  0  0  0  0  0  0  0  0  0  0  0
  130.3516  137.3609  163.2284 C   0  0  0  0  0  0  0  0  0  0  0  0
  129.7725  137.8282  164.3934 C   0  0  0  0  0  0  0  0  0  0  0  0
  128.5508  138.4732  164.3474 C   0  0  0  0  0  0  0  0  0  0  0  0
  127.9100  138.6546  163.1360 C   0  0  0  0  0  0  0  0  0  0  0  0
  128.4910  138.1910  161.9706 C   0  0  0  0  0  0  0  0  0  0  0  0
  130.5777  138.0517  159.6205 C   0  0  0  0  0  0  0  0  0  0  0  0
  131.7646  137.5180  160.4251 C   0  0  0  0  0  0  0  0  0  0  0  0
  130.7135  133.6568  157.3425 N   0  0  0  0  0  0  0  0  0  0  0  0
  130.9564  134.2779  156.6381 H   0  0  0  0  0  0  0  0  0  0  0  0
  131.4158  130.5292  155.7375 C   0  0  0  0  0  0  0  0  0  0  0  0
  131.4631  129.8372  154.5458 C   0  0  0  0  0  0  0  0  0  0  0  0
  130.1076  129.7631  151.5507 H   0  0  0  0  0  0  0  0  0  0  0  0
  131.3040  128.7658  152.1806 H   0  0  0  0  0  0  0  0  0  0  0  0
  129.1039  131.5515  152.8239 H   0  0  0  0  0  0  0  0  0  0  0  0
  129.0063  132.7834  154.9496 H   0  0  0  0  0  0  0  0  0  0  0  0
  129.9159  130.7785  158.5979 H   0  0  0  0  0  0  0  0  0  0  0  0
  131.3631  135.8467  158.7572 H   0  0  0  0  0  0  0  0  0  0  0  0
  128.7623  135.9977  157.9930 H   0  0  0  0  0  0  0  0  0  0  0  0
  126.3658  135.8927  157.4606 H   0  0  0  0  0  0  0  0  0  0  0  0
  124.7249  135.3764  159.1853 H   0  0  0  0  0  0  0  0  0  0  0  0
  124.2225  134.8360  161.5537 H   0  0  0  0  0  0  0  0  0  0  0  0
  125.0175  134.4301  163.8198 H   0  0  0  0  0  0  0  0  0  0  0  0
  127.4144  134.5352  164.3520 H   0  0  0  0  0  0  0  0  0  0  0  0
  129.0553  135.0477  162.6267 H   0  0  0  0  0  0  0  0  0  0  0  0
  131.3044  136.8537  163.2646 H   0  0  0  0  0  0  0  0  0  0  0  0
  130.2729  137.6862  165.3398 H   0  0  0  0  0  0  0  0  0  0  0  0
  128.0967  138.8353  165.2579 H   0  0  0  0  0  0  0  0  0  0  0  0
  126.9553  139.1584  163.1002 H   0  0  0  0  0  0  0  0  0  0  0  0
  127.9902  138.3323  161.0242 H   0  0  0  0  0  0  0  0  0  0  0  0
  130.4647  137.6982  158.5957 H   0  0  0  0  0  0  0  0  0  0  0  0
  130.2713  139.0825  159.7990 H   0  0  0  0  0  0  0  0  0  0  0  0
  132.2392  138.1977  161.1329 H   0  0  0  0  0  0  0  0  0  0  0  0
  132.4325  136.8135  159.9296 H   0  0  0  0  0  0  0  0  0  0  0  0
  132.0648  130.2461  156.5531 H   0  0  0  0  0  0  0  0  0  0  0  0
  132.1493  129.0116  154.4282 H   0  0  0  0  0  0  0  0  0  0  0  0
  1  2  1  0
  1 37  1  0
  1 38  1  0
  2 36  2  0
  2  3  1  0
  3  4  2  0
  3 39  1  0
  4  5  1  0
  4 40  1  0
  5  6  1  0
  5 35  2  0
  6 33  1  0
  6  7  2  0
  7  8  1  0
  7 41  1  0
  8  9  1  0
  8 10  1  0
 10 11  1  0
 10 33  2  0
 11 12  1  0
 11 42  1  0
 12 13  1  1
 12 14  1  0
 12 24  1  0
 14 23  1  0
 14 15  2  0
 15 16  1  0
 15 43  1  0
 16 17  2  0
 16 44  1  0
 17 18  1  0
 17 45  1  0
 18 23  2  0
 18 19  1  0
 19 20  2  0
 19 46  1  0
 20 21  1  0
 20 47  1  0
 21 22  2  0
 21 48  1  0
 22 23  1  0
 22 49  1  0
 24 32  1  0
 24 25  1  0
 24 31  1  0
 25 30  1  0
 25 26  2  0
 26 27  1  0
 26 50  1  0
 27 28  2  0
 27 51  1  0
 28 29  1  0
 28 52  1  0
 29 30  2  0
 29 53  1  0
 30 54  1  0
 31 32  1  0
 31 55  1  0
 31 56  1  0
 32 57  1  0
 32 58  1  0
 33 34  1  0
 35 36  1  0
 35 59  1  0
 36 60  1  0
M  CHG  1  33   1
M  END
>  <DOCK_score>  (1) 
-59.599564

>  <SMILES>  (1) 
Nc1ccc(-c2c[nH]c(N[C@H](c3cccc4ccccc34)C3(c4ccccc4)CC3)[nH+]2)cc1

$$$$
