C[C@@H](C=C1C=CC(O)C1)[NH2+]Cc1ccccc1
     RDKit          3D

 37 38  0  0  1  0  0  0  0  0999 V2000
  131.8888  133.8646  159.4021 C   0  0  0  0  0  0  0  0  0  0  0  0
  130.6398  133.4052  158.6470 C   0  0  1  0  0  0  0  0  0  0  0  0
  130.1784  132.5737  159.1798 H   0  0  0  0  0  0  0  0  0  0  0  0
  129.6608  134.5472  158.5538 C   0  0  0  0  0  0  0  0  0  0  0  0
  128.4484  134.4277  159.0841 C   0  0  0  0  0  0  0  0  0  0  0  0
  127.9168  133.2513  159.7824 C   0  0  0  0  0  0  0  0  0  0  0  0
  126.6794  133.4365  160.2001 C   0  0  0  0  0  0  0  0  0  0  0  0
  126.1877  134.8095  159.8173 C   0  0  1  0  0  0  0  0  0  0  0  0
  125.8530  135.5595  160.9867 O   0  0  0  0  0  0  0  0  0  0  0  0
  127.3576  135.4777  159.0738 C   0  0  0  0  0  0  0  0  0  0  0  0
  131.0167  132.9718  157.2949 N   0  0  0  0  0  0  0  0  0  0  0  0
  131.8849  132.4592  157.3358 H   0  0  0  0  0  0  0  0  0  0  0  0
  131.1311  133.7804  156.7022 H   0  0  0  0  0  0  0  0  0  0  0  0
  129.9631  132.1076  156.7462 C   0  0  0  0  0  0  0  0  0  0  0  0
  130.3497  131.6630  155.3592 C   0  0  0  0  0  0  0  0  0  0  0  0
  129.9747  132.4160  154.2624 C   0  0  0  0  0  0  0  0  0  0  0  0
  130.3335  132.0106  152.9903 C   0  0  0  0  0  0  0  0  0  0  0  0
  131.0584  130.8468  152.8145 C   0  0  0  0  0  0  0  0  0  0  0  0
  131.4290  130.0910  153.9111 C   0  0  0  0  0  0  0  0  0  0  0  0
  131.0747  130.4991  155.1835 C   0  0  0  0  0  0  0  0  0  0  0  0
  131.6091  134.1862  160.4053 H   0  0  0  0  0  0  0  0  0  0  0  0
  132.5969  133.0387  159.4695 H   0  0  0  0  0  0  0  0  0  0  0  0
  132.3502  134.6961  158.8693 H   0  0  0  0  0  0  0  0  0  0  0  0
  129.9447  135.4626  158.0560 H   0  0  0  0  0  0  0  0  0  0  0  0
  128.4753  132.3401  159.9385 H   0  0  0  0  0  0  0  0  0  0  0  0
  126.0968  132.7036  160.7385 H   0  0  0  0  0  0  0  0  0  0  0  0
  125.3211  134.7296  159.1610 H   0  0  0  0  0  0  0  0  0  0  0  0
  125.5843  136.4707  160.8060 H   0  0  0  0  0  0  0  0  0  0  0  0
  127.6846  136.3731  159.6026 H   0  0  0  0  0  0  0  0  0  0  0  0
  127.0727  135.7223  158.0506 H   0  0  0  0  0  0  0  0  0  0  0  0
  129.0253  132.6613  156.7021 H   0  0  0  0  0  0  0  0  0  0  0  0
  129.8395  131.2342  157.3866 H   0  0  0  0  0  0  0  0  0  0  0  0
  129.4044  133.3229  154.3993 H   0  0  0  0  0  0  0  0  0  0  0  0
  130.0436  132.6009  152.1337 H   0  0  0  0  0  0  0  0  0  0  0  0
  131.3349  130.5278  151.8205 H   0  0  0  0  0  0  0  0  0  0  0  0
  131.9951  129.1815  153.7738 H   0  0  0  0  0  0  0  0  0  0  0  0
  131.3639  129.9085  156.0401 H   0  0  0  0  0  0  0  0  0  0  0  0
  1  2  1  0
  1 21  1  0
  1 22  1  0
  1 23  1  0
  2  3  1  1
  2  4  1  0
  2 11  1  0
  4  5  2  0
  4 24  1  0
  5 10  1  0
  5  6  1  0
  6  7  2  0
  6 25  1  0
  7  8  1  0
  7 26  1  0
  8  9  1  0
  8 10  1  0
  8 27  1  6
  9 28  1  0
 10 29  1  0
 10 30  1  0
 11 12  1  0
 11 13  1  0
 11 14  1  0
 14 15  1  0
 14 31  1  0
 14 32  1  0
 15 20  1  0
 15 16  2  0
 16 17  1  0
 16 33  1  0
 17 18  2  0
 17 34  1  0
 18 19  1  0
 18 35  1  0
 19 20  2  0
 19 36  1  0
 20 37  1  0
M  CHG  1  11   1
M  END
>  <DOCK_score>  (1) 
-41.924961

>  <SMILES>  (1) 
C[C@@H](C=C1C=CC(O)C1)[NH2+]Cc1ccccc1

$$$$
