C1=C(c2ccc(Nc3ccc(NC4=[NH+]CCN4)cc3)cc2)CCCC1
     RDKit          3D

 50 53  0  0  0  0  0  0  0  0999 V2000
  126.6754  137.4059  168.6851 C   0  0  0  0  0  0  0  0  0  0  0  0
  127.2081  138.1071  167.7131 C   0  0  0  0  0  0  0  0  0  0  0  0
  126.9101  137.7064  166.3226 C   0  0  0  0  0  0  0  0  0  0  0  0
  126.2768  138.6005  165.4574 C   0  0  0  0  0  0  0  0  0  0  0  0
  125.9999  138.2239  164.1612 C   0  0  0  0  0  0  0  0  0  0  0  0
  126.3503  136.9541  163.7148 C   0  0  0  0  0  0  0  0  0  0  0  0
  126.0681  136.5754  162.4018 N   0  0  0  0  0  0  0  0  0  0  0  0
  127.1080  136.2076  161.5409 C   0  0  0  0  0  0  0  0  0  0  0  0
  126.8799  135.2802  160.5322 C   0  0  0  0  0  0  0  0  0  0  0  0
  127.9075  134.9133  159.6866 C   0  0  0  0  0  0  0  0  0  0  0  0
  129.1692  135.4710  159.8442 C   0  0  0  0  0  0  0  0  0  0  0  0
  130.2122  135.0987  158.9852 N   0  0  0  0  0  0  0  0  0  0  0  0
  130.2333  133.8438  158.4375 C   0  0  0  0  0  0  0  0  0  0  0  0
  129.7216  132.7880  159.0497 N   0  0  0  0  0  0  0  0  0  0  0  0
  129.2940  132.7961  159.9202 H   0  0  0  0  0  0  0  0  0  0  0  0
  129.9006  131.6007  158.1994 C   0  0  0  0  0  0  0  0  0  0  0  0
  130.6311  132.1542  156.9592 C   0  0  0  0  0  0  0  0  0  0  0  0
  130.7715  133.5883  157.2561 N   0  0  0  0  0  0  0  0  0  0  0  0
  129.3978  136.3981  160.8524 C   0  0  0  0  0  0  0  0  0  0  0  0
  128.3704  136.7655  161.6983 C   0  0  0  0  0  0  0  0  0  0  0  0
  126.9761  136.0593  164.5760 C   0  0  0  0  0  0  0  0  0  0  0  0
  127.2611  136.4326  165.8714 C   0  0  0  0  0  0  0  0  0  0  0  0
  128.1074  139.2889  167.9305 C   0  0  0  0  0  0  0  0  0  0  0  0
  127.9555  139.8076  169.3639 C   0  0  0  0  0  0  0  0  0  0  0  0
  128.0947  138.6201  170.3242 C   0  0  0  0  0  0  0  0  0  0  0  0
  126.8833  137.7033  170.1415 C   0  0  0  0  0  0  0  0  0  0  0  0
  126.0507  136.5650  168.4222 H   0  0  0  0  0  0  0  0  0  0  0  0
  126.0045  139.5867  165.8036 H   0  0  0  0  0  0  0  0  0  0  0  0
  125.5099  138.9151  163.4916 H   0  0  0  0  0  0  0  0  0  0  0  0
  125.1511  136.5671  162.0857 H   0  0  0  0  0  0  0  0  0  0  0  0
  125.8984  134.8463  160.4096 H   0  0  0  0  0  0  0  0  0  0  0  0
  127.7301  134.1919  158.9026 H   0  0  0  0  0  0  0  0  0  0  0  0
  130.9193  135.7299  158.7788 H   0  0  0  0  0  0  0  0  0  0  0  0
  128.9368  131.1759  157.9194 H   0  0  0  0  0  0  0  0  0  0  0  0
  130.5157  130.8581  158.7076 H   0  0  0  0  0  0  0  0  0  0  0  0
  130.0309  132.0049  156.0617 H   0  0  0  0  0  0  0  0  0  0  0  0
  131.6099  131.6878  156.8471 H   0  0  0  0  0  0  0  0  0  0  0  0
  131.1922  134.2431  156.6772 H   0  0  0  0  0  0  0  0  0  0  0  0
  130.3792  136.8321  160.9746 H   0  0  0  0  0  0  0  0  0  0  0  0
  128.5481  137.4867  162.4823 H   0  0  0  0  0  0  0  0  0  0  0  0
  127.2428  135.0723  164.2278 H   0  0  0  0  0  0  0  0  0  0  0  0
  127.7509  135.7386  166.5385 H   0  0  0  0  0  0  0  0  0  0  0  0
  129.1419  138.9924  167.7575 H   0  0  0  0  0  0  0  0  0  0  0  0
  127.8387  140.0808  167.2314 H   0  0  0  0  0  0  0  0  0  0  0  0
  126.9749  140.2669  169.4890 H   0  0  0  0  0  0  0  0  0  0  0  0
  128.7332  140.5417  169.5739 H   0  0  0  0  0  0  0  0  0  0  0  0
  128.1285  138.9820  171.3517 H   0  0  0  0  0  0  0  0  0  0  0  0
  129.0081  138.0690  170.1000 H   0  0  0  0  0  0  0  0  0  0  0  0
  125.9954  138.1939  170.5405 H   0  0  0  0  0  0  0  0  0  0  0  0
  127.0513  136.7708  170.6803 H   0  0  0  0  0  0  0  0  0  0  0  0
  1 26  1  0
  1  2  2  0
  1 27  1  0
  2  3  1  0
  2 23  1  0
  3 22  1  0
  3  4  2  0
  4  5  1  0
  4 28  1  0
  5  6  2  0
  5 29  1  0
  6  7  1  0
  6 21  1  0
  7  8  1  0
  7 30  1  0
  8 20  1  0
  8  9  2  0
  9 10  1  0
  9 31  1  0
 10 11  2  0
 10 32  1  0
 11 12  1  0
 11 19  1  0
 12 13  1  0
 12 33  1  0
 13 18  2  0
 13 14  1  0
 14 15  1  0
 14 16  1  0
 16 17  1  0
 16 34  1  0
 16 35  1  0
 17 18  1  0
 17 36  1  0
 17 37  1  0
 18 38  1  0
 19 20  2  0
 19 39  1  0
 20 40  1  0
 21 22  2  0
 21 41  1  0
 22 42  1  0
 23 24  1  0
 23 43  1  0
 23 44  1  0
 24 25  1  0
 24 45  1  0
 24 46  1  0
 25 26  1  0
 25 47  1  0
 25 48  1  0
 26 49  1  0
 26 50  1  0
M  CHG  1  18   1
M  END
>  <DOCK_score>  (1) 
-42.816605

>  <SMILES>  (1) 
C1=C(c2ccc(Nc3ccc(NC4=[NH+]CCN4)cc3)cc2)CCCC1

$$$$
