Oc1cc(F)cc(C[NH+]=C(NCc2cccc(F)c2)NC2CC=CC2)c1
     RDKit          3D

 48 50  0  0  1  0  0  0  0  0999 V2000
  124.9022  135.7726  163.2475 O   0  0  0  0  0  0  0  0  0  0  0  0
  126.1294  135.7576  163.8308 C   0  0  0  0  0  0  0  0  0  0  0  0
  126.2681  135.3392  165.1461 C   0  0  0  0  0  0  0  0  0  0  0  0
  127.5187  135.3254  165.7375 C   0  0  0  0  0  0  0  0  0  0  0  0
  127.6556  134.9186  167.0186 F   0  0  0  0  0  0  0  0  0  0  0  0
  128.6313  135.7237  165.0147 C   0  0  0  0  0  0  0  0  0  0  0  0
  128.4924  136.1459  163.7061 C   0  0  0  0  0  0  0  0  0  0  0  0
  129.7039  136.5844  162.9244 C   0  0  0  0  0  0  0  0  0  0  0  0
  129.6627  135.9904  161.5858 N   0  0  0  0  0  0  0  0  0  0  0  0
  128.9244  135.4140  161.3334 H   0  0  0  0  0  0  0  0  0  0  0  0
  130.6180  136.2364  160.7339 C   0  0  0  0  0  0  0  0  0  0  0  0
  131.6643  137.0535  161.0915 N   0  0  0  0  0  0  0  0  0  0  0  0
  132.7380  137.3301  160.1339 C   0  0  0  0  0  0  0  0  0  0  0  0
  133.7535  138.2450  160.7684 C   0  0  0  0  0  0  0  0  0  0  0  0
  133.6173  139.6159  160.6509 C   0  0  0  0  0  0  0  0  0  0  0  0
  134.5449  140.4566  161.2372 C   0  0  0  0  0  0  0  0  0  0  0  0
  135.6161  139.9272  161.9320 C   0  0  0  0  0  0  0  0  0  0  0  0
  135.7566  138.5547  162.0454 C   0  0  0  0  0  0  0  0  0  0  0  0
  136.8030  138.0361  162.7247 F   0  0  0  0  0  0  0  0  0  0  0  0
  134.8235  137.7137  161.4625 C   0  0  0  0  0  0  0  0  0  0  0  0
  130.5793  135.6790  159.4778 N   0  0  0  0  0  0  0  0  0  0  0  0
  129.4642  134.8084  159.0967 C   0  0  0  0  0  0  0  0  0  0  0  0
  129.4976  133.4831  159.8930 C   0  0  0  0  0  0  0  0  0  0  0  0
  129.0510  132.4304  158.9054 C   0  0  0  0  0  0  0  0  0  0  0  0
  129.1226  132.8748  157.6801 C   0  0  0  0  0  0  0  0  0  0  0  0
  129.6290  134.2980  157.6464 C   0  0  0  0  0  0  0  0  0  0  0  0
  127.2451  136.1611  163.1119 C   0  0  0  0  0  0  0  0  0  0  0  0
  124.9062  136.0794  162.3305 H   0  0  0  0  0  0  0  0  0  0  0  0
  125.4009  135.0250  165.7078 H   0  0  0  0  0  0  0  0  0  0  0  0
  129.6077  135.7084  165.4759 H   0  0  0  0  0  0  0  0  0  0  0  0
  130.6069  136.2569  163.4396 H   0  0  0  0  0  0  0  0  0  0  0  0
  129.7079  137.6711  162.8396 H   0  0  0  0  0  0  0  0  0  0  0  0
  131.6895  137.4500  161.9763 H   0  0  0  0  0  0  0  0  0  0  0  0
  133.2198  136.3950  159.8482 H   0  0  0  0  0  0  0  0  0  0  0  0
  132.3206  137.8091  159.2483 H   0  0  0  0  0  0  0  0  0  0  0  0
  132.7832  140.0304  160.1041 H   0  0  0  0  0  0  0  0  0  0  0  0
  134.4350  141.5274  161.1484 H   0  0  0  0  0  0  0  0  0  0  0  0
  136.3428  140.5841  162.3865 H   0  0  0  0  0  0  0  0  0  0  0  0
  134.9321  136.6427  161.5507 H   0  0  0  0  0  0  0  0  0  0  0  0
  131.2900  135.8622  158.8437 H   0  0  0  0  0  0  0  0  0  0  0  0
  128.5101  135.3192  159.2259 H   0  0  0  0  0  0  0  0  0  0  0  0
  130.5097  133.2737  160.2394 H   0  0  0  0  0  0  0  0  0  0  0  0
  128.8085  133.5294  160.7363 H   0  0  0  0  0  0  0  0  0  0  0  0
  128.7161  131.4404  159.1775 H   0  0  0  0  0  0  0  0  0  0  0  0
  128.8548  132.3007  156.8055 H   0  0  0  0  0  0  0  0  0  0  0  0
  129.0292  134.8983  156.9622 H   0  0  0  0  0  0  0  0  0  0  0  0
  130.6782  134.3227  157.3520 H   0  0  0  0  0  0  0  0  0  0  0  0
  127.1387  136.4875  162.0879 H   0  0  0  0  0  0  0  0  0  0  0  0
  1  2  1  0
  1 28  1  0
  2 27  2  0
  2  3  1  0
  3  4  2  0
  3 29  1  0
  4  5  1  0
  4  6  1  0
  6  7  2  0
  6 30  1  0
  7  8  1  0
  7 27  1  0
  8  9  1  0
  8 31  1  0
  8 32  1  0
  9 10  1  0
 11  9  2  0
 11 12  1  0
 11 21  1  0
 12 13  1  0
 12 33  1  0
 13 14  1  0
 13 34  1  0
 13 35  1  0
 14 20  1  0
 14 15  2  0
 15 16  1  0
 15 36  1  0
 16 17  2  0
 16 37  1  0
 17 18  1  0
 17 38  1  0
 18 19  1  0
 18 20  2  0
 20 39  1  0
 21 22  1  0
 21 40  1  0
 22 26  1  0
 22 23  1  0
 22 41  1  0
 23 24  1  0
 23 42  1  0
 23 43  1  0
 24 25  2  0
 24 44  1  0
 25 26  1  0
 25 45  1  0
 26 46  1  0
 26 47  1  0
 27 48  1  0
M  CHG  1   9   1
M  END
>  <DOCK_score>  (1) 
-41.313499

>  <SMILES>  (1) 
Oc1cc(F)cc(C[NH+]=C(NCc2cccc(F)c2)NC2CC=CC2)c1

$$$$
