Fc1ccc(O[C@@H](c2ccccc2)C2CC[NH+](Cc3cccc4ccccc34)CC2)cc1
     RDKit          3D

 61 65  0  0  1  0  0  0  0  0999 V2000
  138.3434  140.1917  160.1498 F   0  0  0  0  0  0  0  0  0  0  0  0
  137.0401  139.8361  160.1281 C   0  0  0  0  0  0  0  0  0  0  0  0
  136.2825  139.9142  161.2843 C   0  0  0  0  0  0  0  0  0  0  0  0
  134.9497  139.5509  161.2636 C   0  0  0  0  0  0  0  0  0  0  0  0
  134.3707  139.1077  160.0836 C   0  0  0  0  0  0  0  0  0  0  0  0
  133.0596  138.7495  160.0619 O   0  0  0  0  0  0  0  0  0  0  0  0
  132.5118  138.2190  161.2704 C   0  0  1  0  0  0  0  0  0  0  0  0
  133.2941  137.7050  161.8290 H   0  0  0  0  0  0  0  0  0  0  0  0
  131.9544  139.3429  162.1052 C   0  0  0  0  0  0  0  0  0  0  0  0
  131.9444  139.2409  163.4837 C   0  0  0  0  0  0  0  0  0  0  0  0
  131.4338  140.2723  164.2495 C   0  0  0  0  0  0  0  0  0  0  0  0
  130.9334  141.4060  163.6368 C   0  0  0  0  0  0  0  0  0  0  0  0
  130.9422  141.5074  162.2582 C   0  0  0  0  0  0  0  0  0  0  0  0
  131.4535  140.4764  161.4924 C   0  0  0  0  0  0  0  0  0  0  0  0
  131.3933  137.2311  160.9329 C   0  0  2  0  0  0  0  0  0  0  0  0
  132.0031  135.8854  160.5299 C   0  0  0  0  0  0  0  0  0  0  0  0
  130.8835  134.9272  160.1176 C   0  0  0  0  0  0  0  0  0  0  0  0
  130.1454  135.4916  158.9812 N   0  0  1  0  0  0  0  0  0  0  0  0
  130.7851  135.6713  158.2219 H   0  0  0  0  0  0  0  0  0  0  0  0
  129.1225  134.5343  158.5395 C   0  0  0  0  0  0  0  0  0  0  0  0
  129.7637  133.4742  157.6815 C   0  0  0  0  0  0  0  0  0  0  0  0
  129.8607  133.6501  156.3351 C   0  0  0  0  0  0  0  0  0  0  0  0
  130.4510  132.6815  155.5259 C   0  0  0  0  0  0  0  0  0  0  0  0
  130.9475  131.5311  156.0580 C   0  0  0  0  0  0  0  0  0  0  0  0
  130.8651  131.3140  157.4436 C   0  0  0  0  0  0  0  0  0  0  0  0
  131.3660  130.1387  158.0295 C   0  0  0  0  0  0  0  0  0  0  0  0
  131.2683  129.9628  159.3754 C   0  0  0  0  0  0  0  0  0  0  0  0
  130.6775  130.9314  160.1849 C   0  0  0  0  0  0  0  0  0  0  0  0
  130.1811  132.0815  159.6529 C   0  0  0  0  0  0  0  0  0  0  0  0
  130.2697  132.3018  158.2677 C   0  0  0  0  0  0  0  0  0  0  0  0
  129.4985  136.7468  159.3814 C   0  0  0  0  0  0  0  0  0  0  0  0
  130.5647  137.7750  159.7655 C   0  0  0  0  0  0  0  0  0  0  0  0
  135.1322  139.0250  158.9272 C   0  0  0  0  0  0  0  0  0  0  0  0
  136.4635  139.3936  158.9497 C   0  0  0  0  0  0  0  0  0  0  0  0
  136.7339  140.2589  162.2030 H   0  0  0  0  0  0  0  0  0  0  0  0
  134.3592  139.6115  162.1657 H   0  0  0  0  0  0  0  0  0  0  0  0
  132.3356  138.3554  163.9625 H   0  0  0  0  0  0  0  0  0  0  0  0
  131.4218  140.1907  165.3264 H   0  0  0  0  0  0  0  0  0  0  0  0
  130.5343  142.2116  164.2350 H   0  0  0  0  0  0  0  0  0  0  0  0
  130.5512  142.3931  161.7793 H   0  0  0  0  0  0  0  0  0  0  0  0
  131.4620  140.5565  160.4155 H   0  0  0  0  0  0  0  0  0  0  0  0
  130.7516  137.0958  161.8034 H   0  0  0  0  0  0  0  0  0  0  0  0
  132.6848  136.0309  159.6919 H   0  0  0  0  0  0  0  0  0  0  0  0
  132.5488  135.4653  161.3749 H   0  0  0  0  0  0  0  0  0  0  0  0
  130.2027  134.7822  160.9564 H   0  0  0  0  0  0  0  0  0  0  0  0
  131.3141  133.9680  159.8304 H   0  0  0  0  0  0  0  0  0  0  0  0
  128.6617  134.0674  159.4101 H   0  0  0  0  0  0  0  0  0  0  0  0
  128.3605  135.0574  157.9619 H   0  0  0  0  0  0  0  0  0  0  0  0
  129.4746  134.5539  155.8875 H   0  0  0  0  0  0  0  0  0  0  0  0
  130.5154  132.8458  154.4604 H   0  0  0  0  0  0  0  0  0  0  0  0
  131.4021  130.7891  155.4183 H   0  0  0  0  0  0  0  0  0  0  0  0
  131.8258  129.3791  157.4146 H   0  0  0  0  0  0  0  0  0  0  0  0
  131.6540  129.0587  159.8230 H   0  0  0  0  0  0  0  0  0  0  0  0
  130.6124  130.7667  161.2502 H   0  0  0  0  0  0  0  0  0  0  0  0
  129.7260  132.8232  160.2926 H   0  0  0  0  0  0  0  0  0  0  0  0
  128.8472  136.5630  160.2359 H   0  0  0  0  0  0  0  0  0  0  0  0
  128.9069  137.1307  158.5502 H   0  0  0  0  0  0  0  0  0  0  0  0
  130.0823  138.7056  160.0640 H   0  0  0  0  0  0  0  0  0  0  0  0
  131.2165  137.9597  158.9115 H   0  0  0  0  0  0  0  0  0  0  0  0
  134.6837  138.6761  158.0088 H   0  0  0  0  0  0  0  0  0  0  0  0
  137.0557  139.3325  158.0486 H   0  0  0  0  0  0  0  0  0  0  0  0
  1  2  1  0
  2 34  2  0
  2  3  1  0
  3  4  2  0
  3 35  1  0
  4  5  1  0
  4 36  1  0
  5  6  1  0
  5 33  2  0
  6  7  1  0
  7  8  1  1
  7  9  1  0
  7 15  1  0
  9 14  1  0
  9 10  2  0
 10 11  1  0
 10 37  1  0
 11 12  2  0
 11 38  1  0
 12 13  1  0
 12 39  1  0
 13 14  2  0
 13 40  1  0
 14 41  1  0
 15 32  1  0
 15 16  1  0
 15 42  1  1
 16 17  1  0
 16 43  1  0
 16 44  1  0
 17 18  1  0
 17 45  1  0
 17 46  1  0
 18 19  1  6
 18 20  1  0
 18 31  1  0
 20 21  1  0
 20 47  1  0
 20 48  1  0
 21 30  1  0
 21 22  2  0
 22 23  1  0
 22 49  1  0
 23 24  2  0
 23 50  1  0
 24 25  1  0
 24 51  1  0
 25 30  2  0
 25 26  1  0
 26 27  2  0
 26 52  1  0
 27 28  1  0
 27 53  1  0
 28 29  2  0
 28 54  1  0
 29 30  1  0
 29 55  1  0
 31 32  1  0
 31 56  1  0
 31 57  1  0
 32 58  1  0
 32 59  1  0
 33 34  1  0
 33 60  1  0
 34 61  1  0
M  CHG  1  18   1
M  END
>  <DOCK_score>  (1) 
-56.316021

>  <SMILES>  (1) 
Fc1ccc(O[C@@H](c2ccccc2)C2CC[NH+](Cc3cccc4ccccc34)CC2)cc1

$$$$
