c1[nH]nc(C2CCC[NH2+]C2)c1-c1nc([C@@H]2COC3(CCC3)CN2)no1
     RDKit          3D

 50 54  0  0  1  0  0  0  0  0999 V2000
  127.1217  136.7529  161.8647 C   0  0  0  0  0  0  0  0  0  0  0  0
  126.1357  136.0268  161.3087 N   0  0  0  0  0  0  0  0  0  0  0  0
  125.1879  136.1227  161.4920 H   0  0  0  0  0  0  0  0  0  0  0  0
  126.7086  135.1096  160.4205 N   0  0  0  0  0  0  0  0  0  0  0  0
  128.0043  135.2664  160.4297 C   0  0  0  0  0  0  0  0  0  0  0  0
  128.9966  134.4818  159.6107 C   0  0  1  0  0  0  0  0  0  0  0  0
  128.4497  133.0743  159.3556 C   0  0  0  0  0  0  0  0  0  0  0  0
  129.4286  132.3119  158.4580 C   0  0  0  0  0  0  0  0  0  0  0  0
  129.6391  133.0959  157.1609 C   0  0  0  0  0  0  0  0  0  0  0  0
  130.1875  134.4219  157.4700 N   0  0  0  0  0  0  0  0  0  0  0  0
  131.0461  134.3169  157.9896 H   0  0  0  0  0  0  0  0  0  0  0  0
  130.3741  134.9164  156.6104 H   0  0  0  0  0  0  0  0  0  0  0  0
  129.2231  135.1855  158.2709 C   0  0  0  0  0  0  0  0  0  0  0  0
  128.3134  136.3038  161.3363 C   0  0  0  0  0  0  0  0  0  0  0  0
  129.6613  136.8124  161.6585 C   0  0  0  0  0  0  0  0  0  0  0  0
  130.7121  136.8291  160.8560 N   0  0  0  0  0  0  0  0  0  0  0  0
  131.7039  137.3787  161.5740 C   0  0  0  0  0  0  0  0  0  0  0  0
  133.1142  137.6224  161.1023 C   0  0  2  0  0  0  0  0  0  0  0  0
  133.5721  136.6740  160.8212 H   0  0  0  0  0  0  0  0  0  0  0  0
  133.9250  138.2659  162.2297 C   0  0  0  0  0  0  0  0  0  0  0  0
  135.2551  138.5240  161.7665 O   0  0  0  0  0  0  0  0  0  0  0  0
  135.2999  139.3353  160.5938 C   0  0  0  0  0  0  0  0  0  0  0  0
  135.0414  140.8224  160.8666 C   0  0  0  0  0  0  0  0  0  0  0  0
  136.5589  140.9639  161.0764 C   0  0  0  0  0  0  0  0  0  0  0  0
  136.7211  139.7292  160.1729 C   0  0  0  0  0  0  0  0  0  0  0  0
  134.4588  138.7705  159.4502 C   0  0  0  0  0  0  0  0  0  0  0  0
  133.0932  138.5198  159.9385 N   0  0  0  0  0  0  0  0  0  0  0  0
  131.2294  137.6578  162.7520 N   0  0  0  0  0  0  0  0  0  0  0  0
  130.0606  137.3425  162.8251 O   0  0  0  0  0  0  0  0  0  0  0  0
  127.0020  137.5429  162.5915 H   0  0  0  0  0  0  0  0  0  0  0  0
  129.9408  134.4132  160.1507 H   0  0  0  0  0  0  0  0  0  0  0  0
  128.3399  132.5485  160.3042 H   0  0  0  0  0  0  0  0  0  0  0  0
  127.4799  133.1437  158.8630 H   0  0  0  0  0  0  0  0  0  0  0  0
  130.3822  132.1981  158.9734 H   0  0  0  0  0  0  0  0  0  0  0  0
  129.0201  131.3280  158.2271 H   0  0  0  0  0  0  0  0  0  0  0  0
  130.3355  132.5558  156.5194 H   0  0  0  0  0  0  0  0  0  0  0  0
  128.6849  133.2094  156.6464 H   0  0  0  0  0  0  0  0  0  0  0  0
  128.2779  135.2538  157.7324 H   0  0  0  0  0  0  0  0  0  0  0  0
  129.6123  136.1880  158.4488 H   0  0  0  0  0  0  0  0  0  0  0  0
  133.4548  139.2031  162.5273 H   0  0  0  0  0  0  0  0  0  0  0  0
  133.9622  137.5893  163.0835 H   0  0  0  0  0  0  0  0  0  0  0  0
  134.6675  141.3672  159.9997 H   0  0  0  0  0  0  0  0  0  0  0  0
  134.4566  141.0061  161.7680 H   0  0  0  0  0  0  0  0  0  0  0  0
  136.8748  140.7958  162.1060 H   0  0  0  0  0  0  0  0  0  0  0  0
  136.9768  141.8753  160.6490 H   0  0  0  0  0  0  0  0  0  0  0  0
  137.4870  139.0339  160.5164 H   0  0  0  0  0  0  0  0  0  0  0  0
  136.8121  139.9701  159.1137 H   0  0  0  0  0  0  0  0  0  0  0  0
  134.8983  137.8363  159.1008 H   0  0  0  0  0  0  0  0  0  0  0  0
  134.4271  139.4893  158.6312 H   0  0  0  0  0  0  0  0  0  0  0  0
  132.5096  138.1468  159.2047 H   0  0  0  0  0  0  0  0  0  0  0  0
  1 14  2  0
  1  2  1  0
  1 30  1  0
  2  3  1  0
  2  4  1  0
  4  5  2  0
  5  6  1  0
  5 14  1  0
  6 13  1  0
  6  7  1  0
  6 31  1  1
  7  8  1  0
  7 32  1  0
  7 33  1  0
  8  9  1  0
  8 34  1  0
  8 35  1  0
  9 10  1  0
  9 36  1  0
  9 37  1  0
 10 11  1  0
 10 12  1  0
 10 13  1  0
 13 38  1  0
 13 39  1  0
 14 15  1  0
 15 29  1  0
 15 16  2  0
 16 17  1  0
 17 18  1  0
 17 28  2  0
 18 19  1  6
 18 27  1  0
 18 20  1  0
 20 21  1  0
 20 40  1  0
 20 41  1  0
 21 22  1  0
 22 25  1  0
 22 23  1  0
 22 26  1  0
 23 24  1  0
 23 42  1  0
 23 43  1  0
 24 25  1  0
 24 44  1  0
 24 45  1  0
 25 46  1  0
 25 47  1  0
 26 27  1  0
 26 48  1  0
 26 49  1  0
 27 50  1  0
 28 29  1  0
M  CHG  1  10   1
M  END
>  <DOCK_score>  (1) 
-42.13797

>  <SMILES>  (1) 
c1[nH]nc(C2CCC[NH2+]C2)c1-c1nc([C@@H]2COC3(CCC3)CN2)no1

$$$$
