Cc1ccc2c(c1)C[C@@H]([NH+]=C(NC1COc3cc(Cl)ccc3C1)N[C@H]1CCC(=O)NC1)CO2
     RDKit          3D

 63 67  0  0  1  0  0  0  0  0999 V2000
  133.1272  138.7491  165.7771 C   0  0  0  0  0  0  0  0  0  0  0  0
  133.3168  137.6444  164.7697 C   0  0  0  0  0  0  0  0  0  0  0  0
  134.3425  136.7306  164.9300 C   0  0  0  0  0  0  0  0  0  0  0  0
  134.5144  135.7192  164.0076 C   0  0  0  0  0  0  0  0  0  0  0  0
  133.6586  135.6144  162.9156 C   0  0  0  0  0  0  0  0  0  0  0  0
  132.6348  136.5317  162.7564 C   0  0  0  0  0  0  0  0  0  0  0  0
  132.4668  137.5446  163.6859 C   0  0  0  0  0  0  0  0  0  0  0  0
  131.6885  136.4572  161.5851 C   0  0  0  0  0  0  0  0  0  0  0  0
  131.7590  135.0650  160.9527 C   0  0  1  0  0  0  0  0  0  0  0  0
  131.2885  134.3370  161.6136 H   0  0  0  0  0  0  0  0  0  0  0  0
  131.0714  135.0746  159.6592 N   0  0  0  0  0  0  0  0  0  0  0  0
  131.5627  135.2872  158.8504 H   0  0  0  0  0  0  0  0  0  0  0  0
  129.7993  134.7978  159.5953 C   0  0  0  0  0  0  0  0  0  0  0  0
  129.2796  134.2096  158.4666 N   0  0  0  0  0  0  0  0  0  0  0  0
  130.1136  133.3208  157.6536 C   0  0  1  0  0  0  0  0  0  0  0  0
  129.9507  131.8739  158.1364 C   0  0  0  0  0  0  0  0  0  0  0  0
  130.8504  131.0479  157.3963 O   0  0  0  0  0  0  0  0  0  0  0  0
  130.8596  131.1723  156.0435 C   0  0  0  0  0  0  0  0  0  0  0  0
  131.4388  130.1581  155.2877 C   0  0  0  0  0  0  0  0  0  0  0  0
  131.4759  130.2526  153.9106 C   0  0  0  0  0  0  0  0  0  0  0  0
  132.1995  128.9841  152.9718 Cl  0  0  0  0  0  0  0  0  0  0  0  0
  130.9353  131.3595  153.2795 C   0  0  0  0  0  0  0  0  0  0  0  0
  130.3583  132.3666  154.0275 C   0  0  0  0  0  0  0  0  0  0  0  0
  130.3170  132.2759  155.4090 C   0  0  0  0  0  0  0  0  0  0  0  0
  129.6695  133.3913  156.1900 C   0  0  0  0  0  0  0  0  0  0  0  0
  128.9772  135.0939  160.6568 N   0  0  0  0  0  0  0  0  0  0  0  0
  127.5474  134.7828  160.5850 C   0  0  1  0  0  0  0  0  0  0  0  0
  127.2125  134.8389  159.5493 H   0  0  0  0  0  0  0  0  0  0  0  0
  127.3002  133.3709  161.1299 C   0  0  0  0  0  0  0  0  0  0  0  0
  125.8361  133.0037  160.8755 C   0  0  0  0  0  0  0  0  0  0  0  0
  124.9421  134.1191  161.3360 C   0  0  0  0  0  0  0  0  0  0  0  0
  123.7668  133.8772  161.5123 O   0  0  0  0  0  0  0  0  0  0  0  0
  125.3716  135.3613  161.5618 N   0  0  0  0  0  0  0  0  0  0  0  0
  126.7618  135.7808  161.4366 C   0  0  0  0  0  0  0  0  0  0  0  0
  133.2355  134.7012  160.7506 C   0  0  0  0  0  0  0  0  0  0  0  0
  133.8542  134.5997  162.0339 O   0  0  0  0  0  0  0  0  0  0  0  0
  132.4563  138.4098  166.5662 H   0  0  0  0  0  0  0  0  0  0  0  0
  134.0916  139.0156  166.2097 H   0  0  0  0  0  0  0  0  0  0  0  0
  132.6969  139.6207  165.2839 H   0  0  0  0  0  0  0  0  0  0  0  0
  135.0080  136.8085  165.7769 H   0  0  0  0  0  0  0  0  0  0  0  0
  135.3157  135.0061  164.1339 H   0  0  0  0  0  0  0  0  0  0  0  0
  131.6669  138.2597  163.5628 H   0  0  0  0  0  0  0  0  0  0  0  0
  131.9682  137.2066  160.8446 H   0  0  0  0  0  0  0  0  0  0  0  0
  130.6718  136.6485  161.9283 H   0  0  0  0  0  0  0  0  0  0  0  0
  128.3608  134.3829  158.2085 H   0  0  0  0  0  0  0  0  0  0  0  0
  131.1584  133.6203  157.7362 H   0  0  0  0  0  0  0  0  0  0  0  0
  128.9258  131.5437  157.9674 H   0  0  0  0  0  0  0  0  0  0  0  0
  130.1861  131.8129  159.1990 H   0  0  0  0  0  0  0  0  0  0  0  0
  131.8610  129.2943  155.7796 H   0  0  0  0  0  0  0  0  0  0  0  0
  130.9646  131.4354  152.2027 H   0  0  0  0  0  0  0  0  0  0  0  0
  129.9368  133.2291  153.5327 H   0  0  0  0  0  0  0  0  0  0  0  0
  129.9672  134.3507  155.7669 H   0  0  0  0  0  0  0  0  0  0  0  0
  128.5855  133.2916  156.1341 H   0  0  0  0  0  0  0  0  0  0  0  0
  129.3438  135.5089  161.4532 H   0  0  0  0  0  0  0  0  0  0  0  0
  127.9507  132.6612  160.6188 H   0  0  0  0  0  0  0  0  0  0  0  0
  127.5037  133.3498  162.2005 H   0  0  0  0  0  0  0  0  0  0  0  0
  125.6850  132.8352  159.8093 H   0  0  0  0  0  0  0  0  0  0  0  0
  125.5908  132.0936  161.4230 H   0  0  0  0  0  0  0  0  0  0  0  0
  124.7178  136.0272  161.8260 H   0  0  0  0  0  0  0  0  0  0  0  0
  127.2108  135.8404  162.4279 H   0  0  0  0  0  0  0  0  0  0  0  0
  126.8006  136.7638  160.9672 H   0  0  0  0  0  0  0  0  0  0  0  0
  133.3105  133.7466  160.2297 H   0  0  0  0  0  0  0  0  0  0  0  0
  133.7286  135.4784  160.1665 H   0  0  0  0  0  0  0  0  0  0  0  0
  1  2  1  0
  1 37  1  0
  1 38  1  0
  1 39  1  0
  2  7  2  0
  2  3  1  0
  3  4  2  0
  3 40  1  0
  4  5  1  0
  4 41  1  0
  5 36  1  0
  5  6  2  0
  6  7  1  0
  6  8  1  0
  7 42  1  0
  8  9  1  0
  8 43  1  0
  8 44  1  0
  9 10  1  1
  9 11  1  0
  9 35  1  0
 11 12  1  0
 13 11  2  0
 13 14  1  0
 13 26  1  0
 14 15  1  0
 14 45  1  0
 15 25  1  0
 15 16  1  0
 15 46  1  6
 16 17  1  0
 16 47  1  0
 16 48  1  0
 17 18  1  0
 18 24  2  0
 18 19  1  0
 19 20  2  0
 19 49  1  0
 20 21  1  0
 20 22  1  0
 22 23  2  0
 22 50  1  0
 23 24  1  0
 23 51  1  0
 24 25  1  0
 25 52  1  0
 25 53  1  0
 26 27  1  0
 26 54  1  0
 27 28  1  6
 27 34  1  0
 27 29  1  0
 29 30  1  0
 29 55  1  0
 29 56  1  0
 30 31  1  0
 30 57  1  0
 30 58  1  0
 31 32  2  0
 31 33  1  0
 33 34  1  0
 33 59  1  0
 34 60  1  0
 34 61  1  0
 35 36  1  0
 35 62  1  0
 35 63  1  0
M  CHG  1  11   1
M  END
>  <DOCK_score>  (1) 
-54.841984

>  <SMILES>  (1) 
Cc1ccc2c(c1)C[C@@H]([NH+]=C(NC1COc3cc(Cl)ccc3C1)N[C@H]1CCC(=O)NC1)CO2

$$$$
