Cc1cc(O)ccc1Nc1[nH]cc(-c2ccncc2)[nH+]1
     RDKit          3D

 35 37  0  0  1  0  0  0  0  0999 V2000
  127.4727  135.4275  157.6936 C   0  0  0  0  0  0  0  0  0  0  0  0
  127.8512  135.7461  159.1171 C   0  0  0  0  0  0  0  0  0  0  0  0
  126.8855  136.1629  160.0120 C   0  0  0  0  0  0  0  0  0  0  0  0
  127.2346  136.4613  161.3208 C   0  0  0  0  0  0  0  0  0  0  0  0
  126.2837  136.8761  162.2000 O   0  0  0  0  0  0  0  0  0  0  0  0
  128.5533  136.3369  161.7332 C   0  0  0  0  0  0  0  0  0  0  0  0
  129.5193  135.9157  160.8412 C   0  0  0  0  0  0  0  0  0  0  0  0
  129.1704  135.6164  159.5305 C   0  0  0  0  0  0  0  0  0  0  0  0
  130.1495  135.1897  158.6251 N   0  0  0  0  0  0  0  0  0  0  0  0
  130.0367  133.9511  158.0160 C   0  0  0  0  0  0  0  0  0  0  0  0
  129.4370  132.8538  158.5549 N   0  0  0  0  0  0  0  0  0  0  0  0
  129.0188  132.7988  159.4285 H   0  0  0  0  0  0  0  0  0  0  0  0
  129.5384  131.8390  157.6377 C   0  0  0  0  0  0  0  0  0  0  0  0
  130.1971  132.3429  156.5635 C   0  0  0  0  0  0  0  0  0  0  0  0
  130.5361  131.6054  155.3232 C   0  0  0  0  0  0  0  0  0  0  0  0
  130.0502  132.0268  154.0812 C   0  0  0  0  0  0  0  0  0  0  0  0
  130.3944  131.3144  152.9517 C   0  0  0  0  0  0  0  0  0  0  0  0
  131.1619  130.2443  153.0335 N   0  0  0  0  0  0  0  0  0  0  0  0
  131.6366  129.8099  154.1860 C   0  0  0  0  0  0  0  0  0  0  0  0
  131.3458  130.4658  155.3636 C   0  0  0  0  0  0  0  0  0  0  0  0
  130.4896  133.6416  156.8257 N   0  0  0  0  0  0  0  0  0  0  0  0
  130.9592  134.2443  156.2281 H   0  0  0  0  0  0  0  0  0  0  0  0
  127.2020  134.3745  157.6166 H   0  0  0  0  0  0  0  0  0  0  0  0
  126.6238  136.0435  157.3970 H   0  0  0  0  0  0  0  0  0  0  0  0
  128.3185  135.6342  157.0378 H   0  0  0  0  0  0  0  0  0  0  0  0
  125.8586  136.2599  159.6918 H   0  0  0  0  0  0  0  0  0  0  0  0
  125.3957  136.9321  161.8214 H   0  0  0  0  0  0  0  0  0  0  0  0
  128.8244  136.5700  162.7523 H   0  0  0  0  0  0  0  0  0  0  0  0
  130.5459  135.8194  161.1624 H   0  0  0  0  0  0  0  0  0  0  0  0
  130.9067  135.7618  158.4244 H   0  0  0  0  0  0  0  0  0  0  0  0
  129.1658  130.8315  157.7493 H   0  0  0  0  0  0  0  0  0  0  0  0
  129.4181  132.8994  154.0074 H   0  0  0  0  0  0  0  0  0  0  0  0
  130.0272  131.6342  151.9877 H   0  0  0  0  0  0  0  0  0  0  0  0
  132.2612  128.9290  154.2070 H   0  0  0  0  0  0  0  0  0  0  0  0
  131.7381  130.1051  156.3031 H   0  0  0  0  0  0  0  0  0  0  0  0
  1  2  1  0
  1 23  1  0
  1 24  1  0
  1 25  1  0
  2  8  2  0
  2  3  1  0
  3  4  2  0
  3 26  1  0
  4  5  1  0
  4  6  1  0
  5 27  1  0
  6  7  2  0
  6 28  1  0
  7  8  1  0
  7 29  1  0
  8  9  1  0
  9 30  1  0
 10  9  1  0
 10 21  2  0
 10 11  1  0
 11 12  1  0
 11 13  1  0
 13 14  2  0
 13 31  1  0
 14 15  1  0
 14 21  1  0
 15 20  1  0
 15 16  2  0
 16 17  1  0
 16 32  1  0
 17 18  2  0
 17 33  1  0
 18 19  1  0
 19 20  2  0
 19 34  1  0
 20 35  1  0
 21 22  1  0
M  CHG  1  21   1
M  END
>  <DOCK_score>  (1) 
-49.036846

>  <SMILES>  (1) 
Cc1cc(O)ccc1Nc1[nH]cc(-c2ccncc2)[nH+]1

$$$$
