CC=C(C)Sc1cccc([C@H](c2ccccc2N2CC=CC2)[NH+]2CCN(c3ccccc3F)CC2)c1
     RDKit          3D

 71 75  0  0  1  0  0  0  0  0999 V2000
  129.9857  129.1847  152.1249 C   0  0  0  0  0  0  0  0  0  0  0  0
  129.7123  130.4862  152.8338 C   0  0  0  0  0  0  0  0  0  0  0  0
  130.7126  131.1871  153.3371 C   0  0  0  0  0  0  0  0  0  0  0  0
  132.1347  130.7492  153.0984 C   0  0  0  0  0  0  0  0  0  0  0  0
  130.3841  132.6339  154.2875 S   0  0  0  0  0  0  0  0  0  0  0  0
  130.2574  132.0089  155.9301 C   0  0  0  0  0  0  0  0  0  0  0  0
  130.4175  130.6496  156.1724 C   0  0  0  0  0  0  0  0  0  0  0  0
  130.3132  130.1628  157.4601 C   0  0  0  0  0  0  0  0  0  0  0  0
  130.0596  131.0273  158.5098 C   0  0  0  0  0  0  0  0  0  0  0  0
  129.9045  132.3810  158.2730 C   0  0  0  0  0  0  0  0  0  0  0  0
  129.6284  133.3188  159.4198 C   0  0  2  0  0  0  0  0  0  0  0  0
  129.5863  132.7525  160.3502 H   0  0  0  0  0  0  0  0  0  0  0  0
  128.3102  134.0135  159.1945 C   0  0  0  0  0  0  0  0  0  0  0  0
  128.2683  135.2112  158.5079 C   0  0  0  0  0  0  0  0  0  0  0  0
  127.0591  135.8487  158.2999 C   0  0  0  0  0  0  0  0  0  0  0  0
  125.8879  135.2899  158.7783 C   0  0  0  0  0  0  0  0  0  0  0  0
  125.9227  134.0930  159.4658 C   0  0  0  0  0  0  0  0  0  0  0  0
  127.1354  133.4471  159.6720 C   0  0  0  0  0  0  0  0  0  0  0  0
  127.1735  132.2334  160.3622 N   0  0  0  0  0  0  0  0  0  0  0  0
  126.4982  132.3483  161.6767 C   0  0  0  0  0  0  0  0  0  0  0  0
  125.8332  131.0104  161.9035 C   0  0  0  0  0  0  0  0  0  0  0  0
  125.7584  130.3625  160.7680 C   0  0  0  0  0  0  0  0  0  0  0  0
  126.3661  131.2021  159.6683 C   0  0  0  0  0  0  0  0  0  0  0  0
  130.7010  134.3191  159.5034 N   0  0  0  0  0  0  0  0  0  0  0  0
  130.7398  134.8432  158.6421 H   0  0  0  0  0  0  0  0  0  0  0  0
  131.9858  133.6417  159.7222 C   0  0  0  0  0  0  0  0  0  0  0  0
  133.1061  134.6820  159.7903 C   0  0  0  0  0  0  0  0  0  0  0  0
  132.8338  135.6194  160.8891 N   0  0  0  0  0  0  0  0  0  0  0  0
  133.8655  136.5546  161.0172 C   0  0  0  0  0  0  0  0  0  0  0  0
  134.1761  137.3974  159.9587 C   0  0  0  0  0  0  0  0  0  0  0  0
  135.1960  138.3204  160.0881 C   0  0  0  0  0  0  0  0  0  0  0  0
  135.9077  138.4062  161.2704 C   0  0  0  0  0  0  0  0  0  0  0  0
  135.6026  137.5687  162.3276 C   0  0  0  0  0  0  0  0  0  0  0  0
  134.5791  136.6467  162.2075 C   0  0  0  0  0  0  0  0  0  0  0  0
  134.2765  135.8328  163.2424 F   0  0  0  0  0  0  0  0  0  0  0  0
  131.5386  136.2870  160.6968 C   0  0  0  0  0  0  0  0  0  0  0  0
  130.4314  135.2334  160.6209 C   0  0  0  0  0  0  0  0  0  0  0  0
  130.0027  132.8744  156.9868 C   0  0  0  0  0  0  0  0  0  0  0  0
  130.6364  129.3667  151.2696 H   0  0  0  0  0  0  0  0  0  0  0  0
  130.4731  128.4925  152.8115 H   0  0  0  0  0  0  0  0  0  0  0  0
  129.0455  128.7538  151.7810 H   0  0  0  0  0  0  0  0  0  0  0  0
  128.6985  130.8458  152.9304 H   0  0  0  0  0  0  0  0  0  0  0  0
  132.4459  130.0747  153.8961 H   0  0  0  0  0  0  0  0  0  0  0  0
  132.2001  130.2335  152.1403 H   0  0  0  0  0  0  0  0  0  0  0  0
  132.7867  131.6227  153.0862 H   0  0  0  0  0  0  0  0  0  0  0  0
  130.6199  129.9747  155.3540 H   0  0  0  0  0  0  0  0  0  0  0  0
  130.4342  129.1063  157.6488 H   0  0  0  0  0  0  0  0  0  0  0  0
  129.9822  130.6443  159.5166 H   0  0  0  0  0  0  0  0  0  0  0  0
  129.1810  135.6501  158.1326 H   0  0  0  0  0  0  0  0  0  0  0  0
  127.0291  136.7850  157.7623 H   0  0  0  0  0  0  0  0  0  0  0  0
  124.9450  135.7901  158.6135 H   0  0  0  0  0  0  0  0  0  0  0  0
  125.0077  133.6571  159.8392 H   0  0  0  0  0  0  0  0  0  0  0  0
  127.2296  132.5443  162.4609 H   0  0  0  0  0  0  0  0  0  0  0  0
  125.7512  133.1417  161.6494 H   0  0  0  0  0  0  0  0  0  0  0  0
  125.4753  130.6452  162.8548 H   0  0  0  0  0  0  0  0  0  0  0  0
  125.3291  129.3801  160.6376 H   0  0  0  0  0  0  0  0  0  0  0  0
  125.5817  131.6726  159.0753 H   0  0  0  0  0  0  0  0  0  0  0  0
  127.0039  130.5878  159.0327 H   0  0  0  0  0  0  0  0  0  0  0  0
  131.9486  133.0859  160.6591 H   0  0  0  0  0  0  0  0  0  0  0  0
  132.1787  132.9537  158.8990 H   0  0  0  0  0  0  0  0  0  0  0  0
  133.1524  135.2290  158.8486 H   0  0  0  0  0  0  0  0  0  0  0  0
  134.0578  134.1811  159.9671 H   0  0  0  0  0  0  0  0  0  0  0  0
  133.6208  137.3319  159.0348 H   0  0  0  0  0  0  0  0  0  0  0  0
  135.4377  138.9758  159.2644 H   0  0  0  0  0  0  0  0  0  0  0  0
  136.7044  139.1289  161.3682 H   0  0  0  0  0  0  0  0  0  0  0  0
  136.1609  137.6382  163.2495 H   0  0  0  0  0  0  0  0  0  0  0  0
  131.5591  136.8604  159.7702 H   0  0  0  0  0  0  0  0  0  0  0  0
  131.3466  136.9566  161.5352 H   0  0  0  0  0  0  0  0  0  0  0  0
  129.4716  135.7257  160.4640 H   0  0  0  0  0  0  0  0  0  0  0  0
  130.4022  134.6693  161.5530 H   0  0  0  0  0  0  0  0  0  0  0  0
  129.8822  133.9316  156.8027 H   0  0  0  0  0  0  0  0  0  0  0  0
  1  2  1  0
  1 39  1  0
  1 40  1  0
  1 41  1  0
  2  3  2  0
  2 42  1  0
  3  4  1  0
  3  5  1  0
  4 43  1  0
  4 44  1  0
  4 45  1  0
  5  6  1  0
  6 38  2  0
  6  7  1  0
  7  8  2  0
  7 46  1  0
  8  9  1  0
  8 47  1  0
  9 10  2  0
  9 48  1  0
 10 11  1  0
 10 38  1  0
 11 12  1  1
 11 13  1  0
 11 24  1  0
 13 18  1  0
 13 14  2  0
 14 15  1  0
 14 49  1  0
 15 16  2  0
 15 50  1  0
 16 17  1  0
 16 51  1  0
 17 18  2  0
 17 52  1  0
 18 19  1  0
 19 23  1  0
 19 20  1  0
 20 21  1  0
 20 53  1  0
 20 54  1  0
 21 22  2  0
 21 55  1  0
 22 23  1  0
 22 56  1  0
 23 57  1  0
 23 58  1  0
 24 25  1  0
 24 37  1  0
 24 26  1  0
 26 27  1  0
 26 59  1  0
 26 60  1  0
 27 28  1  0
 27 61  1  0
 27 62  1  0
 28 29  1  0
 28 36  1  0
 29 34  1  0
 29 30  2  0
 30 31  1  0
 30 63  1  0
 31 32  2  0
 31 64  1  0
 32 33  1  0
 32 65  1  0
 33 34  2  0
 33 66  1  0
 34 35  1  0
 36 37  1  0
 36 67  1  0
 36 68  1  0
 37 69  1  0
 37 70  1  0
 38 71  1  0
M  CHG  1  24   1
M  END
>  <DOCK_score>  (1) 
-64.898788

>  <SMILES>  (1) 
CC=C(C)Sc1cccc([C@H](c2ccccc2N2CC=CC2)[NH+]2CCN(c3ccccc3F)CC2)c1

$$$$
