C[C@@H](c1cnn(-c2ccccc2)c1)[NH+]1CC=C(c2cccc3ncc(-c4ccc(N)cc4)nc23)CC1
     RDKit          3D

 65 70  0  0  1  0  0  0  0  0999 V2000
  128.4555  135.4932  159.3521 C   0  0  0  0  0  0  0  0  0  0  0  0
  129.7403  134.7556  159.7338 C   0  0  1  0  0  0  0  0  0  0  0  0
  129.6599  134.3919  160.7582 H   0  0  0  0  0  0  0  0  0  0  0  0
  129.9460  133.5897  158.8015 C   0  0  0  0  0  0  0  0  0  0  0  0
  130.0243  132.2427  159.1725 C   0  0  0  0  0  0  0  0  0  0  0  0
  130.2065  131.5296  158.0904 N   0  0  0  0  0  0  0  0  0  0  0  0
  130.2501  132.4005  156.9940 N   0  0  0  0  0  0  0  0  0  0  0  0
  130.4307  132.0313  155.6538 C   0  0  0  0  0  0  0  0  0  0  0  0
  130.4544  133.0025  154.6619 C   0  0  0  0  0  0  0  0  0  0  0  0
  130.6329  132.6357  153.3424 C   0  0  0  0  0  0  0  0  0  0  0  0
  130.7885  131.3028  153.0088 C   0  0  0  0  0  0  0  0  0  0  0  0
  130.7654  130.3333  153.9944 C   0  0  0  0  0  0  0  0  0  0  0  0
  130.5867  130.6938  155.3158 C   0  0  0  0  0  0  0  0  0  0  0  0
  130.0930  133.6608  157.4581 C   0  0  0  0  0  0  0  0  0  0  0  0
  130.8820  135.6740  159.6286 N   0  0  1  0  0  0  0  0  0  0  0  0
  131.1633  135.7537  158.6628 H   0  0  0  0  0  0  0  0  0  0  0  0
  130.4980  136.9953  160.1387 C   0  0  0  0  0  0  0  0  0  0  0  0
  131.6965  137.8970  160.2115 C   0  0  0  0  0  0  0  0  0  0  0  0
  132.9346  137.4452  160.1981 C   0  0  0  0  0  0  0  0  0  0  0  0
  134.0454  138.4118  160.2798 C   0  0  0  0  0  0  0  0  0  0  0  0
  134.9776  138.4954  159.2573 C   0  0  0  0  0  0  0  0  0  0  0  0
  136.0263  139.4037  159.3283 C   0  0  0  0  0  0  0  0  0  0  0  0
  136.1685  140.2343  160.3997 C   0  0  0  0  0  0  0  0  0  0  0  0
  135.2475  140.1850  161.4592 C   0  0  0  0  0  0  0  0  0  0  0  0
  135.3750  140.9958  162.5182 N   0  0  0  0  0  0  0  0  0  0  0  0
  134.5043  140.9340  163.4966 C   0  0  0  0  0  0  0  0  0  0  0  0
  133.4342  140.0213  163.4454 C   0  0  0  0  0  0  0  0  0  0  0  0
  132.4608  139.9651  164.5602 C   0  0  0  0  0  0  0  0  0  0  0  0
  131.8151  138.7661  164.8645 C   0  0  0  0  0  0  0  0  0  0  0  0
  130.9144  138.7149  165.9057 C   0  0  0  0  0  0  0  0  0  0  0  0
  130.6399  139.8599  166.6461 C   0  0  0  0  0  0  0  0  0  0  0  0
  129.7240  139.8072  167.6958 N   0  0  0  0  0  0  0  0  0  0  0  0
  131.2779  141.0575  166.3412 C   0  0  0  0  0  0  0  0  0  0  0  0
  132.1837  141.1125  165.3047 C   0  0  0  0  0  0  0  0  0  0  0  0
  133.2925  139.2131  162.4074 N   0  0  0  0  0  0  0  0  0  0  0  0
  134.1677  139.2693  161.4025 C   0  0  0  0  0  0  0  0  0  0  0  0
  133.2545  135.9787  160.1020 C   0  0  0  0  0  0  0  0  0  0  0  0
  132.0038  135.1588  160.4293 C   0  0  0  0  0  0  0  0  0  0  0  0
  128.5360  135.8570  158.3277 H   0  0  0  0  0  0  0  0  0  0  0  0
  127.6083  134.8118  159.4301 H   0  0  0  0  0  0  0  0  0  0  0  0
  128.3066  136.3367  160.0265 H   0  0  0  0  0  0  0  0  0  0  0  0
  129.9470  131.8580  160.1787 H   0  0  0  0  0  0  0  0  0  0  0  0
  130.3336  134.0437  154.9220 H   0  0  0  0  0  0  0  0  0  0  0  0
  130.6515  133.3908  152.5704 H   0  0  0  0  0  0  0  0  0  0  0  0
  130.9239  131.0181  151.9759 H   0  0  0  0  0  0  0  0  0  0  0  0
  130.8872  129.2931  153.7309 H   0  0  0  0  0  0  0  0  0  0  0  0
  130.5688  129.9361  156.0851 H   0  0  0  0  0  0  0  0  0  0  0  0
  130.0842  134.5622  156.8633 H   0  0  0  0  0  0  0  0  0  0  0  0
  129.7549  137.4363  159.4743 H   0  0  0  0  0  0  0  0  0  0  0  0
  130.0679  136.8863  161.1344 H   0  0  0  0  0  0  0  0  0  0  0  0
  131.5368  138.9631  160.2773 H   0  0  0  0  0  0  0  0  0  0  0  0
  134.8879  137.8480  158.3974 H   0  0  0  0  0  0  0  0  0  0  0  0
  136.7416  139.4527  158.5206 H   0  0  0  0  0  0  0  0  0  0  0  0
  136.9916  140.9325  160.4340 H   0  0  0  0  0  0  0  0  0  0  0  0
  134.6095  141.5887  164.3491 H   0  0  0  0  0  0  0  0  0  0  0  0
  132.0244  137.8779  164.2867 H   0  0  0  0  0  0  0  0  0  0  0  0
  130.4174  137.7860  166.1441 H   0  0  0  0  0  0  0  0  0  0  0  0
  129.5322  140.6047  168.2129 H   0  0  0  0  0  0  0  0  0  0  0  0
  129.2788  138.9718  167.9091 H   0  0  0  0  0  0  0  0  0  0  0  0
  131.0628  141.9454  166.9175 H   0  0  0  0  0  0  0  0  0  0  0  0
  132.6791  142.0426  165.0685 H   0  0  0  0  0  0  0  0  0  0  0  0
  133.5876  135.7454  159.0907 H   0  0  0  0  0  0  0  0  0  0  0  0
  134.0453  135.7325  160.8107 H   0  0  0  0  0  0  0  0  0  0  0  0
  131.7706  135.2543  161.4899 H   0  0  0  0  0  0  0  0  0  0  0  0
  132.1784  134.1113  160.1833 H   0  0  0  0  0  0  0  0  0  0  0  0
  1  2  1  0
  1 39  1  0
  1 40  1  0
  1 41  1  0
  2  3  1  1
  2  4  1  0
  2 15  1  0
  4 14  2  0
  4  5  1  0
  5  6  2  0
  5 42  1  0
  6  7  1  0
  7  8  1  0
  7 14  1  0
  8 13  1  0
  8  9  2  0
  9 10  1  0
  9 43  1  0
 10 11  2  0
 10 44  1  0
 11 12  1  0
 11 45  1  0
 12 13  2  0
 12 46  1  0
 13 47  1  0
 14 48  1  0
 15 16  1  6
 15 38  1  0
 15 17  1  0
 17 18  1  0
 17 49  1  0
 17 50  1  0
 18 19  2  0
 18 51  1  0
 19 20  1  0
 19 37  1  0
 20 36  1  0
 20 21  2  0
 21 22  1  0
 21 52  1  0
 22 23  2  0
 22 53  1  0
 23 24  1  0
 23 54  1  0
 24 36  2  0
 24 25  1  0
 25 26  2  0
 26 27  1  0
 26 55  1  0
 27 28  1  0
 27 35  2  0
 28 34  1  0
 28 29  2  0
 29 30  1  0
 29 56  1  0
 30 31  2  0
 30 57  1  0
 31 32  1  0
 31 33  1  0
 32 58  1  0
 32 59  1  0
 33 34  2  0
 33 60  1  0
 34 61  1  0
 35 36  1  0
 37 38  1  0
 37 62  1  0
 37 63  1  0
 38 64  1  0
 38 65  1  0
M  CHG  1  15   1
M  END
>  <DOCK_score>  (1) 
-58.349762

>  <SMILES>  (1) 
C[C@@H](c1cnn(-c2ccccc2)c1)[NH+]1CC=C(c2cccc3ncc(-c4ccc(N)cc4)nc23)CC1

$$$$
