Cc1cccc(-c2ccc(-c3n[nH]cc3C[NH+]3CCN(c4ccccc4C)CC3)cc2)c1
     RDKit          3D

 63 67  0  0  0  0  0  0  0  0999 V2000
  130.0687  131.1544  151.9945 C   0  0  0  0  0  0  0  0  0  0  0  0
  130.4348  130.9752  153.4454 C   0  0  0  0  0  0  0  0  0  0  0  0
  131.3246  129.9826  153.8154 C   0  0  0  0  0  0  0  0  0  0  0  0
  131.6654  129.8128  155.1451 C   0  0  0  0  0  0  0  0  0  0  0  0
  131.1182  130.6332  156.1107 C   0  0  0  0  0  0  0  0  0  0  0  0
  130.2210  131.6344  155.7438 C   0  0  0  0  0  0  0  0  0  0  0  0
  129.6297  132.5192  156.7769 C   0  0  0  0  0  0  0  0  0  0  0  0
  129.2738  133.8281  156.4531 C   0  0  0  0  0  0  0  0  0  0  0  0
  128.7242  134.6497  157.4126 C   0  0  0  0  0  0  0  0  0  0  0  0
  128.5233  134.1725  158.7072 C   0  0  0  0  0  0  0  0  0  0  0  0
  127.9314  135.0574  159.7403 C   0  0  0  0  0  0  0  0  0  0  0  0
  126.7428  135.6211  159.6889 N   0  0  0  0  0  0  0  0  0  0  0  0
  126.5653  136.3700  160.8592 N   0  0  0  0  0  0  0  0  0  0  0  0
  125.7794  136.8905  161.0881 H   0  0  0  0  0  0  0  0  0  0  0  0
  127.6778  136.2410  161.6139 C   0  0  0  0  0  0  0  0  0  0  0  0
  128.5396  135.4383  160.9526 C   0  0  0  0  0  0  0  0  0  0  0  0
  129.9085  135.0237  161.4275 C   0  0  0  0  0  0  0  0  0  0  0  0
  130.9048  135.9955  160.9574 N   0  0  0  0  0  0  0  0  0  0  0  0
  130.6836  136.2737  160.0131 H   0  0  0  0  0  0  0  0  0  0  0  0
  132.2388  135.3814  160.9863 C   0  0  0  0  0  0  0  0  0  0  0  0
  133.2746  136.3871  160.4790 C   0  0  0  0  0  0  0  0  0  0  0  0
  133.2491  137.5845  161.3310 N   0  0  0  0  0  0  0  0  0  0  0  0
  134.2205  138.5046  160.9306 C   0  0  0  0  0  0  0  0  0  0  0  0
  134.1900  139.0348  159.6467 C   0  0  0  0  0  0  0  0  0  0  0  0
  135.1517  139.9447  159.2542 C   0  0  0  0  0  0  0  0  0  0  0  0
  136.1441  140.3287  160.1377 C   0  0  0  0  0  0  0  0  0  0  0  0
  136.1774  139.8029  161.4161 C   0  0  0  0  0  0  0  0  0  0  0  0
  135.2157  138.8961  161.8167 C   0  0  0  0  0  0  0  0  0  0  0  0
  135.2489  138.3283  163.2123 C   0  0  0  0  0  0  0  0  0  0  0  0
  131.9126  138.1960  161.3316 C   0  0  0  0  0  0  0  0  0  0  0  0
  130.8880  137.1754  161.8320 C   0  0  0  0  0  0  0  0  0  0  0  0
  128.8841  132.8655  159.0323 C   0  0  0  0  0  0  0  0  0  0  0  0
  129.4292  132.0421  158.0718 C   0  0  0  0  0  0  0  0  0  0  0  0
  129.8771  131.7976  154.4028 C   0  0  0  0  0  0  0  0  0  0  0  0
  129.1990  130.5402  151.7607 H   0  0  0  0  0  0  0  0  0  0  0  0
  129.8351  132.2021  151.8053 H   0  0  0  0  0  0  0  0  0  0  0  0
  130.9072  130.8503  151.3679 H   0  0  0  0  0  0  0  0  0  0  0  0
  131.7549  129.3381  153.0632 H   0  0  0  0  0  0  0  0  0  0  0  0
  132.3608  129.0365  155.4283 H   0  0  0  0  0  0  0  0  0  0  0  0
  131.3845  130.4991  157.1489 H   0  0  0  0  0  0  0  0  0  0  0  0
  129.4286  134.1974  155.4502 H   0  0  0  0  0  0  0  0  0  0  0  0
  128.4485  135.6634  157.1619 H   0  0  0  0  0  0  0  0  0  0  0  0
  127.8483  136.6992  162.5770 H   0  0  0  0  0  0  0  0  0  0  0  0
  129.9202  134.9894  162.5169 H   0  0  0  0  0  0  0  0  0  0  0  0
  130.1474  134.0373  161.0303 H   0  0  0  0  0  0  0  0  0  0  0  0
  132.4836  135.0921  162.0084 H   0  0  0  0  0  0  0  0  0  0  0  0
  132.2463  134.4984  160.3472 H   0  0  0  0  0  0  0  0  0  0  0  0
  133.0380  136.6662  159.4522 H   0  0  0  0  0  0  0  0  0  0  0  0
  134.2667  135.9366  160.5144 H   0  0  0  0  0  0  0  0  0  0  0  0
  133.4149  138.7358  158.9566 H   0  0  0  0  0  0  0  0  0  0  0  0
  135.1286  140.3571  158.2563 H   0  0  0  0  0  0  0  0  0  0  0  0
  136.8951  141.0405  159.8282 H   0  0  0  0  0  0  0  0  0  0  0  0
  136.9537  140.1051  162.1034 H   0  0  0  0  0  0  0  0  0  0  0  0
  135.9209  137.4705  163.2396 H   0  0  0  0  0  0  0  0  0  0  0  0
  135.6043  139.0902  163.9062 H   0  0  0  0  0  0  0  0  0  0  0  0
  134.2460  138.0136  163.5006 H   0  0  0  0  0  0  0  0  0  0  0  0
  131.6535  138.5050  160.3190 H   0  0  0  0  0  0  0  0  0  0  0  0
  131.9108  139.0655  161.9891 H   0  0  0  0  0  0  0  0  0  0  0  0
  129.8940  137.6226  161.8197 H   0  0  0  0  0  0  0  0  0  0  0  0
  131.1397  136.8770  162.8497 H   0  0  0  0  0  0  0  0  0  0  0  0
  128.7326  132.4973  160.0364 H   0  0  0  0  0  0  0  0  0  0  0  0
  129.7048  131.0285  158.3226 H   0  0  0  0  0  0  0  0  0  0  0  0
  129.1787  132.5688  154.1134 H   0  0  0  0  0  0  0  0  0  0  0  0
  1  2  1  0
  1 35  1  0
  1 36  1  0
  1 37  1  0
  2 34  2  0
  2  3  1  0
  3  4  2  0
  3 38  1  0
  4  5  1  0
  4 39  1  0
  5  6  2  0
  5 40  1  0
  6  7  1  0
  6 34  1  0
  7 33  1  0
  7  8  2  0
  8  9  1  0
  8 41  1  0
  9 10  2  0
  9 42  1  0
 10 11  1  0
 10 32  1  0
 11 16  1  0
 11 12  2  0
 12 13  1  0
 13 14  1  0
 13 15  1  0
 15 16  2  0
 15 43  1  0
 16 17  1  0
 17 18  1  0
 17 44  1  0
 17 45  1  0
 18 19  1  0
 18 31  1  0
 18 20  1  0
 20 21  1  0
 20 46  1  0
 20 47  1  0
 21 22  1  0
 21 48  1  0
 21 49  1  0
 22 23  1  0
 22 30  1  0
 23 28  1  0
 23 24  2  0
 24 25  1  0
 24 50  1  0
 25 26  2  0
 25 51  1  0
 26 27  1  0
 26 52  1  0
 27 28  2  0
 27 53  1  0
 28 29  1  0
 29 54  1  0
 29 55  1  0
 29 56  1  0
 30 31  1  0
 30 57  1  0
 30 58  1  0
 31 59  1  0
 31 60  1  0
 32 33  2  0
 32 61  1  0
 33 62  1  0
 34 63  1  0
M  CHG  1  18   1
M  END
>  <DOCK_score>  (1) 
-50.141922

>  <SMILES>  (1) 
Cc1cccc(-c2ccc(-c3n[nH]cc3C[NH+]3CCN(c4ccccc4C)CC3)cc2)c1

$$$$
