Cc1ccc(NC[C@H](Nc2[nH]cc(-c3ccc(N)cc3)[nH+]2)c2ccc(Cl)cc2)cc1
     RDKit          3D

 55 58  0  0  1  0  0  0  0  0999 V2000
  136.6176  136.2063  163.3050 C   0  0  0  0  0  0  0  0  0  0  0  0
  135.3490  136.4660  162.5341 C   0  0  0  0  0  0  0  0  0  0  0  0
  134.1993  135.7612  162.8400 C   0  0  0  0  0  0  0  0  0  0  0  0
  133.0334  136.0012  162.1396 C   0  0  0  0  0  0  0  0  0  0  0  0
  133.0181  136.9476  161.1231 C   0  0  0  0  0  0  0  0  0  0  0  0
  131.8406  137.1932  160.4130 N   0  0  0  0  0  0  0  0  0  0  0  0
  130.5471  136.8111  160.9851 C   0  0  0  0  0  0  0  0  0  0  0  0
  130.2034  135.3822  160.5596 C   0  0  2  0  0  0  0  0  0  0  0  0
  130.7441  134.6756  161.1892 H   0  0  0  0  0  0  0  0  0  0  0  0
  130.5886  135.1834  159.1602 N   0  0  0  0  0  0  0  0  0  0  0  0
  130.3735  133.9594  158.5502 C   0  0  0  0  0  0  0  0  0  0  0  0
  129.8100  132.8691  159.1379 N   0  0  0  0  0  0  0  0  0  0  0  0
  129.4898  132.8100  160.0515 H   0  0  0  0  0  0  0  0  0  0  0  0
  129.7788  131.8668  158.1974 C   0  0  0  0  0  0  0  0  0  0  0  0
  130.3238  132.3739  157.0641 C   0  0  0  0  0  0  0  0  0  0  0  0
  130.5008  131.6505  155.7811 C   0  0  0  0  0  0  0  0  0  0  0  0
  129.8821  132.1203  154.6236 C   0  0  0  0  0  0  0  0  0  0  0  0
  130.0524  131.4492  153.4311 C   0  0  0  0  0  0  0  0  0  0  0  0
  130.8307  130.2988  153.3849 C   0  0  0  0  0  0  0  0  0  0  0  0
  130.9971  129.6173  152.1769 N   0  0  0  0  0  0  0  0  0  0  0  0
  131.4442  129.8255  154.5388 C   0  0  0  0  0  0  0  0  0  0  0  0
  131.2814  130.4966  155.7323 C   0  0  0  0  0  0  0  0  0  0  0  0
  130.6740  133.6614  157.3096 N   0  0  0  0  0  0  0  0  0  0  0  0
  131.0835  134.2644  156.6697 H   0  0  0  0  0  0  0  0  0  0  0  0
  128.7209  135.1563  160.7094 C   0  0  0  0  0  0  0  0  0  0  0  0
  128.2128  134.6715  161.9002 C   0  0  0  0  0  0  0  0  0  0  0  0
  126.8526  134.4695  162.0401 C   0  0  0  0  0  0  0  0  0  0  0  0
  126.0009  134.7419  160.9844 C   0  0  0  0  0  0  0  0  0  0  0  0
  124.2934  134.4810  161.1568 Cl  0  0  0  0  0  0  0  0  0  0  0  0
  126.5108  135.2216  159.7911 C   0  0  0  0  0  0  0  0  0  0  0  0
  127.8704  135.4286  159.6542 C   0  0  0  0  0  0  0  0  0  0  0  0
  134.1762  137.6498  160.8144 C   0  0  0  0  0  0  0  0  0  0  0  0
  135.3387  137.4049  161.5188 C   0  0  0  0  0  0  0  0  0  0  0  0
  137.1874  135.4185  162.8121 H   0  0  0  0  0  0  0  0  0  0  0  0
  137.2140  137.1180  163.3410 H   0  0  0  0  0  0  0  0  0  0  0  0
  136.3689  135.8945  164.3195 H   0  0  0  0  0  0  0  0  0  0  0  0
  134.2119  135.0254  163.6305 H   0  0  0  0  0  0  0  0  0  0  0  0
  132.1346  135.4537  162.3822 H   0  0  0  0  0  0  0  0  0  0  0  0
  131.8792  137.6166  159.5413 H   0  0  0  0  0  0  0  0  0  0  0  0
  130.6011  136.8632  162.0726 H   0  0  0  0  0  0  0  0  0  0  0  0
  129.7757  137.4925  160.6265 H   0  0  0  0  0  0  0  0  0  0  0  0
  130.9945  135.9094  158.6609 H   0  0  0  0  0  0  0  0  0  0  0  0
  129.3941  130.8670  158.3350 H   0  0  0  0  0  0  0  0  0  0  0  0
  129.2733  133.0116  154.6600 H   0  0  0  0  0  0  0  0  0  0  0  0
  129.5769  131.8154  152.5332 H   0  0  0  0  0  0  0  0  0  0  0  0
  131.5404  128.8145  152.1437 H   0  0  0  0  0  0  0  0  0  0  0  0
  130.5693  129.9469  151.3711 H   0  0  0  0  0  0  0  0  0  0  0  0
  132.0487  128.9312  154.5005 H   0  0  0  0  0  0  0  0  0  0  0  0
  131.7587  130.1286  156.6286 H   0  0  0  0  0  0  0  0  0  0  0  0
  128.8783  134.4547  162.7227 H   0  0  0  0  0  0  0  0  0  0  0  0
  126.4553  134.0949  162.9718 H   0  0  0  0  0  0  0  0  0  0  0  0
  125.8464  135.4341  158.9665 H   0  0  0  0  0  0  0  0  0  0  0  0
  128.2684  135.8034  158.7227 H   0  0  0  0  0  0  0  0  0  0  0  0
  134.1678  138.3862  160.0245 H   0  0  0  0  0  0  0  0  0  0  0  0
  136.2394  137.9508  161.2798 H   0  0  0  0  0  0  0  0  0  0  0  0
  1  2  1  0
  1 34  1  0
  1 35  1  0
  1 36  1  0
  2 33  2  0
  2  3  1  0
  3  4  2  0
  3 37  1  0
  4  5  1  0
  4 38  1  0
  5  6  1  0
  5 32  2  0
  6  7  1  0
  6 39  1  0
  7  8  1  0
  7 40  1  0
  7 41  1  0
  8  9  1  1
  8 10  1  0
  8 25  1  0
 10 42  1  0
 11 10  1  0
 11 23  2  0
 11 12  1  0
 12 13  1  0
 12 14  1  0
 14 15  2  0
 14 43  1  0
 15 16  1  0
 15 23  1  0
 16 22  1  0
 16 17  2  0
 17 18  1  0
 17 44  1  0
 18 19  2  0
 18 45  1  0
 19 20  1  0
 19 21  1  0
 20 46  1  0
 20 47  1  0
 21 22  2  0
 21 48  1  0
 22 49  1  0
 23 24  1  0
 25 31  1  0
 25 26  2  0
 26 27  1  0
 26 50  1  0
 27 28  2  0
 27 51  1  0
 28 29  1  0
 28 30  1  0
 30 31  2  0
 30 52  1  0
 31 53  1  0
 32 33  1  0
 32 54  1  0
 33 55  1  0
M  CHG  1  23   1
M  END
>  <DOCK_score>  (1) 
-65.753944

>  <SMILES>  (1) 
Cc1ccc(NC[C@H](Nc2[nH]cc(-c3ccc(N)cc3)[nH+]2)c2ccc(Cl)cc2)cc1

$$$$
