CC=Cc1ccc(Nc2c[nH]c(N[C@@H](Cc3cccc(O)c3)c3ccccc3)[nH+]2)cc1
     RDKit          3D

 58 61  0  0  1  0  0  0  0  0999 V2000
  131.0487  130.8929  152.5565 C   0  0  0  0  0  0  0  0  0  0  0  0
  130.4641  131.6223  153.7386 C   0  0  0  0  0  0  0  0  0  0  0  0
  130.6355  131.1442  154.9638 C   0  0  0  0  0  0  0  0  0  0  0  0
  130.0624  131.8592  156.1226 C   0  0  0  0  0  0  0  0  0  0  0  0
  129.7155  133.2071  156.0112 C   0  0  0  0  0  0  0  0  0  0  0  0
  129.1817  133.8714  157.0937 C   0  0  0  0  0  0  0  0  0  0  0  0
  128.9880  133.2007  158.2966 C   0  0  0  0  0  0  0  0  0  0  0  0
  128.4476  133.8762  159.3911 N   0  0  0  0  0  0  0  0  0  0  0  0
  129.1063  134.9982  159.9185 C   0  0  0  0  0  0  0  0  0  0  0  0
  128.6927  135.7372  160.9695 C   0  0  0  0  0  0  0  0  0  0  0  0
  129.6309  136.7367  161.1484 N   0  0  0  0  0  0  0  0  0  0  0  0
  129.6134  137.4295  161.8270 H   0  0  0  0  0  0  0  0  0  0  0  0
  130.5856  136.5610  160.1966 C   0  0  0  0  0  0  0  0  0  0  0  0
  131.7120  137.3484  160.0269 N   0  0  0  0  0  0  0  0  0  0  0  0
  132.3232  138.0113  161.1816 C   0  0  1  0  0  0  0  0  0  0  0  0
  132.3093  137.3365  162.0373 H   0  0  0  0  0  0  0  0  0  0  0  0
  133.7695  138.3837  160.8493 C   0  0  0  0  0  0  0  0  0  0  0  0
  134.5384  138.6011  162.1269 C   0  0  0  0  0  0  0  0  0  0  0  0
  135.1930  137.5417  162.7282 C   0  0  0  0  0  0  0  0  0  0  0  0
  135.8992  137.7378  163.9003 C   0  0  0  0  0  0  0  0  0  0  0  0
  135.9534  138.9939  164.4736 C   0  0  0  0  0  0  0  0  0  0  0  0
  135.2981  140.0582  163.8723 C   0  0  0  0  0  0  0  0  0  0  0  0
  135.3504  141.2946  164.4338 O   0  0  0  0  0  0  0  0  0  0  0  0
  134.5936  139.8597  162.6934 C   0  0  0  0  0  0  0  0  0  0  0  0
  131.5467  139.2595  161.5134 C   0  0  0  0  0  0  0  0  0  0  0  0
  131.4824  139.7067  162.8198 C   0  0  0  0  0  0  0  0  0  0  0  0
  130.7738  140.8540  163.1235 C   0  0  0  0  0  0  0  0  0  0  0  0
  130.1220  141.5493  162.1223 C   0  0  0  0  0  0  0  0  0  0  0  0
  130.1821  141.0992  160.8165 C   0  0  0  0  0  0  0  0  0  0  0  0
  130.8941  139.9542  160.5121 C   0  0  0  0  0  0  0  0  0  0  0  0
  130.2598  135.5222  159.4637 N   0  0  0  0  0  0  0  0  0  0  0  0
  130.7723  135.1825  158.7136 H   0  0  0  0  0  0  0  0  0  0  0  0
  129.3374  131.8594  158.4122 C   0  0  0  0  0  0  0  0  0  0  0  0
  129.8668  131.1885  157.3315 C   0  0  0  0  0  0  0  0  0  0  0  0
  130.6313  129.8872  152.5075 H   0  0  0  0  0  0  0  0  0  0  0  0
  130.8060  131.4319  151.6407 H   0  0  0  0  0  0  0  0  0  0  0  0
  132.1314  130.8320  152.6664 H   0  0  0  0  0  0  0  0  0  0  0  0
  129.9056  132.5343  153.5881 H   0  0  0  0  0  0  0  0  0  0  0  0
  131.1940  130.2322  155.1143 H   0  0  0  0  0  0  0  0  0  0  0  0
  129.8661  133.7285  155.0774 H   0  0  0  0  0  0  0  0  0  0  0  0
  128.9136  134.9142  157.0081 H   0  0  0  0  0  0  0  0  0  0  0  0
  127.6167  133.5708  159.7876 H   0  0  0  0  0  0  0  0  0  0  0  0
  127.8005  135.5788  161.5569 H   0  0  0  0  0  0  0  0  0  0  0  0
  132.0963  137.4611  159.1434 H   0  0  0  0  0  0  0  0  0  0  0  0
  134.2310  137.5766  160.2804 H   0  0  0  0  0  0  0  0  0  0  0  0
  133.7823  139.2988  160.2573 H   0  0  0  0  0  0  0  0  0  0  0  0
  135.1520  136.5592  162.2815 H   0  0  0  0  0  0  0  0  0  0  0  0
  136.4092  136.9087  164.3682 H   0  0  0  0  0  0  0  0  0  0  0  0
  136.5052  139.1466  165.3893 H   0  0  0  0  0  0  0  0  0  0  0  0
  134.8637  141.9707  163.9427 H   0  0  0  0  0  0  0  0  0  0  0  0
  134.0859  140.6876  162.2211 H   0  0  0  0  0  0  0  0  0  0  0  0
  131.9884  139.1614  163.6028 H   0  0  0  0  0  0  0  0  0  0  0  0
  130.7272  141.2059  164.1436 H   0  0  0  0  0  0  0  0  0  0  0  0
  129.5662  142.4443  162.3599 H   0  0  0  0  0  0  0  0  0  0  0  0
  129.6729  141.6425  160.0341 H   0  0  0  0  0  0  0  0  0  0  0  0
  130.9411  139.6027  159.4921 H   0  0  0  0  0  0  0  0  0  0  0  0
  129.1898  131.3422  159.3488 H   0  0  0  0  0  0  0  0  0  0  0  0
  130.1344  130.1459  157.4207 H   0  0  0  0  0  0  0  0  0  0  0  0
  1  2  1  0
  1 35  1  0
  1 36  1  0
  1 37  1  0
  2  3  2  0
  2 38  1  0
  3  4  1  0
  3 39  1  0
  4 34  2  0
  4  5  1  0
  5  6  2  0
  5 40  1  0
  6  7  1  0
  6 41  1  0
  7  8  1  0
  7 33  2  0
  8  9  1  0
  8 42  1  0
  9 31  1  0
  9 10  2  0
 10 11  1  0
 10 43  1  0
 11 12  1  0
 11 13  1  0
 13 14  1  0
 13 31  2  0
 14 15  1  0
 14 44  1  0
 15 16  1  1
 15 17  1  0
 15 25  1  0
 17 18  1  0
 17 45  1  0
 17 46  1  0
 18 24  1  0
 18 19  2  0
 19 20  1  0
 19 47  1  0
 20 21  2  0
 20 48  1  0
 21 22  1  0
 21 49  1  0
 22 23  1  0
 22 24  2  0
 23 50  1  0
 24 51  1  0
 25 30  1  0
 25 26  2  0
 26 27  1  0
 26 52  1  0
 27 28  2  0
 27 53  1  0
 28 29  1  0
 28 54  1  0
 29 30  2  0
 29 55  1  0
 30 56  1  0
 31 32  1  0
 33 34  1  0
 33 57  1  0
 34 58  1  0
M  CHG  1  31   1
M  END
>  <DOCK_score>  (1) 
-57.075333

>  <SMILES>  (1) 
CC=Cc1ccc(Nc2c[nH]c(N[C@@H](Cc3cccc(O)c3)c3ccccc3)[nH+]2)cc1

$$$$
