FCc1ccc(-c2c[nH]c(Nc3ccncc3/C3=C/CC/C=C\CC3)[nH+]2)cc1
     RDKit          3D

 52 55  0  0  1  0  0  0  0  0999 V2000
  131.1560  128.3136  152.2581 F   0  0  0  0  0  0  0  0  0  0  0  0
  131.4334  129.6722  152.0727 C   0  0  0  0  0  0  0  0  0  0  0  0
  131.0695  130.4340  153.3210 C   0  0  0  0  0  0  0  0  0  0  0  0
  130.3742  131.6263  153.2219 C   0  0  0  0  0  0  0  0  0  0  0  0
  130.0427  132.3313  154.3610 C   0  0  0  0  0  0  0  0  0  0  0  0
  130.4094  131.8401  155.6128 C   0  0  0  0  0  0  0  0  0  0  0  0
  130.0558  132.5933  156.8409 C   0  0  0  0  0  0  0  0  0  0  0  0
  129.2823  132.1414  157.8594 C   0  0  0  0  0  0  0  0  0  0  0  0
  129.2152  133.1513  158.7872 N   0  0  0  0  0  0  0  0  0  0  0  0
  128.7347  133.1267  159.6293 H   0  0  0  0  0  0  0  0  0  0  0  0
  129.9433  134.1951  158.3045 C   0  0  0  0  0  0  0  0  0  0  0  0
  130.1252  135.4139  158.9386 N   0  0  0  0  0  0  0  0  0  0  0  0
  129.1372  135.9145  159.7799 C   0  0  0  0  0  0  0  0  0  0  0  0
  127.7933  135.6202  159.5605 C   0  0  0  0  0  0  0  0  0  0  0  0
  126.8432  136.1317  160.4199 C   0  0  0  0  0  0  0  0  0  0  0  0
  127.1853  136.9013  161.4371 N   0  0  0  0  0  0  0  0  0  0  0  0
  128.4410  137.2143  161.6862 C   0  0  0  0  0  0  0  0  0  0  0  0
  129.4665  136.7372  160.8727 C   0  0  0  0  0  0  0  0  0  0  0  0
  130.8771  137.0898  161.1529 C   0  0  0  0  0  0  0  0  0  0  0  0
  131.5445  137.7572  160.2108 C   0  0  0  0  0  0  0  0  0  0  0  0
  132.9777  138.1345  160.4248 C   0  0  0  0  0  0  0  0  0  0  0  0
  133.9515  137.0382  160.0611 C   0  0  0  0  0  0  0  0  0  0  0  0
  133.3420  135.6834  160.0018 C   0  0  0  0  0  0  0  0  0  0  0  0
  132.7627  135.1606  161.0525 C   0  0  0  0  0  0  0  0  0  0  0  0
  132.7368  135.8994  162.3615 C   0  0  0  0  0  0  0  0  0  0  0  0
  131.4429  136.6886  162.4658 C   0  0  0  0  0  0  0  0  0  0  0  0
  130.4439  133.8575  157.1412 N   0  0  0  0  0  0  0  0  0  0  0  0
  131.0028  134.4217  156.5843 H   0  0  0  0  0  0  0  0  0  0  0  0
  131.1090  130.6384  155.7063 C   0  0  0  0  0  0  0  0  0  0  0  0
  131.4348  129.9417  154.5605 C   0  0  0  0  0  0  0  0  0  0  0  0
  130.8510  130.0506  151.2328 H   0  0  0  0  0  0  0  0  0  0  0  0
  132.4958  129.8011  151.8657 H   0  0  0  0  0  0  0  0  0  0  0  0
  130.0912  132.0064  152.2514 H   0  0  0  0  0  0  0  0  0  0  0  0
  129.5007  133.2622  154.2827 H   0  0  0  0  0  0  0  0  0  0  0  0
  128.8110  131.1721  157.9283 H   0  0  0  0  0  0  0  0  0  0  0  0
  130.9417  135.9177  158.7956 H   0  0  0  0  0  0  0  0  0  0  0  0
  127.4992  134.9959  158.7298 H   0  0  0  0  0  0  0  0  0  0  0  0
  125.8007  135.9026  160.2552 H   0  0  0  0  0  0  0  0  0  0  0  0
  128.6773  137.8472  162.5288 H   0  0  0  0  0  0  0  0  0  0  0  0
  131.0486  138.0272  159.2875 H   0  0  0  0  0  0  0  0  0  0  0  0
  133.1210  138.3953  161.4715 H   0  0  0  0  0  0  0  0  0  0  0  0
  133.2011  139.0095  159.8147 H   0  0  0  0  0  0  0  0  0  0  0  0
  134.7540  137.0282  160.7959 H   0  0  0  0  0  0  0  0  0  0  0  0
  134.3770  137.2675  159.0846 H   0  0  0  0  0  0  0  0  0  0  0  0
  133.3646  135.1302  159.0747 H   0  0  0  0  0  0  0  0  0  0  0  0
  132.2991  134.1865  160.9764 H   0  0  0  0  0  0  0  0  0  0  0  0
  133.5906  136.5747  162.4266 H   0  0  0  0  0  0  0  0  0  0  0  0
  132.7924  135.1808  163.1847 H   0  0  0  0  0  0  0  0  0  0  0  0
  131.6257  137.5884  163.0584 H   0  0  0  0  0  0  0  0  0  0  0  0
  130.7031  136.0811  162.9941 H   0  0  0  0  0  0  0  0  0  0  0  0
  131.3953  130.2529  156.6738 H   0  0  0  0  0  0  0  0  0  0  0  0
  131.9770  129.0103  154.6318 H   0  0  0  0  0  0  0  0  0  0  0  0
  1  2  1  0
  2  3  1  0
  2 31  1  0
  2 32  1  0
  3 30  2  0
  3  4  1  0
  4  5  2  0
  4 33  1  0
  5  6  1  0
  5 34  1  0
  6  7  1  0
  6 29  2  0
  7 27  1  0
  7  8  2  0
  8  9  1  0
  8 35  1  0
  9 10  1  0
  9 11  1  0
 11 12  1  0
 11 27  2  0
 12 13  1  0
 12 36  1  0
 13 18  1  0
 13 14  2  0
 14 15  1  0
 14 37  1  0
 15 16  2  0
 15 38  1  0
 16 17  1  0
 17 18  2  0
 17 39  1  0
 18 19  1  0
 19 26  1  0
 19 20  2  0
 20 21  1  0
 20 40  1  0
 21 22  1  0
 21 41  1  0
 21 42  1  0
 22 23  1  0
 22 43  1  0
 22 44  1  0
 23 24  2  0
 23 45  1  0
 24 25  1  0
 24 46  1  0
 25 26  1  0
 25 47  1  0
 25 48  1  0
 26 49  1  0
 26 50  1  0
 27 28  1  0
 29 30  1  0
 29 51  1  0
 30 52  1  0
M  CHG  1  27   1
M  END
>  <DOCK_score>  (1) 
-57.758949

>  <SMILES>  (1) 
FCc1ccc(-c2c[nH]c(Nc3ccncc3/C3=C/CC/C=C\CC3)[nH+]2)cc1

$$$$
