CC1(NC(N[C@H]2CCC(=O)NC2)=[NH+]CCc2ccccc2)CC=CC1
     RDKit          3D

 54 56  0  0  1  0  0  0  0  0999 V2000
  130.9234  132.9303  161.1180 C   0  0  0  0  0  0  0  0  0  0  0  0
  131.5652  134.1171  160.3963 C   0  0  0  0  0  0  0  0  0  0  0  0
  131.1089  134.1928  159.0061 N   0  0  0  0  0  0  0  0  0  0  0  0
  129.7712  134.3473  158.7293 C   0  0  0  0  0  0  0  0  0  0  0  0
  128.9601  135.0214  159.6112 N   0  0  0  0  0  0  0  0  0  0  0  0
  127.5425  134.6679  159.7195 C   0  0  1  0  0  0  0  0  0  0  0  0
  127.0554  134.8100  158.7547 H   0  0  0  0  0  0  0  0  0  0  0  0
  127.4092  133.2028  160.1523 C   0  0  0  0  0  0  0  0  0  0  0  0
  125.9322  132.8084  160.0765 C   0  0  0  0  0  0  0  0  0  0  0  0
  125.0911  133.8422  160.7687 C   0  0  0  0  0  0  0  0  0  0  0  0
  123.9601  133.5423  161.0877 O   0  0  0  0  0  0  0  0  0  0  0  0
  125.5215  135.0722  161.0517 N   0  0  0  0  0  0  0  0  0  0  0  0
  126.8686  135.5519  160.7696 C   0  0  0  0  0  0  0  0  0  0  0  0
  129.2720  133.8547  157.6307 N   0  0  0  0  0  0  0  0  0  0  0  0
  128.3282  133.9637  157.4353 H   0  0  0  0  0  0  0  0  0  0  0  0
  130.1363  133.1362  156.6911 C   0  0  0  0  0  0  0  0  0  0  0  0
  129.3167  132.0758  155.9529 C   0  0  0  0  0  0  0  0  0  0  0  0
  130.2058  131.3366  154.9863 C   0  0  0  0  0  0  0  0  0  0  0  0
  130.3452  131.7922  153.6886 C   0  0  0  0  0  0  0  0  0  0  0  0
  131.1649  131.1172  152.8035 C   0  0  0  0  0  0  0  0  0  0  0  0
  131.8366  129.9805  153.2129 C   0  0  0  0  0  0  0  0  0  0  0  0
  131.6928  129.5219  154.5090 C   0  0  0  0  0  0  0  0  0  0  0  0
  130.8775  130.2000  155.3956 C   0  0  0  0  0  0  0  0  0  0  0  0
  131.2844  135.4403  161.1456 C   0  0  0  0  0  0  0  0  0  0  0  0
  132.4794  135.6288  162.0520 C   0  0  0  0  0  0  0  0  0  0  0  0
  133.4734  134.8670  161.6841 C   0  0  0  0  0  0  0  0  0  0  0  0
  133.1080  134.0437  160.4710 C   0  0  0  0  0  0  0  0  0  0  0  0
  131.0685  132.0250  160.5285 H   0  0  0  0  0  0  0  0  0  0  0  0
  131.3879  132.8053  162.0961 H   0  0  0  0  0  0  0  0  0  0  0  0
  129.8566  133.1151  161.2433 H   0  0  0  0  0  0  0  0  0  0  0  0
  131.7507  134.1340  158.2813 H   0  0  0  0  0  0  0  0  0  0  0  0
  129.3264  135.7310  160.1618 H   0  0  0  0  0  0  0  0  0  0  0  0
  127.9931  132.5686  159.4853 H   0  0  0  0  0  0  0  0  0  0  0  0
  127.7677  133.0883  161.1753 H   0  0  0  0  0  0  0  0  0  0  0  0
  125.6299  132.7359  159.0318 H   0  0  0  0  0  0  0  0  0  0  0  0
  125.7901  131.8425  160.5611 H   0  0  0  0  0  0  0  0  0  0  0  0
  124.8990  135.6862  161.4718 H   0  0  0  0  0  0  0  0  0  0  0  0
  127.4570  135.5340  161.6869 H   0  0  0  0  0  0  0  0  0  0  0  0
  126.8163  136.5756  160.3988 H   0  0  0  0  0  0  0  0  0  0  0  0
  130.5535  133.8396  155.9705 H   0  0  0  0  0  0  0  0  0  0  0  0
  130.9460  132.6536  157.2384 H   0  0  0  0  0  0  0  0  0  0  0  0
  128.8996  131.3724  156.6735 H   0  0  0  0  0  0  0  0  0  0  0  0
  128.5070  132.5583  155.4055 H   0  0  0  0  0  0  0  0  0  0  0  0
  129.8168  132.6778  153.3676 H   0  0  0  0  0  0  0  0  0  0  0  0
  131.2775  131.4758  151.7910 H   0  0  0  0  0  0  0  0  0  0  0  0
  132.4741  129.4511  152.5202 H   0  0  0  0  0  0  0  0  0  0  0  0
  132.2176  128.6337  154.8289 H   0  0  0  0  0  0  0  0  0  0  0  0
  130.7652  129.8416  156.4083 H   0  0  0  0  0  0  0  0  0  0  0  0
  131.2088  136.2676  160.4400 H   0  0  0  0  0  0  0  0  0  0  0  0
  130.3703  135.3570  161.7337 H   0  0  0  0  0  0  0  0  0  0  0  0
  132.5068  136.3050  162.8937 H   0  0  0  0  0  0  0  0  0  0  0  0
  134.4314  134.8302  162.1814 H   0  0  0  0  0  0  0  0  0  0  0  0
  133.4332  133.0115  160.6006 H   0  0  0  0  0  0  0  0  0  0  0  0
  133.5524  134.4729  159.5729 H   0  0  0  0  0  0  0  0  0  0  0  0
  1 28  1  0
  1 29  1  0
  1 30  1  0
  2  1  1  0
  2 27  1  0
  2  3  1  0
  2 24  1  0
  3 31  1  0
  4  3  1  0
  4  5  1  0
  4 14  2  0
  5  6  1  0
  5 32  1  0
  6  7  1  6
  6 13  1  0
  6  8  1  0
  8  9  1  0
  8 33  1  0
  8 34  1  0
  9 10  1  0
  9 35  1  0
  9 36  1  0
 10 11  2  0
 10 12  1  0
 12 13  1  0
 12 37  1  0
 13 38  1  0
 13 39  1  0
 14 15  1  0
 14 16  1  0
 16 17  1  0
 16 40  1  0
 16 41  1  0
 17 18  1  0
 17 42  1  0
 17 43  1  0
 18 23  1  0
 18 19  2  0
 19 20  1  0
 19 44  1  0
 20 21  2  0
 20 45  1  0
 21 22  1  0
 21 46  1  0
 22 23  2  0
 22 47  1  0
 23 48  1  0
 24 25  1  0
 24 49  1  0
 24 50  1  0
 25 26  2  0
 25 51  1  0
 26 27  1  0
 26 52  1  0
 27 53  1  0
 27 54  1  0
M  CHG  1  14   1
M  END
>  <DOCK_score>  (1) 
-41.866173

>  <SMILES>  (1) 
CC1(NC(N[C@H]2CCC(=O)NC2)=[NH+]CCc2ccccc2)CC=CC1

$$$$
