Fc1ccc(C[C@H](CCl)Nc2[nH]cc(-c3ccc(-c4ccccc4)cc3)[nH+]2)cc1
     RDKit          3D

 51 54  0  0  1  0  0  0  0  0999 V2000
  125.9156  134.5867  162.0543 F   0  0  0  0  0  0  0  0  0  0  0  0
  127.1777  135.0686  162.0642 C   0  0  0  0  0  0  0  0  0  0  0  0
  127.5805  135.9762  161.0994 C   0  0  0  0  0  0  0  0  0  0  0  0
  128.8702  136.4727  161.1141 C   0  0  0  0  0  0  0  0  0  0  0  0
  129.7594  136.0596  162.0887 C   0  0  0  0  0  0  0  0  0  0  0  0
  131.1655  136.6016  162.1034 C   0  0  0  0  0  0  0  0  0  0  0  0
  132.0684  135.7005  161.2585 C   0  0  2  0  0  0  0  0  0  0  0  0
  132.0634  134.6917  161.6713 H   0  0  0  0  0  0  0  0  0  0  0  0
  133.4959  136.2508  161.2736 C   0  0  0  0  0  0  0  0  0  0  0  0
  134.3115  135.7637  162.8061 Cl  0  0  0  0  0  0  0  0  0  0  0  0
  131.5726  135.6667  159.8805 N   0  0  0  0  0  0  0  0  0  0  0  0
  131.1891  134.4640  159.3121 C   0  0  0  0  0  0  0  0  0  0  0  0
  130.6694  133.4002  159.9834 N   0  0  0  0  0  0  0  0  0  0  0  0
  130.5030  133.3486  160.9376 H   0  0  0  0  0  0  0  0  0  0  0  0
  130.4244  132.4130  159.0604 C   0  0  0  0  0  0  0  0  0  0  0  0
  130.8011  132.9015  157.8521 C   0  0  0  0  0  0  0  0  0  0  0  0
  130.7198  132.1844  156.5571 C   0  0  0  0  0  0  0  0  0  0  0  0
  129.9441  132.7030  155.5202 C   0  0  0  0  0  0  0  0  0  0  0  0
  129.8720  132.0390  154.3157 C   0  0  0  0  0  0  0  0  0  0  0  0
  130.5664  130.8435  154.1358 C   0  0  0  0  0  0  0  0  0  0  0  0
  130.4842  130.1249  152.8411 C   0  0  0  0  0  0  0  0  0  0  0  0
  130.6070  128.7370  152.8017 C   0  0  0  0  0  0  0  0  0  0  0  0
  130.5251  128.0738  151.5943 C   0  0  0  0  0  0  0  0  0  0  0  0
  130.3314  128.7845  150.4234 C   0  0  0  0  0  0  0  0  0  0  0  0
  130.2135  130.1624  150.4560 C   0  0  0  0  0  0  0  0  0  0  0  0
  130.2891  130.8359  151.6581 C   0  0  0  0  0  0  0  0  0  0  0  0
  131.3384  130.3219  155.1743 C   0  0  0  0  0  0  0  0  0  0  0  0
  131.4144  130.9882  156.3774 C   0  0  0  0  0  0  0  0  0  0  0  0
  131.2615  134.1644  158.0383 N   0  0  0  0  0  0  0  0  0  0  0  0
  131.5932  134.7508  157.3404 H   0  0  0  0  0  0  0  0  0  0  0  0
  129.3599  135.1494  163.0494 C   0  0  0  0  0  0  0  0  0  0  0  0
  128.0709  134.6512  163.0365 C   0  0  0  0  0  0  0  0  0  0  0  0
  126.8858  136.2997  160.3383 H   0  0  0  0  0  0  0  0  0  0  0  0
  129.1835  137.1838  160.3640 H   0  0  0  0  0  0  0  0  0  0  0  0
  131.1704  137.6104  161.6907 H   0  0  0  0  0  0  0  0  0  0  0  0
  131.5344  136.6267  163.1288 H   0  0  0  0  0  0  0  0  0  0  0  0
  134.0490  135.8497  160.4242 H   0  0  0  0  0  0  0  0  0  0  0  0
  133.4667  137.3384  161.2074 H   0  0  0  0  0  0  0  0  0  0  0  0
  131.5129  136.4869  159.3661 H   0  0  0  0  0  0  0  0  0  0  0  0
  130.0106  131.4353  159.2585 H   0  0  0  0  0  0  0  0  0  0  0  0
  129.4029  133.6271  155.6606 H   0  0  0  0  0  0  0  0  0  0  0  0
  129.2744  132.4422  153.5115 H   0  0  0  0  0  0  0  0  0  0  0  0
  130.7628  128.1815  153.7147 H   0  0  0  0  0  0  0  0  0  0  0  0
  130.6161  126.9980  151.5629 H   0  0  0  0  0  0  0  0  0  0  0  0
  130.2724  128.2616  149.4803 H   0  0  0  0  0  0  0  0  0  0  0  0
  130.0625  130.7122  149.5388 H   0  0  0  0  0  0  0  0  0  0  0  0
  130.1976  131.9117  151.6824 H   0  0  0  0  0  0  0  0  0  0  0  0
  131.8761  129.3957  155.0351 H   0  0  0  0  0  0  0  0  0  0  0  0
  132.0121  130.5848  157.1814 H   0  0  0  0  0  0  0  0  0  0  0  0
  130.0553  134.8277  163.8105 H   0  0  0  0  0  0  0  0  0  0  0  0
  127.7589  133.9402  163.7871 H   0  0  0  0  0  0  0  0  0  0  0  0
  1  2  1  0
  2 32  2  0
  2  3  1  0
  3  4  2  0
  3 33  1  0
  4  5  1  0
  4 34  1  0
  5  6  1  0
  5 31  2  0
  6  7  1  0
  6 35  1  0
  6 36  1  0
  7  8  1  1
  7  9  1  0
  7 11  1  0
  9 10  1  0
  9 37  1  0
  9 38  1  0
 11 39  1  0
 12 11  1  0
 12 29  2  0
 12 13  1  0
 13 14  1  0
 13 15  1  0
 15 16  2  0
 15 40  1  0
 16 17  1  0
 16 29  1  0
 17 28  1  0
 17 18  2  0
 18 19  1  0
 18 41  1  0
 19 20  2  0
 19 42  1  0
 20 21  1  0
 20 27  1  0
 21 26  1  0
 21 22  2  0
 22 23  1  0
 22 43  1  0
 23 24  2  0
 23 44  1  0
 24 25  1  0
 24 45  1  0
 25 26  2  0
 25 46  1  0
 26 47  1  0
 27 28  2  0
 27 48  1  0
 28 49  1  0
 29 30  1  0
 31 32  1  0
 31 50  1  0
 32 51  1  0
M  CHG  1  29   1
M  END
>  <DOCK_score>  (1) 
-58.333145

>  <SMILES>  (1) 
Fc1ccc(C[C@H](CCl)Nc2[nH]cc(-c3ccc(-c4ccccc4)cc3)[nH+]2)cc1

$$$$
