Nc1ccc(Nc2[nH]cc(-c3cc(Nc4ccc(C(F)(F)F)cc4)ccc3N)[nH+]2)cc1
     RDKit          3D

 51 54  0  0  1  0  0  0  0  0999 V2000
  124.6426  134.1502  160.6956 N   0  0  0  0  0  0  0  0  0  0  0  0
  125.9351  134.5981  160.3998 C   0  0  0  0  0  0  0  0  0  0  0  0
  126.3410  135.8634  160.8035 C   0  0  0  0  0  0  0  0  0  0  0  0
  127.6161  136.3052  160.5112 C   0  0  0  0  0  0  0  0  0  0  0  0
  128.4926  135.4845  159.8136 C   0  0  0  0  0  0  0  0  0  0  0  0
  129.7858  135.9329  159.5167 N   0  0  0  0  0  0  0  0  0  0  0  0
  130.6510  136.2788  160.5414 C   0  0  0  0  0  0  0  0  0  0  0  0
  130.3656  136.2278  161.8712 N   0  0  0  0  0  0  0  0  0  0  0  0
  129.5272  135.9448  162.2687 H   0  0  0  0  0  0  0  0  0  0  0  0
  131.4871  136.6457  162.5473 C   0  0  0  0  0  0  0  0  0  0  0  0
  132.4207  136.9484  161.6112 C   0  0  0  0  0  0  0  0  0  0  0  0
  133.7925  137.4460  161.8758 C   0  0  0  0  0  0  0  0  0  0  0  0
  134.0335  138.8141  161.9705 C   0  0  0  0  0  0  0  0  0  0  0  0
  135.3190  139.2739  162.2127 C   0  0  0  0  0  0  0  0  0  0  0  0
  135.5639  140.6496  162.3026 N   0  0  0  0  0  0  0  0  0  0  0  0
  136.0903  141.1900  163.4781 C   0  0  0  0  0  0  0  0  0  0  0  0
  136.8928  142.3229  163.4253 C   0  0  0  0  0  0  0  0  0  0  0  0
  137.4112  142.8547  164.5895 C   0  0  0  0  0  0  0  0  0  0  0  0
  137.1324  142.2610  165.8069 C   0  0  0  0  0  0  0  0  0  0  0  0
  137.7050  142.8407  167.0747 C   0  0  0  0  0  0  0  0  0  0  0  0
  138.4774  143.9654  166.7659 F   0  0  0  0  0  0  0  0  0  0  0  0
  136.6622  143.2118  167.9304 F   0  0  0  0  0  0  0  0  0  0  0  0
  138.5069  141.8830  167.7047 F   0  0  0  0  0  0  0  0  0  0  0  0
  136.3341  141.1333  165.8633 C   0  0  0  0  0  0  0  0  0  0  0  0
  135.8123  140.5961  164.7031 C   0  0  0  0  0  0  0  0  0  0  0  0
  136.3637  138.3715  162.3724 C   0  0  0  0  0  0  0  0  0  0  0  0
  136.1290  137.0128  162.2855 C   0  0  0  0  0  0  0  0  0  0  0  0
  134.8484  136.5420  162.0378 C   0  0  0  0  0  0  0  0  0  0  0  0
  134.6124  135.1660  161.9497 N   0  0  0  0  0  0  0  0  0  0  0  0
  131.8799  136.7100  160.3905 N   0  0  0  0  0  0  0  0  0  0  0  0
  132.3305  136.8382  159.5410 H   0  0  0  0  0  0  0  0  0  0  0  0
  128.0849  134.2212  159.4054 C   0  0  0  0  0  0  0  0  0  0  0  0
  126.8117  133.7772  159.7022 C   0  0  0  0  0  0  0  0  0  0  0  0
  124.0302  134.7237  161.1826 H   0  0  0  0  0  0  0  0  0  0  0  0
  124.3590  133.2665  160.4137 H   0  0  0  0  0  0  0  0  0  0  0  0
  125.6593  136.5018  161.3456 H   0  0  0  0  0  0  0  0  0  0  0  0
  127.9316  137.2894  160.8248 H   0  0  0  0  0  0  0  0  0  0  0  0
  130.0755  136.0013  158.5935 H   0  0  0  0  0  0  0  0  0  0  0  0
  131.6019  136.7212  163.6185 H   0  0  0  0  0  0  0  0  0  0  0  0
  133.2214  139.5160  161.8508 H   0  0  0  0  0  0  0  0  0  0  0  0
  135.3680  141.2273  161.5483 H   0  0  0  0  0  0  0  0  0  0  0  0
  137.1112  142.7868  162.4748 H   0  0  0  0  0  0  0  0  0  0  0  0
  138.0347  143.7357  164.5493 H   0  0  0  0  0  0  0  0  0  0  0  0
  136.1186  140.6719  166.8157 H   0  0  0  0  0  0  0  0  0  0  0  0
  135.1891  139.7151  164.7476 H   0  0  0  0  0  0  0  0  0  0  0  0
  137.3627  138.7337  162.5654 H   0  0  0  0  0  0  0  0  0  0  0  0
  136.9446  136.3158  162.4111 H   0  0  0  0  0  0  0  0  0  0  0  0
  135.3450  134.5402  162.0619 H   0  0  0  0  0  0  0  0  0  0  0  0
  133.7162  134.8377  161.7765 H   0  0  0  0  0  0  0  0  0  0  0  0
  128.7651  133.5846  158.8590 H   0  0  0  0  0  0  0  0  0  0  0  0
  126.4960  132.7933  159.3883 H   0  0  0  0  0  0  0  0  0  0  0  0
  1  2  1  0
  1 34  1  0
  1 35  1  0
  2 33  2  0
  2  3  1  0
  3  4  2  0
  3 36  1  0
  4  5  1  0
  4 37  1  0
  5  6  1  0
  5 32  2  0
  6 38  1  0
  7  6  1  0
  7 30  2  0
  7  8  1  0
  8  9  1  0
  8 10  1  0
 10 11  2  0
 10 39  1  0
 11 12  1  0
 11 30  1  0
 12 28  1  0
 12 13  2  0
 13 14  1  0
 13 40  1  0
 14 15  1  0
 14 26  2  0
 15 16  1  0
 15 41  1  0
 16 25  1  0
 16 17  2  0
 17 18  1  0
 17 42  1  0
 18 19  2  0
 18 43  1  0
 19 20  1  0
 19 24  1  0
 20 21  1  0
 20 22  1  0
 20 23  1  0
 24 25  2  0
 24 44  1  0
 25 45  1  0
 26 27  1  0
 26 46  1  0
 27 28  2  0
 27 47  1  0
 28 29  1  0
 29 48  1  0
 29 49  1  0
 30 31  1  0
 32 33  1  0
 32 50  1  0
 33 51  1  0
M  CHG  1  30   1
M  END
>  <DOCK_score>  (1) 
-46.731178

>  <SMILES>  (1) 
Nc1ccc(Nc2[nH]cc(-c3cc(Nc4ccc(C(F)(F)F)cc4)ccc3N)[nH+]2)cc1

$$$$
