Cc1ccc(-c2ccc(-c3c[nH]c(N[C@@H](c4ccccc4)c4ccccc4O)[nH+]3)cc2)cc1
     RDKit          3D

 59 63  0  0  1  0  0  0  0  0999 V2000
  131.8520  129.1694  152.4652 C   0  0  0  0  0  0  0  0  0  0  0  0
  131.2896  130.0805  153.5256 C   0  0  0  0  0  0  0  0  0  0  0  0
  130.5086  131.1624  153.1608 C   0  0  0  0  0  0  0  0  0  0  0  0
  129.9861  131.9968  154.1279 C   0  0  0  0  0  0  0  0  0  0  0  0
  130.2513  131.7510  155.4740 C   0  0  0  0  0  0  0  0  0  0  0  0
  129.6933  132.6445  156.5179 C   0  0  0  0  0  0  0  0  0  0  0  0
  129.3912  132.1370  157.7813 C   0  0  0  0  0  0  0  0  0  0  0  0
  128.8783  132.9679  158.7527 C   0  0  0  0  0  0  0  0  0  0  0  0
  128.6502  134.3146  158.4692 C   0  0  0  0  0  0  0  0  0  0  0  0
  128.0928  135.2078  159.5128 C   0  0  0  0  0  0  0  0  0  0  0  0
  126.8999  135.0550  160.1408 C   0  0  0  0  0  0  0  0  0  0  0  0
  126.7797  136.0976  161.0268 N   0  0  0  0  0  0  0  0  0  0  0  0
  126.0318  136.2620  161.6223 H   0  0  0  0  0  0  0  0  0  0  0  0
  127.9031  136.8577  160.9149 C   0  0  0  0  0  0  0  0  0  0  0  0
  128.1748  138.0062  161.6382 N   0  0  0  0  0  0  0  0  0  0  0  0
  129.4284  138.7315  161.4177 C   0  0  1  0  0  0  0  0  0  0  0  0
  129.4826  139.0558  160.3784 H   0  0  0  0  0  0  0  0  0  0  0  0
  129.4781  139.9354  162.3229 C   0  0  0  0  0  0  0  0  0  0  0  0
  130.6946  140.4062  162.7807 C   0  0  0  0  0  0  0  0  0  0  0  0
  130.7405  141.5127  163.6079 C   0  0  0  0  0  0  0  0  0  0  0  0
  129.5694  142.1434  163.9843 C   0  0  0  0  0  0  0  0  0  0  0  0
  128.3526  141.6697  163.5304 C   0  0  0  0  0  0  0  0  0  0  0  0
  128.3069  140.5654  162.7001 C   0  0  0  0  0  0  0  0  0  0  0  0
  130.5934  137.8254  161.7226 C   0  0  0  0  0  0  0  0  0  0  0  0
  130.7379  137.2865  162.9866 C   0  0  0  0  0  0  0  0  0  0  0  0
  131.8057  136.4546  163.2666 C   0  0  0  0  0  0  0  0  0  0  0  0
  132.7322  136.1598  162.2831 C   0  0  0  0  0  0  0  0  0  0  0  0
  132.5925  136.6965  161.0180 C   0  0  0  0  0  0  0  0  0  0  0  0
  131.5183  137.5270  160.7329 C   0  0  0  0  0  0  0  0  0  0  0  0
  131.3752  138.0513  159.4872 O   0  0  0  0  0  0  0  0  0  0  0  0
  128.6880  136.3197  160.0135 N   0  0  0  0  0  0  0  0  0  0  0  0
  129.5546  136.6632  159.7452 H   0  0  0  0  0  0  0  0  0  0  0  0
  128.9471  134.8208  157.2037 C   0  0  0  0  0  0  0  0  0  0  0  0
  129.4653  133.9908  156.2343 C   0  0  0  0  0  0  0  0  0  0  0  0
  131.0435  130.6625  155.8353 C   0  0  0  0  0  0  0  0  0  0  0  0
  131.5606  129.8348  154.8596 C   0  0  0  0  0  0  0  0  0  0  0  0
  132.8288  129.5372  152.1507 H   0  0  0  0  0  0  0  0  0  0  0  0
  131.9559  128.1624  152.8692 H   0  0  0  0  0  0  0  0  0  0  0  0
  131.1783  129.1494  151.6085 H   0  0  0  0  0  0  0  0  0  0  0  0
  130.3033  131.3517  152.1176 H   0  0  0  0  0  0  0  0  0  0  0  0
  129.3733  132.8390  153.8422 H   0  0  0  0  0  0  0  0  0  0  0  0
  129.5636  131.0934  157.9994 H   0  0  0  0  0  0  0  0  0  0  0  0
  128.6484  132.5759  159.7324 H   0  0  0  0  0  0  0  0  0  0  0  0
  126.1820  134.2654  159.9751 H   0  0  0  0  0  0  0  0  0  0  0  0
  127.5350  138.3308  162.2911 H   0  0  0  0  0  0  0  0  0  0  0  0
  131.6093  139.9112  162.4897 H   0  0  0  0  0  0  0  0  0  0  0  0
  131.6911  141.8825  163.9628 H   0  0  0  0  0  0  0  0  0  0  0  0
  129.6050  143.0059  164.6333 H   0  0  0  0  0  0  0  0  0  0  0  0
  127.4376  142.1622  163.8247 H   0  0  0  0  0  0  0  0  0  0  0  0
  127.3563  140.1951  162.3458 H   0  0  0  0  0  0  0  0  0  0  0  0
  130.0157  137.5153  163.7564 H   0  0  0  0  0  0  0  0  0  0  0  0
  131.9170  136.0342  164.2553 H   0  0  0  0  0  0  0  0  0  0  0  0
  133.5655  135.5095  162.5043 H   0  0  0  0  0  0  0  0  0  0  0  0
  133.3165  136.4663  160.2504 H   0  0  0  0  0  0  0  0  0  0  0  0
  132.0681  137.7863  158.8669 H   0  0  0  0  0  0  0  0  0  0  0  0
  128.7709  135.8635  156.9841 H   0  0  0  0  0  0  0  0  0  0  0  0
  129.6955  134.3828  155.2546 H   0  0  0  0  0  0  0  0  0  0  0  0
  131.2520  130.4671  156.8770 H   0  0  0  0  0  0  0  0  0  0  0  0
  132.1742  128.9909  155.1385 H   0  0  0  0  0  0  0  0  0  0  0  0
  1  2  1  0
  1 37  1  0
  1 38  1  0
  1 39  1  0
  2 36  2  0
  2  3  1  0
  3  4  2  0
  3 40  1  0
  4  5  1  0
  4 41  1  0
  5  6  1  0
  5 35  2  0
  6 34  1  0
  6  7  2  0
  7  8  1  0
  7 42  1  0
  8  9  2  0
  8 43  1  0
  9 10  1  0
  9 33  1  0
 10 31  1  0
 10 11  2  0
 11 12  1  0
 11 44  1  0
 12 13  1  0
 12 14  1  0
 14 15  1  0
 14 31  2  0
 15 16  1  0
 15 45  1  0
 16 17  1  6
 16 18  1  0
 16 24  1  0
 18 23  1  0
 18 19  2  0
 19 20  1  0
 19 46  1  0
 20 21  2  0
 20 47  1  0
 21 22  1  0
 21 48  1  0
 22 23  2  0
 22 49  1  0
 23 50  1  0
 24 29  1  0
 24 25  2  0
 25 26  1  0
 25 51  1  0
 26 27  2  0
 26 52  1  0
 27 28  1  0
 27 53  1  0
 28 29  2  0
 28 54  1  0
 29 30  1  0
 30 55  1  0
 31 32  1  0
 33 34  2  0
 33 56  1  0
 34 57  1  0
 35 36  1  0
 35 58  1  0
 36 59  1  0
M  CHG  1  31   1
M  END
>  <DOCK_score>  (1) 
-49.322166

>  <SMILES>  (1) 
Cc1ccc(-c2ccc(-c3c[nH]c(N[C@@H](c4ccccc4)c4ccccc4O)[nH+]3)cc2)cc1

$$$$
