CCc1ccc(-c2c[nH]c(N[C@H](F)N3c4ccccc4Sc4ccccc43)[nH+]2)cc1
     RDKit          3D

 52 56  0  0  1  0  0  0  0  0999 V2000
  130.4486  128.4883  151.8179 C   0  0  0  0  0  0  0  0  0  0  0  0
  131.5430  129.5121  152.1263 C   0  0  0  0  0  0  0  0  0  0  0  0
  131.1485  130.3204  153.3354 C   0  0  0  0  0  0  0  0  0  0  0  0
  131.5135  129.8928  154.5992 C   0  0  0  0  0  0  0  0  0  0  0  0
  131.1593  130.6316  155.7097 C   0  0  0  0  0  0  0  0  0  0  0  0
  130.4231  131.8052  155.5567 C   0  0  0  0  0  0  0  0  0  0  0  0
  130.0347  132.6010  156.7468 C   0  0  0  0  0  0  0  0  0  0  0  0
  129.2758  132.1676  157.7837 C   0  0  0  0  0  0  0  0  0  0  0  0
  129.1633  133.2180  158.6617 N   0  0  0  0  0  0  0  0  0  0  0  0
  128.6783  133.2152  159.5017 H   0  0  0  0  0  0  0  0  0  0  0  0
  129.8572  134.2637  158.1351 C   0  0  0  0  0  0  0  0  0  0  0  0
  129.9918  135.5146  158.7126 N   0  0  0  0  0  0  0  0  0  0  0  0
  128.9274  136.0448  159.5682 C   0  0  2  0  0  0  0  0  0  0  0  0
  128.0029  136.1173  158.9954 H   0  0  0  0  0  0  0  0  0  0  0  0
  129.2899  137.3141  160.0312 F   0  0  0  0  0  0  0  0  0  0  0  0
  128.7259  135.1481  160.7090 N   0  0  0  0  0  0  0  0  0  0  0  0
  127.4727  134.5552  160.9016 C   0  0  0  0  0  0  0  0  0  0  0  0
  126.3138  135.2620  160.6353 C   0  0  0  0  0  0  0  0  0  0  0  0
  125.0795  134.6672  160.8282 C   0  0  0  0  0  0  0  0  0  0  0  0
  124.9944  133.3647  161.2823 C   0  0  0  0  0  0  0  0  0  0  0  0
  126.1476  132.6449  161.5469 C   0  0  0  0  0  0  0  0  0  0  0  0
  127.3837  133.2344  161.3555 C   0  0  0  0  0  0  0  0  0  0  0  0
  128.8677  132.3373  161.6835 S   0  0  0  0  0  0  0  0  0  0  0  0
  129.9794  133.6336  162.1291 C   0  0  0  0  0  0  0  0  0  0  0  0
  131.0263  133.3952  163.0004 C   0  0  0  0  0  0  0  0  0  0  0  0
  131.8908  134.4243  163.3344 C   0  0  0  0  0  0  0  0  0  0  0  0
  131.7074  135.6847  162.7980 C   0  0  0  0  0  0  0  0  0  0  0  0
  130.6606  135.9292  161.9265 C   0  0  0  0  0  0  0  0  0  0  0  0
  129.7887  134.9066  161.5871 C   0  0  0  0  0  0  0  0  0  0  0  0
  130.3808  133.8895  156.9932 N   0  0  0  0  0  0  0  0  0  0  0  0
  130.9270  134.4456  156.4158 H   0  0  0  0  0  0  0  0  0  0  0  0
  130.0535  132.2286  154.2812 C   0  0  0  0  0  0  0  0  0  0  0  0
  130.4179  131.4844  153.1776 C   0  0  0  0  0  0  0  0  0  0  0  0
  130.3208  127.8245  152.6730 H   0  0  0  0  0  0  0  0  0  0  0  0
  129.5114  129.0074  151.6178 H   0  0  0  0  0  0  0  0  0  0  0  0
  130.7341  127.9035  150.9434 H   0  0  0  0  0  0  0  0  0  0  0  0
  132.4802  128.9928  152.3266 H   0  0  0  0  0  0  0  0  0  0  0  0
  131.6709  130.1759  151.2713 H   0  0  0  0  0  0  0  0  0  0  0  0
  132.0802  128.9809  154.7170 H   0  0  0  0  0  0  0  0  0  0  0  0
  131.4486  130.2992  156.6957 H   0  0  0  0  0  0  0  0  0  0  0  0
  128.8427  131.1849  157.8972 H   0  0  0  0  0  0  0  0  0  0  0  0
  130.7909  136.0401  158.5506 H   0  0  0  0  0  0  0  0  0  0  0  0
  126.3731  136.2801  160.2798 H   0  0  0  0  0  0  0  0  0  0  0  0
  124.1772  135.2238  160.6224 H   0  0  0  0  0  0  0  0  0  0  0  0
  124.0273  132.9074  161.4308 H   0  0  0  0  0  0  0  0  0  0  0  0
  126.0816  131.6270  161.9017 H   0  0  0  0  0  0  0  0  0  0  0  0
  131.1695  132.4099  163.4187 H   0  0  0  0  0  0  0  0  0  0  0  0
  132.7092  134.2417  164.0150 H   0  0  0  0  0  0  0  0  0  0  0  0
  132.3850  136.4837  163.0607 H   0  0  0  0  0  0  0  0  0  0  0  0
  130.5232  136.9166  161.5109 H   0  0  0  0  0  0  0  0  0  0  0  0
  129.4828  133.1369  154.1569 H   0  0  0  0  0  0  0  0  0  0  0  0
  130.1318  131.8112  152.1887 H   0  0  0  0  0  0  0  0  0  0  0  0
  1  2  1  0
  1 34  1  0
  1 35  1  0
  1 36  1  0
  2  3  1  0
  2 37  1  0
  2 38  1  0
  3 33  2  0
  3  4  1  0
  4  5  2  0
  4 39  1  0
  5  6  1  0
  5 40  1  0
  6  7  1  0
  6 32  2  0
  7 30  1  0
  7  8  2  0
  8  9  1  0
  8 41  1  0
  9 10  1  0
  9 11  1  0
 11 12  1  0
 11 30  2  0
 12 13  1  0
 12 42  1  0
 13 14  1  6
 13 15  1  0
 13 16  1  0
 16 29  1  0
 16 17  1  0
 17 22  1  0
 17 18  2  0
 18 19  1  0
 18 43  1  0
 19 20  2  0
 19 44  1  0
 20 21  1  0
 20 45  1  0
 21 22  2  0
 21 46  1  0
 22 23  1  0
 23 24  1  0
 24 29  2  0
 24 25  1  0
 25 26  2  0
 25 47  1  0
 26 27  1  0
 26 48  1  0
 27 28  2  0
 27 49  1  0
 28 29  1  0
 28 50  1  0
 30 31  1  0
 32 33  1  0
 32 51  1  0
 33 52  1  0
M  CHG  1  30   1
M  END
>  <DOCK_score>  (1) 
-56.449787

>  <SMILES>  (1) 
CCc1ccc(-c2c[nH]c(N[C@H](F)N3c4ccccc4Sc4ccccc43)[nH+]2)cc1

$$$$
