Nc1ccc(Sc2ccccc2)c(Nc2[nH]cc(-c3ccccc3)[nH+]2)c1
     RDKit          3D

 45 48  0  0  1  0  0  0  0  0999 V2000
  125.3551  136.2139  160.0030 N   0  0  0  0  0  0  0  0  0  0  0  0
  126.6899  136.1192  160.4131 C   0  0  0  0  0  0  0  0  0  0  0  0
  127.0305  136.3853  161.7331 C   0  0  0  0  0  0  0  0  0  0  0  0
  128.3475  136.2928  162.1417 C   0  0  0  0  0  0  0  0  0  0  0  0
  129.3323  135.9287  161.2354 C   0  0  0  0  0  0  0  0  0  0  0  0
  131.0101  135.8041  161.7591 S   0  0  0  0  0  0  0  0  0  0  0  0
  131.8324  136.9819  160.7385 C   0  0  0  0  0  0  0  0  0  0  0  0
  131.1546  138.1098  160.2913 C   0  0  0  0  0  0  0  0  0  0  0  0
  131.8037  139.0333  159.4960 C   0  0  0  0  0  0  0  0  0  0  0  0
  133.1237  138.8316  159.1359 C   0  0  0  0  0  0  0  0  0  0  0  0
  133.7999  137.7075  159.5744 C   0  0  0  0  0  0  0  0  0  0  0  0
  133.1588  136.7824  160.3742 C   0  0  0  0  0  0  0  0  0  0  0  0
  128.9940  135.6657  159.9078 C   0  0  0  0  0  0  0  0  0  0  0  0
  129.9866  135.3022  158.9899 N   0  0  0  0  0  0  0  0  0  0  0  0
  129.9153  134.0813  158.3401 C   0  0  0  0  0  0  0  0  0  0  0  0
  129.3535  132.9474  158.8420 N   0  0  0  0  0  0  0  0  0  0  0  0
  128.9341  132.8502  159.7113 H   0  0  0  0  0  0  0  0  0  0  0  0
  129.4895  131.9668  157.8903 C   0  0  0  0  0  0  0  0  0  0  0  0
  130.1255  132.5297  156.8329 C   0  0  0  0  0  0  0  0  0  0  0  0
  130.4838  131.8475  155.5655 C   0  0  0  0  0  0  0  0  0  0  0  0
  129.9708  132.3078  154.3541 C   0  0  0  0  0  0  0  0  0  0  0  0
  130.3126  131.6729  153.1772 C   0  0  0  0  0  0  0  0  0  0  0  0
  131.1530  130.5741  153.1999 C   0  0  0  0  0  0  0  0  0  0  0  0
  131.6602  130.1095  154.3998 C   0  0  0  0  0  0  0  0  0  0  0  0
  131.3301  130.7402  155.5821 C   0  0  0  0  0  0  0  0  0  0  0  0
  130.3782  133.8264  157.1405 N   0  0  0  0  0  0  0  0  0  0  0  0
  130.8262  134.4644  156.5632 H   0  0  0  0  0  0  0  0  0  0  0  0
  127.6719  135.7591  159.5006 C   0  0  0  0  0  0  0  0  0  0  0  0
  125.1166  136.0278  159.0813 H   0  0  0  0  0  0  0  0  0  0  0  0
  124.6685  136.4655  160.6403 H   0  0  0  0  0  0  0  0  0  0  0  0
  126.2649  136.6653  162.4415 H   0  0  0  0  0  0  0  0  0  0  0  0
  128.6095  136.5000  163.1689 H   0  0  0  0  0  0  0  0  0  0  0  0
  130.1225  138.2658  160.5688 H   0  0  0  0  0  0  0  0  0  0  0  0
  131.2790  139.9121  159.1517 H   0  0  0  0  0  0  0  0  0  0  0  0
  133.6278  139.5535  158.5104 H   0  0  0  0  0  0  0  0  0  0  0  0
  134.8305  137.5533  159.2913 H   0  0  0  0  0  0  0  0  0  0  0  0
  133.6872  135.9047  160.7161 H   0  0  0  0  0  0  0  0  0  0  0  0
  130.7242  135.9055  158.8089 H   0  0  0  0  0  0  0  0  0  0  0  0
  129.1513  130.9440  157.9674 H   0  0  0  0  0  0  0  0  0  0  0  0
  129.3108  133.1624  154.3358 H   0  0  0  0  0  0  0  0  0  0  0  0
  129.9199  132.0320  152.2375 H   0  0  0  0  0  0  0  0  0  0  0  0
  131.4147  130.0776  152.2772 H   0  0  0  0  0  0  0  0  0  0  0  0
  132.3159  129.2514  154.4115 H   0  0  0  0  0  0  0  0  0  0  0  0
  131.7272  130.3768  156.5184 H   0  0  0  0  0  0  0  0  0  0  0  0
  127.4066  135.5523  158.4743 H   0  0  0  0  0  0  0  0  0  0  0  0
  1  2  1  0
  1 29  1  0
  1 30  1  0
  2 28  2  0
  2  3  1  0
  3  4  2  0
  3 31  1  0
  4  5  1  0
  4 32  1  0
  5  6  1  0
  5 13  2  0
  6  7  1  0
  7 12  1  0
  7  8  2  0
  8  9  1  0
  8 33  1  0
  9 10  2  0
  9 34  1  0
 10 11  1  0
 10 35  1  0
 11 12  2  0
 11 36  1  0
 12 37  1  0
 13 14  1  0
 13 28  1  0
 14 38  1  0
 15 14  1  0
 15 26  2  0
 15 16  1  0
 16 17  1  0
 16 18  1  0
 18 19  2  0
 18 39  1  0
 19 20  1  0
 19 26  1  0
 20 25  1  0
 20 21  2  0
 21 22  1  0
 21 40  1  0
 22 23  2  0
 22 41  1  0
 23 24  1  0
 23 42  1  0
 24 25  2  0
 24 43  1  0
 25 44  1  0
 26 27  1  0
 28 45  1  0
M  CHG  1  26   1
M  END
>  <DOCK_score>  (1) 
-55.184711

>  <SMILES>  (1) 
Nc1ccc(Sc2ccccc2)c(Nc2[nH]cc(-c3ccccc3)[nH+]2)c1

$$$$
