Nc1ccc(-c2c[nH]c(Nc3cc(N)ccc3NCCCC(F)F)[nH+]2)cc1
     RDKit          3D

 50 52  0  0  1  0  0  0  0  0999 V2000
  131.0785  129.3034  152.2659 N   0  0  0  0  0  0  0  0  0  0  0  0
  130.8499  130.0971  153.3925 C   0  0  0  0  0  0  0  0  0  0  0  0
  130.0033  131.1959  153.3071 C   0  0  0  0  0  0  0  0  0  0  0  0
  129.7763  131.9807  154.4179 C   0  0  0  0  0  0  0  0  0  0  0  0
  130.3966  131.6712  155.6273 C   0  0  0  0  0  0  0  0  0  0  0  0
  130.1538  132.5141  156.8237 C   0  0  0  0  0  0  0  0  0  0  0  0
  129.6232  132.0963  157.9998 C   0  0  0  0  0  0  0  0  0  0  0  0
  129.5702  133.1938  158.8255 N   0  0  0  0  0  0  0  0  0  0  0  0
  129.2347  133.2127  159.7354 H   0  0  0  0  0  0  0  0  0  0  0  0
  130.0760  134.2492  158.1304 C   0  0  0  0  0  0  0  0  0  0  0  0
  130.2003  135.5437  158.6066 N   0  0  0  0  0  0  0  0  0  0  0  0
  129.2956  136.0294  159.5589 C   0  0  0  0  0  0  0  0  0  0  0  0
  127.9952  135.5488  159.5902 C   0  0  0  0  0  0  0  0  0  0  0  0
  127.1009  136.0319  160.5355 C   0  0  0  0  0  0  0  0  0  0  0  0
  125.7881  135.5470  160.5683 N   0  0  0  0  0  0  0  0  0  0  0  0
  127.5075  136.9954  161.4489 C   0  0  0  0  0  0  0  0  0  0  0  0
  128.8036  137.4758  161.4197 C   0  0  0  0  0  0  0  0  0  0  0  0
  129.7022  136.9932  160.4810 C   0  0  0  0  0  0  0  0  0  0  0  0
  131.0186  137.4779  160.4554 N   0  0  0  0  0  0  0  0  0  0  0  0
  131.3402  138.7582  161.0906 C   0  0  0  0  0  0  0  0  0  0  0  0
  132.8322  139.0514  160.9203 C   0  0  0  0  0  0  0  0  0  0  0  0
  133.1711  139.1220  159.4300 C   0  0  0  0  0  0  0  0  0  0  0  0
  134.6631  139.4153  159.2596 C   0  0  0  0  0  0  0  0  0  0  0  0
  135.4101  138.3961  159.8598 F   0  0  0  0  0  0  0  0  0  0  0  0
  134.9729  139.4800  157.8969 F   0  0  0  0  0  0  0  0  0  0  0  0
  130.4267  133.8378  156.9360 N   0  0  0  0  0  0  0  0  0  0  0  0
  130.8154  134.3926  156.2419 H   0  0  0  0  0  0  0  0  0  0  0  0
  131.2498  130.5719  155.7093 C   0  0  0  0  0  0  0  0  0  0  0  0
  131.4691  129.7863  154.5975 C   0  0  0  0  0  0  0  0  0  0  0  0
  130.6465  129.5194  151.4248 H   0  0  0  0  0  0  0  0  0  0  0  0
  131.6692  128.5361  152.3248 H   0  0  0  0  0  0  0  0  0  0  0  0
  129.5231  131.4355  152.3697 H   0  0  0  0  0  0  0  0  0  0  0  0
  129.1180  132.8343  154.3511 H   0  0  0  0  0  0  0  0  0  0  0  0
  129.2997  131.0943  158.2399 H   0  0  0  0  0  0  0  0  0  0  0  0
  130.9140  136.1139  158.2805 H   0  0  0  0  0  0  0  0  0  0  0  0
  127.6786  134.7997  158.8796 H   0  0  0  0  0  0  0  0  0  0  0  0
  125.5037  134.8736  159.9305 H   0  0  0  0  0  0  0  0  0  0  0  0
  125.1628  135.8842  161.2286 H   0  0  0  0  0  0  0  0  0  0  0  0
  126.8103  137.3701  162.1837 H   0  0  0  0  0  0  0  0  0  0  0  0
  129.1175  138.2246  162.1319 H   0  0  0  0  0  0  0  0  0  0  0  0
  131.7157  136.9652  160.0172 H   0  0  0  0  0  0  0  0  0  0  0  0
  130.7582  139.5523  160.6227 H   0  0  0  0  0  0  0  0  0  0  0  0
  131.0987  138.7080  162.1523 H   0  0  0  0  0  0  0  0  0  0  0  0
  133.0716  140.0040  161.3929 H   0  0  0  0  0  0  0  0  0  0  0  0
  133.4141  138.2574  161.3880 H   0  0  0  0  0  0  0  0  0  0  0  0
  132.9316  138.1695  158.9573 H   0  0  0  0  0  0  0  0  0  0  0  0
  132.5889  139.9161  158.9622 H   0  0  0  0  0  0  0  0  0  0  0  0
  134.9024  140.3678  159.7322 H   0  0  0  0  0  0  0  0  0  0  0  0
  131.7352  130.3332  156.6441 H   0  0  0  0  0  0  0  0  0  0  0  0
  132.1263  128.9317  154.6618 H   0  0  0  0  0  0  0  0  0  0  0  0
  1  2  1  0
  1 30  1  0
  1 31  1  0
  2 29  2  0
  2  3  1  0
  3  4  2  0
  3 32  1  0
  4  5  1  0
  4 33  1  0
  5  6  1  0
  5 28  2  0
  6 26  1  0
  6  7  2  0
  7  8  1  0
  7 34  1  0
  8  9  1  0
  8 10  1  0
 10 11  1  0
 10 26  2  0
 11 12  1  0
 11 35  1  0
 12 18  1  0
 12 13  2  0
 13 14  1  0
 13 36  1  0
 14 15  1  0
 14 16  2  0
 15 37  1  0
 15 38  1  0
 16 17  1  0
 16 39  1  0
 17 18  2  0
 17 40  1  0
 18 19  1  0
 19 20  1  0
 19 41  1  0
 20 21  1  0
 20 42  1  0
 20 43  1  0
 21 22  1  0
 21 44  1  0
 21 45  1  0
 22 23  1  0
 22 46  1  0
 22 47  1  0
 23 24  1  0
 23 25  1  0
 23 48  1  0
 26 27  1  0
 28 29  1  0
 28 49  1  0
 29 50  1  0
M  CHG  1  26   1
M  END
>  <DOCK_score>  (1) 
-60.001083

>  <SMILES>  (1) 
Nc1ccc(-c2c[nH]c(Nc3cc(N)ccc3NCCCC(F)F)[nH+]2)cc1

$$$$
