CCc1ccc(-c2c[nH]c(NC(Cc3ccnn3C)[C@@H](c3ccccc3)c3ccnn3C)[nH+]2)cc1
     RDKit          3D

 67 71  0  0  1  0  0  0  0  0999 V2000
  130.5216  128.8320  151.6272 C   0  0  0  0  0  0  0  0  0  0  0  0
  131.7666  129.5179  152.1934 C   0  0  0  0  0  0  0  0  0  0  0  0
  131.4033  130.2545  153.4570 C   0  0  0  0  0  0  0  0  0  0  0  0
  131.4854  129.6098  154.6781 C   0  0  0  0  0  0  0  0  0  0  0  0
  131.1587  130.2809  155.8390 C   0  0  0  0  0  0  0  0  0  0  0  0
  130.7357  131.6075  155.7783 C   0  0  0  0  0  0  0  0  0  0  0  0
  130.3787  132.3327  157.0220 C   0  0  0  0  0  0  0  0  0  0  0  0
  129.8624  131.7805  158.1478 C   0  0  0  0  0  0  0  0  0  0  0  0
  129.6861  132.8026  159.0485 N   0  0  0  0  0  0  0  0  0  0  0  0
  129.3342  132.7207  159.9487 H   0  0  0  0  0  0  0  0  0  0  0  0
  130.0923  133.9519  158.4433 C   0  0  0  0  0  0  0  0  0  0  0  0
  130.0717  135.2137  159.0124 N   0  0  0  0  0  0  0  0  0  0  0  0
  129.0585  135.5481  160.0163 C   0  0  2  0  0  0  0  0  0  0  0  0
  128.2158  136.7241  159.5182 C   0  0  0  0  0  0  0  0  0  0  0  0
  127.5377  136.3449  158.2269 C   0  0  0  0  0  0  0  0  0  0  0  0
  128.0348  136.5266  156.9814 C   0  0  0  0  0  0  0  0  0  0  0  0
  127.0958  136.0373  156.0677 C   0  0  0  0  0  0  0  0  0  0  0  0
  126.0682  135.5853  156.7400 N   0  0  0  0  0  0  0  0  0  0  0  0
  126.3237  135.7684  158.1051 N   0  0  0  0  0  0  0  0  0  0  0  0
  125.4307  135.3990  159.2062 C   0  0  0  0  0  0  0  0  0  0  0  0
  129.7468  135.9331  161.3272 C   0  0  1  0  0  0  0  0  0  0  0  0
  130.3909  136.7962  161.1595 H   0  0  0  0  0  0  0  0  0  0  0  0
  128.7045  136.2771  162.3597 C   0  0  0  0  0  0  0  0  0  0  0  0
  128.9914  137.1957  163.3521 C   0  0  0  0  0  0  0  0  0  0  0  0
  128.0338  137.5147  164.2965 C   0  0  0  0  0  0  0  0  0  0  0  0
  126.7922  136.9081  164.2542 C   0  0  0  0  0  0  0  0  0  0  0  0
  126.5071  135.9855  163.2649 C   0  0  0  0  0  0  0  0  0  0  0  0
  127.4633  135.6698  162.3179 C   0  0  0  0  0  0  0  0  0  0  0  0
  130.5768  134.7748  161.8177 C   0  0  0  0  0  0  0  0  0  0  0  0
  130.1577  133.7843  162.6389 C   0  0  0  0  0  0  0  0  0  0  0  0
  131.2321  132.9128  162.8452 C   0  0  0  0  0  0  0  0  0  0  0  0
  132.2615  133.3681  162.1782 N   0  0  0  0  0  0  0  0  0  0  0  0
  131.8727  134.5428  161.5216 N   0  0  0  0  0  0  0  0  0  0  0  0
  132.7230  135.3730  160.6649 C   0  0  0  0  0  0  0  0  0  0  0  0
  130.5055  133.6671  157.2325 N   0  0  0  0  0  0  0  0  0  0  0  0
  130.8470  134.3080  156.5894 H   0  0  0  0  0  0  0  0  0  0  0  0
  130.6499  132.2504  154.5446 C   0  0  0  0  0  0  0  0  0  0  0  0
  130.9837  131.5709  153.3907 C   0  0  0  0  0  0  0  0  0  0  0  0
  130.7844  128.2992  150.7133 H   0  0  0  0  0  0  0  0  0  0  0  0
  130.1309  128.1259  152.3599 H   0  0  0  0  0  0  0  0  0  0  0  0
  129.7628  129.5822  151.4051 H   0  0  0  0  0  0  0  0  0  0  0  0
  132.5254  128.7677  152.4156 H   0  0  0  0  0  0  0  0  0  0  0  0
  132.1573  130.2240  151.4608 H   0  0  0  0  0  0  0  0  0  0  0  0
  131.8097  128.5808  154.7236 H   0  0  0  0  0  0  0  0  0  0  0  0
  131.2274  129.7780  156.7923 H   0  0  0  0  0  0  0  0  0  0  0  0
  129.6355  130.7366  158.3066 H   0  0  0  0  0  0  0  0  0  0  0  0
  130.7282  135.8764  158.7464 H   0  0  0  0  0  0  0  0  0  0  0  0
  128.4143  134.6849  160.1839 H   0  0  0  0  0  0  0  0  0  0  0  0
  127.4618  136.9729  160.2651 H   0  0  0  0  0  0  0  0  0  0  0  0
  128.8599  137.5872  159.3504 H   0  0  0  0  0  0  0  0  0  0  0  0
  128.9888  136.9693  156.7364 H   0  0  0  0  0  0  0  0  0  0  0  0
  127.1990  136.0362  154.9927 H   0  0  0  0  0  0  0  0  0  0  0  0
  124.7722  136.2366  159.4366 H   0  0  0  0  0  0  0  0  0  0  0  0
  124.8322  134.5360  158.9146 H   0  0  0  0  0  0  0  0  0  0  0  0
  126.0231  135.1497  160.0865 H   0  0  0  0  0  0  0  0  0  0  0  0
  129.9626  137.6669  163.3873 H   0  0  0  0  0  0  0  0  0  0  0  0
  128.2563  138.2356  165.0691 H   0  0  0  0  0  0  0  0  0  0  0  0
  126.0450  137.1553  164.9936 H   0  0  0  0  0  0  0  0  0  0  0  0
  125.5372  135.5117  163.2318 H   0  0  0  0  0  0  0  0  0  0  0  0
  127.2406  134.9492  161.5451 H   0  0  0  0  0  0  0  0  0  0  0  0
  129.1680  133.6833  163.0590 H   0  0  0  0  0  0  0  0  0  0  0  0
  131.2158  132.0203  163.4531 H   0  0  0  0  0  0  0  0  0  0  0  0
  133.2198  136.1307  161.2707 H   0  0  0  0  0  0  0  0  0  0  0  0
  133.4721  134.7469  160.1801 H   0  0  0  0  0  0  0  0  0  0  0  0
  132.1098  135.8592  159.9061 H   0  0  0  0  0  0  0  0  0  0  0  0
  130.3224  133.2782  154.4917 H   0  0  0  0  0  0  0  0  0  0  0  0
  130.9177  132.0681  152.4343 H   0  0  0  0  0  0  0  0  0  0  0  0
  1  2  1  0
  1 39  1  0
  1 40  1  0
  1 41  1  0
  2  3  1  0
  2 42  1  0
  2 43  1  0
  3 38  2  0
  3  4  1  0
  4  5  2  0
  4 44  1  0
  5  6  1  0
  5 45  1  0
  6  7  1  0
  6 37  2  0
  7 35  1  0
  7  8  2  0
  8  9  1  0
  8 46  1  0
  9 10  1  0
  9 11  1  0
 11 12  1  0
 11 35  2  0
 12 13  1  0
 12 47  1  0
 13 14  1  0
 13 21  1  0
 13 48  1  1
 14 15  1  0
 14 49  1  0
 14 50  1  0
 15 19  1  0
 15 16  2  0
 16 17  1  0
 16 51  1  0
 17 18  2  0
 17 52  1  0
 18 19  1  0
 19 20  1  0
 20 53  1  0
 20 54  1  0
 20 55  1  0
 21 22  1  6
 21 23  1  0
 21 29  1  0
 23 28  1  0
 23 24  2  0
 24 25  1  0
 24 56  1  0
 25 26  2  0
 25 57  1  0
 26 27  1  0
 26 58  1  0
 27 28  2  0
 27 59  1  0
 28 60  1  0
 29 33  1  0
 29 30  2  0
 30 31  1  0
 30 61  1  0
 31 32  2  0
 31 62  1  0
 32 33  1  0
 33 34  1  0
 34 63  1  0
 34 64  1  0
 34 65  1  0
 35 36  1  0
 37 38  1  0
 37 66  1  0
 38 67  1  0
M  CHG  1  35   1
M  END
>  <DOCK_score>  (1) 
-59.38237

>  <SMILES>  (1) 
CCc1ccc(-c2c[nH]c(NC(Cc3ccnn3C)[C@@H](c3ccccc3)c3ccnn3C)[nH+]2)cc1

$$$$
