O=C1CC[C@H]([NH+]=C(NC2CC2)N[C@H]2CC=C([C@@H]3CC[C@H]3F)C2)CN1
     RDKit          3D

 52 55  0  0  1  0  0  0  0  0999 V2000
  124.1190  133.6583  160.8869 O   0  0  0  0  0  0  0  0  0  0  0  0
  125.2918  133.8922  160.6849 C   0  0  0  0  0  0  0  0  0  0  0  0
  126.1645  132.7745  160.1906 C   0  0  0  0  0  0  0  0  0  0  0  0
  127.6376  133.1269  160.4123 C   0  0  0  0  0  0  0  0  0  0  0  0
  127.8830  134.5423  159.8760 C   0  0  2  0  0  0  0  0  0  0  0  0
  127.5222  134.6149  158.8500 H   0  0  0  0  0  0  0  0  0  0  0  0
  129.3168  134.8411  159.9150 N   0  0  0  0  0  0  0  0  0  0  0  0
  129.6422  135.5886  160.4405 H   0  0  0  0  0  0  0  0  0  0  0  0
  130.1548  134.1024  159.2436 C   0  0  0  0  0  0  0  0  0  0  0  0
  131.4411  133.9347  159.6992 N   0  0  0  0  0  0  0  0  0  0  0  0
  131.8699  134.5862  160.9394 C   0  0  0  0  0  0  0  0  0  0  0  0
  132.8932  135.7178  160.8256 C   0  0  0  0  0  0  0  0  0  0  0  0
  133.3134  134.3605  161.3933 C   0  0  0  0  0  0  0  0  0  0  0  0
  129.7527  133.4911  158.0796 N   0  0  0  0  0  0  0  0  0  0  0  0
  130.6948  132.6609  157.3249 C   0  0  1  0  0  0  0  0  0  0  0  0
  131.7175  133.0132  157.4588 H   0  0  0  0  0  0  0  0  0  0  0  0
  130.5642  131.1718  157.7210 C   0  0  0  0  0  0  0  0  0  0  0  0
  130.7565  130.4113  156.4297 C   0  0  0  0  0  0  0  0  0  0  0  0
  130.6260  131.1983  155.3967 C   0  0  0  0  0  0  0  0  0  0  0  0
  130.7608  130.7531  153.9632 C   0  0  2  0  0  0  0  0  0  0  0  0
  130.9820  129.6898  153.8694 H   0  0  0  0  0  0  0  0  0  0  0  0
  131.6848  131.6510  153.1236 C   0  0  0  0  0  0  0  0  0  0  0  0
  130.6711  131.4891  151.9785 C   0  0  0  0  0  0  0  0  0  0  0  0
  129.6084  131.2256  153.0584 C   0  0  1  0  0  0  0  0  0  0  0  0
  129.1154  132.1297  153.4155 H   0  0  0  0  0  0  0  0  0  0  0  0
  128.7067  130.2104  152.7213 F   0  0  0  0  0  0  0  0  0  0  0  0
  130.3156  132.6132  155.8266 C   0  0  0  0  0  0  0  0  0  0  0  0
  127.1274  135.5378  160.7572 C   0  0  0  0  0  0  0  0  0  0  0  0
  125.7372  135.1282  160.9130 N   0  0  0  0  0  0  0  0  0  0  0  0
  125.9250  131.8606  160.7343 H   0  0  0  0  0  0  0  0  0  0  0  0
  125.9868  132.6198  159.1264 H   0  0  0  0  0  0  0  0  0  0  0  0
  128.2691  132.4173  159.8778 H   0  0  0  0  0  0  0  0  0  0  0  0
  127.8671  133.0931  161.4773 H   0  0  0  0  0  0  0  0  0  0  0  0
  132.0648  133.3849  159.1994 H   0  0  0  0  0  0  0  0  0  0  0  0
  131.1069  134.6729  161.7129 H   0  0  0  0  0  0  0  0  0  0  0  0
  133.2474  135.9776  159.8282 H   0  0  0  0  0  0  0  0  0  0  0  0
  132.8035  136.5495  161.5245 H   0  0  0  0  0  0  0  0  0  0  0  0
  133.5001  134.2994  162.4654 H   0  0  0  0  0  0  0  0  0  0  0  0
  133.9441  133.7274  160.7691 H   0  0  0  0  0  0  0  0  0  0  0  0
  128.8454  133.6098  157.7580 H   0  0  0  0  0  0  0  0  0  0  0  0
  131.3355  130.9018  158.4422 H   0  0  0  0  0  0  0  0  0  0  0  0
  129.5744  130.9738  158.1326 H   0  0  0  0  0  0  0  0  0  0  0  0
  130.9753  129.3554  156.3694 H   0  0  0  0  0  0  0  0  0  0  0  0
  132.6560  131.2030  152.9136 H   0  0  0  0  0  0  0  0  0  0  0  0
  131.7616  132.6719  153.4977 H   0  0  0  0  0  0  0  0  0  0  0  0
  130.5012  132.4053  151.4130 H   0  0  0  0  0  0  0  0  0  0  0  0
  130.8677  130.6278  151.3400 H   0  0  0  0  0  0  0  0  0  0  0  0
  130.9180  133.3232  155.2597 H   0  0  0  0  0  0  0  0  0  0  0  0
  129.2544  132.8255  155.6965 H   0  0  0  0  0  0  0  0  0  0  0  0
  127.6016  135.5832  161.7376 H   0  0  0  0  0  0  0  0  0  0  0  0
  127.1595  136.5245  160.2954 H   0  0  0  0  0  0  0  0  0  0  0  0
  125.0958  135.7968  161.2003 H   0  0  0  0  0  0  0  0  0  0  0  0
  1  2  2  0
  2 29  1  0
  2  3  1  0
  3  4  1  0
  3 30  1  0
  3 31  1  0
  4  5  1  0
  4 32  1  0
  4 33  1  0
  5  6  1  6
  5  7  1  0
  5 28  1  0
  7  8  1  0
  9  7  2  0
  9 10  1  0
  9 14  1  0
 10 11  1  0
 10 34  1  0
 11 13  1  0
 11 12  1  0
 11 35  1  0
 12 13  1  0
 12 36  1  0
 12 37  1  0
 13 38  1  0
 13 39  1  0
 14 15  1  0
 14 40  1  0
 15 16  1  6
 15 27  1  0
 15 17  1  0
 17 18  1  0
 17 41  1  0
 17 42  1  0
 18 19  2  0
 18 43  1  0
 19 20  1  0
 19 27  1  0
 20 21  1  1
 20 24  1  0
 20 22  1  0
 22 23  1  0
 22 44  1  0
 22 45  1  0
 23 24  1  0
 23 46  1  0
 23 47  1  0
 24 25  1  1
 24 26  1  0
 27 48  1  0
 27 49  1  0
 28 29  1  0
 28 50  1  0
 28 51  1  0
 29 52  1  0
M  CHG  1   7   1
M  END
>  <DOCK_score>  (1) 
-43.217113

>  <SMILES>  (1) 
O=C1CC[C@H]([NH+]=C(NC2CC2)N[C@H]2CC=C([C@@H]3CC[C@H]3F)C2)CN1

$$$$
