CCc1ccc(-c2c[nH]c(N[C@H](Cc3ccccc3)c3ccccn3)[nH+]2)cc1
     RDKit          3D

 53 56  0  0  1  0  0  0  0  0999 V2000
  130.0527  128.7837  151.3766 C   0  0  0  0  0  0  0  0  0  0  0  0
  131.2402  129.6747  151.7456 C   0  0  0  0  0  0  0  0  0  0  0  0
  130.9415  130.4031  153.0307 C   0  0  0  0  0  0  0  0  0  0  0  0
  131.2889  129.8338  154.2421 C   0  0  0  0  0  0  0  0  0  0  0  0
  131.0221  130.4985  155.4217 C   0  0  0  0  0  0  0  0  0  0  0  0
  130.3918  131.7412  155.3913 C   0  0  0  0  0  0  0  0  0  0  0  0
  130.0979  132.4581  156.6561 C   0  0  0  0  0  0  0  0  0  0  0  0
  129.3219  132.0017  157.6703 C   0  0  0  0  0  0  0  0  0  0  0  0
  129.3198  132.9751  158.6397 N   0  0  0  0  0  0  0  0  0  0  0  0
  128.8517  132.9394  159.4885 H   0  0  0  0  0  0  0  0  0  0  0  0
  130.0955  133.9986  158.1892 C   0  0  0  0  0  0  0  0  0  0  0  0
  130.3522  135.1761  158.8705 N   0  0  0  0  0  0  0  0  0  0  0  0
  129.7671  135.3984  160.1951 C   0  0  2  0  0  0  0  0  0  0  0  0
  129.8016  134.4715  160.7676 H   0  0  0  0  0  0  0  0  0  0  0  0
  128.3132  135.8491  160.0413 C   0  0  0  0  0  0  0  0  0  0  0  0
  127.7113  136.0778  161.4038 C   0  0  0  0  0  0  0  0  0  0  0  0
  127.0726  135.0423  162.0599 C   0  0  0  0  0  0  0  0  0  0  0  0
  126.5247  135.2509  163.3119 C   0  0  0  0  0  0  0  0  0  0  0  0
  126.6065  136.4978  163.9031 C   0  0  0  0  0  0  0  0  0  0  0  0
  127.2406  137.5346  163.2446 C   0  0  0  0  0  0  0  0  0  0  0  0
  127.7930  137.3247  161.9950 C   0  0  0  0  0  0  0  0  0  0  0  0
  130.5499  136.4645  160.9175 C   0  0  0  0  0  0  0  0  0  0  0  0
  131.1656  136.1645  162.1181 C   0  0  0  0  0  0  0  0  0  0  0  0
  131.8836  137.1523  162.7743 C   0  0  0  0  0  0  0  0  0  0  0  0
  131.9557  138.4105  162.1958 C   0  0  0  0  0  0  0  0  0  0  0  0
  131.3141  138.6364  160.9930 C   0  0  0  0  0  0  0  0  0  0  0  0
  130.6439  137.6711  160.3943 N   0  0  0  0  0  0  0  0  0  0  0  0
  130.5627  133.6839  157.0057 N   0  0  0  0  0  0  0  0  0  0  0  0
  131.1461  134.2394  156.4654 H   0  0  0  0  0  0  0  0  0  0  0  0
  130.0393  132.3080  154.1678 C   0  0  0  0  0  0  0  0  0  0  0  0
  130.3157  131.6367  152.9941 C   0  0  0  0  0  0  0  0  0  0  0  0
  129.8808  128.0596  152.1731 H   0  0  0  0  0  0  0  0  0  0  0  0
  129.1627  129.3992  151.2469 H   0  0  0  0  0  0  0  0  0  0  0  0
  130.2688  128.2568  150.4471 H   0  0  0  0  0  0  0  0  0  0  0  0
  132.1303  129.0596  151.8751 H   0  0  0  0  0  0  0  0  0  0  0  0
  131.4120  130.3993  150.9489 H   0  0  0  0  0  0  0  0  0  0  0  0
  131.7733  128.8687  154.2648 H   0  0  0  0  0  0  0  0  0  0  0  0
  131.2980  130.0548  156.3671 H   0  0  0  0  0  0  0  0  0  0  0  0
  128.8042  131.0547  157.7084 H   0  0  0  0  0  0  0  0  0  0  0  0
  130.9194  135.8538  158.4709 H   0  0  0  0  0  0  0  0  0  0  0  0
  128.2787  136.7759  159.4686 H   0  0  0  0  0  0  0  0  0  0  0  0
  127.7470  135.0779  159.5188 H   0  0  0  0  0  0  0  0  0  0  0  0
  127.0049  134.0693  161.5960 H   0  0  0  0  0  0  0  0  0  0  0  0
  126.0291  134.4408  163.8261 H   0  0  0  0  0  0  0  0  0  0  0  0
  126.1746  136.6617  164.8793 H   0  0  0  0  0  0  0  0  0  0  0  0
  127.3041  138.5089  163.7064 H   0  0  0  0  0  0  0  0  0  0  0  0
  128.2881  138.1349  161.4805 H   0  0  0  0  0  0  0  0  0  0  0  0
  131.0887  135.1731  162.5394 H   0  0  0  0  0  0  0  0  0  0  0  0
  132.3754  136.9467  163.7136 H   0  0  0  0  0  0  0  0  0  0  0  0
  132.5067  139.2038  162.6791 H   0  0  0  0  0  0  0  0  0  0  0  0
  131.3655  139.6135  160.5359 H   0  0  0  0  0  0  0  0  0  0  0  0
  129.5504  133.2706  154.1382 H   0  0  0  0  0  0  0  0  0  0  0  0
  130.0426  132.0748  152.0455 H   0  0  0  0  0  0  0  0  0  0  0  0
  1  2  1  0
  1 32  1  0
  1 33  1  0
  1 34  1  0
  2  3  1  0
  2 35  1  0
  2 36  1  0
  3 31  2  0
  3  4  1  0
  4  5  2  0
  4 37  1  0
  5  6  1  0
  5 38  1  0
  6  7  1  0
  6 30  2  0
  7 28  1  0
  7  8  2  0
  8  9  1  0
  8 39  1  0
  9 10  1  0
  9 11  1  0
 11 12  1  0
 11 28  2  0
 12 13  1  0
 12 40  1  0
 13 14  1  1
 13 15  1  0
 13 22  1  0
 15 16  1  0
 15 41  1  0
 15 42  1  0
 16 21  1  0
 16 17  2  0
 17 18  1  0
 17 43  1  0
 18 19  2  0
 18 44  1  0
 19 20  1  0
 19 45  1  0
 20 21  2  0
 20 46  1  0
 21 47  1  0
 22 27  1  0
 22 23  2  0
 23 24  1  0
 23 48  1  0
 24 25  2  0
 24 49  1  0
 25 26  1  0
 25 50  1  0
 26 27  2  0
 26 51  1  0
 28 29  1  0
 30 31  1  0
 30 52  1  0
 31 53  1  0
M  CHG  1  28   1
M  END
>  <DOCK_score>  (1) 
-57.345379

>  <SMILES>  (1) 
CCc1ccc(-c2c[nH]c(N[C@H](Cc3ccccc3)c3ccccn3)[nH+]2)cc1

$$$$
