CCc1ccc(-c2c[nH]c(N[C@@H](Cc3ccc(C)cn3)c3cccc(C)c3)[nH+]2)cc1
     RDKit          3D

 59 62  0  0  1  0  0  0  0  0999 V2000
  130.2919  128.4278  151.6277 C   0  0  0  0  0  0  0  0  0  0  0  0
  131.2644  129.5925  151.8229 C   0  0  0  0  0  0  0  0  0  0  0  0
  131.0042  130.2463  153.1556 C   0  0  0  0  0  0  0  0  0  0  0  0
  131.6715  129.8027  154.2826 C   0  0  0  0  0  0  0  0  0  0  0  0
  131.4408  130.4008  155.5047 C   0  0  0  0  0  0  0  0  0  0  0  0
  130.5252  131.4470  155.6039 C   0  0  0  0  0  0  0  0  0  0  0  0
  130.2692  132.0904  156.9155 C   0  0  0  0  0  0  0  0  0  0  0  0
  129.8036  131.4734  158.0298 C   0  0  0  0  0  0  0  0  0  0  0  0
  129.7154  132.4325  159.0093 N   0  0  0  0  0  0  0  0  0  0  0  0
  129.4131  132.2966  159.9209 H   0  0  0  0  0  0  0  0  0  0  0  0
  130.1301  133.6087  158.4644 C   0  0  0  0  0  0  0  0  0  0  0  0
  130.1923  134.8248  159.1230 N   0  0  0  0  0  0  0  0  0  0  0  0
  129.7905  134.9180  160.5287 C   0  0  1  0  0  0  0  0  0  0  0  0
  130.4179  134.2604  161.1303 H   0  0  0  0  0  0  0  0  0  0  0  0
  129.9539  136.3607  161.0113 C   0  0  0  0  0  0  0  0  0  0  0  0
  131.4017  136.6194  161.3402 C   0  0  0  0  0  0  0  0  0  0  0  0
  131.8636  136.3853  162.6218 C   0  0  0  0  0  0  0  0  0  0  0  0
  133.1982  136.6214  162.9125 C   0  0  0  0  0  0  0  0  0  0  0  0
  134.0199  137.0964  161.9014 C   0  0  0  0  0  0  0  0  0  0  0  0
  135.4767  137.3739  162.1692 C   0  0  0  0  0  0  0  0  0  0  0  0
  133.4860  137.3117  160.6452 C   0  0  0  0  0  0  0  0  0  0  0  0
  132.2120  137.0713  160.4033 N   0  0  0  0  0  0  0  0  0  0  0  0
  128.3487  134.5021  160.6677 C   0  0  0  0  0  0  0  0  0  0  0  0
  128.0134  133.4283  161.4713 C   0  0  0  0  0  0  0  0  0  0  0  0
  126.6906  133.0498  161.6025 C   0  0  0  0  0  0  0  0  0  0  0  0
  125.7039  133.7383  160.9222 C   0  0  0  0  0  0  0  0  0  0  0  0
  126.0395  134.8087  160.1143 C   0  0  0  0  0  0  0  0  0  0  0  0
  124.9640  135.5591  159.3719 C   0  0  0  0  0  0  0  0  0  0  0  0
  127.3623  135.1905  159.9871 C   0  0  0  0  0  0  0  0  0  0  0  0
  130.4649  133.3992  157.2147 N   0  0  0  0  0  0  0  0  0  0  0  0
  130.7978  134.0728  156.6011 H   0  0  0  0  0  0  0  0  0  0  0  0
  129.8516  131.8867  154.4657 C   0  0  0  0  0  0  0  0  0  0  0  0
  130.0942  131.2847  153.2478 C   0  0  0  0  0  0  0  0  0  0  0  0
  129.2681  128.8003  151.6559 H   0  0  0  0  0  0  0  0  0  0  0  0
  130.4803  127.9550  150.6638 H   0  0  0  0  0  0  0  0  0  0  0  0
  130.4352  127.6979  152.4245 H   0  0  0  0  0  0  0  0  0  0  0  0
  132.2882  129.2205  151.7945 H   0  0  0  0  0  0  0  0  0  0  0  0
  131.1209  130.3230  151.0258 H   0  0  0  0  0  0  0  0  0  0  0  0
  132.3776  128.9890  154.2055 H   0  0  0  0  0  0  0  0  0  0  0  0
  131.9660  130.0564  156.3835 H   0  0  0  0  0  0  0  0  0  0  0  0
  129.5503  130.4282  158.1282 H   0  0  0  0  0  0  0  0  0  0  0  0
  130.5019  135.6152  158.6537 H   0  0  0  0  0  0  0  0  0  0  0  0
  129.6318  137.0451  160.2265 H   0  0  0  0  0  0  0  0  0  0  0  0
  129.3454  136.5170  161.9020 H   0  0  0  0  0  0  0  0  0  0  0  0
  131.1938  136.0195  163.3861 H   0  0  0  0  0  0  0  0  0  0  0  0
  133.5878  136.4443  163.9041 H   0  0  0  0  0  0  0  0  0  0  0  0
  135.5955  138.4063  162.4980 H   0  0  0  0  0  0  0  0  0  0  0  0
  135.8378  136.7010  162.9470 H   0  0  0  0  0  0  0  0  0  0  0  0
  136.0506  137.2151  161.2562 H   0  0  0  0  0  0  0  0  0  0  0  0
  134.1193  137.6815  159.8523 H   0  0  0  0  0  0  0  0  0  0  0  0
  128.7848  132.8875  161.9995 H   0  0  0  0  0  0  0  0  0  0  0  0
  126.4282  132.2133  162.2333 H   0  0  0  0  0  0  0  0  0  0  0  0
  124.6708  133.4395  161.0215 H   0  0  0  0  0  0  0  0  0  0  0  0
  124.8118  135.1029  158.3938 H   0  0  0  0  0  0  0  0  0  0  0  0
  124.0347  135.5189  159.9402 H   0  0  0  0  0  0  0  0  0  0  0  0
  125.2675  136.5983  159.2449 H   0  0  0  0  0  0  0  0  0  0  0  0
  127.6246  136.0266  159.3558 H   0  0  0  0  0  0  0  0  0  0  0  0
  129.1409  132.6967  154.5367 H   0  0  0  0  0  0  0  0  0  0  0  0
  129.5725  131.6243  152.3652 H   0  0  0  0  0  0  0  0  0  0  0  0
  1  2  1  0
  1 34  1  0
  1 35  1  0
  1 36  1  0
  2  3  1  0
  2 37  1  0
  2 38  1  0
  3 33  2  0
  3  4  1  0
  4  5  2  0
  4 39  1  0
  5  6  1  0
  5 40  1  0
  6  7  1  0
  6 32  2  0
  7 30  1  0
  7  8  2  0
  8  9  1  0
  8 41  1  0
  9 10  1  0
  9 11  1  0
 11 12  1  0
 11 30  2  0
 12 13  1  0
 12 42  1  0
 13 14  1  1
 13 15  1  0
 13 23  1  0
 15 16  1  0
 15 43  1  0
 15 44  1  0
 16 22  1  0
 16 17  2  0
 17 18  1  0
 17 45  1  0
 18 19  2  0
 18 46  1  0
 19 20  1  0
 19 21  1  0
 20 47  1  0
 20 48  1  0
 20 49  1  0
 21 22  2  0
 21 50  1  0
 23 29  1  0
 23 24  2  0
 24 25  1  0
 24 51  1  0
 25 26  2  0
 25 52  1  0
 26 27  1  0
 26 53  1  0
 27 28  1  0
 27 29  2  0
 28 54  1  0
 28 55  1  0
 28 56  1  0
 29 57  1  0
 30 31  1  0
 32 33  1  0
 32 58  1  0
 33 59  1  0
M  CHG  1  30   1
M  END
>  <DOCK_score>  (1) 
-57.023415

>  <SMILES>  (1) 
CCc1ccc(-c2c[nH]c(N[C@@H](Cc3ccc(C)cn3)c3cccc(C)c3)[nH+]2)cc1

$$$$
