c1ccc(-c2ccccc2[C@@H](c2ccccc2)[NH+]2CCN(c3cncc4ccccc34)CC2)cc1
     RDKit          3D

 65 70  0  0  1  0  0  0  0  0999 V2000
  127.8204  136.1932  164.7006 C   0  0  0  0  0  0  0  0  0  0  0  0
  128.1140  137.2987  163.9227 C   0  0  0  0  0  0  0  0  0  0  0  0
  128.1126  137.1970  162.5462 C   0  0  0  0  0  0  0  0  0  0  0  0
  127.8153  135.9780  161.9406 C   0  0  0  0  0  0  0  0  0  0  0  0
  127.8119  135.8627  160.4611 C   0  0  0  0  0  0  0  0  0  0  0  0
  126.6416  136.1031  159.7437 C   0  0  0  0  0  0  0  0  0  0  0  0
  126.6440  135.9941  158.3680 C   0  0  0  0  0  0  0  0  0  0  0  0
  127.8052  135.6470  157.7011 C   0  0  0  0  0  0  0  0  0  0  0  0
  128.9709  135.4130  158.4076 C   0  0  0  0  0  0  0  0  0  0  0  0
  128.9785  135.5136  159.7843 C   0  0  0  0  0  0  0  0  0  0  0  0
  130.2478  135.2521  160.5534 C   0  0  1  0  0  0  0  0  0  0  0  0
  130.0606  135.3835  161.6191 H   0  0  0  0  0  0  0  0  0  0  0  0
  130.7102  133.8413  160.2947 C   0  0  0  0  0  0  0  0  0  0  0  0
  130.2826  132.8127  161.1133 C   0  0  0  0  0  0  0  0  0  0  0  0
  130.7037  131.5180  160.8737 C   0  0  0  0  0  0  0  0  0  0  0  0
  131.5595  131.2533  159.8208 C   0  0  0  0  0  0  0  0  0  0  0  0
  131.9911  132.2826  159.0053 C   0  0  0  0  0  0  0  0  0  0  0  0
  131.5668  133.5766  159.2424 C   0  0  0  0  0  0  0  0  0  0  0  0
  131.2868  136.1952  160.1188 N   0  0  0  0  0  0  0  0  0  0  0  0
  131.4600  136.0734  159.1322 H   0  0  0  0  0  0  0  0  0  0  0  0
  130.8356  137.5703  160.3701 C   0  0  0  0  0  0  0  0  0  0  0  0
  131.9097  138.5537  159.9002 C   0  0  0  0  0  0  0  0  0  0  0  0
  133.1614  138.2904  160.6242 N   0  0  0  0  0  0  0  0  0  0  0  0
  134.1502  139.2032  160.2608 C   0  0  0  0  0  0  0  0  0  0  0  0
  134.5753  139.3001  158.9516 C   0  0  0  0  0  0  0  0  0  0  0  0
  135.5101  140.1654  158.5880 N   0  0  0  0  0  0  0  0  0  0  0  0
  136.0998  140.9751  159.4359 C   0  0  0  0  0  0  0  0  0  0  0  0
  135.7459  140.9553  160.7946 C   0  0  0  0  0  0  0  0  0  0  0  0
  136.3528  141.8046  161.7336 C   0  0  0  0  0  0  0  0  0  0  0  0
  135.9718  141.7425  163.0395 C   0  0  0  0  0  0  0  0  0  0  0  0
  134.9879  140.8498  163.4599 C   0  0  0  0  0  0  0  0  0  0  0  0
  134.3776  140.0110  162.5763 C   0  0  0  0  0  0  0  0  0  0  0  0
  134.7448  140.0470  161.2250 C   0  0  0  0  0  0  0  0  0  0  0  0
  133.6123  136.9093  160.4019 C   0  0  0  0  0  0  0  0  0  0  0  0
  132.5242  135.9395  160.8677 C   0  0  0  0  0  0  0  0  0  0  0  0
  127.5157  134.8689  162.7289 C   0  0  0  0  0  0  0  0  0  0  0  0
  127.5241  134.9807  164.1046 C   0  0  0  0  0  0  0  0  0  0  0  0
  127.8222  136.2773  165.7773 H   0  0  0  0  0  0  0  0  0  0  0  0
  128.3443  138.2430  164.3932 H   0  0  0  0  0  0  0  0  0  0  0  0
  128.3419  138.0608  161.9398 H   0  0  0  0  0  0  0  0  0  0  0  0
  125.7346  136.3746  160.2633 H   0  0  0  0  0  0  0  0  0  0  0  0
  125.7375  136.1798  157.8111 H   0  0  0  0  0  0  0  0  0  0  0  0
  127.8026  135.5625  156.6244 H   0  0  0  0  0  0  0  0  0  0  0  0
  129.8758  135.1467  157.8816 H   0  0  0  0  0  0  0  0  0  0  0  0
  129.6169  133.0201  161.9380 H   0  0  0  0  0  0  0  0  0  0  0  0
  130.3669  130.7139  161.5111 H   0  0  0  0  0  0  0  0  0  0  0  0
  131.8912  130.2423  159.6356 H   0  0  0  0  0  0  0  0  0  0  0  0
  132.6599  132.0758  158.1829 H   0  0  0  0  0  0  0  0  0  0  0  0
  131.9041  134.3809  158.6055 H   0  0  0  0  0  0  0  0  0  0  0  0
  129.9104  137.7547  159.8241 H   0  0  0  0  0  0  0  0  0  0  0  0
  130.6608  137.7059  161.4374 H   0  0  0  0  0  0  0  0  0  0  0  0
  132.0751  138.4277  158.8302 H   0  0  0  0  0  0  0  0  0  0  0  0
  131.5815  139.5737  160.1003 H   0  0  0  0  0  0  0  0  0  0  0  0
  134.1321  138.6582  158.2047 H   0  0  0  0  0  0  0  0  0  0  0  0
  136.8595  141.6592  159.0875 H   0  0  0  0  0  0  0  0  0  0  0  0
  137.1165  142.5022  161.4224 H   0  0  0  0  0  0  0  0  0  0  0  0
  136.4394  142.3961  163.7609 H   0  0  0  0  0  0  0  0  0  0  0  0
  134.7049  140.8222  164.5019 H   0  0  0  0  0  0  0  0  0  0  0  0
  133.6165  139.3238  162.9152 H   0  0  0  0  0  0  0  0  0  0  0  0
  134.5263  136.7296  160.9680 H   0  0  0  0  0  0  0  0  0  0  0  0
  133.8058  136.7563  159.3402 H   0  0  0  0  0  0  0  0  0  0  0  0
  132.3406  136.0834  161.9324 H   0  0  0  0  0  0  0  0  0  0  0  0
  132.8508  134.9147  160.6906 H   0  0  0  0  0  0  0  0  0  0  0  0
  127.2802  133.9228  162.2645 H   0  0  0  0  0  0  0  0  0  0  0  0
  127.2953  134.1209  164.7166 H   0  0  0  0  0  0  0  0  0  0  0  0
  1 37  2  0
  1  2  1  0
  1 38  1  0
  2  3  2  0
  2 39  1  0
  3  4  1  0
  3 40  1  0
  4  5  1  0
  4 36  2  0
  5 10  1  0
  5  6  2  0
  6  7  1  0
  6 41  1  0
  7  8  2  0
  7 42  1  0
  8  9  1  0
  8 43  1  0
  9 10  2  0
  9 44  1  0
 10 11  1  0
 11 12  1  1
 11 13  1  0
 11 19  1  0
 13 18  1  0
 13 14  2  0
 14 15  1  0
 14 45  1  0
 15 16  2  0
 15 46  1  0
 16 17  1  0
 16 47  1  0
 17 18  2  0
 17 48  1  0
 18 49  1  0
 19 20  1  0
 19 35  1  0
 19 21  1  0
 21 22  1  0
 21 50  1  0
 21 51  1  0
 22 23  1  0
 22 52  1  0
 22 53  1  0
 23 24  1  0
 23 34  1  0
 24 33  1  0
 24 25  2  0
 25 26  1  0
 25 54  1  0
 26 27  2  0
 27 28  1  0
 27 55  1  0
 28 33  2  0
 28 29  1  0
 29 30  2  0
 29 56  1  0
 30 31  1  0
 30 57  1  0
 31 32  2  0
 31 58  1  0
 32 33  1  0
 32 59  1  0
 34 35  1  0
 34 60  1  0
 34 61  1  0
 35 62  1  0
 35 63  1  0
 36 37  1  0
 36 64  1  0
 37 65  1  0
M  CHG  1  19   1
M  END
>  <DOCK_score>  (1) 
-60.124489

>  <SMILES>  (1) 
c1ccc(-c2ccccc2[C@@H](c2ccccc2)[NH+]2CCN(c3cncc4ccccc34)CC2)cc1

$$$$
