c1ccc(-c2ccc(C[C@@H](Nc3[nH]cc(-c4cccnc4)[nH+]3)c3nc4ccccc4[nH]3)cc2)cc1
     RDKit          3D

 60 65  0  0  1  0  0  0  0  0999 V2000
  136.3600  141.3095  160.4425 C   0  0  0  0  0  0  0  0  0  0  0  0
  136.0760  140.4290  159.4141 C   0  0  0  0  0  0  0  0  0  0  0  0
  135.0933  139.4730  159.5725 C   0  0  0  0  0  0  0  0  0  0  0  0
  134.3794  139.4025  160.7672 C   0  0  0  0  0  0  0  0  0  0  0  0
  133.3176  138.3809  160.9410 C   0  0  0  0  0  0  0  0  0  0  0  0
  133.4066  137.1597  160.2756 C   0  0  0  0  0  0  0  0  0  0  0  0
  132.4184  136.2111  160.4446 C   0  0  0  0  0  0  0  0  0  0  0  0
  131.3358  136.4748  161.2641 C   0  0  0  0  0  0  0  0  0  0  0  0
  130.2573  135.4372  161.4406 C   0  0  0  0  0  0  0  0  0  0  0  0
  129.1761  135.6395  160.3772 C   0  0  1  0  0  0  0  0  0  0  0  0
  128.7439  136.6344  160.4832 H   0  0  0  0  0  0  0  0  0  0  0  0
  129.7702  135.5047  159.0448 N   0  0  0  0  0  0  0  0  0  0  0  0
  129.8167  134.2654  158.4298 C   0  0  0  0  0  0  0  0  0  0  0  0
  129.3521  133.1004  158.9580 N   0  0  0  0  0  0  0  0  0  0  0  0
  128.9323  132.9900  159.8255 H   0  0  0  0  0  0  0  0  0  0  0  0
  129.5851  132.1101  158.0349 C   0  0  0  0  0  0  0  0  0  0  0  0
  130.1921  132.6964  156.9734 C   0  0  0  0  0  0  0  0  0  0  0  0
  130.6364  132.0125  155.7344 C   0  0  0  0  0  0  0  0  0  0  0  0
  130.6559  132.6946  154.5144 C   0  0  0  0  0  0  0  0  0  0  0  0
  131.0832  132.0132  153.3880 C   0  0  0  0  0  0  0  0  0  0  0  0
  131.4637  130.6883  153.5026 C   0  0  0  0  0  0  0  0  0  0  0  0
  131.4299  130.0692  154.6668 N   0  0  0  0  0  0  0  0  0  0  0  0
  131.0356  130.6779  155.7666 C   0  0  0  0  0  0  0  0  0  0  0  0
  130.3206  134.0195  157.2451 N   0  0  0  0  0  0  0  0  0  0  0  0
  130.7217  134.6781  156.6566 H   0  0  0  0  0  0  0  0  0  0  0  0
  128.0976  134.6019  160.5535 C   0  0  0  0  0  0  0  0  0  0  0  0
  128.2847  133.4061  161.0311 N   0  0  0  0  0  0  0  0  0  0  0  0
  127.1048  132.7346  161.0559 C   0  0  0  0  0  0  0  0  0  0  0  0
  126.7353  131.4499  161.4632 C   0  0  0  0  0  0  0  0  0  0  0  0
  125.4335  131.0502  161.3569 C   0  0  0  0  0  0  0  0  0  0  0  0
  124.4688  131.9082  160.8478 C   0  0  0  0  0  0  0  0  0  0  0  0
  124.8105  133.1796  160.4390 C   0  0  0  0  0  0  0  0  0  0  0  0
  126.1287  133.6035  160.5399 C   0  0  0  0  0  0  0  0  0  0  0  0
  126.7876  134.7767  160.2311 N   0  0  0  0  0  0  0  0  0  0  0  0
  126.3902  135.5774  159.8547 H   0  0  0  0  0  0  0  0  0  0  0  0
  131.2397  137.6873  161.9230 C   0  0  0  0  0  0  0  0  0  0  0  0
  132.2248  138.6411  161.7654 C   0  0  0  0  0  0  0  0  0  0  0  0
  134.6661  140.2955  161.7977 C   0  0  0  0  0  0  0  0  0  0  0  0
  135.6545  141.2443  161.6304 C   0  0  0  0  0  0  0  0  0  0  0  0
  137.1324  142.0537  160.3156 H   0  0  0  0  0  0  0  0  0  0  0  0
  136.6271  140.4870  158.4871 H   0  0  0  0  0  0  0  0  0  0  0  0
  134.8750  138.7835  158.7705 H   0  0  0  0  0  0  0  0  0  0  0  0
  134.2493  136.9544  159.6321 H   0  0  0  0  0  0  0  0  0  0  0  0
  132.4883  135.2628  159.9326 H   0  0  0  0  0  0  0  0  0  0  0  0
  130.6896  134.4421  161.3344 H   0  0  0  0  0  0  0  0  0  0  0  0
  129.8152  135.5373  162.4319 H   0  0  0  0  0  0  0  0  0  0  0  0
  130.1310  136.2840  158.5936 H   0  0  0  0  0  0  0  0  0  0  0  0
  129.3362  131.0641  158.1366 H   0  0  0  0  0  0  0  0  0  0  0  0
  130.3491  133.7283  154.4530 H   0  0  0  0  0  0  0  0  0  0  0  0
  131.1148  132.5092  152.4292 H   0  0  0  0  0  0  0  0  0  0  0  0
  131.7940  130.1525  152.6251 H   0  0  0  0  0  0  0  0  0  0  0  0
  131.0219  130.1375  156.7016 H   0  0  0  0  0  0  0  0  0  0  0  0
  127.4779  130.7744  161.8616 H   0  0  0  0  0  0  0  0  0  0  0  0
  125.1519  130.0565  161.6727 H   0  0  0  0  0  0  0  0  0  0  0  0
  123.4438  131.5773  160.7704 H   0  0  0  0  0  0  0  0  0  0  0  0
  124.0558  133.8434  160.0432 H   0  0  0  0  0  0  0  0  0  0  0  0
  130.3926  137.8879  162.5620 H   0  0  0  0  0  0  0  0  0  0  0  0
  132.1490  139.5873  162.2804 H   0  0  0  0  0  0  0  0  0  0  0  0
  134.1155  140.2456  162.7255 H   0  0  0  0  0  0  0  0  0  0  0  0
  135.8777  141.9366  162.4286 H   0  0  0  0  0  0  0  0  0  0  0  0
  1 39  2  0
  1  2  1  0
  1 40  1  0
  2  3  2  0
  2 41  1  0
  3  4  1  0
  3 42  1  0
  4  5  1  0
  4 38  2  0
  5 37  1  0
  5  6  2  0
  6  7  1  0
  6 43  1  0
  7  8  2  0
  7 44  1  0
  8  9  1  0
  8 36  1  0
  9 10  1  0
  9 45  1  0
  9 46  1  0
 10 11  1  6
 10 12  1  0
 10 26  1  0
 12 47  1  0
 13 12  1  0
 13 24  2  0
 13 14  1  0
 14 15  1  0
 14 16  1  0
 16 17  2  0
 16 48  1  0
 17 18  1  0
 17 24  1  0
 18 23  1  0
 18 19  2  0
 19 20  1  0
 19 49  1  0
 20 21  2  0
 20 50  1  0
 21 22  1  0
 21 51  1  0
 22 23  2  0
 23 52  1  0
 24 25  1  0
 26 34  1  0
 26 27  2  0
 27 28  1  0
 28 33  2  0
 28 29  1  0
 29 30  2  0
 29 53  1  0
 30 31  1  0
 30 54  1  0
 31 32  2  0
 31 55  1  0
 32 33  1  0
 32 56  1  0
 33 34  1  0
 34 35  1  0
 36 37  2  0
 36 57  1  0
 37 58  1  0
 38 39  1  0
 38 59  1  0
 39 60  1  0
M  CHG  1  24   1
M  END
>  <DOCK_score>  (1) 
-60.55508

>  <SMILES>  (1) 
c1ccc(-c2ccc(C[C@@H](Nc3[nH]cc(-c4cccnc4)[nH+]3)c3nc4ccccc4[nH]3)cc2)cc1

$$$$
