FC1(F)C[C@H]1CNc1cc(Nc2[nH]c3ccccc3[nH+]2)cc2ccccc12
     RDKit          3D

 46 50  0  0  1  0  0  0  0  0999 V2000
  123.3362  131.6178  160.6683 F   0  0  0  0  0  0  0  0  0  0  0  0
  124.6234  132.0439  161.0128 C   0  0  0  0  0  0  0  0  0  0  0  0
  125.6731  131.3108  160.4488 F   0  0  0  0  0  0  0  0  0  0  0  0
  124.8291  132.6024  162.4223 C   0  0  0  0  0  0  0  0  0  0  0  0
  124.8398  133.5447  161.2169 C   0  0  1  0  0  0  0  0  0  0  0  0
  123.9793  134.2003  161.0831 H   0  0  0  0  0  0  0  0  0  0  0  0
  126.1874  134.1288  160.7888 C   0  0  0  0  0  0  0  0  0  0  0  0
  126.4027  135.4090  161.4678 N   0  0  0  0  0  0  0  0  0  0  0  0
  127.5695  136.1333  161.2348 C   0  0  0  0  0  0  0  0  0  0  0  0
  128.5202  135.6527  160.3627 C   0  0  0  0  0  0  0  0  0  0  0  0
  129.6973  136.3681  160.1254 C   0  0  0  0  0  0  0  0  0  0  0  0
  130.6501  135.8562  159.2400 N   0  0  0  0  0  0  0  0  0  0  0  0
  130.7840  134.4950  159.0846 C   0  0  0  0  0  0  0  0  0  0  0  0
  131.1801  133.8908  157.9665 N   0  0  0  0  0  0  0  0  0  0  0  0
  131.4194  134.3329  157.1371 H   0  0  0  0  0  0  0  0  0  0  0  0
  131.1930  132.5387  158.1860 C   0  0  0  0  0  0  0  0  0  0  0  0
  131.5139  131.4379  157.3967 C   0  0  0  0  0  0  0  0  0  0  0  0
  131.4232  130.1678  157.9232 C   0  0  0  0  0  0  0  0  0  0  0  0
  131.0148  129.9776  159.2352 C   0  0  0  0  0  0  0  0  0  0  0  0
  130.6928  131.0562  160.0301 C   0  0  0  0  0  0  0  0  0  0  0  0
  130.7786  132.3462  159.5140 C   0  0  0  0  0  0  0  0  0  0  0  0
  130.5362  133.5916  160.0303 N   0  0  0  0  0  0  0  0  0  0  0  0
  130.2347  133.7828  160.9322 H   0  0  0  0  0  0  0  0  0  0  0  0
  129.9273  137.5752  160.7500 C   0  0  0  0  0  0  0  0  0  0  0  0
  128.9728  138.0932  161.6402 C   0  0  0  0  0  0  0  0  0  0  0  0
  129.1790  139.3223  162.2920 C   0  0  0  0  0  0  0  0  0  0  0  0
  128.2339  139.7973  163.1484 C   0  0  0  0  0  0  0  0  0  0  0  0
  127.0624  139.0829  163.3911 C   0  0  0  0  0  0  0  0  0  0  0  0
  126.8297  137.8896  162.7776 C   0  0  0  0  0  0  0  0  0  0  0  0
  127.7809  137.3678  161.8875 C   0  0  0  0  0  0  0  0  0  0  0  0
  125.7823  132.3985  162.9102 H   0  0  0  0  0  0  0  0  0  0  0  0
  123.9615  132.6377  163.0811 H   0  0  0  0  0  0  0  0  0  0  0  0
  126.1895  134.2849  159.7100 H   0  0  0  0  0  0  0  0  0  0  0  0
  126.9854  133.4364  161.0573 H   0  0  0  0  0  0  0  0  0  0  0  0
  125.7327  135.7521  162.0797 H   0  0  0  0  0  0  0  0  0  0  0  0
  128.3568  134.7109  159.8602 H   0  0  0  0  0  0  0  0  0  0  0  0
  131.2168  136.4601  158.7350 H   0  0  0  0  0  0  0  0  0  0  0  0
  131.8291  131.5787  156.3732 H   0  0  0  0  0  0  0  0  0  0  0  0
  131.6725  129.3141  157.3102 H   0  0  0  0  0  0  0  0  0  0  0  0
  130.9476  128.9770  159.6363 H   0  0  0  0  0  0  0  0  0  0  0  0
  130.3745  130.9011  161.0505 H   0  0  0  0  0  0  0  0  0  0  0  0
  130.8385  138.1210  160.5551 H   0  0  0  0  0  0  0  0  0  0  0  0
  130.0826  139.8862  162.1139 H   0  0  0  0  0  0  0  0  0  0  0  0
  128.3946  140.7414  163.6478 H   0  0  0  0  0  0  0  0  0  0  0  0
  126.3282  139.4815  164.0755 H   0  0  0  0  0  0  0  0  0  0  0  0
  125.9171  137.3470  162.9754 H   0  0  0  0  0  0  0  0  0  0  0  0
  1  2  1  0
  2  5  1  0
  2  3  1  0
  2  4  1  0
  4  5  1  0
  4 31  1  0
  4 32  1  0
  5  6  1  1
  5  7  1  0
  7  8  1  0
  7 33  1  0
  7 34  1  0
  8  9  1  0
  8 35  1  0
  9 30  1  0
  9 10  2  0
 10 11  1  0
 10 36  1  0
 11 12  1  0
 11 24  2  0
 12 13  1  0
 12 37  1  0
 13 22  1  0
 13 14  2  0
 14 15  1  0
 14 16  1  0
 16 21  2  0
 16 17  1  0
 17 18  2  0
 17 38  1  0
 18 19  1  0
 18 39  1  0
 19 20  2  0
 19 40  1  0
 20 21  1  0
 20 41  1  0
 21 22  1  0
 22 23  1  0
 24 25  1  0
 24 42  1  0
 25 30  2  0
 25 26  1  0
 26 27  2  0
 26 43  1  0
 27 28  1  0
 27 44  1  0
 28 29  2  0
 28 45  1  0
 29 30  1  0
 29 46  1  0
M  CHG  1  14   1
M  END
>  <DOCK_score>  (1) 
-48.057758

>  <SMILES>  (1) 
FC1(F)C[C@H]1CNc1cc(Nc2[nH]c3ccccc3[nH+]2)cc2ccccc12

$$$$
