Nc1ccc(Nc2ccc(Nc3[nH]cc(-c4ccc(N)cc4)[nH+]3)cc2)cc1
     RDKit          3D

 48 51  0  0  1  0  0  0  0  0999 V2000
  127.4120  135.6329  167.3768 N   0  0  0  0  0  0  0  0  0  0  0  0
  127.1397  135.8448  166.0202 C   0  0  0  0  0  0  0  0  0  0  0  0
  127.6795  134.9961  165.0628 C   0  0  0  0  0  0  0  0  0  0  0  0
  127.4105  135.2048  163.7247 C   0  0  0  0  0  0  0  0  0  0  0  0
  126.5999  136.2637  163.3362 C   0  0  0  0  0  0  0  0  0  0  0  0
  126.3272  136.4753  161.9795 N   0  0  0  0  0  0  0  0  0  0  0  0
  127.2674  136.1064  161.0109 C   0  0  0  0  0  0  0  0  0  0  0  0
  126.9306  135.1781  160.0340 C   0  0  0  0  0  0  0  0  0  0  0  0
  127.8603  134.8096  159.0821 C   0  0  0  0  0  0  0  0  0  0  0  0
  129.1286  135.3755  159.0947 C   0  0  0  0  0  0  0  0  0  0  0  0
  130.0698  135.0055  158.1260 N   0  0  0  0  0  0  0  0  0  0  0  0
  130.0365  133.7339  157.5781 C   0  0  0  0  0  0  0  0  0  0  0  0
  129.6049  132.6090  158.2111 N   0  0  0  0  0  0  0  0  0  0  0  0
  129.2683  132.5538  159.1191 H   0  0  0  0  0  0  0  0  0  0  0  0
  129.7311  131.5662  157.3246 C   0  0  0  0  0  0  0  0  0  0  0  0
  130.2441  132.0825  156.1803 C   0  0  0  0  0  0  0  0  0  0  0  0
  130.5563  131.3246  154.9438 C   0  0  0  0  0  0  0  0  0  0  0  0
  129.9218  131.6508  153.7462 C   0  0  0  0  0  0  0  0  0  0  0  0
  130.2178  130.9489  152.5968 C   0  0  0  0  0  0  0  0  0  0  0  0
  131.1392  129.9090  152.6343 C   0  0  0  0  0  0  0  0  0  0  0  0
  131.4327  129.1953  151.4699 N   0  0  0  0  0  0  0  0  0  0  0  0
  131.7692  129.5787  153.8282 C   0  0  0  0  0  0  0  0  0  0  0  0
  131.4804  130.2816  154.9789 C   0  0  0  0  0  0  0  0  0  0  0  0
  130.4208  133.4142  156.3661 N   0  0  0  0  0  0  0  0  0  0  0  0
  130.7749  134.0318  155.7072 H   0  0  0  0  0  0  0  0  0  0  0  0
  129.4637  136.3077  160.0680 C   0  0  0  0  0  0  0  0  0  0  0  0
  128.5361  136.6722  161.0233 C   0  0  0  0  0  0  0  0  0  0  0  0
  126.0648  137.1158  164.2934 C   0  0  0  0  0  0  0  0  0  0  0  0
  126.3291  136.9036  165.6318 C   0  0  0  0  0  0  0  0  0  0  0  0
  127.9778  134.8932  167.6481 H   0  0  0  0  0  0  0  0  0  0  0  0
  127.0348  136.2256  168.0456 H   0  0  0  0  0  0  0  0  0  0  0  0
  128.3100  134.1729  165.3648 H   0  0  0  0  0  0  0  0  0  0  0  0
  127.8308  134.5450  162.9800 H   0  0  0  0  0  0  0  0  0  0  0  0
  125.4865  136.8777  161.7110 H   0  0  0  0  0  0  0  0  0  0  0  0
  125.9429  134.7415  160.0216 H   0  0  0  0  0  0  0  0  0  0  0  0
  127.5998  134.0847  158.3253 H   0  0  0  0  0  0  0  0  0  0  0  0
  130.7451  135.6399  157.8386 H   0  0  0  0  0  0  0  0  0  0  0  0
  129.4753  130.5327  157.5062 H   0  0  0  0  0  0  0  0  0  0  0  0
  129.2019  132.4553  153.7177 H   0  0  0  0  0  0  0  0  0  0  0  0
  129.7298  131.2041  151.6678 H   0  0  0  0  0  0  0  0  0  0  0  0
  132.0761  128.4695  151.4953 H   0  0  0  0  0  0  0  0  0  0  0  0
  130.9937  129.4251  150.6363 H   0  0  0  0  0  0  0  0  0  0  0  0
  132.4851  128.7704  153.8551 H   0  0  0  0  0  0  0  0  0  0  0  0
  131.9702  130.0244  155.9065 H   0  0  0  0  0  0  0  0  0  0  0  0
  130.4498  136.7480  160.0774 H   0  0  0  0  0  0  0  0  0  0  0  0
  128.7966  137.3970  161.7804 H   0  0  0  0  0  0  0  0  0  0  0  0
  125.4384  137.9421  163.9911 H   0  0  0  0  0  0  0  0  0  0  0  0
  125.9094  137.5637  166.3766 H   0  0  0  0  0  0  0  0  0  0  0  0
  1  2  1  0
  1 30  1  0
  1 31  1  0
  2 29  2  0
  2  3  1  0
  3  4  2  0
  3 32  1  0
  4  5  1  0
  4 33  1  0
  5  6  1  0
  5 28  2  0
  6  7  1  0
  6 34  1  0
  7 27  1  0
  7  8  2  0
  8  9  1  0
  8 35  1  0
  9 10  2  0
  9 36  1  0
 10 11  1  0
 10 26  1  0
 11 37  1  0
 12 11  1  0
 12 24  2  0
 12 13  1  0
 13 14  1  0
 13 15  1  0
 15 16  2  0
 15 38  1  0
 16 17  1  0
 16 24  1  0
 17 23  1  0
 17 18  2  0
 18 19  1  0
 18 39  1  0
 19 20  2  0
 19 40  1  0
 20 21  1  0
 20 22  1  0
 21 41  1  0
 21 42  1  0
 22 23  2  0
 22 43  1  0
 23 44  1  0
 24 25  1  0
 26 27  2  0
 26 45  1  0
 27 46  1  0
 28 29  1  0
 28 47  1  0
 29 48  1  0
M  CHG  1  24   1
M  END
>  <DOCK_score>  (1) 
-57.595417

>  <SMILES>  (1) 
Nc1ccc(Nc2ccc(Nc3[nH]cc(-c4ccc(N)cc4)[nH+]3)cc2)cc1

$$$$
