Cc1cccc(-c2ccc(-c3n[nH]cc3C[NH2+]CCc3ccc(N)cc3)cc2)c1
     RDKit          3D

 56 59  0  0  0  0  0  0  0  0999 V2000
  130.1040  130.9819  151.5007 C   0  0  0  0  0  0  0  0  0  0  0  0
  130.4826  130.8133  152.9496 C   0  0  0  0  0  0  0  0  0  0  0  0
  131.3629  129.8130  153.3212 C   0  0  0  0  0  0  0  0  0  0  0  0
  131.7148  129.6524  154.6492 C   0  0  0  0  0  0  0  0  0  0  0  0
  131.1879  130.4899  155.6116 C   0  0  0  0  0  0  0  0  0  0  0  0
  130.3004  131.4991  155.2431 C   0  0  0  0  0  0  0  0  0  0  0  0
  129.7311  132.4022  156.2725 C   0  0  0  0  0  0  0  0  0  0  0  0
  129.3892  133.7123  155.9387 C   0  0  0  0  0  0  0  0  0  0  0  0
  128.8600  134.5510  156.8949 C   0  0  0  0  0  0  0  0  0  0  0  0
  128.6662  134.0900  158.1965 C   0  0  0  0  0  0  0  0  0  0  0  0
  128.0964  134.9932  159.2261 C   0  0  0  0  0  0  0  0  0  0  0  0
  126.9172  135.5766  159.1777 N   0  0  0  0  0  0  0  0  0  0  0  0
  126.7629  136.3434  160.3396 N   0  0  0  0  0  0  0  0  0  0  0  0
  125.9884  136.8806  160.5684 H   0  0  0  0  0  0  0  0  0  0  0  0
  127.8821  136.2094  161.0835 C   0  0  0  0  0  0  0  0  0  0  0  0
  128.7217  135.3787  160.4281 C   0  0  0  0  0  0  0  0  0  0  0  0
  130.0870  134.9460  160.8968 C   0  0  0  0  0  0  0  0  0  0  0  0
  131.0964  135.8935  160.4056 N   0  0  0  0  0  0  0  0  0  0  0  0
  131.0773  135.9125  159.3969 H   0  0  0  0  0  0  0  0  0  0  0  0
  130.8947  136.8152  160.7631 H   0  0  0  0  0  0  0  0  0  0  0  0
  132.4274  135.4716  160.8623 C   0  0  0  0  0  0  0  0  0  0  0  0
  133.4787  136.4585  160.3508 C   0  0  0  0  0  0  0  0  0  0  0  0
  133.1774  137.8351  160.8850 C   0  0  0  0  0  0  0  0  0  0  0  0
  133.7183  138.2406  162.0913 C   0  0  0  0  0  0  0  0  0  0  0  0
  133.4489  139.5036  162.5808 C   0  0  0  0  0  0  0  0  0  0  0  0
  132.6242  140.3627  161.8656 C   0  0  0  0  0  0  0  0  0  0  0  0
  132.3447  141.6385  162.3609 N   0  0  0  0  0  0  0  0  0  0  0  0
  132.0780  139.9501  160.6569 C   0  0  0  0  0  0  0  0  0  0  0  0
  132.3561  138.6878  160.1703 C   0  0  0  0  0  0  0  0  0  0  0  0
  129.0134  132.7818  158.5317 C   0  0  0  0  0  0  0  0  0  0  0  0
  129.5373  131.9412  157.5742 C   0  0  0  0  0  0  0  0  0  0  0  0
  129.9452  131.6528  153.9039 C   0  0  0  0  0  0  0  0  0  0  0  0
  129.2239  130.3770  151.2823 H   0  0  0  0  0  0  0  0  0  0  0  0
  129.8823  132.0306  151.3027 H   0  0  0  0  0  0  0  0  0  0  0  0
  130.9320  130.6600  150.8690 H   0  0  0  0  0  0  0  0  0  0  0  0
  131.7771  129.1554  152.5713 H   0  0  0  0  0  0  0  0  0  0  0  0
  132.4027  128.8699  154.9336 H   0  0  0  0  0  0  0  0  0  0  0  0
  131.4628  130.3632  156.6483 H   0  0  0  0  0  0  0  0  0  0  0  0
  129.5390  134.0693  154.9304 H   0  0  0  0  0  0  0  0  0  0  0  0
  128.5949  135.5655  156.6362 H   0  0  0  0  0  0  0  0  0  0  0  0
  128.0715  136.6817  162.0361 H   0  0  0  0  0  0  0  0  0  0  0  0
  130.1076  134.9256  161.9864 H   0  0  0  0  0  0  0  0  0  0  0  0
  130.3050  133.9503  160.5105 H   0  0  0  0  0  0  0  0  0  0  0  0
  132.4480  135.4510  161.9519 H   0  0  0  0  0  0  0  0  0  0  0  0
  132.6453  134.4759  160.4760 H   0  0  0  0  0  0  0  0  0  0  0  0
  134.4662  136.1455  160.6896 H   0  0  0  0  0  0  0  0  0  0  0  0
  133.4580  136.4790  159.2612 H   0  0  0  0  0  0  0  0  0  0  0  0
  134.3554  137.5704  162.6491 H   0  0  0  0  0  0  0  0  0  0  0  0
  133.8752  139.8213  163.5209 H   0  0  0  0  0  0  0  0  0  0  0  0
  131.7685  142.2373  161.8606 H   0  0  0  0  0  0  0  0  0  0  0  0
  132.7267  141.9255  163.2050 H   0  0  0  0  0  0  0  0  0  0  0  0
  131.4368  140.6157  160.0981 H   0  0  0  0  0  0  0  0  0  0  0  0
  131.9314  138.3663  159.2308 H   0  0  0  0  0  0  0  0  0  0  0  0
  128.8674  132.4262  159.5409 H   0  0  0  0  0  0  0  0  0  0  0  0
  129.8017  130.9265  157.8327 H   0  0  0  0  0  0  0  0  0  0  0  0
  129.2540  132.4301  153.6133 H   0  0  0  0  0  0  0  0  0  0  0  0
  1  2  1  0
  1 33  1  0
  1 34  1  0
  1 35  1  0
  2 32  2  0
  2  3  1  0
  3  4  2  0
  3 36  1  0
  4  5  1  0
  4 37  1  0
  5  6  2  0
  5 38  1  0
  6  7  1  0
  6 32  1  0
  7 31  1  0
  7  8  2  0
  8  9  1  0
  8 39  1  0
  9 10  2  0
  9 40  1  0
 10 11  1  0
 10 30  1  0
 11 16  1  0
 11 12  2  0
 12 13  1  0
 13 14  1  0
 13 15  1  0
 15 16  2  0
 15 41  1  0
 16 17  1  0
 17 18  1  0
 17 42  1  0
 17 43  1  0
 18 19  1  0
 18 20  1  0
 18 21  1  0
 21 22  1  0
 21 44  1  0
 21 45  1  0
 22 23  1  0
 22 46  1  0
 22 47  1  0
 23 29  1  0
 23 24  2  0
 24 25  1  0
 24 48  1  0
 25 26  2  0
 25 49  1  0
 26 27  1  0
 26 28  1  0
 27 50  1  0
 27 51  1  0
 28 29  2  0
 28 52  1  0
 29 53  1  0
 30 31  2  0
 30 54  1  0
 31 55  1  0
 32 56  1  0
M  CHG  1  18   1
M  END
>  <DOCK_score>  (1) 
-46.00293

>  <SMILES>  (1) 
Cc1cccc(-c2ccc(-c3n[nH]cc3C[NH2+]CCc3ccc(N)cc3)cc2)c1

$$$$
