CCCC=Cc1c(C)cccc1N1CC[NH+]([C@@H](c2ccccc2)c2ccccc2Cl)CC1
     RDKit          3D

 66 69  0  0  1  0  0  0  0  0999 V2000
  131.1612  137.3623  166.3421 C   0  0  0  0  0  0  0  0  0  0  0  0
  130.6860  136.0179  165.7876 C   0  0  0  0  0  0  0  0  0  0  0  0
  131.8643  135.2882  165.1396 C   0  0  0  0  0  0  0  0  0  0  0  0
  132.4188  136.1269  164.0170 C   0  0  0  0  0  0  0  0  0  0  0  0
  133.7059  136.0517  163.7062 C   0  0  0  0  0  0  0  0  0  0  0  0
  134.2493  136.8738  162.6060 C   0  0  0  0  0  0  0  0  0  0  0  0
  135.2634  137.7983  162.8563 C   0  0  0  0  0  0  0  0  0  0  0  0
  135.8075  137.9618  164.2521 C   0  0  0  0  0  0  0  0  0  0  0  0
  135.7675  138.5632  161.8247 C   0  0  0  0  0  0  0  0  0  0  0  0
  135.2718  138.4176  160.5403 C   0  0  0  0  0  0  0  0  0  0  0  0
  134.2709  137.5025  160.2776 C   0  0  0  0  0  0  0  0  0  0  0  0
  133.7491  136.7291  161.3045 C   0  0  0  0  0  0  0  0  0  0  0  0
  132.7359  135.8080  161.0423 N   0  0  0  0  0  0  0  0  0  0  0  0
  131.5140  136.4851  160.5854 C   0  0  0  0  0  0  0  0  0  0  0  0
  130.4110  135.4472  160.3663 C   0  0  0  0  0  0  0  0  0  0  0  0
  130.8521  134.4677  159.3646 N   0  0  0  0  0  0  0  0  0  0  0  0
  131.0582  134.9422  158.4983 H   0  0  0  0  0  0  0  0  0  0  0  0
  129.7861  133.4820  159.1413 C   0  0  1  0  0  0  0  0  0  0  0  0
  129.5632  132.9695  160.0772 H   0  0  0  0  0  0  0  0  0  0  0  0
  128.5482  134.1844  158.6460 C   0  0  0  0  0  0  0  0  0  0  0  0
  127.2987  133.6669  158.9320 C   0  0  0  0  0  0  0  0  0  0  0  0
  126.1630  134.3137  158.4814 C   0  0  0  0  0  0  0  0  0  0  0  0
  126.2772  135.4727  157.7367 C   0  0  0  0  0  0  0  0  0  0  0  0
  127.5269  135.9874  157.4466 C   0  0  0  0  0  0  0  0  0  0  0  0
  128.6624  135.3431  157.9009 C   0  0  0  0  0  0  0  0  0  0  0  0
  130.2384  132.4768  158.1136 C   0  0  0  0  0  0  0  0  0  0  0  0
  130.5785  132.8950  156.8407 C   0  0  0  0  0  0  0  0  0  0  0  0
  130.9984  131.9739  155.8995 C   0  0  0  0  0  0  0  0  0  0  0  0
  131.0677  130.6325  156.2272 C   0  0  0  0  0  0  0  0  0  0  0  0
  130.7230  130.2126  157.4978 C   0  0  0  0  0  0  0  0  0  0  0  0
  130.3080  131.1350  158.4422 C   0  0  0  0  0  0  0  0  0  0  0  0
  129.8742  130.6082  160.0385 Cl  0  0  0  0  0  0  0  0  0  0  0  0
  132.0589  133.7826  159.8462 C   0  0  0  0  0  0  0  0  0  0  0  0
  133.1758  134.8065  160.0607 C   0  0  0  0  0  0  0  0  0  0  0  0
  130.3217  137.8821  166.8038 H   0  0  0  0  0  0  0  0  0  0  0  0
  131.9384  137.1936  167.0876 H   0  0  0  0  0  0  0  0  0  0  0  0
  131.5622  137.9690  165.5301 H   0  0  0  0  0  0  0  0  0  0  0  0
  129.9089  136.1866  165.0421 H   0  0  0  0  0  0  0  0  0  0  0  0
  130.2850  135.4112  166.5995 H   0  0  0  0  0  0  0  0  0  0  0  0
  131.5258  134.3304  164.7445 H   0  0  0  0  0  0  0  0  0  0  0  0
  132.6415  135.1195  165.8849 H   0  0  0  0  0  0  0  0  0  0  0  0
  131.7679  136.7894  163.4656 H   0  0  0  0  0  0  0  0  0  0  0  0
  134.3568  135.3894  164.2575 H   0  0  0  0  0  0  0  0  0  0  0  0
  136.6442  137.2787  164.3982 H   0  0  0  0  0  0  0  0  0  0  0  0
  136.1475  138.9879  164.3918 H   0  0  0  0  0  0  0  0  0  0  0  0
  135.0242  137.7368  164.9759 H   0  0  0  0  0  0  0  0  0  0  0  0
  136.5527  139.2785  162.0200 H   0  0  0  0  0  0  0  0  0  0  0  0
  135.6720  139.0205  159.7386 H   0  0  0  0  0  0  0  0  0  0  0  0
  133.8916  137.3916  159.2725 H   0  0  0  0  0  0  0  0  0  0  0  0
  131.7149  137.0054  159.6491 H   0  0  0  0  0  0  0  0  0  0  0  0
  131.1927  137.2034  161.3396 H   0  0  0  0  0  0  0  0  0  0  0  0
  129.5079  135.9456  160.0138 H   0  0  0  0  0  0  0  0  0  0  0  0
  130.2008  134.9364  161.3060 H   0  0  0  0  0  0  0  0  0  0  0  0
  127.2096  132.7592  159.5105 H   0  0  0  0  0  0  0  0  0  0  0  0
  125.1867  133.9116  158.7083 H   0  0  0  0  0  0  0  0  0  0  0  0
  125.3901  135.9760  157.3818 H   0  0  0  0  0  0  0  0  0  0  0  0
  127.6162  136.8929  156.8647 H   0  0  0  0  0  0  0  0  0  0  0  0
  129.6388  135.7451  157.6740 H   0  0  0  0  0  0  0  0  0  0  0  0
  130.5200  133.9420  156.5826 H   0  0  0  0  0  0  0  0  0  0  0  0
  131.2686  132.3016  154.9065 H   0  0  0  0  0  0  0  0  0  0  0  0
  131.3916  129.9126  155.4901 H   0  0  0  0  0  0  0  0  0  0  0  0
  130.7771  129.1647  157.7537 H   0  0  0  0  0  0  0  0  0  0  0  0
  131.8402  133.2804  160.7885 H   0  0  0  0  0  0  0  0  0  0  0  0
  132.3779  133.0466  159.1080 H   0  0  0  0  0  0  0  0  0  0  0  0
  133.4041  135.2992  159.1156 H   0  0  0  0  0  0  0  0  0  0  0  0
  134.0671  134.3005  160.4317 H   0  0  0  0  0  0  0  0  0  0  0  0
  1  2  1  0
  1 35  1  0
  1 36  1  0
  1 37  1  0
  2  3  1  0
  2 38  1  0
  2 39  1  0
  3  4  1  0
  3 40  1  0
  3 41  1  0
  4  5  2  0
  4 42  1  0
  5  6  1  0
  5 43  1  0
  6 12  2  0
  6  7  1  0
  7  8  1  0
  7  9  2  0
  8 44  1  0
  8 45  1  0
  8 46  1  0
  9 10  1  0
  9 47  1  0
 10 11  2  0
 10 48  1  0
 11 12  1  0
 11 49  1  0
 12 13  1  0
 13 34  1  0
 13 14  1  0
 14 15  1  0
 14 50  1  0
 14 51  1  0
 15 16  1  0
 15 52  1  0
 15 53  1  0
 16 17  1  0
 16 18  1  0
 16 33  1  0
 18 19  1  1
 18 20  1  0
 18 26  1  0
 20 25  1  0
 20 21  2  0
 21 22  1  0
 21 54  1  0
 22 23  2  0
 22 55  1  0
 23 24  1  0
 23 56  1  0
 24 25  2  0
 24 57  1  0
 25 58  1  0
 26 31  1  0
 26 27  2  0
 27 28  1  0
 27 59  1  0
 28 29  2  0
 28 60  1  0
 29 30  1  0
 29 61  1  0
 30 31  2  0
 30 62  1  0
 31 32  1  0
 33 34  1  0
 33 63  1  0
 33 64  1  0
 34 65  1  0
 34 66  1  0
M  CHG  1  16   1
M  END
>  <DOCK_score>  (1) 
-56.000282

>  <SMILES>  (1) 
CCCC=Cc1c(C)cccc1N1CC[NH+]([C@@H](c2ccccc2)c2ccccc2Cl)CC1

$$$$
