CCc1ccc(-c2c[nH]c(Nc3cc(N)ccc3Sc3ccccc3)[nH+]2)cc1
     RDKit          3D

 51 54  0  0  1  0  0  0  0  0999 V2000
  130.1117  128.4868  151.4949 C   0  0  0  0  0  0  0  0  0  0  0  0
  131.1650  129.5860  151.6455 C   0  0  0  0  0  0  0  0  0  0  0  0
  130.9510  130.3120  152.9487 C   0  0  0  0  0  0  0  0  0  0  0  0
  131.5843  129.8685  154.0958 C   0  0  0  0  0  0  0  0  0  0  0  0
  131.3966  130.5324  155.2912 C   0  0  0  0  0  0  0  0  0  0  0  0
  130.5583  131.6446  155.3435 C   0  0  0  0  0  0  0  0  0  0  0  0
  130.3484  132.3590  156.6265 C   0  0  0  0  0  0  0  0  0  0  0  0
  129.8391  131.8237  157.7639 C   0  0  0  0  0  0  0  0  0  0  0  0
  129.8185  132.8266  158.7018 N   0  0  0  0  0  0  0  0  0  0  0  0
  129.5068  132.7506  159.6173 H   0  0  0  0  0  0  0  0  0  0  0  0
  130.3163  133.9467  158.1099 C   0  0  0  0  0  0  0  0  0  0  0  0
  130.4650  135.1822  158.7176 N   0  0  0  0  0  0  0  0  0  0  0  0
  130.0879  135.3545  160.0548 C   0  0  0  0  0  0  0  0  0  0  0  0
  128.7934  135.7404  160.3672 C   0  0  0  0  0  0  0  0  0  0  0  0
  128.4224  135.9101  161.6942 C   0  0  0  0  0  0  0  0  0  0  0  0
  127.1158  136.2995  162.0103 N   0  0  0  0  0  0  0  0  0  0  0  0
  129.3463  135.6933  162.7081 C   0  0  0  0  0  0  0  0  0  0  0  0
  130.6374  135.3086  162.3996 C   0  0  0  0  0  0  0  0  0  0  0  0
  131.0124  135.1329  161.0757 C   0  0  0  0  0  0  0  0  0  0  0  0
  132.6569  134.6361  160.6838 S   0  0  0  0  0  0  0  0  0  0  0  0
  133.6025  135.3170  162.0053 C   0  0  0  0  0  0  0  0  0  0  0  0
  133.6090  136.6900  162.2219 C   0  0  0  0  0  0  0  0  0  0  0  0
  134.3477  137.2197  163.2612 C   0  0  0  0  0  0  0  0  0  0  0  0
  135.0883  136.3869  164.0803 C   0  0  0  0  0  0  0  0  0  0  0  0
  135.0884  135.0206  163.8645 C   0  0  0  0  0  0  0  0  0  0  0  0
  134.3482  134.4833  162.8303 C   0  0  0  0  0  0  0  0  0  0  0  0
  130.6372  133.6613  156.8713 N   0  0  0  0  0  0  0  0  0  0  0  0
  131.0180  134.2830  156.2314 H   0  0  0  0  0  0  0  0  0  0  0  0
  129.9185  132.0835  154.1857 C   0  0  0  0  0  0  0  0  0  0  0  0
  130.1178  131.4153  152.9946 C   0  0  0  0  0  0  0  0  0  0  0  0
  130.2662  127.9623  150.5521 H   0  0  0  0  0  0  0  0  0  0  0  0
  130.2017  127.7823  152.3217 H   0  0  0  0  0  0  0  0  0  0  0  0
  129.1169  128.9324  151.5040 H   0  0  0  0  0  0  0  0  0  0  0  0
  132.1594  129.1410  151.6360 H   0  0  0  0  0  0  0  0  0  0  0  0
  131.0745  130.2912  150.8184 H   0  0  0  0  0  0  0  0  0  0  0  0
  132.2302  129.0040  154.0550 H   0  0  0  0  0  0  0  0  0  0  0  0
  131.8951  130.1880  156.1852 H   0  0  0  0  0  0  0  0  0  0  0  0
  129.5123  130.8040  157.9049 H   0  0  0  0  0  0  0  0  0  0  0  0
  130.8303  135.9283  158.2167 H   0  0  0  0  0  0  0  0  0  0  0  0
  128.0746  135.9091  159.5791 H   0  0  0  0  0  0  0  0  0  0  0  0
  126.4699  136.4507  161.3025 H   0  0  0  0  0  0  0  0  0  0  0  0
  126.8560  136.4183  162.9374 H   0  0  0  0  0  0  0  0  0  0  0  0
  129.0555  135.8259  163.7398 H   0  0  0  0  0  0  0  0  0  0  0  0
  131.3537  135.1404  163.1902 H   0  0  0  0  0  0  0  0  0  0  0  0
  133.0342  137.3414  161.5802 H   0  0  0  0  0  0  0  0  0  0  0  0
  134.3503  138.2861  163.4324 H   0  0  0  0  0  0  0  0  0  0  0  0
  135.6682  136.8043  164.8901 H   0  0  0  0  0  0  0  0  0  0  0  0
  135.6679  134.3734  164.5060 H   0  0  0  0  0  0  0  0  0  0  0  0
  134.3491  133.4165  162.6621 H   0  0  0  0  0  0  0  0  0  0  0  0
  129.2675  132.9446  154.2206 H   0  0  0  0  0  0  0  0  0  0  0  0
  129.6222  131.7542  152.0971 H   0  0  0  0  0  0  0  0  0  0  0  0
  1  2  1  0
  1 31  1  0
  1 32  1  0
  1 33  1  0
  2  3  1  0
  2 34  1  0
  2 35  1  0
  3 30  2  0
  3  4  1  0
  4  5  2  0
  4 36  1  0
  5  6  1  0
  5 37  1  0
  6  7  1  0
  6 29  2  0
  7 27  1  0
  7  8  2  0
  8  9  1  0
  8 38  1  0
  9 10  1  0
  9 11  1  0
 11 12  1  0
 11 27  2  0
 12 13  1  0
 12 39  1  0
 13 19  1  0
 13 14  2  0
 14 15  1  0
 14 40  1  0
 15 16  1  0
 15 17  2  0
 16 41  1  0
 16 42  1  0
 17 18  1  0
 17 43  1  0
 18 19  2  0
 18 44  1  0
 19 20  1  0
 20 21  1  0
 21 26  1  0
 21 22  2  0
 22 23  1  0
 22 45  1  0
 23 24  2  0
 23 46  1  0
 24 25  1  0
 24 47  1  0
 25 26  2  0
 25 48  1  0
 26 49  1  0
 27 28  1  0
 29 30  1  0
 29 50  1  0
 30 51  1  0
M  CHG  1  27   1
M  END
>  <DOCK_score>  (1) 
-56.563381

>  <SMILES>  (1) 
CCc1ccc(-c2c[nH]c(Nc3cc(N)ccc3Sc3ccccc3)[nH+]2)cc1

$$$$
