[NH3+][C@H](Cc1cn([C@H](c2ccncc2)C2CC2)nn1)C(=O)Nc1cccc(O)c1
     RDKit          3D

 51 54  0  0  1  0  0  0  0  0999 V2000
  130.2621  134.2136  157.0657 N   0  0  0  0  0  0  0  0  0  0  0  0
  131.1129  134.6757  156.7815 H   0  0  0  0  0  0  0  0  0  0  0  0
  130.4635  133.2535  157.3015 H   0  0  0  0  0  0  0  0  0  0  0  0
  129.5954  134.2414  156.3089 H   0  0  0  0  0  0  0  0  0  0  0  0
  129.7010  134.8983  158.2380 C   0  0  2  0  0  0  0  0  0  0  0  0
  129.4834  135.9356  157.9834 H   0  0  0  0  0  0  0  0  0  0  0  0
  130.7121  134.8563  159.3856 C   0  0  0  0  0  0  0  0  0  0  0  0
  130.3826  135.9349  160.3851 C   0  0  0  0  0  0  0  0  0  0  0  0
  130.6216  135.9053  161.7170 C   0  0  0  0  0  0  0  0  0  0  0  0
  130.1597  137.0779  162.2091 N   0  0  0  0  0  0  0  0  0  0  0  0
  130.2007  137.4956  163.6127 C   0  0  2  0  0  0  0  0  0  0  0  0
  130.6647  136.7119  164.2115 H   0  0  0  0  0  0  0  0  0  0  0  0
  128.7975  137.7399  164.1053 C   0  0  0  0  0  0  0  0  0  0  0  0
  127.8550  136.7230  164.0963 C   0  0  0  0  0  0  0  0  0  0  0  0
  126.5782  136.9842  164.5561 C   0  0  0  0  0  0  0  0  0  0  0  0
  126.2527  138.1829  164.9991 N   0  0  0  0  0  0  0  0  0  0  0  0
  127.1231  139.1733  165.0228 C   0  0  0  0  0  0  0  0  0  0  0  0
  128.4186  138.9868  164.5787 C   0  0  0  0  0  0  0  0  0  0  0  0
  131.0166  138.7837  163.7379 C   0  0  0  0  0  0  0  0  0  0  0  0
  132.5155  138.6468  164.0129 C   0  0  0  0  0  0  0  0  0  0  0  0
  131.5765  139.1341  165.1180 C   0  0  0  0  0  0  0  0  0  0  0  0
  129.6829  137.7659  161.2312 N   0  0  0  0  0  0  0  0  0  0  0  0
  129.8007  137.1121  160.1298 N   0  0  0  0  0  0  0  0  0  0  0  0
  128.4304  134.2080  158.6624 C   0  0  0  0  0  0  0  0  0  0  0  0
  128.0315  133.2409  158.0488 O   0  0  0  0  0  0  0  0  0  0  0  0
  127.7372  134.6655  159.7240 N   0  0  0  0  0  0  0  0  0  0  0  0
  126.5575  134.0246  160.1181 C   0  0  0  0  0  0  0  0  0  0  0  0
  126.3971  132.6631  159.8933 C   0  0  0  0  0  0  0  0  0  0  0  0
  125.2350  132.0294  160.2876 C   0  0  0  0  0  0  0  0  0  0  0  0
  124.2243  132.7495  160.8960 C   0  0  0  0  0  0  0  0  0  0  0  0
  124.3766  134.1108  161.1179 C   0  0  0  0  0  0  0  0  0  0  0  0
  123.3819  134.8178  161.7160 O   0  0  0  0  0  0  0  0  0  0  0  0
  125.5440  134.7493  160.7288 C   0  0  0  0  0  0  0  0  0  0  0  0
  131.7153  135.0197  158.9922 H   0  0  0  0  0  0  0  0  0  0  0  0
  130.6672  133.8827  159.8736 H   0  0  0  0  0  0  0  0  0  0  0  0
  131.0860  135.1057  162.2750 H   0  0  0  0  0  0  0  0  0  0  0  0
  128.1141  135.7406  163.7301 H   0  0  0  0  0  0  0  0  0  0  0  0
  125.8382  136.1975  164.5523 H   0  0  0  0  0  0  0  0  0  0  0  0
  126.8200  140.1416  165.3930 H   0  0  0  0  0  0  0  0  0  0  0  0
  129.1268  139.8018  164.6006 H   0  0  0  0  0  0  0  0  0  0  0  0
  130.6947  139.6079  163.1012 H   0  0  0  0  0  0  0  0  0  0  0  0
  132.9202  137.6388  164.1045 H   0  0  0  0  0  0  0  0  0  0  0  0
  133.1800  139.3807  163.5570 H   0  0  0  0  0  0  0  0  0  0  0  0
  131.6231  140.1888  165.3892 H   0  0  0  0  0  0  0  0  0  0  0  0
  131.3633  138.4468  165.9369 H   0  0  0  0  0  0  0  0  0  0  0  0
  128.0563  135.4389  160.2148 H   0  0  0  0  0  0  0  0  0  0  0  0
  127.1835  132.0989  159.4140 H   0  0  0  0  0  0  0  0  0  0  0  0
  125.1137  130.9700  160.1158 H   0  0  0  0  0  0  0  0  0  0  0  0
  123.3150  132.2521  161.1996 H   0  0  0  0  0  0  0  0  0  0  0  0
  123.5798  135.7578  161.8275 H   0  0  0  0  0  0  0  0  0  0  0  0
  125.6645  135.8086  160.9011 H   0  0  0  0  0  0  0  0  0  0  0  0
  1  2  1  0
  1  3  1  0
  1  4  1  0
  1  5  1  0
  5  6  1  6
  5  7  1  0
  5 24  1  0
  7  8  1  0
  7 34  1  0
  7 35  1  0
  8 23  1  0
  8  9  2  0
  9 10  1  0
  9 36  1  0
 10 11  1  0
 10 22  1  0
 11 12  1  1
 11 13  1  0
 11 19  1  0
 13 18  1  0
 13 14  2  0
 14 15  1  0
 14 37  1  0
 15 16  2  0
 15 38  1  0
 16 17  1  0
 17 18  2  0
 17 39  1  0
 18 40  1  0
 19 21  1  0
 19 20  1  0
 19 41  1  0
 20 21  1  0
 20 42  1  0
 20 43  1  0
 21 44  1  0
 21 45  1  0
 22 23  2  0
 24 25  2  0
 24 26  1  0
 26 27  1  0
 26 46  1  0
 27 33  1  0
 27 28  2  0
 28 29  1  0
 28 47  1  0
 29 30  2  0
 29 48  1  0
 30 31  1  0
 30 49  1  0
 31 32  1  0
 31 33  2  0
 32 50  1  0
 33 51  1  0
M  CHG  1   1   1
M  END
>  <DOCK_score>  (1) 
-45.398487

>  <SMILES>  (1) 
[NH3+][C@H](Cc1cn([C@H](c2ccncc2)C2CC2)nn1)C(=O)Nc1cccc(O)c1

$$$$
