O=C1C=CC(O)(c2ccc(Nc3[nH]cc(CCO)[nH+]3)c(-c3ccccc3Cl)c2)C=C1
     RDKit          3D

 51 54  0  0  1  0  0  0  0  0999 V2000
  130.1145  140.5985  165.2643 O   0  0  0  0  0  0  0  0  0  0  0  0
  129.2254  139.8537  164.8967 C   0  0  0  0  0  0  0  0  0  0  0  0
  129.1162  138.4795  165.4212 C   0  0  0  0  0  0  0  0  0  0  0  0
  128.3648  137.5950  164.7791 C   0  0  0  0  0  0  0  0  0  0  0  0
  127.6200  137.9173  163.5222 C   0  0  0  0  0  0  0  0  0  0  0  0
  126.3152  137.3398  163.5997 O   0  0  0  0  0  0  0  0  0  0  0  0
  128.3514  137.3065  162.3547 C   0  0  0  0  0  0  0  0  0  0  0  0
  127.7139  136.3752  161.5531 C   0  0  0  0  0  0  0  0  0  0  0  0
  128.3749  135.8093  160.4805 C   0  0  0  0  0  0  0  0  0  0  0  0
  129.6829  136.1772  160.1978 C   0  0  0  0  0  0  0  0  0  0  0  0
  130.3508  135.6112  159.1109 N   0  0  0  0  0  0  0  0  0  0  0  0
  130.0390  134.3252  158.6993 C   0  0  0  0  0  0  0  0  0  0  0  0
  129.5971  133.3184  159.5006 N   0  0  0  0  0  0  0  0  0  0  0  0
  129.4435  133.3675  160.4571 H   0  0  0  0  0  0  0  0  0  0  0  0
  129.4061  132.2182  158.6965 C   0  0  0  0  0  0  0  0  0  0  0  0
  129.7426  132.5827  157.4472 C   0  0  0  0  0  0  0  0  0  0  0  0
  129.6987  131.6983  156.2279 C   0  0  0  0  0  0  0  0  0  0  0  0
  131.0447  130.9898  156.0630 C   0  0  0  0  0  0  0  0  0  0  0  0
  131.3087  130.1933  157.2198 O   0  0  0  0  0  0  0  0  0  0  0  0
  130.1253  133.8703  157.4716 N   0  0  0  0  0  0  0  0  0  0  0  0
  130.4188  134.3831  156.7024 H   0  0  0  0  0  0  0  0  0  0  0  0
  130.3313  137.1147  161.0104 C   0  0  0  0  0  0  0  0  0  0  0  0
  131.7307  137.5107  160.7208 C   0  0  0  0  0  0  0  0  0  0  0  0
  132.7894  136.8111  161.2973 C   0  0  0  0  0  0  0  0  0  0  0  0
  134.0896  137.1839  161.0241 C   0  0  0  0  0  0  0  0  0  0  0  0
  134.3442  138.2497  160.1793 C   0  0  0  0  0  0  0  0  0  0  0  0
  133.2985  138.9482  159.6039 C   0  0  0  0  0  0  0  0  0  0  0  0
  131.9926  138.5882  159.8746 C   0  0  0  0  0  0  0  0  0  0  0  0
  130.6805  139.4701  159.1574 Cl  0  0  0  0  0  0  0  0  0  0  0  0
  129.6536  137.6782  162.0891 C   0  0  0  0  0  0  0  0  0  0  0  0
  127.4798  139.3881  163.2865 C   0  0  0  0  0  0  0  0  0  0  0  0
  128.2205  140.2943  163.9112 C   0  0  0  0  0  0  0  0  0  0  0  0
  129.6438  138.1959  166.3198 H   0  0  0  0  0  0  0  0  0  0  0  0
  128.2872  136.5960  165.1819 H   0  0  0  0  0  0  0  0  0  0  0  0
  125.7748  137.4813  162.8103 H   0  0  0  0  0  0  0  0  0  0  0  0
  126.6945  136.0902  161.7672 H   0  0  0  0  0  0  0  0  0  0  0  0
  127.8721  135.0837  159.8586 H   0  0  0  0  0  0  0  0  0  0  0  0
  131.0333  136.1181  158.6435 H   0  0  0  0  0  0  0  0  0  0  0  0
  129.0566  131.2456  159.0101 H   0  0  0  0  0  0  0  0  0  0  0  0
  128.9093  130.9558  156.3458 H   0  0  0  0  0  0  0  0  0  0  0  0
  129.4973  132.3056  155.3454 H   0  0  0  0  0  0  0  0  0  0  0  0
  131.0128  130.3499  155.1810 H   0  0  0  0  0  0  0  0  0  0  0  0
  131.8341  131.7321  155.9450 H   0  0  0  0  0  0  0  0  0  0  0  0
  131.3510  130.6980  158.0435 H   0  0  0  0  0  0  0  0  0  0  0  0
  132.5925  135.9790  161.9570 H   0  0  0  0  0  0  0  0  0  0  0  0
  134.9105  136.6423  161.4705 H   0  0  0  0  0  0  0  0  0  0  0  0
  135.3636  138.5371  159.9681 H   0  0  0  0  0  0  0  0  0  0  0  0
  133.5033  139.7791  158.9451 H   0  0  0  0  0  0  0  0  0  0  0  0
  130.1470  138.4051  162.7170 H   0  0  0  0  0  0  0  0  0  0  0  0
  126.7417  139.7278  162.5751 H   0  0  0  0  0  0  0  0  0  0  0  0
  128.0887  141.3452  163.6998 H   0  0  0  0  0  0  0  0  0  0  0  0
  1  2  2  0
  2 32  1  0
  2  3  1  0
  3  4  2  0
  3 33  1  0
  4  5  1  0
  4 34  1  0
  5  6  1  0
  5  7  1  0
  5 31  1  0
  6 35  1  0
  7 30  1  0
  7  8  2  0
  8  9  1  0
  8 36  1  0
  9 10  2  0
  9 37  1  0
 10 11  1  0
 10 22  1  0
 11 38  1  0
 12 11  1  0
 12 20  2  0
 12 13  1  0
 13 14  1  0
 13 15  1  0
 15 16  2  0
 15 39  1  0
 16 17  1  0
 16 20  1  0
 17 18  1  0
 17 40  1  0
 17 41  1  0
 18 19  1  0
 18 42  1  0
 18 43  1  0
 19 44  1  0
 20 21  1  0
 22 23  1  0
 22 30  2  0
 23 28  1  0
 23 24  2  0
 24 25  1  0
 24 45  1  0
 25 26  2  0
 25 46  1  0
 26 27  1  0
 26 47  1  0
 27 28  2  0
 27 48  1  0
 28 29  1  0
 30 49  1  0
 31 32  2  0
 31 50  1  0
 32 51  1  0
M  CHG  1  20   1
M  END
>  <DOCK_score>  (1) 
-48.015507

>  <SMILES>  (1) 
O=C1C=CC(O)(c2ccc(Nc3[nH]cc(CCO)[nH+]3)c(-c3ccccc3Cl)c2)C=C1

$$$$
