CC=C[C@H](Nc1[nH]cc(-c2ccc(C3=CCC=CC3)cc2)[nH+]1)c1ccccc1
     RDKit          3D

 54 57  0  0  1  0  0  0  0  0999 V2000
  132.0603  139.7347  161.4426 C   0  0  0  0  0  0  0  0  0  0  0  0
  131.5313  138.3665  161.0976 C   0  0  0  0  0  0  0  0  0  0  0  0
  132.0714  137.3008  161.6349 C   0  0  0  0  0  0  0  0  0  0  0  0
  131.5423  135.9325  161.2898 C   0  0  2  0  0  0  0  0  0  0  0  0
  132.1124  135.1759  161.8291 H   0  0  0  0  0  0  0  0  0  0  0  0
  131.6736  135.7074  159.8482 N   0  0  0  0  0  0  0  0  0  0  0  0
  131.2512  134.5117  159.2932 C   0  0  0  0  0  0  0  0  0  0  0  0
  130.6946  133.4738  159.9756 N   0  0  0  0  0  0  0  0  0  0  0  0
  130.5244  133.4394  160.9299 H   0  0  0  0  0  0  0  0  0  0  0  0
  130.4190  132.4844  159.0640 C   0  0  0  0  0  0  0  0  0  0  0  0
  130.8148  132.9455  157.8507 C   0  0  0  0  0  0  0  0  0  0  0  0
  130.7116  132.2167  156.5642 C   0  0  0  0  0  0  0  0  0  0  0  0
  129.9558  132.7498  155.5195 C   0  0  0  0  0  0  0  0  0  0  0  0
  129.8635  132.0757  154.3226 C   0  0  0  0  0  0  0  0  0  0  0  0
  130.5183  130.8536  154.1575 C   0  0  0  0  0  0  0  0  0  0  0  0
  130.4157  130.1270  152.8756 C   0  0  0  0  0  0  0  0  0  0  0  0
  130.4905  128.8134  152.8864 C   0  0  0  0  0  0  0  0  0  0  0  0
  130.3909  127.9883  151.6379 C   0  0  0  0  0  0  0  0  0  0  0  0
  130.6847  128.8121  150.4208 C   0  0  0  0  0  0  0  0  0  0  0  0
  130.6163  130.1084  150.4100 C   0  0  0  0  0  0  0  0  0  0  0  0
  130.2363  130.9159  151.6134 C   0  0  0  0  0  0  0  0  0  0  0  0
  131.2700  130.3175  155.2059 C   0  0  0  0  0  0  0  0  0  0  0  0
  131.3655  130.9950  156.4005 C   0  0  0  0  0  0  0  0  0  0  0  0
  131.3162  134.1947  158.0231 N   0  0  0  0  0  0  0  0  0  0  0  0
  131.6684  134.7616  157.3192 H   0  0  0  0  0  0  0  0  0  0  0  0
  130.0902  135.8418  161.6823 C   0  0  0  0  0  0  0  0  0  0  0  0
  129.7417  135.3985  162.9445 C   0  0  0  0  0  0  0  0  0  0  0  0
  128.4097  135.3195  163.3060 C   0  0  0  0  0  0  0  0  0  0  0  0
  127.4260  135.6749  162.4022 C   0  0  0  0  0  0  0  0  0  0  0  0
  127.7743  136.1130  161.1381 C   0  0  0  0  0  0  0  0  0  0  0  0
  129.1064  136.1964  160.7782 C   0  0  0  0  0  0  0  0  0  0  0  0
  131.9625  139.9023  162.5153 H   0  0  0  0  0  0  0  0  0  0  0  0
  133.1106  139.8004  161.1588 H   0  0  0  0  0  0  0  0  0  0  0  0
  131.4903  140.4913  160.9033 H   0  0  0  0  0  0  0  0  0  0  0  0
  130.7068  138.2646  160.4074 H   0  0  0  0  0  0  0  0  0  0  0  0
  132.8958  137.4027  162.3250 H   0  0  0  0  0  0  0  0  0  0  0  0
  132.0564  136.3961  159.2826 H   0  0  0  0  0  0  0  0  0  0  0  0
  129.9721  131.5236  159.2726 H   0  0  0  0  0  0  0  0  0  0  0  0
  129.4467  133.6935  155.6484 H   0  0  0  0  0  0  0  0  0  0  0  0
  129.2819  132.4905  153.5126 H   0  0  0  0  0  0  0  0  0  0  0  0
  130.6250  128.3096  153.8321 H   0  0  0  0  0  0  0  0  0  0  0  0
  129.3847  127.5769  151.5566 H   0  0  0  0  0  0  0  0  0  0  0  0
  131.1079  127.1695  151.6967 H   0  0  0  0  0  0  0  0  0  0  0  0
  130.9658  128.3045  149.5099 H   0  0  0  0  0  0  0  0  0  0  0  0
  130.8433  130.6287  149.4912 H   0  0  0  0  0  0  0  0  0  0  0  0
  129.1927  131.2181  151.5264 H   0  0  0  0  0  0  0  0  0  0  0  0
  130.8635  131.8072  151.6574 H   0  0  0  0  0  0  0  0  0  0  0  0
  131.7763  129.3719  155.0792 H   0  0  0  0  0  0  0  0  0  0  0  0
  131.9469  130.5810  157.2110 H   0  0  0  0  0  0  0  0  0  0  0  0
  130.5102  135.1173  163.6493 H   0  0  0  0  0  0  0  0  0  0  0  0
  128.1377  134.9774  164.2936 H   0  0  0  0  0  0  0  0  0  0  0  0
  126.3853  135.6105  162.6838 H   0  0  0  0  0  0  0  0  0  0  0  0
  127.0059  136.3908  160.4321 H   0  0  0  0  0  0  0  0  0  0  0  0
  129.3786  136.5387  159.7908 H   0  0  0  0  0  0  0  0  0  0  0  0
  1  2  1  0
  1 32  1  0
  1 33  1  0
  1 34  1  0
  2  3  2  0
  2 35  1  0
  3  4  1  0
  3 36  1  0
  4  5  1  1
  4  6  1  0
  4 26  1  0
  6 37  1  0
  7  6  1  0
  7 24  2  0
  7  8  1  0
  8  9  1  0
  8 10  1  0
 10 11  2  0
 10 38  1  0
 11 12  1  0
 11 24  1  0
 12 23  1  0
 12 13  2  0
 13 14  1  0
 13 39  1  0
 14 15  2  0
 14 40  1  0
 15 16  1  0
 15 22  1  0
 16 21  1  0
 16 17  2  0
 17 18  1  0
 17 41  1  0
 18 19  1  0
 18 42  1  0
 18 43  1  0
 19 20  2  0
 19 44  1  0
 20 21  1  0
 20 45  1  0
 21 46  1  0
 21 47  1  0
 22 23  2  0
 22 48  1  0
 23 49  1  0
 24 25  1  0
 26 31  1  0
 26 27  2  0
 27 28  1  0
 27 50  1  0
 28 29  2  0
 28 51  1  0
 29 30  1  0
 29 52  1  0
 30 31  2  0
 30 53  1  0
 31 54  1  0
M  CHG  1  24   1
M  END
>  <DOCK_score>  (1) 
-56.888924

>  <SMILES>  (1) 
CC=C[C@H](Nc1[nH]cc(-c2ccc(C3=CCC=CC3)cc2)[nH+]1)c1ccccc1

$$$$
