C[C@H](Cl)C(Cc1ccccc1)N1CC[NH+](Cc2ccc(-c3ccccc3)cc2)CC1
     RDKit          3D

 62 65  0  0  1  0  0  0  0  0999 V2000
  129.4538  129.9767  158.9667 C   0  0  0  0  0  0  0  0  0  0  0  0
  130.2185  130.1190  157.6492 C   0  0  2  0  0  0  0  0  0  0  0  0
  129.8743  129.3608  156.9457 H   0  0  0  0  0  0  0  0  0  0  0  0
  131.9827  129.9014  157.9516 Cl  0  0  0  0  0  0  0  0  0  0  0  0
  129.9695  131.5098  157.0624 C   0  0  2  0  0  0  0  0  0  0  0  0
  131.0741  131.8450  156.0582 C   0  0  0  0  0  0  0  0  0  0  0  0
  130.7816  131.1666  154.7446 C   0  0  0  0  0  0  0  0  0  0  0  0
  131.2695  129.8970  154.4985 C   0  0  0  0  0  0  0  0  0  0  0  0
  130.9972  129.2729  153.2955 C   0  0  0  0  0  0  0  0  0  0  0  0
  130.2454  129.9227  152.3345 C   0  0  0  0  0  0  0  0  0  0  0  0
  129.7617  131.1945  152.5786 C   0  0  0  0  0  0  0  0  0  0  0  0
  130.0298  131.8165  153.7835 C   0  0  0  0  0  0  0  0  0  0  0  0
  129.9717  132.5049  158.1431 N   0  0  0  0  0  0  0  0  0  0  0  0
  131.3418  132.7946  158.5893 C   0  0  0  0  0  0  0  0  0  0  0  0
  131.2968  133.7878  159.7525 C   0  0  0  0  0  0  0  0  0  0  0  0
  130.6340  135.0237  159.3160 N   0  0  0  0  0  0  0  0  0  0  0  0
  131.1421  135.4218  158.5403 H   0  0  0  0  0  0  0  0  0  0  0  0
  130.6071  135.9837  160.4276 C   0  0  0  0  0  0  0  0  0  0  0  0
  131.9477  136.6636  160.5366 C   0  0  0  0  0  0  0  0  0  0  0  0
  132.9327  136.1198  161.3411 C   0  0  0  0  0  0  0  0  0  0  0  0
  134.1638  136.7356  161.4409 C   0  0  0  0  0  0  0  0  0  0  0  0
  134.4099  137.9132  160.7378 C   0  0  0  0  0  0  0  0  0  0  0  0
  135.7294  138.5832  160.8460 C   0  0  0  0  0  0  0  0  0  0  0  0
  136.2301  139.3188  159.7738 C   0  0  0  0  0  0  0  0  0  0  0  0
  137.4559  139.9439  159.8816 C   0  0  0  0  0  0  0  0  0  0  0  0
  138.1918  139.8323  161.0476 C   0  0  0  0  0  0  0  0  0  0  0  0
  137.7020  139.0989  162.1131 C   0  0  0  0  0  0  0  0  0  0  0  0
  136.4750  138.4742  162.0180 C   0  0  0  0  0  0  0  0  0  0  0  0
  133.4121  138.4595  159.9331 C   0  0  0  0  0  0  0  0  0  0  0  0
  132.1864  137.8324  159.8366 C   0  0  0  0  0  0  0  0  0  0  0  0
  129.2590  134.7222  158.8965 C   0  0  0  0  0  0  0  0  0  0  0  0
  129.2870  133.7367  157.7262 C   0  0  0  0  0  0  0  0  0  0  0  0
  128.4198  130.2899  158.8224 H   0  0  0  0  0  0  0  0  0  0  0  0
  129.4767  128.9361  159.2896 H   0  0  0  0  0  0  0  0  0  0  0  0
  129.9203  130.6033  159.7270 H   0  0  0  0  0  0  0  0  0  0  0  0
  129.0033  131.5235  156.5578 H   0  0  0  0  0  0  0  0  0  0  0  0
  131.1141  132.9240  155.9089 H   0  0  0  0  0  0  0  0  0  0  0  0
  132.0324  131.4953  156.4421 H   0  0  0  0  0  0  0  0  0  0  0  0
  131.8607  129.3913  155.2476 H   0  0  0  0  0  0  0  0  0  0  0  0
  131.3755  128.2795  153.1047 H   0  0  0  0  0  0  0  0  0  0  0  0
  130.0364  129.4368  151.3929 H   0  0  0  0  0  0  0  0  0  0  0  0
  129.1747  131.7022  151.8275 H   0  0  0  0  0  0  0  0  0  0  0  0
  129.6521  132.8102  153.9742 H   0  0  0  0  0  0  0  0  0  0  0  0
  131.9093  133.2259  157.7647 H   0  0  0  0  0  0  0  0  0  0  0  0
  131.8203  131.8718  158.9173 H   0  0  0  0  0  0  0  0  0  0  0  0
  132.3126  134.0151  160.0758 H   0  0  0  0  0  0  0  0  0  0  0  0
  130.7408  133.3510  160.5821 H   0  0  0  0  0  0  0  0  0  0  0  0
  129.8348  136.7306  160.2441 H   0  0  0  0  0  0  0  0  0  0  0  0
  130.3900  135.4574  161.3570 H   0  0  0  0  0  0  0  0  0  0  0  0
  132.7394  135.2092  161.8888 H   0  0  0  0  0  0  0  0  0  0  0  0
  134.9335  136.3081  162.0662 H   0  0  0  0  0  0  0  0  0  0  0  0
  135.6582  139.4032  158.8616 H   0  0  0  0  0  0  0  0  0  0  0  0
  137.8431  140.5178  159.0527 H   0  0  0  0  0  0  0  0  0  0  0  0
  139.1526  140.3194  161.1260 H   0  0  0  0  0  0  0  0  0  0  0  0
  138.2809  139.0147  163.0209 H   0  0  0  0  0  0  0  0  0  0  0  0
  136.0936  137.9013  162.8505 H   0  0  0  0  0  0  0  0  0  0  0  0
  133.5974  139.3723  159.3864 H   0  0  0  0  0  0  0  0  0  0  0  0
  131.4122  138.2552  159.2133 H   0  0  0  0  0  0  0  0  0  0  0  0
  128.7134  134.2805  159.7304 H   0  0  0  0  0  0  0  0  0  0  0  0
  128.7641  135.6421  158.5851 H   0  0  0  0  0  0  0  0  0  0  0  0
  129.8208  134.1834  156.8873 H   0  0  0  0  0  0  0  0  0  0  0  0
  128.2664  133.5012  157.4245 H   0  0  0  0  0  0  0  0  0  0  0  0
  1  2  1  0
  1 33  1  0
  1 34  1  0
  1 35  1  0
  2  3  1  6
  2  4  1  0
  2  5  1  0
  5  6  1  0
  5 13  1  0
  5 36  1  6
  6  7  1  0
  6 37  1  0
  6 38  1  0
  7 12  1  0
  7  8  2  0
  8  9  1  0
  8 39  1  0
  9 10  2  0
  9 40  1  0
 10 11  1  0
 10 41  1  0
 11 12  2  0
 11 42  1  0
 12 43  1  0
 13 32  1  0
 13 14  1  0
 14 15  1  0
 14 44  1  0
 14 45  1  0
 15 16  1  0
 15 46  1  0
 15 47  1  0
 16 17  1  0
 16 18  1  0
 16 31  1  0
 18 19  1  0
 18 48  1  0
 18 49  1  0
 19 30  1  0
 19 20  2  0
 20 21  1  0
 20 50  1  0
 21 22  2  0
 21 51  1  0
 22 23  1  0
 22 29  1  0
 23 28  1  0
 23 24  2  0
 24 25  1  0
 24 52  1  0
 25 26  2  0
 25 53  1  0
 26 27  1  0
 26 54  1  0
 27 28  2  0
 27 55  1  0
 28 56  1  0
 29 30  2  0
 29 57  1  0
 30 58  1  0
 31 32  1  0
 31 59  1  0
 31 60  1  0
 32 61  1  0
 32 62  1  0
M  CHG  1  16   1
M  END
>  <DOCK_score>  (1) 
-58.619499

>  <SMILES>  (1) 
C[C@H](Cl)C(Cc1ccccc1)N1CC[NH+](Cc2ccc(-c3ccccc3)cc2)CC1

$$$$
