CCc1ccc(-c2c[nH]c(N[C@@H](C)Cc3ccc(-c4ccccc4)cc3)[nH+]2)cc1
     RDKit          3D

 57 60  0  0  1  0  0  0  0  0999 V2000
  130.4624  128.6600  151.8693 C   0  0  0  0  0  0  0  0  0  0  0  0
  131.4574  129.7816  152.1740 C   0  0  0  0  0  0  0  0  0  0  0  0
  131.0533  130.4795  153.4471 C   0  0  0  0  0  0  0  0  0  0  0  0
  131.5397  130.0323  154.6618 C   0  0  0  0  0  0  0  0  0  0  0  0
  131.1778  130.6709  155.8306 C   0  0  0  0  0  0  0  0  0  0  0  0
  130.3112  131.7615  155.7859 C   0  0  0  0  0  0  0  0  0  0  0  0
  129.9140  132.4486  157.0391 C   0  0  0  0  0  0  0  0  0  0  0  0
  129.2725  131.8821  158.0911 C   0  0  0  0  0  0  0  0  0  0  0  0
  129.1014  132.8684  159.0318 N   0  0  0  0  0  0  0  0  0  0  0  0
  128.6728  132.7697  159.8963 H   0  0  0  0  0  0  0  0  0  0  0  0
  129.6439  134.0098  158.5267 C   0  0  0  0  0  0  0  0  0  0  0  0
  129.6781  135.2376  159.1654 N   0  0  0  0  0  0  0  0  0  0  0  0
  129.0964  135.3845  160.5019 C   0  0  1  0  0  0  0  0  0  0  0  0
  128.1674  134.8171  160.5581 H   0  0  0  0  0  0  0  0  0  0  0  0
  130.0807  134.8564  161.5475 C   0  0  0  0  0  0  0  0  0  0  0  0
  128.8086  136.8625  160.7732 C   0  0  0  0  0  0  0  0  0  0  0  0
  130.0931  137.6470  160.6955 C   0  0  0  0  0  0  0  0  0  0  0  0
  130.4995  138.1855  159.4879 C   0  0  0  0  0  0  0  0  0  0  0  0
  131.6725  138.9089  159.4119 C   0  0  0  0  0  0  0  0  0  0  0  0
  132.4530  139.0872  160.5524 C   0  0  0  0  0  0  0  0  0  0  0  0
  133.7183  139.8587  160.4756 C   0  0  0  0  0  0  0  0  0  0  0  0
  134.1701  140.5729  161.5834 C   0  0  0  0  0  0  0  0  0  0  0  0
  135.3501  141.2849  161.5079 C   0  0  0  0  0  0  0  0  0  0  0  0
  136.0784  141.2988  160.3330 C   0  0  0  0  0  0  0  0  0  0  0  0
  135.6317  140.5962  159.2276 C   0  0  0  0  0  0  0  0  0  0  0  0
  134.4559  139.8764  159.2936 C   0  0  0  0  0  0  0  0  0  0  0  0
  132.0415  138.5379  161.7650 C   0  0  0  0  0  0  0  0  0  0  0  0
  130.8641  137.8208  161.8305 C   0  0  0  0  0  0  0  0  0  0  0  0
  130.1336  133.7536  157.3383 N   0  0  0  0  0  0  0  0  0  0  0  0
  130.5797  134.3951  156.7635 H   0  0  0  0  0  0  0  0  0  0  0  0
  129.8195  132.2046  154.5594 C   0  0  0  0  0  0  0  0  0  0  0  0
  130.1927  131.5618  153.3965 C   0  0  0  0  0  0  0  0  0  0  0  0
  130.7546  128.1554  150.9484 H   0  0  0  0  0  0  0  0  0  0  0  0
  130.4602  127.9439  152.6910 H   0  0  0  0  0  0  0  0  0  0  0  0
  129.4641  129.0813  151.7518 H   0  0  0  0  0  0  0  0  0  0  0  0
  132.4554  129.3608  152.2910 H   0  0  0  0  0  0  0  0  0  0  0  0
  131.4593  130.4983  151.3517 H   0  0  0  0  0  0  0  0  0  0  0  0
  132.2074  129.1841  154.6957 H   0  0  0  0  0  0  0  0  0  0  0  0
  131.5619  130.3236  156.7783 H   0  0  0  0  0  0  0  0  0  0  0  0
  128.9564  130.8527  158.1733 H   0  0  0  0  0  0  0  0  0  0  0  0
  130.0874  136.0006  158.7280 H   0  0  0  0  0  0  0  0  0  0  0  0
  130.2858  133.8034  161.3541 H   0  0  0  0  0  0  0  0  0  0  0  0
  131.0098  135.4237  161.4911 H   0  0  0  0  0  0  0  0  0  0  0  0
  129.6479  134.9657  162.5418 H   0  0  0  0  0  0  0  0  0  0  0  0
  128.1076  137.2389  160.0283 H   0  0  0  0  0  0  0  0  0  0  0  0
  128.3758  136.9719  161.7676 H   0  0  0  0  0  0  0  0  0  0  0  0
  129.8958  138.0432  158.6038 H   0  0  0  0  0  0  0  0  0  0  0  0
  131.9867  139.3328  158.4696 H   0  0  0  0  0  0  0  0  0  0  0  0
  133.6003  140.5659  162.5007 H   0  0  0  0  0  0  0  0  0  0  0  0
  135.7033  141.8354  162.3673 H   0  0  0  0  0  0  0  0  0  0  0  0
  136.9987  141.8612  160.2759 H   0  0  0  0  0  0  0  0  0  0  0  0
  136.2041  140.6108  158.3118 H   0  0  0  0  0  0  0  0  0  0  0  0
  134.1079  139.3283  158.4305 H   0  0  0  0  0  0  0  0  0  0  0  0
  132.6426  138.6735  162.6520 H   0  0  0  0  0  0  0  0  0  0  0  0
  130.5443  137.3944  162.7699 H   0  0  0  0  0  0  0  0  0  0  0  0
  129.1475  133.0491  154.5189 H   0  0  0  0  0  0  0  0  0  0  0  0
  129.8121  131.9041  152.4454 H   0  0  0  0  0  0  0  0  0  0  0  0
  1  2  1  0
  1 33  1  0
  1 34  1  0
  1 35  1  0
  2  3  1  0
  2 36  1  0
  2 37  1  0
  3 32  2  0
  3  4  1  0
  4  5  2  0
  4 38  1  0
  5  6  1  0
  5 39  1  0
  6  7  1  0
  6 31  2  0
  7 29  1  0
  7  8  2  0
  8  9  1  0
  8 40  1  0
  9 10  1  0
  9 11  1  0
 11 12  1  0
 11 29  2  0
 12 13  1  0
 12 41  1  0
 13 14  1  6
 13 15  1  0
 13 16  1  0
 15 42  1  0
 15 43  1  0
 15 44  1  0
 16 17  1  0
 16 45  1  0
 16 46  1  0
 17 28  1  0
 17 18  2  0
 18 19  1  0
 18 47  1  0
 19 20  2  0
 19 48  1  0
 20 21  1  0
 20 27  1  0
 21 26  1  0
 21 22  2  0
 22 23  1  0
 22 49  1  0
 23 24  2  0
 23 50  1  0
 24 25  1  0
 24 51  1  0
 25 26  2  0
 25 52  1  0
 26 53  1  0
 27 28  2  0
 27 54  1  0
 28 55  1  0
 29 30  1  0
 31 32  1  0
 31 56  1  0
 32 57  1  0
M  CHG  1  29   1
M  END
>  <DOCK_score>  (1) 
-58.619034

>  <SMILES>  (1) 
CCc1ccc(-c2c[nH]c(N[C@@H](C)Cc3ccc(-c4ccccc4)cc3)[nH+]2)cc1

$$$$
