c1ccc([C@@H](Nc2[nH]cc(-c3cccnc3)[nH+]2)c2ccncc2)cc1
     RDKit          3D

 43 46  0  0  1  0  0  0  0  0999 V2000
  125.3376  135.7259  157.5734 C   0  0  0  0  0  0  0  0  0  0  0  0
  125.3108  135.5828  158.9481 C   0  0  0  0  0  0  0  0  0  0  0  0
  126.4913  135.5952  159.6674 C   0  0  0  0  0  0  0  0  0  0  0  0
  127.6985  135.7501  159.0120 C   0  0  0  0  0  0  0  0  0  0  0  0
  128.9854  135.7635  159.7960 C   0  0  1  0  0  0  0  0  0  0  0  0
  128.8756  135.1423  160.6850 H   0  0  0  0  0  0  0  0  0  0  0  0
  130.0699  135.2373  158.9636 N   0  0  0  0  0  0  0  0  0  0  0  0
  129.9961  133.9483  158.4640 C   0  0  0  0  0  0  0  0  0  0  0  0
  129.3605  132.9026  159.0595 N   0  0  0  0  0  0  0  0  0  0  0  0
  128.8817  132.9261  159.9027 H   0  0  0  0  0  0  0  0  0  0  0  0
  129.5218  131.8077  158.2457 C   0  0  0  0  0  0  0  0  0  0  0  0
  130.2507  132.2154  157.1773 C   0  0  0  0  0  0  0  0  0  0  0  0
  130.6716  131.3696  156.0337 C   0  0  0  0  0  0  0  0  0  0  0  0
  130.2660  131.6811  154.7326 C   0  0  0  0  0  0  0  0  0  0  0  0
  130.6906  130.8640  153.6993 C   0  0  0  0  0  0  0  0  0  0  0  0
  131.4853  129.7688  153.9858 C   0  0  0  0  0  0  0  0  0  0  0  0
  131.8477  129.4968  155.2244 N   0  0  0  0  0  0  0  0  0  0  0  0
  131.4730  130.2484  156.2394 C   0  0  0  0  0  0  0  0  0  0  0  0
  130.5269  133.5338  157.3395 N   0  0  0  0  0  0  0  0  0  0  0  0
  131.0327  134.0828  156.7203 H   0  0  0  0  0  0  0  0  0  0  0  0
  129.3083  137.1768  160.2075 C   0  0  0  0  0  0  0  0  0  0  0  0
  128.8469  137.6888  161.4106 C   0  0  0  0  0  0  0  0  0  0  0  0
  129.1673  138.9877  161.7569 C   0  0  0  0  0  0  0  0  0  0  0  0
  129.8934  139.7404  160.9536 N   0  0  0  0  0  0  0  0  0  0  0  0
  130.3444  139.2887  159.7996 C   0  0  0  0  0  0  0  0  0  0  0  0
  130.0688  137.9981  159.3893 C   0  0  0  0  0  0  0  0  0  0  0  0
  127.7248  135.8983  157.6378 C   0  0  0  0  0  0  0  0  0  0  0  0
  126.5447  135.8816  156.9180 C   0  0  0  0  0  0  0  0  0  0  0  0
  124.4154  135.7155  157.0114 H   0  0  0  0  0  0  0  0  0  0  0  0
  124.3679  135.4612  159.4601 H   0  0  0  0  0  0  0  0  0  0  0  0
  126.4703  135.4835  160.7413 H   0  0  0  0  0  0  0  0  0  0  0  0
  130.8398  135.7921  158.7625 H   0  0  0  0  0  0  0  0  0  0  0  0
  129.1411  130.8127  158.4228 H   0  0  0  0  0  0  0  0  0  0  0  0
  129.6412  132.5404  154.5381 H   0  0  0  0  0  0  0  0  0  0  0  0
  130.4007  131.0767  152.6810 H   0  0  0  0  0  0  0  0  0  0  0  0
  131.8146  129.1265  153.1825 H   0  0  0  0  0  0  0  0  0  0  0  0
  131.7899  129.9934  157.2399 H   0  0  0  0  0  0  0  0  0  0  0  0
  128.2480  137.0787  162.0707 H   0  0  0  0  0  0  0  0  0  0  0  0
  128.8153  139.3926  162.6942 H   0  0  0  0  0  0  0  0  0  0  0  0
  130.9362  139.9347  159.1681 H   0  0  0  0  0  0  0  0  0  0  0  0
  130.4416  137.6336  158.4434 H   0  0  0  0  0  0  0  0  0  0  0  0
  128.6676  136.0238  157.1261 H   0  0  0  0  0  0  0  0  0  0  0  0
  126.5657  135.9930  155.8440 H   0  0  0  0  0  0  0  0  0  0  0  0
  1 28  2  0
  1  2  1  0
  1 29  1  0
  2  3  2  0
  2 30  1  0
  3  4  1  0
  3 31  1  0
  4  5  1  0
  4 27  2  0
  5  6  1  1
  5  7  1  0
  5 21  1  0
  7 32  1  0
  8  7  1  0
  8 19  2  0
  8  9  1  0
  9 10  1  0
  9 11  1  0
 11 12  2  0
 11 33  1  0
 12 13  1  0
 12 19  1  0
 13 18  1  0
 13 14  2  0
 14 15  1  0
 14 34  1  0
 15 16  2  0
 15 35  1  0
 16 17  1  0
 16 36  1  0
 17 18  2  0
 18 37  1  0
 19 20  1  0
 21 26  1  0
 21 22  2  0
 22 23  1  0
 22 38  1  0
 23 24  2  0
 23 39  1  0
 24 25  1  0
 25 26  2  0
 25 40  1  0
 26 41  1  0
 27 28  1  0
 27 42  1  0
 28 43  1  0
M  CHG  1  19   1
M  END
>  <DOCK_score>  (1) 
-58.648067

>  <SMILES>  (1) 
c1ccc([C@@H](Nc2[nH]cc(-c3cccnc3)[nH+]2)c2ccncc2)cc1

$$$$
