O=C1NCC([NH+]=C(NC2CCC=CCC2)N[C@@H]2CCC2O)CN1
     RDKit          3D

 51 53  0  0  1  0  0  0  0  0999 V2000
  123.9409  133.7279  161.2730 O   0  0  0  0  0  0  0  0  0  0  0  0
  125.0963  134.0988  161.1977 C   0  0  0  0  0  0  0  0  0  0  0  0
  125.4110  135.3217  161.6501 N   0  0  0  0  0  0  0  0  0  0  0  0
  126.7846  135.8242  161.5935 C   0  0  0  0  0  0  0  0  0  0  0  0
  127.5126  135.1743  160.4153 C   0  0  0  0  0  0  0  0  0  0  0  0
  128.9204  135.5793  160.4213 N   0  0  0  0  0  0  0  0  0  0  0  0
  129.2507  136.1753  161.1116 H   0  0  0  0  0  0  0  0  0  0  0  0
  129.7292  135.1385  159.4991 C   0  0  0  0  0  0  0  0  0  0  0  0
  131.0505  135.5186  159.5046 N   0  0  0  0  0  0  0  0  0  0  0  0
  131.7192  135.8254  160.7715 C   0  0  0  0  0  0  0  0  0  0  0  0
  132.1168  137.2908  160.7683 C   0  0  0  0  0  0  0  0  0  0  0  0
  132.6498  137.7111  162.1394 C   0  0  0  0  0  0  0  0  0  0  0  0
  134.1265  137.3846  162.2052 C   0  0  0  0  0  0  0  0  0  0  0  0
  134.5216  136.1543  162.2946 C   0  0  0  0  0  0  0  0  0  0  0  0
  133.5116  135.0275  162.3349 C   0  0  0  0  0  0  0  0  0  0  0  0
  132.8921  134.8766  160.9438 C   0  0  0  0  0  0  0  0  0  0  0  0
  129.2610  134.2938  158.5207 N   0  0  0  0  0  0  0  0  0  0  0  0
  130.1572  133.3044  157.9168 C   0  0  2  0  0  0  0  0  0  0  0  0
  131.0191  133.7574  157.4270 H   0  0  0  0  0  0  0  0  0  0  0  0
  129.4305  132.2648  157.0475 C   0  0  0  0  0  0  0  0  0  0  0  0
  129.2739  131.4222  158.3243 C   0  0  0  0  0  0  0  0  0  0  0  0
  130.5229  132.1471  158.8611 C   0  0  1  0  0  0  0  0  0  0  0  0
  131.7504  131.4986  158.5229 O   0  0  0  0  0  0  0  0  0  0  0  0
  127.4146  133.6516  160.5570 C   0  0  0  0  0  0  0  0  0  0  0  0
  126.0057  133.2690  160.6650 N   0  0  0  0  0  0  0  0  0  0  0  0
  124.7133  135.8861  162.0186 H   0  0  0  0  0  0  0  0  0  0  0  0
  126.7716  136.9063  161.4626 H   0  0  0  0  0  0  0  0  0  0  0  0
  127.3023  135.5747  162.5198 H   0  0  0  0  0  0  0  0  0  0  0  0
  127.0461  135.4858  159.4807 H   0  0  0  0  0  0  0  0  0  0  0  0
  131.5400  135.5835  158.6698 H   0  0  0  0  0  0  0  0  0  0  0  0
  131.0139  135.6593  161.5860 H   0  0  0  0  0  0  0  0  0  0  0  0
  132.8910  137.4509  160.0179 H   0  0  0  0  0  0  0  0  0  0  0  0
  131.2464  137.8983  160.5201 H   0  0  0  0  0  0  0  0  0  0  0  0
  132.1195  137.1664  162.9206 H   0  0  0  0  0  0  0  0  0  0  0  0
  132.5056  138.7825  162.2779 H   0  0  0  0  0  0  0  0  0  0  0  0
  134.8544  138.1817  162.1771 H   0  0  0  0  0  0  0  0  0  0  0  0
  135.5774  135.9312  162.3403 H   0  0  0  0  0  0  0  0  0  0  0  0
  132.7317  135.2609  163.0595 H   0  0  0  0  0  0  0  0  0  0  0  0
  134.0099  134.0995  162.6160 H   0  0  0  0  0  0  0  0  0  0  0  0
  132.5462  133.8511  160.8143 H   0  0  0  0  0  0  0  0  0  0  0  0
  133.6470  135.0986  160.1895 H   0  0  0  0  0  0  0  0  0  0  0  0
  128.3373  134.3526  158.2303 H   0  0  0  0  0  0  0  0  0  0  0  0
  128.4839  132.6208  156.6405 H   0  0  0  0  0  0  0  0  0  0  0  0
  130.0684  131.8033  156.2936 H   0  0  0  0  0  0  0  0  0  0  0  0
  128.3659  131.6436  158.8850 H   0  0  0  0  0  0  0  0  0  0  0  0
  129.4239  130.3545  158.1640 H   0  0  0  0  0  0  0  0  0  0  0  0
  130.4577  132.4081  159.9172 H   0  0  0  0  0  0  0  0  0  0  0  0
  132.5209  132.0828  158.5378 H   0  0  0  0  0  0  0  0  0  0  0  0
  127.9480  133.3340  161.4529 H   0  0  0  0  0  0  0  0  0  0  0  0
  127.8553  133.1752  159.6813 H   0  0  0  0  0  0  0  0  0  0  0  0
  125.7240  132.3978  160.3446 H   0  0  0  0  0  0  0  0  0  0  0  0
  1  2  2  0
  2 25  1  0
  2  3  1  0
  3  4  1  0
  3 26  1  0
  4  5  1  0
  4 27  1  0
  4 28  1  0
  5  6  1  0
  5 24  1  0
  5 29  1  0
  6  7  1  0
  8  6  2  0
  8  9  1  0
  8 17  1  0
  9 10  1  0
  9 30  1  0
 10 16  1  0
 10 11  1  0
 10 31  1  0
 11 12  1  0
 11 32  1  0
 11 33  1  0
 12 13  1  0
 12 34  1  0
 12 35  1  0
 13 14  2  0
 13 36  1  0
 14 15  1  0
 14 37  1  0
 15 16  1  0
 15 38  1  0
 15 39  1  0
 16 40  1  0
 16 41  1  0
 17 18  1  0
 17 42  1  0
 18 19  1  6
 18 22  1  0
 18 20  1  0
 20 21  1  0
 20 43  1  0
 20 44  1  0
 21 22  1  0
 21 45  1  0
 21 46  1  0
 22 23  1  0
 22 47  1  1
 23 48  1  0
 24 25  1  0
 24 49  1  0
 24 50  1  0
 25 51  1  0
M  CHG  1   6   1
M  END
>  <DOCK_score>  (1) 
-41.93298

>  <SMILES>  (1) 
O=C1NCC([NH+]=C(NC2CCC=CCC2)N[C@@H]2CCC2O)CN1

$$$$
