Cc1n[nH]cc1C[NH2+]Cc1c[nH]nc1-c1ccc(Nc2ccccc2)o1
     RDKit          3D

 47 50  0  0  0  0  0  0  0  0999 V2000
  132.0663  137.4542  163.7338 C   0  0  0  0  0  0  0  0  0  0  0  0
  132.9585  137.1426  162.5600 C   0  0  0  0  0  0  0  0  0  0  0  0
  134.2211  136.8055  162.6243 N   0  0  0  0  0  0  0  0  0  0  0  0
  134.6866  136.6018  161.3189 N   0  0  0  0  0  0  0  0  0  0  0  0
  135.5874  136.3434  161.0680 H   0  0  0  0  0  0  0  0  0  0  0  0
  133.6593  136.8229  160.4722 C   0  0  0  0  0  0  0  0  0  0  0  0
  132.5801  137.1642  161.2136 C   0  0  0  0  0  0  0  0  0  0  0  0
  131.2106  137.5018  160.6828 C   0  0  0  0  0  0  0  0  0  0  0  0
  130.8309  136.5266  159.6519 N   0  0  0  0  0  0  0  0  0  0  0  0
  131.5007  136.5564  158.8978 H   0  0  0  0  0  0  0  0  0  0  0  0
  129.9141  136.7526  159.2965 H   0  0  0  0  0  0  0  0  0  0  0  0
  130.8112  135.1790  160.2361 C   0  0  0  0  0  0  0  0  0  0  0  0
  130.4216  134.1785  159.1785 C   0  0  0  0  0  0  0  0  0  0  0  0
  131.2663  133.5251  158.3525 C   0  0  0  0  0  0  0  0  0  0  0  0
  130.5320  132.7188  157.5555 N   0  0  0  0  0  0  0  0  0  0  0  0
  130.8791  132.1309  156.8665 H   0  0  0  0  0  0  0  0  0  0  0  0
  129.1823  132.8828  157.8922 N   0  0  0  0  0  0  0  0  0  0  0  0
  129.1088  133.7628  158.8714 C   0  0  0  0  0  0  0  0  0  0  0  0
  127.8717  134.2303  159.5299 C   0  0  0  0  0  0  0  0  0  0  0  0
  126.6092  133.8221  159.2343 C   0  0  0  0  0  0  0  0  0  0  0  0
  125.7422  134.5178  160.0995 C   0  0  0  0  0  0  0  0  0  0  0  0
  126.5158  135.3144  160.8786 C   0  0  0  0  0  0  0  0  0  0  0  0
  126.0565  136.1719  161.8719 N   0  0  0  0  0  0  0  0  0  0  0  0
  126.8597  136.4506  162.9803 C   0  0  0  0  0  0  0  0  0  0  0  0
  126.7620  137.6805  163.6193 C   0  0  0  0  0  0  0  0  0  0  0  0
  127.5539  137.9507  164.7180 C   0  0  0  0  0  0  0  0  0  0  0  0
  128.4507  137.0027  165.1759 C   0  0  0  0  0  0  0  0  0  0  0  0
  128.5546  135.7796  164.5388 C   0  0  0  0  0  0  0  0  0  0  0  0
  127.7622  135.5007  163.4428 C   0  0  0  0  0  0  0  0  0  0  0  0
  127.8016  135.1314  160.5320 O   0  0  0  0  0  0  0  0  0  0  0  0
  131.5833  136.5390  164.0762 H   0  0  0  0  0  0  0  0  0  0  0  0
  132.6637  137.8742  164.5429 H   0  0  0  0  0  0  0  0  0  0  0  0
  131.3064  138.1747  163.4314 H   0  0  0  0  0  0  0  0  0  0  0  0
  133.6933  136.7440  159.3956 H   0  0  0  0  0  0  0  0  0  0  0  0
  131.2254  138.5017  160.2492 H   0  0  0  0  0  0  0  0  0  0  0  0
  130.4872  137.4696  161.4974 H   0  0  0  0  0  0  0  0  0  0  0  0
  130.0876  135.1468  161.0508 H   0  0  0  0  0  0  0  0  0  0  0  0
  131.8016  134.9348  160.6201 H   0  0  0  0  0  0  0  0  0  0  0  0
  132.3413  133.6271  158.3340 H   0  0  0  0  0  0  0  0  0  0  0  0
  126.3253  133.1026  158.4806 H   0  0  0  0  0  0  0  0  0  0  0  0
  124.6662  134.4335  160.1351 H   0  0  0  0  0  0  0  0  0  0  0  0
  125.1783  136.5767  161.7953 H   0  0  0  0  0  0  0  0  0  0  0  0
  126.0652  138.4229  163.2595 H   0  0  0  0  0  0  0  0  0  0  0  0
  127.4756  138.9048  165.2176 H   0  0  0  0  0  0  0  0  0  0  0  0
  129.0717  137.2182  166.0329 H   0  0  0  0  0  0  0  0  0  0  0  0
  129.2565  135.0419  164.8986 H   0  0  0  0  0  0  0  0  0  0  0  0
  127.8441  134.5455  162.9454 H   0  0  0  0  0  0  0  0  0  0  0  0
  1  2  1  0
  1 31  1  0
  1 32  1  0
  1 33  1  0
  2  7  1  0
  2  3  2  0
  3  4  1  0
  4  5  1  0
  4  6  1  0
  6  7  2  0
  6 34  1  0
  7  8  1  0
  8  9  1  0
  8 35  1  0
  8 36  1  0
  9 10  1  0
  9 11  1  0
  9 12  1  0
 12 13  1  0
 12 37  1  0
 12 38  1  0
 13 18  1  0
 13 14  2  0
 14 15  1  0
 14 39  1  0
 15 16  1  0
 15 17  1  0
 17 18  2  0
 18 19  1  0
 19 30  1  0
 19 20  2  0
 20 21  1  0
 20 40  1  0
 21 22  2  0
 21 41  1  0
 22 23  1  0
 22 30  1  0
 23 24  1  0
 23 42  1  0
 24 29  1  0
 24 25  2  0
 25 26  1  0
 25 43  1  0
 26 27  2  0
 26 44  1  0
 27 28  1  0
 27 45  1  0
 28 29  2  0
 28 46  1  0
 29 47  1  0
M  CHG  1   9   1
M  END
>  <DOCK_score>  (1) 
-44.999672

>  <SMILES>  (1) 
Cc1n[nH]cc1C[NH2+]Cc1c[nH]nc1-c1ccc(Nc2ccccc2)o1

$$$$
