Cc1cccc(N2CC[NH+]([C@@H](c3ccc(F)cc3)c3cccc(F)c3)CC2)c1C
     RDKit          3D

 56 59  0  0  1  0  0  0  0  0999 V2000
  135.9835  141.1406  162.6966 C   0  0  0  0  0  0  0  0  0  0  0  0
  135.4000  140.4263  161.5049 C   0  0  0  0  0  0  0  0  0  0  0  0
  135.7842  140.7880  160.2265 C   0  0  0  0  0  0  0  0  0  0  0  0
  135.2510  140.1356  159.1303 C   0  0  0  0  0  0  0  0  0  0  0  0
  134.3326  139.1195  159.3087 C   0  0  0  0  0  0  0  0  0  0  0  0
  133.9446  138.7536  160.5912 C   0  0  0  0  0  0  0  0  0  0  0  0
  133.0157  137.7268  160.7753 N   0  0  0  0  0  0  0  0  0  0  0  0
  131.7121  138.0863  160.1995 C   0  0  0  0  0  0  0  0  0  0  0  0
  130.7095  136.9633  160.4740 C   0  0  0  0  0  0  0  0  0  0  0  0
  131.1991  135.7132  159.8784 N   0  0  0  0  0  0  0  0  0  0  0  0
  131.3158  135.8377  158.8839 H   0  0  0  0  0  0  0  0  0  0  0  0
  130.2277  134.6395  160.1266 C   0  0  1  0  0  0  0  0  0  0  0  0
  130.1013  134.5052  161.2008 H   0  0  0  0  0  0  0  0  0  0  0  0
  128.9040  135.0067  159.5070 C   0  0  0  0  0  0  0  0  0  0  0  0
  127.7274  134.5440  160.0664 C   0  0  0  0  0  0  0  0  0  0  0  0
  126.5133  134.8753  159.4959 C   0  0  0  0  0  0  0  0  0  0  0  0
  126.4752  135.6716  158.3637 C   0  0  0  0  0  0  0  0  0  0  0  0
  125.2887  135.9961  157.8051 F   0  0  0  0  0  0  0  0  0  0  0  0
  127.6542  136.1345  157.8044 C   0  0  0  0  0  0  0  0  0  0  0  0
  128.8672  135.8014  158.3764 C   0  0  0  0  0  0  0  0  0  0  0  0
  130.7297  133.3566  159.5156 C   0  0  0  0  0  0  0  0  0  0  0  0
  130.9662  133.2854  158.1551 C   0  0  0  0  0  0  0  0  0  0  0  0
  131.4264  132.1093  157.5932 C   0  0  0  0  0  0  0  0  0  0  0  0
  131.6513  131.0033  158.3910 C   0  0  0  0  0  0  0  0  0  0  0  0
  131.4152  131.0736  159.7533 C   0  0  0  0  0  0  0  0  0  0  0  0
  131.6343  129.9929  160.5339 F   0  0  0  0  0  0  0  0  0  0  0  0
  130.9588  132.2537  160.3159 C   0  0  0  0  0  0  0  0  0  0  0  0
  132.4895  135.3544  160.4812 C   0  0  0  0  0  0  0  0  0  0  0  0
  133.5071  136.4639  160.2065 C   0  0  0  0  0  0  0  0  0  0  0  0
  134.4781  139.4151  161.6903 C   0  0  0  0  0  0  0  0  0  0  0  0
  134.0553  139.0259  163.0834 C   0  0  0  0  0  0  0  0  0  0  0  0
  135.3591  141.9981  162.9478 H   0  0  0  0  0  0  0  0  0  0  0  0
  136.0227  140.4584  163.5457 H   0  0  0  0  0  0  0  0  0  0  0  0
  136.9908  141.4822  162.4582 H   0  0  0  0  0  0  0  0  0  0  0  0
  136.5021  141.5823  160.0842 H   0  0  0  0  0  0  0  0  0  0  0  0
  135.5532  140.4205  158.1333 H   0  0  0  0  0  0  0  0  0  0  0  0
  133.9165  138.6102  158.4520 H   0  0  0  0  0  0  0  0  0  0  0  0
  131.8160  138.2262  159.1235 H   0  0  0  0  0  0  0  0  0  0  0  0
  131.3562  139.0108  160.6541 H   0  0  0  0  0  0  0  0  0  0  0  0
  129.7456  137.2217  160.0354 H   0  0  0  0  0  0  0  0  0  0  0  0
  130.5957  136.8330  161.5502 H   0  0  0  0  0  0  0  0  0  0  0  0
  127.7574  133.9229  160.9495 H   0  0  0  0  0  0  0  0  0  0  0  0
  125.5942  134.5134  159.9328 H   0  0  0  0  0  0  0  0  0  0  0  0
  127.6257  136.7559  156.9215 H   0  0  0  0  0  0  0  0  0  0  0  0
  129.7869  136.1623  157.9403 H   0  0  0  0  0  0  0  0  0  0  0  0
  130.7911  134.1493  157.5310 H   0  0  0  0  0  0  0  0  0  0  0  0
  131.6103  132.0547  156.5304 H   0  0  0  0  0  0  0  0  0  0  0  0
  132.0114  130.0846  157.9518 H   0  0  0  0  0  0  0  0  0  0  0  0
  130.7785  132.3111  161.3792 H   0  0  0  0  0  0  0  0  0  0  0  0
  132.3665  135.2324  161.5574 H   0  0  0  0  0  0  0  0  0  0  0  0
  132.8456  134.4197  160.0480 H   0  0  0  0  0  0  0  0  0  0  0  0
  133.6405  136.5770  159.1306 H   0  0  0  0  0  0  0  0  0  0  0  0
  134.4609  136.2046  160.6663 H   0  0  0  0  0  0  0  0  0  0  0  0
  134.7185  138.2471  163.4601 H   0  0  0  0  0  0  0  0  0  0  0  0
  134.1098  139.8969  163.7364 H   0  0  0  0  0  0  0  0  0  0  0  0
  133.0317  138.6519  163.0613 H   0  0  0  0  0  0  0  0  0  0  0  0
  1  2  1  0
  1 32  1  0
  1 33  1  0
  1 34  1  0
  2 30  2  0
  2  3  1  0
  3  4  2  0
  3 35  1  0
  4  5  1  0
  4 36  1  0
  5  6  2  0
  5 37  1  0
  6  7  1  0
  6 30  1  0
  7 29  1  0
  7  8  1  0
  8  9  1  0
  8 38  1  0
  8 39  1  0
  9 10  1  0
  9 40  1  0
  9 41  1  0
 10 11  1  0
 10 12  1  0
 10 28  1  0
 12 13  1  1
 12 14  1  0
 12 21  1  0
 14 20  1  0
 14 15  2  0
 15 16  1  0
 15 42  1  0
 16 17  2  0
 16 43  1  0
 17 18  1  0
 17 19  1  0
 19 20  2  0
 19 44  1  0
 20 45  1  0
 21 27  1  0
 21 22  2  0
 22 23  1  0
 22 46  1  0
 23 24  2  0
 23 47  1  0
 24 25  1  0
 24 48  1  0
 25 26  1  0
 25 27  2  0
 27 49  1  0
 28 29  1  0
 28 50  1  0
 28 51  1  0
 29 52  1  0
 29 53  1  0
 30 31  1  0
 31 54  1  0
 31 55  1  0
 31 56  1  0
M  CHG  1  10   1
M  END
>  <DOCK_score>  (1) 
-57.300163

>  <SMILES>  (1) 
Cc1cccc(N2CC[NH+]([C@@H](c3ccc(F)cc3)c3cccc(F)c3)CC2)c1C

$$$$
