Cn1nccc1C(C)(O)c1c[nH]c(C=CC[NH+]=C(N[C@@H]2CCC(=O)NC2)N[C@H]2CCC(=O)NC2)n1
     RDKit          3D

 69 72  0  0  1  0  0  0  0  0999 V2000
  130.4039  138.8530  165.0182 C   0  0  0  0  0  0  0  0  0  0  0  0
  129.6293  139.7614  164.1691 N   0  0  0  0  0  0  0  0  0  0  0  0
  128.2747  139.6265  163.8385 N   0  0  0  0  0  0  0  0  0  0  0  0
  127.9413  140.6269  163.0641 C   0  0  0  0  0  0  0  0  0  0  0  0
  129.0698  141.4326  162.8809 C   0  0  0  0  0  0  0  0  0  0  0  0
  130.0948  140.8756  163.5666 C   0  0  0  0  0  0  0  0  0  0  0  0
  131.5023  141.4077  163.6483 C   0  0  2  0  0  0  0  0  0  0  0  0
  131.8494  141.7101  165.1074 C   0  0  0  0  0  0  0  0  0  0  0  0
  131.6041  142.6060  162.8763 O   0  0  0  0  0  0  0  0  0  0  0  0
  132.4608  140.3785  163.1070 C   0  0  0  0  0  0  0  0  0  0  0  0
  133.8005  140.5138  163.0254 C   0  0  0  0  0  0  0  0  0  0  0  0
  134.2891  139.3550  162.4848 N   0  0  0  0  0  0  0  0  0  0  0  0
  135.2199  139.1494  162.3056 H   0  0  0  0  0  0  0  0  0  0  0  0
  133.2166  138.5446  162.2429 C   0  0  0  0  0  0  0  0  0  0  0  0
  133.2707  137.1942  161.6590 C   0  0  0  0  0  0  0  0  0  0  0  0
  132.1495  136.5051  161.4739 C   0  0  0  0  0  0  0  0  0  0  0  0
  132.2047  135.1228  160.8762 C   0  0  0  0  0  0  0  0  0  0  0  0
  131.4277  135.0963  159.6345 N   0  0  0  0  0  0  0  0  0  0  0  0
  131.8566  135.3026  158.7894 H   0  0  0  0  0  0  0  0  0  0  0  0
  130.1609  134.7905  159.6649 C   0  0  0  0  0  0  0  0  0  0  0  0
  129.5769  134.1727  158.5844 N   0  0  0  0  0  0  0  0  0  0  0  0
  130.3720  133.2895  157.7275 C   0  0  2  0  0  0  0  0  0  0  0  0
  131.1997  133.8499  157.2929 H   0  0  0  0  0  0  0  0  0  0  0  0
  129.4870  132.7230  156.6107 C   0  0  0  0  0  0  0  0  0  0  0  0
  130.3776  131.9554  155.6303 C   0  0  0  0  0  0  0  0  0  0  0  0
  131.2750  131.0159  156.3835 C   0  0  0  0  0  0  0  0  0  0  0  0
  131.8045  130.1130  155.7707 O   0  0  0  0  0  0  0  0  0  0  0  0
  131.5211  131.1213  157.6899 N   0  0  0  0  0  0  0  0  0  0  0  0
  130.9187  132.1266  158.5565 C   0  0  0  0  0  0  0  0  0  0  0  0
  129.4089  135.0858  160.7772 N   0  0  0  0  0  0  0  0  0  0  0  0
  127.9852  134.7420  160.8112 C   0  0  1  0  0  0  0  0  0  0  0  0
  127.5771  134.7737  159.8010 H   0  0  0  0  0  0  0  0  0  0  0  0
  127.8097  133.3341  161.3930 C   0  0  0  0  0  0  0  0  0  0  0  0
  126.3403  132.9305  161.2482 C   0  0  0  0  0  0  0  0  0  0  0  0
  125.4552  134.0333  161.7542 C   0  0  0  0  0  0  0  0  0  0  0  0
  124.3012  133.7683  162.0166 O   0  0  0  0  0  0  0  0  0  0  0  0
  125.8706  135.2881  161.9307 N   0  0  0  0  0  0  0  0  0  0  0  0
  127.2384  135.7362  161.7013 C   0  0  0  0  0  0  0  0  0  0  0  0
  132.1274  139.1757  162.6267 N   0  0  0  0  0  0  0  0  0  0  0  0
  130.2895  139.1455  166.0620 H   0  0  0  0  0  0  0  0  0  0  0  0
  130.0418  137.8336  164.8849 H   0  0  0  0  0  0  0  0  0  0  0  0
  131.4564  138.9042  164.7397 H   0  0  0  0  0  0  0  0  0  0  0  0
  126.9626  140.8024  162.6423 H   0  0  0  0  0  0  0  0  0  0  0  0
  129.1156  142.3380  162.2942 H   0  0  0  0  0  0  0  0  0  0  0  0
  132.8201  142.2039  165.1553 H   0  0  0  0  0  0  0  0  0  0  0  0
  131.0882  142.3633  165.5341 H   0  0  0  0  0  0  0  0  0  0  0  0
  131.8872  140.7788  165.6725 H   0  0  0  0  0  0  0  0  0  0  0  0
  132.4851  143.0046  162.8833 H   0  0  0  0  0  0  0  0  0  0  0  0
  134.3790  141.3724  163.3332 H   0  0  0  0  0  0  0  0  0  0  0  0
  134.2213  136.7635  161.3813 H   0  0  0  0  0  0  0  0  0  0  0  0
  131.1989  136.9357  161.7517 H   0  0  0  0  0  0  0  0  0  0  0  0
  131.7866  134.4049  161.5818 H   0  0  0  0  0  0  0  0  0  0  0  0
  133.2408  134.8607  160.6620 H   0  0  0  0  0  0  0  0  0  0  0  0
  128.6385  134.3216  158.3893 H   0  0  0  0  0  0  0  0  0  0  0  0
  128.7443  132.0487  157.0374 H   0  0  0  0  0  0  0  0  0  0  0  0
  128.9861  133.5390  156.0898 H   0  0  0  0  0  0  0  0  0  0  0  0
  130.9856  132.6615  155.0648 H   0  0  0  0  0  0  0  0  0  0  0  0
  129.7523  131.3858  154.9428 H   0  0  0  0  0  0  0  0  0  0  0  0
  132.1400  130.4895  158.0883 H   0  0  0  0  0  0  0  0  0  0  0  0
  131.6710  132.5014  159.2504 H   0  0  0  0  0  0  0  0  0  0  0  0
  130.1049  131.6735  159.1224 H   0  0  0  0  0  0  0  0  0  0  0  0
  129.8209  135.5216  161.5394 H   0  0  0  0  0  0  0  0  0  0  0  0
  128.4389  132.6306  160.8476 H   0  0  0  0  0  0  0  0  0  0  0  0
  128.0884  133.3351  162.4467 H   0  0  0  0  0  0  0  0  0  0  0  0
  126.1185  132.7414  160.1978 H   0  0  0  0  0  0  0  0  0  0  0  0
  126.1548  132.0251  161.8262 H   0  0  0  0  0  0  0  0  0  0  0  0
  125.2217  135.9438  162.2306 H   0  0  0  0  0  0  0  0  0  0  0  0
  127.7545  135.8219  162.6575 H   0  0  0  0  0  0  0  0  0  0  0  0
  127.2213  136.7120  161.2159 H   0  0  0  0  0  0  0  0  0  0  0  0
  1  2  1  0
  1 40  1  0
  1 41  1  0
  1 42  1  0
  2  6  1  0
  2  3  1  0
  3  4  2  0
  4  5  1  0
  4 43  1  0
  5  6  2  0
  5 44  1  0
  6  7  1  0
  7  8  1  0
  7  9  1  6
  7 10  1  0
  8 45  1  0
  8 46  1  0
  8 47  1  0
  9 48  1  0
 10 39  1  0
 10 11  2  0
 11 12  1  0
 11 49  1  0
 12 13  1  0
 12 14  1  0
 14 15  1  0
 14 39  2  0
 15 16  2  0
 15 50  1  0
 16 17  1  0
 16 51  1  0
 17 18  1  0
 17 52  1  0
 17 53  1  0
 18 19  1  0
 20 18  2  0
 20 21  1  0
 20 30  1  0
 21 22  1  0
 21 54  1  0
 22 23  1  6
 22 29  1  0
 22 24  1  0
 24 25  1  0
 24 55  1  0
 24 56  1  0
 25 26  1  0
 25 57  1  0
 25 58  1  0
 26 27  2  0
 26 28  1  0
 28 29  1  0
 28 59  1  0
 29 60  1  0
 29 61  1  0
 30 31  1  0
 30 62  1  0
 31 32  1  6
 31 38  1  0
 31 33  1  0
 33 34  1  0
 33 63  1  0
 33 64  1  0
 34 35  1  0
 34 65  1  0
 34 66  1  0
 35 36  2  0
 35 37  1  0
 37 38  1  0
 37 67  1  0
 38 68  1  0
 38 69  1  0
M  CHG  1  18   1
M  END
>  <DOCK_score>  (1) 
-48.745159

>  <SMILES>  (1) 
Cn1nccc1C(C)(O)c1c[nH]c(C=CC[NH+]=C(N[C@@H]2CCC(=O)NC2)N[C@H]2CCC(=O)NC2)n1

$$$$
