Cc1cc(O)cc(CNC(N[C@@H]2CC=C(c3ccc(N)cc3)C2)=[NH+]C2COC2)c1
     RDKit          3D

 58 61  0  0  1  0  0  0  0  0999 V2000
  131.9800  141.4781  162.4116 C   0  0  0  0  0  0  0  0  0  0  0  0
  132.3582  140.0217  162.4938 C   0  0  0  0  0  0  0  0  0  0  0  0
  133.1928  139.5809  163.5029 C   0  0  0  0  0  0  0  0  0  0  0  0
  133.5404  138.2402  163.5778 C   0  0  0  0  0  0  0  0  0  0  0  0
  134.3608  137.8043  164.5698 O   0  0  0  0  0  0  0  0  0  0  0  0
  133.0488  137.3450  162.6388 C   0  0  0  0  0  0  0  0  0  0  0  0
  132.2147  137.7903  161.6320 C   0  0  0  0  0  0  0  0  0  0  0  0
  131.6809  136.8186  160.6114 C   0  0  0  0  0  0  0  0  0  0  0  0
  130.4101  136.2634  161.0838 N   0  0  0  0  0  0  0  0  0  0  0  0
  129.7316  135.3481  160.3145 C   0  0  0  0  0  0  0  0  0  0  0  0
  130.2455  134.9537  159.1019 N   0  0  0  0  0  0  0  0  0  0  0  0
  129.5224  133.9783  158.2821 C   0  0  2  0  0  0  0  0  0  0  0  0
  128.5311  134.3491  158.0211 H   0  0  0  0  0  0  0  0  0  0  0  0
  129.4315  132.6111  158.9977 C   0  0  0  0  0  0  0  0  0  0  0  0
  129.5734  131.5876  157.8951 C   0  0  0  0  0  0  0  0  0  0  0  0
  130.0683  132.1408  156.8010 C   0  0  0  0  0  0  0  0  0  0  0  0
  130.3313  131.4166  155.5403 C   0  0  0  0  0  0  0  0  0  0  0  0
  129.6826  131.8002  154.3651 C   0  0  0  0  0  0  0  0  0  0  0  0
  129.9342  131.1264  153.1895 C   0  0  0  0  0  0  0  0  0  0  0  0
  130.8241  130.0587  153.1753 C   0  0  0  0  0  0  0  0  0  0  0  0
  131.0717  129.3742  151.9848 N   0  0  0  0  0  0  0  0  0  0  0  0
  131.4676  129.6703  154.3457 C   0  0  0  0  0  0  0  0  0  0  0  0
  131.2244  130.3438  155.5231 C   0  0  0  0  0  0  0  0  0  0  0  0
  130.3289  133.6138  157.0146 C   0  0  0  0  0  0  0  0  0  0  0  0
  128.6010  134.8542  160.7347 N   0  0  0  0  0  0  0  0  0  0  0  0
  128.1221  134.2083  160.1920 H   0  0  0  0  0  0  0  0  0  0  0  0
  128.0532  135.2744  162.0270 C   0  0  0  0  0  0  0  0  0  0  0  0
  126.7947  134.4948  162.4522 C   0  0  0  0  0  0  0  0  0  0  0  0
  126.2711  135.7784  162.8482 O   0  0  0  0  0  0  0  0  0  0  0  0
  127.1263  136.5015  161.9402 C   0  0  0  0  0  0  0  0  0  0  0  0
  131.8739  139.1284  161.5562 C   0  0  0  0  0  0  0  0  0  0  0  0
  132.7057  142.0076  161.7942 H   0  0  0  0  0  0  0  0  0  0  0  0
  130.9887  141.5717  161.9683 H   0  0  0  0  0  0  0  0  0  0  0  0
  131.9724  141.9085  163.4130 H   0  0  0  0  0  0  0  0  0  0  0  0
  133.5738  140.2798  164.2328 H   0  0  0  0  0  0  0  0  0  0  0  0
  134.5454  136.8556  164.5389 H   0  0  0  0  0  0  0  0  0  0  0  0
  133.3177  136.3004  162.6953 H   0  0  0  0  0  0  0  0  0  0  0  0
  132.3990  136.0113  160.4680 H   0  0  0  0  0  0  0  0  0  0  0  0
  131.5220  137.3360  159.6653 H   0  0  0  0  0  0  0  0  0  0  0  0
  130.0475  136.5417  161.9393 H   0  0  0  0  0  0  0  0  0  0  0  0
  131.0870  135.3212  158.7890 H   0  0  0  0  0  0  0  0  0  0  0  0
  130.2416  132.5060  159.7194 H   0  0  0  0  0  0  0  0  0  0  0  0
  128.4658  132.5050  159.4920 H   0  0  0  0  0  0  0  0  0  0  0  0
  129.3067  130.5451  157.9883 H   0  0  0  0  0  0  0  0  0  0  0  0
  128.9875  132.6267  154.3763 H   0  0  0  0  0  0  0  0  0  0  0  0
  129.4361  131.4256  152.2791 H   0  0  0  0  0  0  0  0  0  0  0  0
  131.6927  128.6286  151.9742 H   0  0  0  0  0  0  0  0  0  0  0  0
  130.6235  129.6435  151.1683 H   0  0  0  0  0  0  0  0  0  0  0  0
  132.1584  128.8403  154.3318 H   0  0  0  0  0  0  0  0  0  0  0  0
  131.7245  130.0422  156.4316 H   0  0  0  0  0  0  0  0  0  0  0  0
  129.9735  134.1898  156.1602 H   0  0  0  0  0  0  0  0  0  0  0  0
  131.3917  133.7934  157.1765 H   0  0  0  0  0  0  0  0  0  0  0  0
  128.8112  135.3495  162.8067 H   0  0  0  0  0  0  0  0  0  0  0  0
  126.2579  134.0368  161.6214 H   0  0  0  0  0  0  0  0  0  0  0  0
  126.9601  133.8103  163.2842 H   0  0  0  0  0  0  0  0  0  0  0  0
  127.5547  137.4088  162.3662 H   0  0  0  0  0  0  0  0  0  0  0  0
  126.6908  136.6564  160.9531 H   0  0  0  0  0  0  0  0  0  0  0  0
  131.2249  139.4756  160.7658 H   0  0  0  0  0  0  0  0  0  0  0  0
  1  2  1  0
  1 32  1  0
  1 33  1  0
  1 34  1  0
  2 31  2  0
  2  3  1  0
  3  4  2  0
  3 35  1  0
  4  5  1  0
  4  6  1  0
  5 36  1  0
  6  7  2  0
  6 37  1  0
  7  8  1  0
  7 31  1  0
  8  9  1  0
  8 38  1  0
  8 39  1  0
  9 40  1  0
 10  9  1  0
 10 11  1  0
 10 25  2  0
 11 12  1  0
 11 41  1  0
 12 13  1  6
 12 24  1  0
 12 14  1  0
 14 15  1  0
 14 42  1  0
 14 43  1  0
 15 16  2  0
 15 44  1  0
 16 17  1  0
 16 24  1  0
 17 23  1  0
 17 18  2  0
 18 19  1  0
 18 45  1  0
 19 20  2  0
 19 46  1  0
 20 21  1  0
 20 22  1  0
 21 47  1  0
 21 48  1  0
 22 23  2  0
 22 49  1  0
 23 50  1  0
 24 51  1  0
 24 52  1  0
 25 26  1  0
 25 27  1  0
 27 30  1  0
 27 28  1  0
 27 53  1  0
 28 29  1  0
 28 54  1  0
 28 55  1  0
 29 30  1  0
 30 56  1  0
 30 57  1  0
 31 58  1  0
M  CHG  1  25   1
M  END
>  <DOCK_score>  (1) 
-43.311981

>  <SMILES>  (1) 
Cc1cc(O)cc(CNC(N[C@@H]2CC=C(c3ccc(N)cc3)C2)=[NH+]C2COC2)c1

$$$$
