
     RDKit          2D

 30 34  0  0  0  0  0  0  0  0999 V2000
   -1.5574    0.7500    0.0000 C   0  0  0  0  0  0  0  0  0  0  0  0
   -0.3846    1.6852    0.0000 C   0  0  0  0  0  0  0  0  0  0  0  0
    1.0777    1.3515    0.0000 C   0  0  0  0  0  0  0  0  0  0  0  0
    1.7286    0.0000    0.0000 C   0  0  0  0  0  0  0  0  0  0  0  0
    1.0777   -1.3515    0.0000 C   0  0  0  0  0  0  0  0  0  0  0  0
   -0.3846   -1.6852    0.0000 C   0  0  0  0  0  0  0  0  0  0  0  0
   -1.5574   -0.7500    0.0000 C   0  0  0  0  0  0  0  0  0  0  0  0
   -0.2508   -0.4013    0.0000 C   0  0  0  0  0  0  0  0  0  0  0  0
    0.4471    0.1552    0.0000 C   0  0  0  0  0  0  0  0  0  0  0  0
    2.4292   -0.7994    0.0000 C   0  0  0  0  0  0  0  0  0  0  0  0
    2.5413   -2.2952    0.0000 N   0  0  0  0  0  0  0  0  0  0  0  0
    3.8927   -2.9460    0.0000 C   0  0  0  0  0  0  0  0  0  0  0  0
    5.2136   -2.2352    0.0000 N   0  0  0  0  0  0  0  0  0  0  0  0
    6.2978   -3.2718    0.0000 C   0  0  0  0  0  0  0  0  0  0  0  0
    7.7737   -3.0040    0.0000 C   0  0  0  0  0  0  0  0  0  0  0  0
    8.5860   -4.2650    0.0000 C   0  0  0  0  0  0  0  0  0  0  0  0
   10.0520   -4.5824    0.0000 C   0  0  0  0  0  0  0  0  0  0  0  0
   11.3131   -3.7701    0.0000 C   0  0  0  0  0  0  0  0  0  0  0  0
   11.6304   -2.3041    0.0000 C   0  0  0  0  0  0  0  0  0  0  0  0
   10.8182   -1.0430    0.0000 C   0  0  0  0  0  0  0  0  0  0  0  0
    9.3521   -0.7257    0.0000 C   0  0  0  0  0  0  0  0  0  0  0  0
    8.0911   -1.5379    0.0000 C   0  0  0  0  0  0  0  0  0  0  0  0
    5.6470   -4.6232    0.0000 C   0  0  0  0  0  0  0  0  0  0  0  0
    4.1606   -4.4219    0.0000 N   0  0  0  0  0  0  0  0  0  0  0  0
    3.6686    0.0456    0.0000 C   0  0  0  0  0  0  0  0  0  0  0  0
    5.0200   -0.6052    0.0000 C   0  0  0  0  0  0  0  0  0  0  0  0
    6.2594    0.2398    0.0000 C   0  0  0  0  0  0  0  0  0  0  0  0
    6.1473    1.7356    0.0000 C   0  0  0  0  0  0  0  0  0  0  0  0
    4.7958    2.3864    0.0000 C   0  0  0  0  0  0  0  0  0  0  0  0
    3.5565    1.5414    0.0000 C   0  0  0  0  0  0  0  0  0  0  0  0
  1  2  2  0
  2  3  1  0
  3  4  1  0
  4  5  1  0
  5  6  1  0
  6  7  1  0
  7  8  1  0
  8  9  2  0
  9 10  1  0
 10 11  1  0
 11 12  1  0
 12 13  2  0
 13 14  1  0
 14 15  1  0
 15 16  2  0
 16 17  1  0
 17 18  1  0
 18 19  1  0
 19 20  2  0
 20 21  1  0
 21 22  1  0
 14 23  2  0
 23 24  1  0
 10 25  1  0
 25 26  2  0
 26 27  1  0
 27 28  2  0
 28 29  1  0
 29 30  2  0
  7  1  1  0
 24 12  1  0
 30 25  1  0
  9  3  1  0
 22 15  1  0
M  END
$$$$
