[NH3+][C@@H](C(=O)Nc1cccc(O)c1)c1cccc(NCCc2cccc(Cl)c2)c1
     RDKit          3D

 51 53  0  0  1  0  0  0  0  0999 V2000
  130.6677  134.1924  157.4588 N   0  0  0  0  0  0  0  0  0  0  0  0
  131.5775  134.5997  157.3023 H   0  0  0  0  0  0  0  0  0  0  0  0
  130.7577  133.1912  157.5445 H   0  0  0  0  0  0  0  0  0  0  0  0
  130.0633  134.4105  156.6808 H   0  0  0  0  0  0  0  0  0  0  0  0
  130.0921  134.7400  158.6945 C   0  0  1  0  0  0  0  0  0  0  0  0
  129.9951  135.8216  158.6019 H   0  0  0  0  0  0  0  0  0  0  0  0
  128.7333  134.1316  158.9282 C   0  0  0  0  0  0  0  0  0  0  0  0
  128.2882  133.3216  158.1427 O   0  0  0  0  0  0  0  0  0  0  0  0
  128.0126  134.4877  160.0101 N   0  0  0  0  0  0  0  0  0  0  0  0
  126.7510  133.9229  160.2271 C   0  0  0  0  0  0  0  0  0  0  0  0
  126.4782  132.6367  159.7784 C   0  0  0  0  0  0  0  0  0  0  0  0
  125.2327  132.0794  159.9925 C   0  0  0  0  0  0  0  0  0  0  0  0
  124.2572  132.7964  160.6591 C   0  0  0  0  0  0  0  0  0  0  0  0
  124.5222  134.0837  161.1044 C   0  0  0  0  0  0  0  0  0  0  0  0
  123.5600  134.7899  161.7542 O   0  0  0  0  0  0  0  0  0  0  0  0
  125.7708  134.6467  160.8910 C   0  0  0  0  0  0  0  0  0  0  0  0
  130.9949  134.4143  159.8564 C   0  0  0  0  0  0  0  0  0  0  0  0
  130.8124  133.2407  160.5651 C   0  0  0  0  0  0  0  0  0  0  0  0
  131.6420  132.9353  161.6282 C   0  0  0  0  0  0  0  0  0  0  0  0
  132.6491  133.8075  161.9932 C   0  0  0  0  0  0  0  0  0  0  0  0
  132.8315  134.9896  161.2871 C   0  0  0  0  0  0  0  0  0  0  0  0
  133.8484  135.8739  161.6536 N   0  0  0  0  0  0  0  0  0  0  0  0
  134.7244  135.5552  162.7839 C   0  0  0  0  0  0  0  0  0  0  0  0
  135.7443  136.6801  162.9718 C   0  0  0  0  0  0  0  0  0  0  0  0
  136.6453  136.3521  164.1344 C   0  0  0  0  0  0  0  0  0  0  0  0
  137.8129  135.6418  163.9252 C   0  0  0  0  0  0  0  0  0  0  0  0
  138.6422  135.3449  164.9904 C   0  0  0  0  0  0  0  0  0  0  0  0
  138.2992  135.7490  166.2672 C   0  0  0  0  0  0  0  0  0  0  0  0
  137.1285  136.4551  166.4779 C   0  0  0  0  0  0  0  0  0  0  0  0
  136.6976  136.9633  168.0809 Cl  0  0  0  0  0  0  0  0  0  0  0  0
  136.3015  136.7566  165.4104 C   0  0  0  0  0  0  0  0  0  0  0  0
  131.9997  135.2907  160.2158 C   0  0  0  0  0  0  0  0  0  0  0  0
  128.3687  135.1354  160.6382 H   0  0  0  0  0  0  0  0  0  0  0  0
  127.2404  132.0725  159.2615 H   0  0  0  0  0  0  0  0  0  0  0  0
  125.0223  131.0794  159.6427 H   0  0  0  0  0  0  0  0  0  0  0  0
  123.2858  132.3560  160.8296 H   0  0  0  0  0  0  0  0  0  0  0  0
  123.8377  135.6755  162.0256 H   0  0  0  0  0  0  0  0  0  0  0  0
  125.9802  135.6469  161.2404 H   0  0  0  0  0  0  0  0  0  0  0  0
  130.0227  132.5593  160.2849 H   0  0  0  0  0  0  0  0  0  0  0  0
  131.4996  132.0160  162.1768 H   0  0  0  0  0  0  0  0  0  0  0  0
  133.2937  133.5707  162.8265 H   0  0  0  0  0  0  0  0  0  0  0  0
  133.9749  136.6992  161.1597 H   0  0  0  0  0  0  0  0  0  0  0  0
  134.1263  135.4520  163.6892 H   0  0  0  0  0  0  0  0  0  0  0  0
  135.2477  134.6198  162.5854 H   0  0  0  0  0  0  0  0  0  0  0  0
  136.3424  136.7834  162.0664 H   0  0  0  0  0  0  0  0  0  0  0  0
  135.2211  137.6155  163.1703 H   0  0  0  0  0  0  0  0  0  0  0  0
  138.0790  135.3221  162.9285 H   0  0  0  0  0  0  0  0  0  0  0  0
  139.5561  134.7935  164.8258 H   0  0  0  0  0  0  0  0  0  0  0  0
  138.9453  135.5137  167.1000 H   0  0  0  0  0  0  0  0  0  0  0  0
  135.3875  137.3082  165.5741 H   0  0  0  0  0  0  0  0  0  0  0  0
  132.1385  136.2090  159.6649 H   0  0  0  0  0  0  0  0  0  0  0  0
  1  2  1  0
  1  3  1  0
  1  4  1  0
  1  5  1  0
  5  6  1  6
  5  7  1  0
  5 17  1  0
  7  8  2  0
  7  9  1  0
  9 10  1  0
  9 33  1  0
 10 16  1  0
 10 11  2  0
 11 12  1  0
 11 34  1  0
 12 13  2  0
 12 35  1  0
 13 14  1  0
 13 36  1  0
 14 15  1  0
 14 16  2  0
 15 37  1  0
 16 38  1  0
 17 32  1  0
 17 18  2  0
 18 19  1  0
 18 39  1  0
 19 20  2  0
 19 40  1  0
 20 21  1  0
 20 41  1  0
 21 22  1  0
 21 32  2  0
 22 23  1  0
 22 42  1  0
 23 24  1  0
 23 43  1  0
 23 44  1  0
 24 25  1  0
 24 45  1  0
 24 46  1  0
 25 31  1  0
 25 26  2  0
 26 27  1  0
 26 47  1  0
 27 28  2  0
 27 48  1  0
 28 29  1  0
 28 49  1  0
 29 30  1  0
 29 31  2  0
 31 50  1  0
 32 51  1  0
M  CHG  1   1   1
M  END
>  <DOCK_score>  (1) 
-49.064835

>  <SMILES>  (1) 
[NH3+][C@@H](C(=O)Nc1cccc(O)c1)c1cccc(NCCc2cccc(Cl)c2)c1

$$$$
