Fc1ccc(CCc2cccc3[nH]c(C[NH2+]Cc4cccc5ccccc45)cc23)cc1
     RDKit          3D

 57 61  0  0  0  0  0  0  0  0999 V2000
  132.0320  132.9616  162.4999 F   0  0  0  0  0  0  0  0  0  0  0  0
  132.4642  134.0858  163.1118 C   0  0  0  0  0  0  0  0  0  0  0  0
  131.7195  134.6479  164.1347 C   0  0  0  0  0  0  0  0  0  0  0  0
  132.1622  135.7983  164.7597 C   0  0  0  0  0  0  0  0  0  0  0  0
  133.3481  136.3880  164.3634 C   0  0  0  0  0  0  0  0  0  0  0  0
  133.8297  137.6427  165.0454 C   0  0  0  0  0  0  0  0  0  0  0  0
  133.2683  138.8661  164.3180 C   0  0  0  0  0  0  0  0  0  0  0  0
  133.7399  138.8598  162.8869 C   0  0  0  0  0  0  0  0  0  0  0  0
  134.9090  139.4809  162.5472 C   0  0  0  0  0  0  0  0  0  0  0  0
  135.3509  139.4808  161.2316 C   0  0  0  0  0  0  0  0  0  0  0  0
  134.6201  138.8557  160.2447 C   0  0  0  0  0  0  0  0  0  0  0  0
  133.4273  138.2176  160.5678 C   0  0  0  0  0  0  0  0  0  0  0  0
  132.4937  137.5235  159.8312 N   0  0  0  0  0  0  0  0  0  0  0  0
  132.5437  137.3649  158.8755 H   0  0  0  0  0  0  0  0  0  0  0  0
  131.4846  137.0914  160.6479 C   0  0  0  0  0  0  0  0  0  0  0  0
  130.2858  136.2977  160.1960 C   0  0  0  0  0  0  0  0  0  0  0  0
  130.7215  135.2235  159.2935 N   0  0  0  0  0  0  0  0  0  0  0  0
  131.3637  134.6157  159.7798 H   0  0  0  0  0  0  0  0  0  0  0  0
  131.1815  135.6250  158.4902 H   0  0  0  0  0  0  0  0  0  0  0  0
  129.5531  134.4498  158.8531 C   0  0  0  0  0  0  0  0  0  0  0  0
  130.0002  133.3479  157.9274 C   0  0  0  0  0  0  0  0  0  0  0  0
  130.0738  133.5688  156.5862 C   0  0  0  0  0  0  0  0  0  0  0  0
  130.4850  132.5623  155.7149 C   0  0  0  0  0  0  0  0  0  0  0  0
  130.8250  131.3288  156.1794 C   0  0  0  0  0  0  0  0  0  0  0  0
  130.7620  131.0634  157.5577 C   0  0  0  0  0  0  0  0  0  0  0  0
  131.0997  129.8006  158.0742 C   0  0  0  0  0  0  0  0  0  0  0  0
  131.0310  129.5815  159.4156 C   0  0  0  0  0  0  0  0  0  0  0  0
  130.6201  130.5885  160.2872 C   0  0  0  0  0  0  0  0  0  0  0  0
  130.2805  131.8218  159.8229 C   0  0  0  0  0  0  0  0  0  0  0  0
  130.3441  132.0875  158.4442 C   0  0  0  0  0  0  0  0  0  0  0  0
  131.7174  137.4840  161.9102 C   0  0  0  0  0  0  0  0  0  0  0  0
  132.9838  138.2201  161.9030 C   0  0  0  0  0  0  0  0  0  0  0  0
  134.0897  135.8309  163.3383 C   0  0  0  0  0  0  0  0  0  0  0  0
  133.6519  134.6772  162.7161 C   0  0  0  0  0  0  0  0  0  0  0  0
  130.7926  134.1877  164.4440 H   0  0  0  0  0  0  0  0  0  0  0  0
  131.5815  136.2368  165.5576 H   0  0  0  0  0  0  0  0  0  0  0  0
  134.9189  137.6739  165.0216 H   0  0  0  0  0  0  0  0  0  0  0  0
  133.4886  137.6473  166.0807 H   0  0  0  0  0  0  0  0  0  0  0  0
  133.6166  139.7735  164.8114 H   0  0  0  0  0  0  0  0  0  0  0  0
  132.1790  138.8348  164.3420 H   0  0  0  0  0  0  0  0  0  0  0  0
  135.4933  139.9760  163.3086 H   0  0  0  0  0  0  0  0  0  0  0  0
  136.2769  139.9757  160.9788 H   0  0  0  0  0  0  0  0  0  0  0  0
  134.9726  138.8612  159.2239 H   0  0  0  0  0  0  0  0  0  0  0  0
  129.5922  136.9544  159.6707 H   0  0  0  0  0  0  0  0  0  0  0  0
  129.7890  135.8639  161.0639 H   0  0  0  0  0  0  0  0  0  0  0  0
  128.8595  135.1065  158.3279 H   0  0  0  0  0  0  0  0  0  0  0  0
  129.0564  134.0161  159.7210 H   0  0  0  0  0  0  0  0  0  0  0  0
  129.8092  134.5387  156.1915 H   0  0  0  0  0  0  0  0  0  0  0  0
  130.5342  132.7637  154.6550 H   0  0  0  0  0  0  0  0  0  0  0  0
  131.1419  130.5583  155.4923 H   0  0  0  0  0  0  0  0  0  0  0  0
  131.4156  129.0094  157.4103 H   0  0  0  0  0  0  0  0  0  0  0  0
  131.2950  128.6114  159.8102 H   0  0  0  0  0  0  0  0  0  0  0  0
  130.5706  130.3871  161.3472 H   0  0  0  0  0  0  0  0  0  0  0  0
  129.9642  132.5924  160.5102 H   0  0  0  0  0  0  0  0  0  0  0  0
  131.0908  137.2918  162.7687 H   0  0  0  0  0  0  0  0  0  0  0  0
  135.0137  136.2952  163.0264 H   0  0  0  0  0  0  0  0  0  0  0  0
  134.2336  134.2400  161.9180 H   0  0  0  0  0  0  0  0  0  0  0  0
  1  2  1  0
  2 34  2  0
  2  3  1  0
  3  4  2  0
  3 35  1  0
  4  5  1  0
  4 36  1  0
  5  6  1  0
  5 33  2  0
  6  7  1  0
  6 37  1  0
  6 38  1  0
  7  8  1  0
  7 39  1  0
  7 40  1  0
  8 32  1  0
  8  9  2  0
  9 10  1  0
  9 41  1  0
 10 11  2  0
 10 42  1  0
 11 12  1  0
 11 43  1  0
 12 32  2  0
 12 13  1  0
 13 14  1  0
 13 15  1  0
 15 16  1  0
 15 31  2  0
 16 17  1  0
 16 44  1  0
 16 45  1  0
 17 18  1  0
 17 19  1  0
 17 20  1  0
 20 21  1  0
 20 46  1  0
 20 47  1  0
 21 30  1  0
 21 22  2  0
 22 23  1  0
 22 48  1  0
 23 24  2  0
 23 49  1  0
 24 25  1  0
 24 50  1  0
 25 30  2  0
 25 26  1  0
 26 27  2  0
 26 51  1  0
 27 28  1  0
 27 52  1  0
 28 29  2  0
 28 53  1  0
 29 30  1  0
 29 54  1  0
 31 32  1  0
 31 55  1  0
 33 34  1  0
 33 56  1  0
 34 57  1  0
M  CHG  1  17   1
M  END
>  <DOCK_score>  (1) 
-55.945457

>  <SMILES>  (1) 
Fc1ccc(CCc2cccc3[nH]c(C[NH2+]Cc4cccc5ccccc45)cc23)cc1

$$$$
