Nc1ccc(Nc2[nH]cc(-c3ccncc3)[nH+]2)c(O)c1
     RDKit          3D

 34 36  0  0  1  0  0  0  0  0999 V2000
  126.4453  136.7717  162.0567 N   0  0  0  0  0  0  0  0  0  0  0  0
  127.3723  136.3721  161.0875 C   0  0  0  0  0  0  0  0  0  0  0  0
  128.7294  136.3762  161.3821 C   0  0  0  0  0  0  0  0  0  0  0  0
  129.6469  135.9830  160.4265 C   0  0  0  0  0  0  0  0  0  0  0  0
  129.2138  135.5832  159.1708 C   0  0  0  0  0  0  0  0  0  0  0  0
  130.1460  135.1845  158.2010 N   0  0  0  0  0  0  0  0  0  0  0  0
  130.0901  133.9067  157.6712 C   0  0  0  0  0  0  0  0  0  0  0  0
  129.6380  132.7980  158.3199 N   0  0  0  0  0  0  0  0  0  0  0  0
  129.3039  132.7613  159.2298 H   0  0  0  0  0  0  0  0  0  0  0  0
  129.7478  131.7416  157.4516 C   0  0  0  0  0  0  0  0  0  0  0  0
  130.2637  132.2326  156.2964 C   0  0  0  0  0  0  0  0  0  0  0  0
  130.5568  131.4523  155.0708 C   0  0  0  0  0  0  0  0  0  0  0  0
  129.9295  131.7565  153.8584 C   0  0  0  0  0  0  0  0  0  0  0  0
  130.2352  131.0083  152.7410 C   0  0  0  0  0  0  0  0  0  0  0  0
  131.0976  130.0118  152.8082 N   0  0  0  0  0  0  0  0  0  0  0  0
  131.7072  129.6885  153.9333 C   0  0  0  0  0  0  0  0  0  0  0  0
  131.4638  130.3880  155.0964 C   0  0  0  0  0  0  0  0  0  0  0  0
  130.4632  133.5645  156.4621 N   0  0  0  0  0  0  0  0  0  0  0  0
  130.8245  134.1668  155.7931 H   0  0  0  0  0  0  0  0  0  0  0  0
  127.8533  135.5833  158.8715 C   0  0  0  0  0  0  0  0  0  0  0  0
  127.4274  135.1970  157.6391 O   0  0  0  0  0  0  0  0  0  0  0  0
  126.9348  135.9722  159.8320 C   0  0  0  0  0  0  0  0  0  0  0  0
  126.7505  137.0515  162.9338 H   0  0  0  0  0  0  0  0  0  0  0  0
  125.4972  136.7688  161.8512 H   0  0  0  0  0  0  0  0  0  0  0  0
  129.0683  136.6876  162.3591 H   0  0  0  0  0  0  0  0  0  0  0  0
  130.7019  135.9874  160.6573 H   0  0  0  0  0  0  0  0  0  0  0  0
  130.8296  135.8042  157.9016 H   0  0  0  0  0  0  0  0  0  0  0  0
  129.4760  130.7153  157.6497 H   0  0  0  0  0  0  0  0  0  0  0  0
  129.2195  132.5680  153.7970 H   0  0  0  0  0  0  0  0  0  0  0  0
  129.7591  131.2383  151.7992 H   0  0  0  0  0  0  0  0  0  0  0  0
  132.4059  128.8651  153.9430 H   0  0  0  0  0  0  0  0  0  0  0  0
  131.9662  130.1182  156.0136 H   0  0  0  0  0  0  0  0  0  0  0  0
  128.1408  134.9400  157.0390 H   0  0  0  0  0  0  0  0  0  0  0  0
  125.8793  135.9686  159.6033 H   0  0  0  0  0  0  0  0  0  0  0  0
  1  2  1  0
  1 23  1  0
  1 24  1  0
  2 22  2  0
  2  3  1  0
  3  4  2  0
  3 25  1  0
  4  5  1  0
  4 26  1  0
  5  6  1  0
  5 20  2  0
  6 27  1  0
  7  6  1  0
  7 18  2  0
  7  8  1  0
  8  9  1  0
  8 10  1  0
 10 11  2  0
 10 28  1  0
 11 12  1  0
 11 18  1  0
 12 17  1  0
 12 13  2  0
 13 14  1  0
 13 29  1  0
 14 15  2  0
 14 30  1  0
 15 16  1  0
 16 17  2  0
 16 31  1  0
 17 32  1  0
 18 19  1  0
 20 21  1  0
 20 22  1  0
 21 33  1  0
 22 34  1  0
M  CHG  1  18   1
M  END
>  <DOCK_score>  (1) 
-48.132549

>  <SMILES>  (1) 
Nc1ccc(Nc2[nH]cc(-c3ccncc3)[nH+]2)c(O)c1

$$$$
