Oc1cc(F)cc(C[NH+]=C(NCC2=CCCCC2)NC2CC=CC2)c1
     RDKit          3D

 52 54  0  0  1  0  0  0  0  0999 V2000
  124.5889  135.9344  163.6648 O   0  0  0  0  0  0  0  0  0  0  0  0
  125.8930  135.9330  164.0474 C   0  0  0  0  0  0  0  0  0  0  0  0
  126.2713  135.2999  165.2222 C   0  0  0  0  0  0  0  0  0  0  0  0
  127.5995  135.3003  165.6094 C   0  0  0  0  0  0  0  0  0  0  0  0
  127.9696  134.6845  166.7535 F   0  0  0  0  0  0  0  0  0  0  0  0
  128.5505  135.9275  164.8215 C   0  0  0  0  0  0  0  0  0  0  0  0
  128.1730  136.5632  163.6538 C   0  0  0  0  0  0  0  0  0  0  0  0
  129.2090  137.2500  162.8019 C   0  0  0  0  0  0  0  0  0  0  0  0
  129.7441  136.3003  161.8231 N   0  0  0  0  0  0  0  0  0  0  0  0
  129.4170  135.3873  161.8044 H   0  0  0  0  0  0  0  0  0  0  0  0
  130.6594  136.6821  160.9774 C   0  0  0  0  0  0  0  0  0  0  0  0
  131.1615  135.7909  160.0589 N   0  0  0  0  0  0  0  0  0  0  0  0
  131.2211  134.3629  160.3809 C   0  0  0  0  0  0  0  0  0  0  0  0
  130.3968  133.5886  159.3848 C   0  0  0  0  0  0  0  0  0  0  0  0
  130.9829  133.1636  158.3118 C   0  0  0  0  0  0  0  0  0  0  0  0
  130.2939  132.3855  157.2292 C   0  0  0  0  0  0  0  0  0  0  0  0
  128.9679  131.8223  157.7454 C   0  0  0  0  0  0  0  0  0  0  0  0
  128.1922  132.9561  158.4280 C   0  0  0  0  0  0  0  0  0  0  0  0
  128.9459  133.3634  159.6958 C   0  0  0  0  0  0  0  0  0  0  0  0
  131.1230  137.9762  161.0040 N   0  0  0  0  0  0  0  0  0  0  0  0
  132.1518  138.4055  160.0536 C   0  0  0  0  0  0  0  0  0  0  0  0
  133.5026  137.7124  160.3473 C   0  0  0  0  0  0  0  0  0  0  0  0
  134.5454  138.7702  160.0695 C   0  0  0  0  0  0  0  0  0  0  0  0
  134.0086  139.9592  160.0253 C   0  0  0  0  0  0  0  0  0  0  0  0
  132.5184  139.8927  160.2664 C   0  0  0  0  0  0  0  0  0  0  0  0
  126.8474  136.5650  163.2637 C   0  0  0  0  0  0  0  0  0  0  0  0
  124.4233  136.4003  162.8339 H   0  0  0  0  0  0  0  0  0  0  0  0
  125.5299  134.8076  165.8340 H   0  0  0  0  0  0  0  0  0  0  0  0
  129.5878  135.9237  165.1222 H   0  0  0  0  0  0  0  0  0  0  0  0
  130.0182  137.6131  163.4357 H   0  0  0  0  0  0  0  0  0  0  0  0
  128.7514  138.0905  162.2801 H   0  0  0  0  0  0  0  0  0  0  0  0
  131.4763  136.1074  159.1978 H   0  0  0  0  0  0  0  0  0  0  0  0
  132.2560  134.0235  160.3379 H   0  0  0  0  0  0  0  0  0  0  0  0
  130.8265  134.1998  161.3837 H   0  0  0  0  0  0  0  0  0  0  0  0
  132.0341  133.3793  158.1897 H   0  0  0  0  0  0  0  0  0  0  0  0
  130.9345  131.5643  156.9078 H   0  0  0  0  0  0  0  0  0  0  0  0
  130.1015  133.0439  156.3822 H   0  0  0  0  0  0  0  0  0  0  0  0
  129.1630  131.0269  158.4648 H   0  0  0  0  0  0  0  0  0  0  0  0
  128.3864  131.4311  156.9107 H   0  0  0  0  0  0  0  0  0  0  0  0
  127.1928  132.6095  158.6912 H   0  0  0  0  0  0  0  0  0  0  0  0
  128.1216  133.8095  157.7536 H   0  0  0  0  0  0  0  0  0  0  0  0
  128.8546  132.5726  160.4403 H   0  0  0  0  0  0  0  0  0  0  0  0
  128.5142  134.2831  160.0907 H   0  0  0  0  0  0  0  0  0  0  0  0
  130.7659  138.6062  161.6495 H   0  0  0  0  0  0  0  0  0  0  0  0
  131.8334  138.2240  159.0270 H   0  0  0  0  0  0  0  0  0  0  0  0
  133.5492  137.3978  161.3899 H   0  0  0  0  0  0  0  0  0  0  0  0
  133.6428  136.8580  159.6852 H   0  0  0  0  0  0  0  0  0  0  0  0
  135.5967  138.5689  159.9260 H   0  0  0  0  0  0  0  0  0  0  0  0
  134.5574  140.8708  159.8406 H   0  0  0  0  0  0  0  0  0  0  0  0
  131.9894  140.5204  159.5492 H   0  0  0  0  0  0  0  0  0  0  0  0
  132.2827  140.1998  161.2851 H   0  0  0  0  0  0  0  0  0  0  0  0
  126.5543  137.0587  162.3490 H   0  0  0  0  0  0  0  0  0  0  0  0
  1  2  1  0
  1 27  1  0
  2 26  2  0
  2  3  1  0
  3  4  2  0
  3 28  1  0
  4  5  1  0
  4  6  1  0
  6  7  2  0
  6 29  1  0
  7  8  1  0
  7 26  1  0
  8  9  1  0
  8 30  1  0
  8 31  1  0
  9 10  1  0
 11  9  2  0
 11 12  1  0
 11 20  1  0
 12 13  1  0
 12 32  1  0
 13 14  1  0
 13 33  1  0
 13 34  1  0
 14 19  1  0
 14 15  2  0
 15 16  1  0
 15 35  1  0
 16 17  1  0
 16 36  1  0
 16 37  1  0
 17 18  1  0
 17 38  1  0
 17 39  1  0
 18 19  1  0
 18 40  1  0
 18 41  1  0
 19 42  1  0
 19 43  1  0
 20 21  1  0
 20 44  1  0
 21 25  1  0
 21 22  1  0
 21 45  1  0
 22 23  1  0
 22 46  1  0
 22 47  1  0
 23 24  2  0
 23 48  1  0
 24 25  1  0
 24 49  1  0
 25 50  1  0
 25 51  1  0
 26 52  1  0
M  CHG  1   9   1
M  END
>  <DOCK_score>  (1) 
-43.534786

>  <SMILES>  (1) 
Oc1cc(F)cc(C[NH+]=C(NCC2=CCCCC2)NC2CC=CC2)c1

$$$$
