O=C1CC[C@H](NC(N[C@H]2CC[C@H](O)CC2)=[NH+]C2COc3ccccc3C2)CN1
     RDKit          3D

 59 62  0  0  1  0  0  0  0  0999 V2000
  123.8738  133.6446  162.1307 O   0  0  0  0  0  0  0  0  0  0  0  0
  125.0001  133.9550  161.8052 C   0  0  0  0  0  0  0  0  0  0  0  0
  125.9187  132.8764  161.3068 C   0  0  0  0  0  0  0  0  0  0  0  0
  127.3699  133.3595  161.3671 C   0  0  0  0  0  0  0  0  0  0  0  0
  127.4463  134.7470  160.7185 C   0  0  2  0  0  0  0  0  0  0  0  0
  126.9936  134.7128  159.7276 H   0  0  0  0  0  0  0  0  0  0  0  0
  128.8472  135.1599  160.6049 N   0  0  0  0  0  0  0  0  0  0  0  0
  129.5667  134.8474  159.4758 C   0  0  0  0  0  0  0  0  0  0  0  0
  128.9711  134.1473  158.4532 N   0  0  0  0  0  0  0  0  0  0  0  0
  129.7748  133.2633  157.6054 C   0  0  1  0  0  0  0  0  0  0  0  0
  130.8136  133.2901  157.9343 H   0  0  0  0  0  0  0  0  0  0  0  0
  129.2431  131.8325  157.7119 C   0  0  0  0  0  0  0  0  0  0  0  0
  130.0825  130.9094  156.8265 C   0  0  0  0  0  0  0  0  0  0  0  0
  129.9954  131.3790  155.3730 C   0  0  2  0  0  0  0  0  0  0  0  0
  128.9565  131.3520  155.0441 H   0  0  0  0  0  0  0  0  0  0  0  0
  130.7794  130.5167  154.5460 O   0  0  0  0  0  0  0  0  0  0  0  0
  130.5272  132.8097  155.2665 C   0  0  0  0  0  0  0  0  0  0  0  0
  129.6877  133.7328  156.1518 C   0  0  0  0  0  0  0  0  0  0  0  0
  130.8131  135.2149  159.3746 N   0  0  0  0  0  0  0  0  0  0  0  0
  131.1938  135.4035  158.5027 H   0  0  0  0  0  0  0  0  0  0  0  0
  131.6388  135.3431  160.5780 C   0  0  1  0  0  0  0  0  0  0  0  0
  132.8525  134.4107  160.4740 C   0  0  0  0  0  0  0  0  0  0  0  0
  133.5804  134.4805  161.7009 O   0  0  0  0  0  0  0  0  0  0  0  0
  133.8792  135.7109  162.1927 C   0  0  0  0  0  0  0  0  0  0  0  0
  134.8734  135.8157  163.1606 C   0  0  0  0  0  0  0  0  0  0  0  0
  135.2025  137.0478  163.6875 C   0  0  0  0  0  0  0  0  0  0  0  0
  134.5429  138.1830  163.2530 C   0  0  0  0  0  0  0  0  0  0  0  0
  133.5568  138.0829  162.2915 C   0  0  0  0  0  0  0  0  0  0  0  0
  133.2231  136.8490  161.7580 C   0  0  0  0  0  0  0  0  0  0  0  0
  132.1474  136.7814  160.7039 C   0  0  0  0  0  0  0  0  0  0  0  0
  126.6880  135.7413  161.5987 C   0  0  0  0  0  0  0  0  0  0  0  0
  125.3549  135.2367  161.9041 N   0  0  0  0  0  0  0  0  0  0  0  0
  125.8062  131.9889  161.9294 H   0  0  0  0  0  0  0  0  0  0  0  0
  125.6617  132.6296  160.2766 H   0  0  0  0  0  0  0  0  0  0  0  0
  127.6931  133.4218  162.4062 H   0  0  0  0  0  0  0  0  0  0  0  0
  128.0107  132.6644  160.8245 H   0  0  0  0  0  0  0  0  0  0  0  0
  129.2673  135.6538  161.3264 H   0  0  0  0  0  0  0  0  0  0  0  0
  128.0188  134.2388  158.2932 H   0  0  0  0  0  0  0  0  0  0  0  0
  129.3052  131.4981  158.7474 H   0  0  0  0  0  0  0  0  0  0  0  0
  128.2043  131.8057  157.3831 H   0  0  0  0  0  0  0  0  0  0  0  0
  131.1214  130.9363  157.1554 H   0  0  0  0  0  0  0  0  0  0  0  0
  129.7037  129.8901  156.9024 H   0  0  0  0  0  0  0  0  0  0  0  0
  130.7705  130.7553  153.6089 H   0  0  0  0  0  0  0  0  0  0  0  0
  131.5660  132.8365  155.5954 H   0  0  0  0  0  0  0  0  0  0  0  0
  130.4650  133.1442  154.2310 H   0  0  0  0  0  0  0  0  0  0  0  0
  128.6488  133.7060  155.8230 H   0  0  0  0  0  0  0  0  0  0  0  0
  130.0666  134.7521  156.0761 H   0  0  0  0  0  0  0  0  0  0  0  0
  131.0497  135.0827  161.4573 H   0  0  0  0  0  0  0  0  0  0  0  0
  132.5163  133.3878  160.3042 H   0  0  0  0  0  0  0  0  0  0  0  0
  133.4907  134.7294  159.6498 H   0  0  0  0  0  0  0  0  0  0  0  0
  135.3889  134.9298  163.5008 H   0  0  0  0  0  0  0  0  0  0  0  0
  135.9748  137.1255  164.4383 H   0  0  0  0  0  0  0  0  0  0  0  0
  134.7994  139.1477  163.6657 H   0  0  0  0  0  0  0  0  0  0  0  0
  133.0431  138.9710  161.9541 H   0  0  0  0  0  0  0  0  0  0  0  0
  132.5559  137.1067  159.7472 H   0  0  0  0  0  0  0  0  0  0  0  0
  131.3216  137.4346  160.9860 H   0  0  0  0  0  0  0  0  0  0  0  0
  127.2401  135.8955  162.5259 H   0  0  0  0  0  0  0  0  0  0  0  0
  126.5958  136.6911  161.0721 H   0  0  0  0  0  0  0  0  0  0  0  0
  124.6851  135.8722  162.2013 H   0  0  0  0  0  0  0  0  0  0  0  0
  1  2  2  0
  2 32  1  0
  2  3  1  0
  3  4  1  0
  3 33  1  0
  3 34  1  0
  4  5  1  0
  4 35  1  0
  4 36  1  0
  5  6  1  6
  5  7  1  0
  5 31  1  0
  7 37  1  0
  8  7  1  0
  8  9  1  0
  8 19  2  0
  9 10  1  0
  9 38  1  0
 10 11  1  1
 10 18  1  0
 10 12  1  0
 12 13  1  0
 12 39  1  0
 12 40  1  0
 13 14  1  0
 13 41  1  0
 13 42  1  0
 14 15  1  6
 14 16  1  0
 14 17  1  0
 16 43  1  0
 17 18  1  0
 17 44  1  0
 17 45  1  0
 18 46  1  0
 18 47  1  0
 19 20  1  0
 19 21  1  0
 21 30  1  0
 21 22  1  0
 21 48  1  1
 22 23  1  0
 22 49  1  0
 22 50  1  0
 23 24  1  0
 24 29  2  0
 24 25  1  0
 25 26  2  0
 25 51  1  0
 26 27  1  0
 26 52  1  0
 27 28  2  0
 27 53  1  0
 28 29  1  0
 28 54  1  0
 29 30  1  0
 30 55  1  0
 30 56  1  0
 31 32  1  0
 31 57  1  0
 31 58  1  0
 32 59  1  0
M  CHG  1  19   1
M  END
>  <DOCK_score>  (1) 
-43.902985

>  <SMILES>  (1) 
O=C1CC[C@H](NC(N[C@H]2CC[C@H](O)CC2)=[NH+]C2COc3ccccc3C2)CN1

$$$$
