OCC[NH+]=C(N[C@H]1Cc2ccc(Br)cc2C1)N[C@@H]1C=C[C@@H](O)[C@H]1Br
     RDKit          3D

 46 48  0  0  1  0  0  0  0  0999 V2000
  131.4608  134.3810  161.4515 O   0  0  0  0  0  0  0  0  0  0  0  0
  132.4723  133.3936  161.2424 C   0  0  0  0  0  0  0  0  0  0  0  0
  131.9404  132.3099  160.3024 C   0  0  0  0  0  0  0  0  0  0  0  0
  131.5744  132.9135  159.0187 N   0  0  0  0  0  0  0  0  0  0  0  0
  132.2317  132.9788  158.3084 H   0  0  0  0  0  0  0  0  0  0  0  0
  130.3653  133.3628  158.8311 C   0  0  0  0  0  0  0  0  0  0  0  0
  129.8155  133.3512  157.5710 N   0  0  0  0  0  0  0  0  0  0  0  0
  130.5887  132.8337  156.4393 C   0  0  1  0  0  0  0  0  0  0  0  0
  131.5062  133.4064  156.3048 H   0  0  0  0  0  0  0  0  0  0  0  0
  130.9008  131.3340  156.6281 C   0  0  0  0  0  0  0  0  0  0  0  0
  130.8424  130.7390  155.2374 C   0  0  0  0  0  0  0  0  0  0  0  0
  131.3330  129.5372  154.7541 C   0  0  0  0  0  0  0  0  0  0  0  0
  131.1596  129.1991  153.4267 C   0  0  0  0  0  0  0  0  0  0  0  0
  130.4931  130.0626  152.5758 C   0  0  0  0  0  0  0  0  0  0  0  0
  130.2530  129.6023  150.7575 Br  0  0  0  0  0  0  0  0  0  0  0  0
  130.0027  131.2617  153.0565 C   0  0  0  0  0  0  0  0  0  0  0  0
  130.1763  131.6020  154.3877 C   0  0  0  0  0  0  0  0  0  0  0  0
  129.7414  132.8358  155.1492 C   0  0  0  0  0  0  0  0  0  0  0  0
  129.6398  133.8483  159.8932 N   0  0  0  0  0  0  0  0  0  0  0  0
  128.6435  134.9009  159.6797 C   0  0  2  0  0  0  0  0  0  0  0  0
  128.9354  135.5348  158.8425 H   0  0  0  0  0  0  0  0  0  0  0  0
  128.4731  135.7265  160.9337 C   0  0  0  0  0  0  0  0  0  0  0  0
  127.3841  135.3934  161.5714 C   0  0  0  0  0  0  0  0  0  0  0  0
  126.6466  134.2900  160.8490 C   0  0  1  0  0  0  0  0  0  0  0  0
  126.8171  133.3320  161.3403 H   0  0  0  0  0  0  0  0  0  0  0  0
  125.2481  134.5785  160.7948 O   0  0  0  0  0  0  0  0  0  0  0  0
  127.2502  134.2803  159.4254 C   0  0  1  0  0  0  0  0  0  0  0  0
  127.3386  133.2627  159.0449 H   0  0  0  0  0  0  0  0  0  0  0  0
  126.1925  135.3977  158.2016 Br  0  0  0  0  0  0  0  0  0  0  0  0
  131.1694  134.8231  160.6423 H   0  0  0  0  0  0  0  0  0  0  0  0
  132.7449  132.9445  162.1974 H   0  0  0  0  0  0  0  0  0  0  0  0
  133.3504  133.8616  160.7974 H   0  0  0  0  0  0  0  0  0  0  0  0
  131.0625  131.8419  160.7474 H   0  0  0  0  0  0  0  0  0  0  0  0
  132.7121  131.5567  160.1428 H   0  0  0  0  0  0  0  0  0  0  0  0
  128.9159  133.6856  157.4312 H   0  0  0  0  0  0  0  0  0  0  0  0
  131.8964  131.2054  157.0528 H   0  0  0  0  0  0  0  0  0  0  0  0
  130.1521  130.8697  157.2699 H   0  0  0  0  0  0  0  0  0  0  0  0
  131.8534  128.8626  155.4179 H   0  0  0  0  0  0  0  0  0  0  0  0
  131.5438  128.2613  153.0531 H   0  0  0  0  0  0  0  0  0  0  0  0
  129.4821  131.9357  152.3921 H   0  0  0  0  0  0  0  0  0  0  0  0
  128.6808  132.7755  155.3931 H   0  0  0  0  0  0  0  0  0  0  0  0
  129.9454  133.7327  154.5643 H   0  0  0  0  0  0  0  0  0  0  0  0
  129.7848  133.4911  160.7834 H   0  0  0  0  0  0  0  0  0  0  0  0
  129.1622  136.4917  161.2597 H   0  0  0  0  0  0  0  0  0  0  0  0
  127.0537  135.8466  162.4944 H   0  0  0  0  0  0  0  0  0  0  0  0
  125.0382  135.4356  160.3992 H   0  0  0  0  0  0  0  0  0  0  0  0
  1  2  1  0
  1 30  1  0
  2  3  1  0
  2 31  1  0
  2 32  1  0
  3  4  1  0
  3 33  1  0
  3 34  1  0
  4  5  1  0
  6  4  2  0
  6  7  1  0
  6 19  1  0
  7  8  1  0
  7 35  1  0
  8  9  1  6
  8 18  1  0
  8 10  1  0
 10 11  1  0
 10 36  1  0
 10 37  1  0
 11 17  2  0
 11 12  1  0
 12 13  2  0
 12 38  1  0
 13 14  1  0
 13 39  1  0
 14 15  1  0
 14 16  2  0
 16 17  1  0
 16 40  1  0
 17 18  1  0
 18 41  1  0
 18 42  1  0
 19 20  1  0
 19 43  1  0
 20 21  1  6
 20 27  1  0
 20 22  1  0
 22 23  2  0
 22 44  1  0
 23 24  1  0
 23 45  1  0
 24 25  1  1
 24 26  1  0
 24 27  1  0
 26 46  1  0
 27 28  1  6
 27 29  1  0
M  CHG  1   4   1
M  END
>  <DOCK_score>  (1) 
-42.851955

>  <SMILES>  (1) 
OCC[NH+]=C(N[C@H]1Cc2ccc(Br)cc2C1)N[C@@H]1C=C[C@@H](O)[C@H]1Br

$$$$
