FC1(F)CC[C@@H]1Nc1cc(Nc2[nH]c3ccccc3[nH+]2)c(Cl)c(NC2CC=CC2)c1
     RDKit          3D

 53 57  0  0  1  0  0  0  0  0999 V2000
  123.8211  133.9440  162.0629 F   0  0  0  0  0  0  0  0  0  0  0  0
  124.6878  133.1869  161.2672 C   0  0  0  0  0  0  0  0  0  0  0  0
  124.1146  132.8038  160.0499 F   0  0  0  0  0  0  0  0  0  0  0  0
  125.3656  132.0293  162.0227 C   0  0  0  0  0  0  0  0  0  0  0  0
  126.4823  133.0226  162.3849 C   0  0  0  0  0  0  0  0  0  0  0  0
  126.0882  133.8052  161.1211 C   0  0  2  0  0  0  0  0  0  0  0  0
  126.6170  133.4817  160.2245 H   0  0  0  0  0  0  0  0  0  0  0  0
  126.1095  135.2591  161.3007 N   0  0  0  0  0  0  0  0  0  0  0  0
  127.3145  135.9584  161.1960 C   0  0  0  0  0  0  0  0  0  0  0  0
  128.3202  135.4876  160.3624 C   0  0  0  0  0  0  0  0  0  0  0  0
  129.5173  136.1823  160.2580 C   0  0  0  0  0  0  0  0  0  0  0  0
  130.5302  135.7080  159.4176 N   0  0  0  0  0  0  0  0  0  0  0  0
  130.6564  134.3571  159.1864 C   0  0  0  0  0  0  0  0  0  0  0  0
  131.1311  133.8164  158.0664 N   0  0  0  0  0  0  0  0  0  0  0  0
  131.4414  134.3048  157.2879 H   0  0  0  0  0  0  0  0  0  0  0  0
  131.1078  132.4531  158.1996 C   0  0  0  0  0  0  0  0  0  0  0  0
  131.4748  131.3979  157.3693 C   0  0  0  0  0  0  0  0  0  0  0  0
  131.3249  130.0994  157.8051 C   0  0  0  0  0  0  0  0  0  0  0  0
  130.8105  129.8355  159.0662 C   0  0  0  0  0  0  0  0  0  0  0  0
  130.4421  130.8682  159.9008 C   0  0  0  0  0  0  0  0  0  0  0  0
  130.5869  132.1860  159.4763 C   0  0  0  0  0  0  0  0  0  0  0  0
  130.3219  133.4012  160.0504 N   0  0  0  0  0  0  0  0  0  0  0  0
  129.9532  133.5414  160.9366 H   0  0  0  0  0  0  0  0  0  0  0  0
  129.7115  137.3452  160.9921 C   0  0  0  0  0  0  0  0  0  0  0  0
  131.2116  138.2100  160.8676 Cl  0  0  0  0  0  0  0  0  0  0  0  0
  128.7035  137.8190  161.8214 C   0  0  0  0  0  0  0  0  0  0  0  0
  128.8964  138.9921  162.5558 N   0  0  0  0  0  0  0  0  0  0  0  0
  127.8328  139.4919  163.4307 C   0  0  0  0  0  0  0  0  0  0  0  0
  128.0029  141.0046  163.7026 C   0  0  0  0  0  0  0  0  0  0  0  0
  127.5900  141.1844  165.1449 C   0  0  0  0  0  0  0  0  0  0  0  0
  127.5704  140.0410  165.7741 C   0  0  0  0  0  0  0  0  0  0  0  0
  127.9666  138.9079  164.8563 C   0  0  0  0  0  0  0  0  0  0  0  0
  127.5060  137.1240  161.9252 C   0  0  0  0  0  0  0  0  0  0  0  0
  125.6958  131.2193  161.3723 H   0  0  0  0  0  0  0  0  0  0  0  0
  124.7990  131.6761  162.8843 H   0  0  0  0  0  0  0  0  0  0  0  0
  127.4823  132.5916  162.3374 H   0  0  0  0  0  0  0  0  0  0  0  0
  126.2985  133.5674  163.3108 H   0  0  0  0  0  0  0  0  0  0  0  0
  125.2869  135.7361  161.4922 H   0  0  0  0  0  0  0  0  0  0  0  0
  128.1707  134.5809  159.7949 H   0  0  0  0  0  0  0  0  0  0  0  0
  131.1436  136.3313  158.9978 H   0  0  0  0  0  0  0  0  0  0  0  0
  131.8761  131.5965  156.3865 H   0  0  0  0  0  0  0  0  0  0  0  0
  131.6142  129.2812  157.1622 H   0  0  0  0  0  0  0  0  0  0  0  0
  130.6976  128.8133  159.3961 H   0  0  0  0  0  0  0  0  0  0  0  0
  130.0426  130.6560  160.8815 H   0  0  0  0  0  0  0  0  0  0  0  0
  129.7345  139.4755  162.4864 H   0  0  0  0  0  0  0  0  0  0  0  0
  126.8504  139.2772  163.0106 H   0  0  0  0  0  0  0  0  0  0  0  0
  129.0428  141.3006  163.5656 H   0  0  0  0  0  0  0  0  0  0  0  0
  127.3529  141.5836  163.0466 H   0  0  0  0  0  0  0  0  0  0  0  0
  127.3434  142.1343  165.5959 H   0  0  0  0  0  0  0  0  0  0  0  0
  127.3057  139.9205  166.8144 H   0  0  0  0  0  0  0  0  0  0  0  0
  127.2920  138.0614  164.9849 H   0  0  0  0  0  0  0  0  0  0  0  0
  128.9963  138.6065  165.0481 H   0  0  0  0  0  0  0  0  0  0  0  0
  126.7234  137.4903  162.5730 H   0  0  0  0  0  0  0  0  0  0  0  0
  1  2  1  0
  2  6  1  0
  2  3  1  0
  2  4  1  0
  4  5  1  0
  4 34  1  0
  4 35  1  0
  5  6  1  0
  5 36  1  0
  5 37  1  0
  6  7  1  6
  6  8  1  0
  8  9  1  0
  8 38  1  0
  9 33  1  0
  9 10  2  0
 10 11  1  0
 10 39  1  0
 11 12  1  0
 11 24  2  0
 12 13  1  0
 12 40  1  0
 13 22  1  0
 13 14  2  0
 14 15  1  0
 14 16  1  0
 16 21  2  0
 16 17  1  0
 17 18  2  0
 17 41  1  0
 18 19  1  0
 18 42  1  0
 19 20  2  0
 19 43  1  0
 20 21  1  0
 20 44  1  0
 21 22  1  0
 22 23  1  0
 24 25  1  0
 24 26  1  0
 26 27  1  0
 26 33  2  0
 27 28  1  0
 27 45  1  0
 28 32  1  0
 28 29  1  0
 28 46  1  0
 29 30  1  0
 29 47  1  0
 29 48  1  0
 30 31  2  0
 30 49  1  0
 31 32  1  0
 31 50  1  0
 32 51  1  0
 32 52  1  0
 33 53  1  0
M  CHG  1  14   1
M  END
>  <DOCK_score>  (1) 
-53.296635

>  <SMILES>  (1) 
FC1(F)CC[C@@H]1Nc1cc(Nc2[nH]c3ccccc3[nH+]2)c(Cl)c(NC2CC=CC2)c1

$$$$
