Nc1ccc(-c2c[nH]c(Nc3ccc(Oc4cccnc4)cc3)[nH+]2)cc1
     RDKit          3D

 44 47  0  0  1  0  0  0  0  0999 V2000
  131.1829  129.3948  151.9435 N   0  0  0  0  0  0  0  0  0  0  0  0
  130.9491  130.1254  153.1110 C   0  0  0  0  0  0  0  0  0  0  0  0
  130.0804  131.2106  153.0883 C   0  0  0  0  0  0  0  0  0  0  0  0
  129.8479  131.9329  154.2398 C   0  0  0  0  0  0  0  0  0  0  0  0
  130.4849  131.5745  155.4267 C   0  0  0  0  0  0  0  0  0  0  0  0
  130.2367  132.3504  156.6666 C   0  0  0  0  0  0  0  0  0  0  0  0
  129.7208  131.8637  157.8226 C   0  0  0  0  0  0  0  0  0  0  0  0
  129.6656  132.9137  158.7077 N   0  0  0  0  0  0  0  0  0  0  0  0
  129.3444  132.8781  159.6223 H   0  0  0  0  0  0  0  0  0  0  0  0
  130.1420  134.0134  158.0626 C   0  0  0  0  0  0  0  0  0  0  0  0
  130.2518  135.2830  158.6057 N   0  0  0  0  0  0  0  0  0  0  0  0
  129.3547  135.7008  159.5957 C   0  0  0  0  0  0  0  0  0  0  0  0
  129.8262  136.0758  160.8470 C   0  0  0  0  0  0  0  0  0  0  0  0
  128.9402  136.4823  161.8249 C   0  0  0  0  0  0  0  0  0  0  0  0
  127.5803  136.5267  161.5544 C   0  0  0  0  0  0  0  0  0  0  0  0
  126.7089  136.9325  162.5161 O   0  0  0  0  0  0  0  0  0  0  0  0
  127.2141  137.2853  163.7270 C   0  0  0  0  0  0  0  0  0  0  0  0
  127.5831  138.6029  163.9811 C   0  0  0  0  0  0  0  0  0  0  0  0
  128.0931  138.9144  165.2309 C   0  0  0  0  0  0  0  0  0  0  0  0
  128.2177  137.9143  166.1774 C   0  0  0  0  0  0  0  0  0  0  0  0
  127.8587  136.6754  165.9045 N   0  0  0  0  0  0  0  0  0  0  0  0
  127.3642  136.3383  164.7297 C   0  0  0  0  0  0  0  0  0  0  0  0
  127.1087  136.1567  160.3029 C   0  0  0  0  0  0  0  0  0  0  0  0
  127.9931  135.7449  159.3257 C   0  0  0  0  0  0  0  0  0  0  0  0
  130.4850  133.6716  156.8444 N   0  0  0  0  0  0  0  0  0  0  0  0
  130.8573  134.2686  156.1765 H   0  0  0  0  0  0  0  0  0  0  0  0
  131.3598  130.4894  155.4456 C   0  0  0  0  0  0  0  0  0  0  0  0
  131.5852  129.7667  154.2932 C   0  0  0  0  0  0  0  0  0  0  0  0
  130.7390  129.6450  151.1178 H   0  0  0  0  0  0  0  0  0  0  0  0
  131.7888  128.6380  151.9582 H   0  0  0  0  0  0  0  0  0  0  0  0
  129.5874  131.4880  152.1684 H   0  0  0  0  0  0  0  0  0  0  0  0
  129.1725  132.7755  154.2218 H   0  0  0  0  0  0  0  0  0  0  0  0
  129.4162  130.8451  158.0128 H   0  0  0  0  0  0  0  0  0  0  0  0
  130.9502  135.8825  158.2999 H   0  0  0  0  0  0  0  0  0  0  0  0
  130.8853  136.0459  161.0564 H   0  0  0  0  0  0  0  0  0  0  0  0
  129.3063  136.7702  162.7993 H   0  0  0  0  0  0  0  0  0  0  0  0
  127.4743  139.3641  163.2225 H   0  0  0  0  0  0  0  0  0  0  0  0
  128.3894  139.9266  165.4632 H   0  0  0  0  0  0  0  0  0  0  0  0
  128.6149  138.1512  167.1533 H   0  0  0  0  0  0  0  0  0  0  0  0
  127.0769  135.3139  164.5448 H   0  0  0  0  0  0  0  0  0  0  0  0
  126.0498  136.1911  160.0930 H   0  0  0  0  0  0  0  0  0  0  0  0
  127.6260  135.4576  158.3513 H   0  0  0  0  0  0  0  0  0  0  0  0
  131.8577  130.2127  156.3633 H   0  0  0  0  0  0  0  0  0  0  0  0
  132.2596  128.9232  154.3085 H   0  0  0  0  0  0  0  0  0  0  0  0
  1  2  1  0
  1 29  1  0
  1 30  1  0
  2 28  2  0
  2  3  1  0
  3  4  2  0
  3 31  1  0
  4  5  1  0
  4 32  1  0
  5  6  1  0
  5 27  2  0
  6 25  1  0
  6  7  2  0
  7  8  1  0
  7 33  1  0
  8  9  1  0
  8 10  1  0
 10 11  1  0
 10 25  2  0
 11 12  1  0
 11 34  1  0
 12 24  1  0
 12 13  2  0
 13 14  1  0
 13 35  1  0
 14 15  2  0
 14 36  1  0
 15 16  1  0
 15 23  1  0
 16 17  1  0
 17 22  1  0
 17 18  2  0
 18 19  1  0
 18 37  1  0
 19 20  2  0
 19 38  1  0
 20 21  1  0
 20 39  1  0
 21 22  2  0
 22 40  1  0
 23 24  2  0
 23 41  1  0
 24 42  1  0
 25 26  1  0
 27 28  1  0
 27 43  1  0
 28 44  1  0
M  CHG  1  25   1
M  END
>  <DOCK_score>  (1) 
-51.066563

>  <SMILES>  (1) 
Nc1ccc(-c2c[nH]c(Nc3ccc(Oc4cccnc4)cc3)[nH+]2)cc1

$$$$
