c1ccc(Nc2ccc(-c3n[nH]cc3C[NH2+]CC3CC4C[C@@H]4C3)o2)cc1
     RDKit          3D

 51 55  0  0  1  0  0  0  0  0999 V2000
  128.1476  137.3601  164.9705 C   0  0  0  0  0  0  0  0  0  0  0  0
  128.4017  136.1361  164.3791 C   0  0  0  0  0  0  0  0  0  0  0  0
  127.5958  135.6826  163.3535 C   0  0  0  0  0  0  0  0  0  0  0  0
  126.5285  136.4573  162.9163 C   0  0  0  0  0  0  0  0  0  0  0  0
  125.7113  136.0017  161.8791 N   0  0  0  0  0  0  0  0  0  0  0  0
  126.2363  135.1747  160.8924 C   0  0  0  0  0  0  0  0  0  0  0  0
  125.5498  134.2301  160.2022 C   0  0  0  0  0  0  0  0  0  0  0  0
  126.4578  133.6363  159.3039 C   0  0  0  0  0  0  0  0  0  0  0  0
  127.6581  134.2439  159.4978 C   0  0  0  0  0  0  0  0  0  0  0  0
  128.9095  133.9393  158.7738 C   0  0  0  0  0  0  0  0  0  0  0  0
  129.0581  133.0330  157.8277 N   0  0  0  0  0  0  0  0  0  0  0  0
  130.3928  133.0618  157.4041 N   0  0  0  0  0  0  0  0  0  0  0  0
  130.7837  132.5004  156.7163 H   0  0  0  0  0  0  0  0  0  0  0  0
  131.0406  134.0104  158.1149 C   0  0  0  0  0  0  0  0  0  0  0  0
  130.1575  134.5669  158.9714 C   0  0  0  0  0  0  0  0  0  0  0  0
  130.4514  135.6672  159.9584 C   0  0  0  0  0  0  0  0  0  0  0  0
  131.8660  136.0502  159.8580 N   0  0  0  0  0  0  0  0  0  0  0  0
  132.4463  135.2507  160.0631 H   0  0  0  0  0  0  0  0  0  0  0  0
  132.0607  136.3760  158.9231 H   0  0  0  0  0  0  0  0  0  0  0  0
  132.1524  137.1227  160.8200 C   0  0  0  0  0  0  0  0  0  0  0  0
  133.6257  137.5216  160.7155 C   0  0  2  0  0  0  0  0  0  0  0  0
  133.9226  138.7611  161.5956 C   0  0  0  0  0  0  0  0  0  0  0  0
  135.1749  139.3912  160.9517 C   0  0  2  0  0  0  0  0  0  0  0  0
  134.9754  140.4012  159.8198 C   0  0  0  0  0  0  0  0  0  0  0  0
  135.1972  138.9247  159.4855 C   0  0  2  0  0  0  0  0  0  0  0  0
  136.1187  138.6233  158.9876 H   0  0  0  0  0  0  0  0  0  0  0  0
  133.9577  138.0274  159.2896 C   0  0  0  0  0  0  0  0  0  0  0  0
  127.5095  135.1772  160.4613 O   0  0  0  0  0  0  0  0  0  0  0  0
  126.2794  137.6888  163.5093 C   0  0  0  0  0  0  0  0  0  0  0  0
  127.0863  138.1340  164.5377 C   0  0  0  0  0  0  0  0  0  0  0  0
  128.7796  137.7125  165.7723 H   0  0  0  0  0  0  0  0  0  0  0  0
  129.2314  135.5344  164.7194 H   0  0  0  0  0  0  0  0  0  0  0  0
  127.7952  134.7270  162.8915 H   0  0  0  0  0  0  0  0  0  0  0  0
  124.7775  136.2621  161.8473 H   0  0  0  0  0  0  0  0  0  0  0  0
  124.5045  133.9834  160.3162 H   0  0  0  0  0  0  0  0  0  0  0  0
  126.2423  132.8479  158.5978 H   0  0  0  0  0  0  0  0  0  0  0  0
  132.0829  134.2757  158.0167 H   0  0  0  0  0  0  0  0  0  0  0  0
  130.2411  135.3150  160.9683 H   0  0  0  0  0  0  0  0  0  0  0  0
  129.8244  136.5308  159.7370 H   0  0  0  0  0  0  0  0  0  0  0  0
  131.5255  137.9866  160.5983 H   0  0  0  0  0  0  0  0  0  0  0  0
  131.9420  136.7707  161.8298 H   0  0  0  0  0  0  0  0  0  0  0  0
  134.2708  136.6867  160.9890 H   0  0  0  0  0  0  0  0  0  0  0  0
  133.0861  139.4592  161.5658 H   0  0  0  0  0  0  0  0  0  0  0  0
  134.1322  138.4590  162.6217 H   0  0  0  0  0  0  0  0  0  0  0  0
  136.0865  139.4312  161.5477 H   0  0  0  0  0  0  0  0  0  0  0  0
  135.7927  141.0919  159.6126 H   0  0  0  0  0  0  0  0  0  0  0  0
  133.9725  140.8038  159.6768 H   0  0  0  0  0  0  0  0  0  0  0  0
  134.1930  137.1899  158.6329 H   0  0  0  0  0  0  0  0  0  0  0  0
  133.1258  138.6052  158.8865 H   0  0  0  0  0  0  0  0  0  0  0  0
  125.4535  138.2957  163.1686 H   0  0  0  0  0  0  0  0  0  0  0  0
  126.8913  139.0897  165.0015 H   0  0  0  0  0  0  0  0  0  0  0  0
  1 30  2  0
  1  2  1  0
  1 31  1  0
  2  3  2  0
  2 32  1  0
  3  4  1  0
  3 33  1  0
  4  5  1  0
  4 29  2  0
  5  6  1  0
  5 34  1  0
  6 28  1  0
  6  7  2  0
  7  8  1  0
  7 35  1  0
  8  9  2  0
  8 36  1  0
  9 10  1  0
  9 28  1  0
 10 15  1  0
 10 11  2  0
 11 12  1  0
 12 13  1  0
 12 14  1  0
 14 15  2  0
 14 37  1  0
 15 16  1  0
 16 17  1  0
 16 38  1  0
 16 39  1  0
 17 18  1  0
 17 19  1  0
 17 20  1  0
 20 21  1  0
 20 40  1  0
 20 41  1  0
 21 27  1  0
 21 22  1  0
 21 42  1  1
 22 23  1  0
 22 43  1  0
 22 44  1  0
 23 25  1  0
 23 24  1  0
 23 45  1  1
 24 25  1  0
 24 46  1  0
 24 47  1  0
 25 26  1  6
 25 27  1  0
 27 48  1  0
 27 49  1  0
 29 30  1  0
 29 50  1  0
 30 51  1  0
M  CHG  1  17   1
M  END
>  <DOCK_score>  (1) 
-47.228104

>  <SMILES>  (1) 
c1ccc(Nc2ccc(-c3n[nH]cc3C[NH2+]CC3CC4C[C@@H]4C3)o2)cc1

$$$$
