Cc1nc(N)ccc1Nc1[nH]cc(-c2ccc(NC3CC3)cc2)[nH+]1
     RDKit          3D

 45 48  0  0  1  0  0  0  0  0999 V2000
  127.7103  136.1354  158.1792 C   0  0  0  0  0  0  0  0  0  0  0  0
  128.0286  135.8969  159.6328 C   0  0  0  0  0  0  0  0  0  0  0  0
  127.1520  136.2411  160.5576 N   0  0  0  0  0  0  0  0  0  0  0  0
  127.3911  136.0552  161.8457 C   0  0  0  0  0  0  0  0  0  0  0  0
  126.4377  136.4394  162.7855 N   0  0  0  0  0  0  0  0  0  0  0  0
  128.5838  135.4800  162.2719 C   0  0  0  0  0  0  0  0  0  0  0  0
  129.5236  135.1017  161.3310 C   0  0  0  0  0  0  0  0  0  0  0  0
  129.2364  135.3133  159.9831 C   0  0  0  0  0  0  0  0  0  0  0  0
  130.1594  134.9460  158.9952 N   0  0  0  0  0  0  0  0  0  0  0  0
  130.1107  133.6786  158.4388 C   0  0  0  0  0  0  0  0  0  0  0  0
  129.6794  132.5520  159.0691 N   0  0  0  0  0  0  0  0  0  0  0  0
  129.3537  132.4926  159.9808 H   0  0  0  0  0  0  0  0  0  0  0  0
  129.7909  131.5142  158.1749 C   0  0  0  0  0  0  0  0  0  0  0  0
  130.2815  132.0375  157.0240 C   0  0  0  0  0  0  0  0  0  0  0  0
  130.5629  131.2885  155.7747 C   0  0  0  0  0  0  0  0  0  0  0  0
  129.9040  131.6276  154.5941 C   0  0  0  0  0  0  0  0  0  0  0  0
  130.1704  130.9327  153.4331 C   0  0  0  0  0  0  0  0  0  0  0  0
  131.0872  129.8891  153.4414 C   0  0  0  0  0  0  0  0  0  0  0  0
  131.3522  129.1830  152.2656 N   0  0  0  0  0  0  0  0  0  0  0  0
  130.6632  129.5436  151.0241 C   0  0  0  0  0  0  0  0  0  0  0  0
  129.2467  129.0031  150.8195 C   0  0  0  0  0  0  0  0  0  0  0  0
  130.4093  128.4290  150.0074 C   0  0  0  0  0  0  0  0  0  0  0  0
  131.7422  129.5457  154.6189 C   0  0  0  0  0  0  0  0  0  0  0  0
  131.4825  130.2408  155.7811 C   0  0  0  0  0  0  0  0  0  0  0  0
  130.4726  133.3661  157.2180 N   0  0  0  0  0  0  0  0  0  0  0  0
  130.8180  133.9869  156.5576 H   0  0  0  0  0  0  0  0  0  0  0  0
  127.2009  135.2626  157.7709 H   0  0  0  0  0  0  0  0  0  0  0  0
  127.0649  137.0090  158.0871 H   0  0  0  0  0  0  0  0  0  0  0  0
  128.6350  136.3073  157.6283 H   0  0  0  0  0  0  0  0  0  0  0  0
  126.6071  136.3054  163.7311 H   0  0  0  0  0  0  0  0  0  0  0  0
  125.6042  136.8410  162.4943 H   0  0  0  0  0  0  0  0  0  0  0  0
  128.7734  135.3311  163.3247 H   0  0  0  0  0  0  0  0  0  0  0  0
  130.4585  134.6530  161.6331 H   0  0  0  0  0  0  0  0  0  0  0  0
  130.8325  135.5794  158.7009 H   0  0  0  0  0  0  0  0  0  0  0  0
  129.5327  130.4807  158.3531 H   0  0  0  0  0  0  0  0  0  0  0  0
  129.1879  132.4360  154.5879 H   0  0  0  0  0  0  0  0  0  0  0  0
  129.6629  131.1975  152.5173 H   0  0  0  0  0  0  0  0  0  0  0  0
  131.9922  128.4541  152.2708 H   0  0  0  0  0  0  0  0  0  0  0  0
  130.8837  130.5382  150.6360 H   0  0  0  0  0  0  0  0  0  0  0  0
  128.8274  128.3789  151.6086 H   0  0  0  0  0  0  0  0  0  0  0  0
  128.5348  129.6419  150.2968 H   0  0  0  0  0  0  0  0  0  0  0  0
  130.4624  128.6902  148.9505 H   0  0  0  0  0  0  0  0  0  0  0  0
  130.7550  127.4271  150.2622 H   0  0  0  0  0  0  0  0  0  0  0  0
  132.4545  128.7340  154.6234 H   0  0  0  0  0  0  0  0  0  0  0  0
  131.9915  129.9740  156.6956 H   0  0  0  0  0  0  0  0  0  0  0  0
  1  2  1  0
  1 27  1  0
  1 28  1  0
  1 29  1  0
  2  8  2  0
  2  3  1  0
  3  4  2  0
  4  5  1  0
  4  6  1  0
  5 30  1  0
  5 31  1  0
  6  7  2  0
  6 32  1  0
  7  8  1  0
  7 33  1  0
  8  9  1  0
  9 34  1  0
 10  9  1  0
 10 25  2  0
 10 11  1  0
 11 12  1  0
 11 13  1  0
 13 14  2  0
 13 35  1  0
 14 15  1  0
 14 25  1  0
 15 24  1  0
 15 16  2  0
 16 17  1  0
 16 36  1  0
 17 18  2  0
 17 37  1  0
 18 19  1  0
 18 23  1  0
 19 20  1  0
 19 38  1  0
 20 22  1  0
 20 21  1  0
 20 39  1  0
 21 22  1  0
 21 40  1  0
 21 41  1  0
 22 42  1  0
 22 43  1  0
 23 24  2  0
 23 44  1  0
 24 45  1  0
 25 26  1  0
M  CHG  1  25   1
M  END
>  <DOCK_score>  (1) 
-51.975498

>  <SMILES>  (1) 
Cc1nc(N)ccc1Nc1[nH]cc(-c2ccc(NC3CC3)cc2)[nH+]1

$$$$
