Brc1ccc(-c2c[nH]c(N[C@@H](Cc3ccccc3)C3CC3)[nH+]2)cc1
     RDKit          3D

 45 48  0  0  1  0  0  0  0  0999 V2000
  130.8589  129.6423  150.5899 Br  0  0  0  0  0  0  0  0  0  0  0  0
  130.6219  130.4615  152.2777 C   0  0  0  0  0  0  0  0  0  0  0  0
  130.2909  131.8037  152.3523 C   0  0  0  0  0  0  0  0  0  0  0  0
  130.1167  132.4064  153.5813 C   0  0  0  0  0  0  0  0  0  0  0  0
  130.2743  131.6614  154.7487 C   0  0  0  0  0  0  0  0  0  0  0  0
  130.0882  132.3040  156.0726 C   0  0  0  0  0  0  0  0  0  0  0  0
  129.6486  131.6938  157.2011 C   0  0  0  0  0  0  0  0  0  0  0  0
  129.6303  132.6483  158.1891 N   0  0  0  0  0  0  0  0  0  0  0  0
  129.3641  132.5146  159.1122 H   0  0  0  0  0  0  0  0  0  0  0  0
  130.0514  133.8167  157.6327 C   0  0  0  0  0  0  0  0  0  0  0  0
  130.1742  135.0266  158.2943 N   0  0  0  0  0  0  0  0  0  0  0  0
  129.2917  135.3381  159.4214 C   0  0  1  0  0  0  0  0  0  0  0  0
  129.1539  134.4458  160.0323 H   0  0  0  0  0  0  0  0  0  0  0  0
  129.9199  136.4451  160.2703 C   0  0  0  0  0  0  0  0  0  0  0  0
  130.9709  135.8513  161.1724 C   0  0  0  0  0  0  0  0  0  0  0  0
  130.6253  135.3992  162.4321 C   0  0  0  0  0  0  0  0  0  0  0  0
  131.5894  134.8540  163.2594 C   0  0  0  0  0  0  0  0  0  0  0  0
  132.8992  134.7621  162.8274 C   0  0  0  0  0  0  0  0  0  0  0  0
  133.2447  135.2139  161.5674 C   0  0  0  0  0  0  0  0  0  0  0  0
  132.2805  135.7583  160.7398 C   0  0  0  0  0  0  0  0  0  0  0  0
  127.9353  135.8084  158.8925 C   0  0  0  0  0  0  0  0  0  0  0  0
  126.6997  135.4944  159.7384 C   0  0  0  0  0  0  0  0  0  0  0  0
  126.9462  134.7359  158.4318 C   0  0  0  0  0  0  0  0  0  0  0  0
  130.3272  133.6063  156.3688 N   0  0  0  0  0  0  0  0  0  0  0  0
  130.6505  134.2748  155.7448 H   0  0  0  0  0  0  0  0  0  0  0  0
  130.6131  130.3118  154.6679 C   0  0  0  0  0  0  0  0  0  0  0  0
  130.7799  129.7175  153.4338 C   0  0  0  0  0  0  0  0  0  0  0  0
  130.1690  132.3801  151.4472 H   0  0  0  0  0  0  0  0  0  0  0  0
  129.8582  133.4534  153.6386 H   0  0  0  0  0  0  0  0  0  0  0  0
  129.3703  130.6554  157.3044 H   0  0  0  0  0  0  0  0  0  0  0  0
  130.8444  135.6682  158.0113 H   0  0  0  0  0  0  0  0  0  0  0  0
  129.1485  136.9211  160.8755 H   0  0  0  0  0  0  0  0  0  0  0  0
  130.3789  137.1874  159.6172 H   0  0  0  0  0  0  0  0  0  0  0  0
  129.6030  135.4760  162.7718 H   0  0  0  0  0  0  0  0  0  0  0  0
  131.3194  134.5012  164.2438 H   0  0  0  0  0  0  0  0  0  0  0  0
  133.6524  134.3363  163.4738 H   0  0  0  0  0  0  0  0  0  0  0  0
  134.2679  135.1411  161.2295 H   0  0  0  0  0  0  0  0  0  0  0  0
  132.5505  136.1111  159.7554 H   0  0  0  0  0  0  0  0  0  0  0  0
  127.9451  136.7520  158.3467 H   0  0  0  0  0  0  0  0  0  0  0  0
  126.8531  134.9527  160.6715 H   0  0  0  0  0  0  0  0  0  0  0  0
  125.8963  136.2311  159.7487 H   0  0  0  0  0  0  0  0  0  0  0  0
  126.3049  134.9740  157.5830 H   0  0  0  0  0  0  0  0  0  0  0  0
  127.2619  133.6953  158.5051 H   0  0  0  0  0  0  0  0  0  0  0  0
  130.7412  129.7313  155.5696 H   0  0  0  0  0  0  0  0  0  0  0  0
  131.0387  128.6709  153.3700 H   0  0  0  0  0  0  0  0  0  0  0  0
  1  2  1  0
  2 27  2  0
  2  3  1  0
  3  4  2  0
  3 28  1  0
  4  5  1  0
  4 29  1  0
  5  6  1  0
  5 26  2  0
  6 24  1  0
  6  7  2  0
  7  8  1  0
  7 30  1  0
  8  9  1  0
  8 10  1  0
 10 11  1  0
 10 24  2  0
 11 12  1  0
 11 31  1  0
 12 13  1  1
 12 14  1  0
 12 21  1  0
 14 15  1  0
 14 32  1  0
 14 33  1  0
 15 20  1  0
 15 16  2  0
 16 17  1  0
 16 34  1  0
 17 18  2  0
 17 35  1  0
 18 19  1  0
 18 36  1  0
 19 20  2  0
 19 37  1  0
 20 38  1  0
 21 23  1  0
 21 22  1  0
 21 39  1  0
 22 23  1  0
 22 40  1  0
 22 41  1  0
 23 42  1  0
 23 43  1  0
 24 25  1  0
 26 27  1  0
 26 44  1  0
 27 45  1  0
M  CHG  1  24   1
M  END
>  <DOCK_score>  (1) 
-58.196541

>  <SMILES>  (1) 
Brc1ccc(-c2c[nH]c(N[C@@H](Cc3ccccc3)C3CC3)[nH+]2)cc1

$$$$
