Nc1ccc(-c2c[nH]c(N[C@H](C3=CCOC3)c3ccccc3)[nH+]2)cc1
     RDKit          3D

 46 49  0  0  1  0  0  0  0  0999 V2000
  131.4402  129.5787  151.7981 N   0  0  0  0  0  0  0  0  0  0  0  0
  131.1154  130.2729  152.9660 C   0  0  0  0  0  0  0  0  0  0  0  0
  130.4021  131.4641  152.8887 C   0  0  0  0  0  0  0  0  0  0  0  0
  130.0806  132.1518  154.0398 C   0  0  0  0  0  0  0  0  0  0  0  0
  130.4709  131.6520  155.2812 C   0  0  0  0  0  0  0  0  0  0  0  0
  130.1266  132.3904  156.5210 C   0  0  0  0  0  0  0  0  0  0  0  0
  129.3730  131.9212  157.5458 C   0  0  0  0  0  0  0  0  0  0  0  0
  129.3060  132.9246  158.4834 N   0  0  0  0  0  0  0  0  0  0  0  0
  128.8356  132.8887  159.3309 H   0  0  0  0  0  0  0  0  0  0  0  0
  130.0217  133.9774  158.0025 C   0  0  0  0  0  0  0  0  0  0  0  0
  130.2035  135.1897  158.6458 N   0  0  0  0  0  0  0  0  0  0  0  0
  129.5984  135.4197  159.9600 C   0  0  2  0  0  0  0  0  0  0  0  0
  129.9802  134.6855  160.6693 H   0  0  0  0  0  0  0  0  0  0  0  0
  128.1013  135.2848  159.8542 C   0  0  0  0  0  0  0  0  0  0  0  0
  127.3761  135.5526  158.7909 C   0  0  0  0  0  0  0  0  0  0  0  0
  125.9266  135.2785  159.1203 C   0  0  0  0  0  0  0  0  0  0  0  0
  125.9438  134.4538  160.3011 O   0  0  0  0  0  0  0  0  0  0  0  0
  127.1754  134.8172  160.9538 C   0  0  0  0  0  0  0  0  0  0  0  0
  129.9453  136.8066  160.4370 C   0  0  0  0  0  0  0  0  0  0  0  0
  130.0528  137.0649  161.7909 C   0  0  0  0  0  0  0  0  0  0  0  0
  130.3753  138.3360  162.2283 C   0  0  0  0  0  0  0  0  0  0  0  0
  130.5813  139.3507  161.3124 C   0  0  0  0  0  0  0  0  0  0  0  0
  130.4687  139.0934  159.9590 C   0  0  0  0  0  0  0  0  0  0  0  0
  130.1506  137.8214  159.5212 C   0  0  0  0  0  0  0  0  0  0  0  0
  130.5057  133.6564  156.8274 N   0  0  0  0  0  0  0  0  0  0  0  0
  131.0497  134.2317  156.2672 H   0  0  0  0  0  0  0  0  0  0  0  0
  131.1904  130.4603  155.3554 C   0  0  0  0  0  0  0  0  0  0  0  0
  131.5051  129.7731  154.2021 C   0  0  0  0  0  0  0  0  0  0  0  0
  131.1684  129.9272  150.9345 H   0  0  0  0  0  0  0  0  0  0  0  0
  131.9380  128.7479  151.8507 H   0  0  0  0  0  0  0  0  0  0  0  0
  130.0998  131.8510  151.9268 H   0  0  0  0  0  0  0  0  0  0  0  0
  129.5264  133.0768  153.9797 H   0  0  0  0  0  0  0  0  0  0  0  0
  128.9127  130.9465  157.6126 H   0  0  0  0  0  0  0  0  0  0  0  0
  130.7317  135.8869  158.2263 H   0  0  0  0  0  0  0  0  0  0  0  0
  127.7525  135.9075  157.8429 H   0  0  0  0  0  0  0  0  0  0  0  0
  125.4475  134.7477  158.2976 H   0  0  0  0  0  0  0  0  0  0  0  0
  125.4031  136.2131  159.3216 H   0  0  0  0  0  0  0  0  0  0  0  0
  127.0001  135.6233  161.6664 H   0  0  0  0  0  0  0  0  0  0  0  0
  127.6015  133.9523  161.4620 H   0  0  0  0  0  0  0  0  0  0  0  0
  129.8880  136.2731  162.5065 H   0  0  0  0  0  0  0  0  0  0  0  0
  130.4636  138.5369  163.2858 H   0  0  0  0  0  0  0  0  0  0  0  0
  130.8307  140.3443  161.6544 H   0  0  0  0  0  0  0  0  0  0  0  0
  130.6299  139.8862  159.2434 H   0  0  0  0  0  0  0  0  0  0  0  0
  130.0626  137.6205  158.4638 H   0  0  0  0  0  0  0  0  0  0  0  0
  131.4973  130.0732  156.3159 H   0  0  0  0  0  0  0  0  0  0  0  0
  132.0589  128.8476  154.2595 H   0  0  0  0  0  0  0  0  0  0  0  0
  1  2  1  0
  1 29  1  0
  1 30  1  0
  2 28  2  0
  2  3  1  0
  3  4  2  0
  3 31  1  0
  4  5  1  0
  4 32  1  0
  5  6  1  0
  5 27  2  0
  6 25  1  0
  6  7  2  0
  7  8  1  0
  7 33  1  0
  8  9  1  0
  8 10  1  0
 10 11  1  0
 10 25  2  0
 11 12  1  0
 11 34  1  0
 12 13  1  1
 12 14  1  0
 12 19  1  0
 14 18  1  0
 14 15  2  0
 15 16  1  0
 15 35  1  0
 16 17  1  0
 16 36  1  0
 16 37  1  0
 17 18  1  0
 18 38  1  0
 18 39  1  0
 19 24  1  0
 19 20  2  0
 20 21  1  0
 20 40  1  0
 21 22  2  0
 21 41  1  0
 22 23  1  0
 22 42  1  0
 23 24  2  0
 23 43  1  0
 24 44  1  0
 25 26  1  0
 27 28  1  0
 27 45  1  0
 28 46  1  0
M  CHG  1  25   1
M  END
>  <DOCK_score>  (1) 
-56.486713

>  <SMILES>  (1) 
Nc1ccc(-c2c[nH]c(N[C@H](C3=CCOC3)c3ccccc3)[nH+]2)cc1

$$$$
