Nc1ccc(-c2c[nH]c(N[C@@H](C=CC3=COCCC3)c3ccc(F)cc3)[nH+]2)cc1
     RDKit          3D

 53 56  0  0  1  0  0  0  0  0999 V2000
  131.7308  129.4184  151.6114 N   0  0  0  0  0  0  0  0  0  0  0  0
  131.3461  130.1194  152.7568 C   0  0  0  0  0  0  0  0  0  0  0  0
  130.5660  131.2638  152.6409 C   0  0  0  0  0  0  0  0  0  0  0  0
  130.1848  131.9571  153.7701 C   0  0  0  0  0  0  0  0  0  0  0  0
  130.5823  131.5092  155.0290 C   0  0  0  0  0  0  0  0  0  0  0  0
  130.1739  132.2535  156.2455 C   0  0  0  0  0  0  0  0  0  0  0  0
  129.4363  131.7618  157.2717 C   0  0  0  0  0  0  0  0  0  0  0  0
  129.2926  132.7809  158.1834 N   0  0  0  0  0  0  0  0  0  0  0  0
  128.8130  132.7352  159.0252 H   0  0  0  0  0  0  0  0  0  0  0  0
  129.9471  133.8653  157.6862 C   0  0  0  0  0  0  0  0  0  0  0  0
  130.0432  135.1014  158.3022 N   0  0  0  0  0  0  0  0  0  0  0  0
  128.9674  135.5679  159.1803 C   0  0  1  0  0  0  0  0  0  0  0  0
  128.8459  134.8697  160.0084 H   0  0  0  0  0  0  0  0  0  0  0  0
  129.3150  136.9313  159.7198 C   0  0  0  0  0  0  0  0  0  0  0  0
  128.8717  137.3059  160.9167 C   0  0  0  0  0  0  0  0  0  0  0  0
  129.2104  138.6348  161.4425 C   0  0  0  0  0  0  0  0  0  0  0  0
  128.7562  138.9857  162.6396 C   0  0  0  0  0  0  0  0  0  0  0  0
  129.0093  140.1869  163.2001 O   0  0  0  0  0  0  0  0  0  0  0  0
  130.0793  140.9619  162.6525 C   0  0  0  0  0  0  0  0  0  0  0  0
  129.9249  140.9875  161.1257 C   0  0  0  0  0  0  0  0  0  0  0  0
  130.0657  139.5500  160.6087 C   0  0  0  0  0  0  0  0  0  0  0  0
  127.6812  135.6497  158.3991 C   0  0  0  0  0  0  0  0  0  0  0  0
  126.4717  135.4454  159.0367 C   0  0  0  0  0  0  0  0  0  0  0  0
  125.2914  135.5249  158.3223 C   0  0  0  0  0  0  0  0  0  0  0  0
  125.3212  135.7991  156.9654 C   0  0  0  0  0  0  0  0  0  0  0  0
  124.1682  135.8725  156.2651 F   0  0  0  0  0  0  0  0  0  0  0  0
  126.5335  135.9983  156.3270 C   0  0  0  0  0  0  0  0  0  0  0  0
  127.7122  135.9234  157.0444 C   0  0  0  0  0  0  0  0  0  0  0  0
  130.4723  133.5463  156.5283 N   0  0  0  0  0  0  0  0  0  0  0  0
  130.9913  134.1400  155.9636 H   0  0  0  0  0  0  0  0  0  0  0  0
  131.3691  130.3641  155.1427 C   0  0  0  0  0  0  0  0  0  0  0  0
  131.7436  129.6710  154.0109 C   0  0  0  0  0  0  0  0  0  0  0  0
  131.4534  129.7306  150.7358 H   0  0  0  0  0  0  0  0  0  0  0  0
  132.2752  128.6195  151.6915 H   0  0  0  0  0  0  0  0  0  0  0  0
  130.2586  131.6106  151.6653 H   0  0  0  0  0  0  0  0  0  0  0  0
  129.5784  132.8460  153.6796 H   0  0  0  0  0  0  0  0  0  0  0  0
  129.0416  130.7603  157.3584 H   0  0  0  0  0  0  0  0  0  0  0  0
  130.8230  135.6587  158.1522 H   0  0  0  0  0  0  0  0  0  0  0  0
  129.9240  137.6045  159.1346 H   0  0  0  0  0  0  0  0  0  0  0  0
  128.2626  136.6329  161.5020 H   0  0  0  0  0  0  0  0  0  0  0  0
  128.1556  138.2770  163.1905 H   0  0  0  0  0  0  0  0  0  0  0  0
  130.0340  141.9785  163.0433 H   0  0  0  0  0  0  0  0  0  0  0  0
  131.0344  140.5087  162.9180 H   0  0  0  0  0  0  0  0  0  0  0  0
  128.9439  141.3826  160.8620 H   0  0  0  0  0  0  0  0  0  0  0  0
  130.7030  141.6129  160.6879 H   0  0  0  0  0  0  0  0  0  0  0  0
  131.1073  139.2359  160.6764 H   0  0  0  0  0  0  0  0  0  0  0  0
  129.7394  139.5058  159.5696 H   0  0  0  0  0  0  0  0  0  0  0  0
  126.4490  135.2277  160.0942 H   0  0  0  0  0  0  0  0  0  0  0  0
  124.3463  135.3694  158.8214 H   0  0  0  0  0  0  0  0  0  0  0  0
  126.5580  136.2118  155.2685 H   0  0  0  0  0  0  0  0  0  0  0  0
  128.6580  136.0791  156.5467 H   0  0  0  0  0  0  0  0  0  0  0  0
  131.6820  130.0178  156.1166 H   0  0  0  0  0  0  0  0  0  0  0  0
  132.3501  128.7816  154.0988 H   0  0  0  0  0  0  0  0  0  0  0  0
  1  2  1  0
  1 33  1  0
  1 34  1  0
  2 32  2  0
  2  3  1  0
  3  4  2  0
  3 35  1  0
  4  5  1  0
  4 36  1  0
  5  6  1  0
  5 31  2  0
  6 29  1  0
  6  7  2  0
  7  8  1  0
  7 37  1  0
  8  9  1  0
  8 10  1  0
 10 11  1  0
 10 29  2  0
 11 12  1  0
 11 38  1  0
 12 13  1  1
 12 14  1  0
 12 22  1  0
 14 15  2  0
 14 39  1  0
 15 16  1  0
 15 40  1  0
 16 21  1  0
 16 17  2  0
 17 18  1  0
 17 41  1  0
 18 19  1  0
 19 20  1  0
 19 42  1  0
 19 43  1  0
 20 21  1  0
 20 44  1  0
 20 45  1  0
 21 46  1  0
 21 47  1  0
 22 28  1  0
 22 23  2  0
 23 24  1  0
 23 48  1  0
 24 25  2  0
 24 49  1  0
 25 26  1  0
 25 27  1  0
 27 28  2  0
 27 50  1  0
 28 51  1  0
 29 30  1  0
 31 32  1  0
 31 52  1  0
 32 53  1  0
M  CHG  1  29   1
M  END
>  <DOCK_score>  (1) 
-63.020653

>  <SMILES>  (1) 
Nc1ccc(-c2c[nH]c(N[C@@H](C=CC3=COCCC3)c3ccc(F)cc3)[nH+]2)cc1

$$$$
