[NH3+][C@@H](CC1=CCCC1)C(=O)Nc1cc([C@H](O)C2=COCCC2)ccc1Sc1ccccc1
     RDKit          3D

 63 66  0  0  1  0  0  0  0  0999 V2000
  133.6634  136.2930  159.4612 N   0  0  0  0  0  0  0  0  0  0  0  0
  134.5372  136.7340  159.2164 H   0  0  0  0  0  0  0  0  0  0  0  0
  133.8034  135.2984  159.5558 H   0  0  0  0  0  0  0  0  0  0  0  0
  132.9830  136.4696  158.7373 H   0  0  0  0  0  0  0  0  0  0  0  0
  133.1776  136.8423  160.7342 C   0  0  1  0  0  0  0  0  0  0  0  0
  133.9125  136.6515  161.5162 H   0  0  0  0  0  0  0  0  0  0  0  0
  132.9651  138.3507  160.5909 C   0  0  0  0  0  0  0  0  0  0  0  0
  134.2897  139.0585  160.7156 C   0  0  0  0  0  0  0  0  0  0  0  0
  135.0821  139.3244  159.7130 C   0  0  0  0  0  0  0  0  0  0  0  0
  136.3276  140.0419  160.1792 C   0  0  0  0  0  0  0  0  0  0  0  0
  136.3684  139.8060  161.7070 C   0  0  0  0  0  0  0  0  0  0  0  0
  134.8718  139.5595  162.0169 C   0  0  0  0  0  0  0  0  0  0  0  0
  131.8725  136.1837  161.1001 C   0  0  0  0  0  0  0  0  0  0  0  0
  131.1262  135.7907  160.2283 O   0  0  0  0  0  0  0  0  0  0  0  0
  131.5344  136.0315  162.3957 N   0  0  0  0  0  0  0  0  0  0  0  0
  130.3209  135.4192  162.7359 C   0  0  0  0  0  0  0  0  0  0  0  0
  129.2264  135.5280  161.8916 C   0  0  0  0  0  0  0  0  0  0  0  0
  128.0314  134.9190  162.2268 C   0  0  0  0  0  0  0  0  0  0  0  0
  126.8453  135.0336  161.3042 C   0  0  2  0  0  0  0  0  0  0  0  0
  127.1191  135.6282  160.4327 H   0  0  0  0  0  0  0  0  0  0  0  0
  125.7656  135.6673  161.9930 O   0  0  0  0  0  0  0  0  0  0  0  0
  126.4194  133.6580  160.8601 C   0  0  0  0  0  0  0  0  0  0  0  0
  127.2744  132.9149  160.2085 C   0  0  0  0  0  0  0  0  0  0  0  0
  126.9904  131.6704  159.7653 O   0  0  0  0  0  0  0  0  0  0  0  0
  125.8441  131.0145  160.3145 C   0  0  0  0  0  0  0  0  0  0  0  0
  124.6675  132.0000  160.2872 C   0  0  0  0  0  0  0  0  0  0  0  0
  125.0241  133.1944  161.1788 C   0  0  0  0  0  0  0  0  0  0  0  0
  127.9196  134.2089  163.4083 C   0  0  0  0  0  0  0  0  0  0  0  0
  129.0033  134.0993  164.2588 C   0  0  0  0  0  0  0  0  0  0  0  0
  130.2086  134.7030  163.9279 C   0  0  0  0  0  0  0  0  0  0  0  0
  131.5925  134.5648  165.0097 S   0  0  0  0  0  0  0  0  0  0  0  0
  131.4113  135.9636  166.0657 C   0  0  0  0  0  0  0  0  0  0  0  0
  130.1456  136.4618  166.3508 C   0  0  0  0  0  0  0  0  0  0  0  0
  130.0072  137.5546  167.1835 C   0  0  0  0  0  0  0  0  0  0  0  0
  131.1268  138.1604  167.7242 C   0  0  0  0  0  0  0  0  0  0  0  0
  132.3883  137.6708  167.4380 C   0  0  0  0  0  0  0  0  0  0  0  0
  132.5341  136.5749  166.6108 C   0  0  0  0  0  0  0  0  0  0  0  0
  132.2919  138.6989  161.3742 H   0  0  0  0  0  0  0  0  0  0  0  0
  132.5291  138.5650  159.6151 H   0  0  0  0  0  0  0  0  0  0  0  0
  134.8749  139.0655  158.6852 H   0  0  0  0  0  0  0  0  0  0  0  0
  137.2114  139.6149  159.7053 H   0  0  0  0  0  0  0  0  0  0  0  0
  136.2560  141.1075  159.9614 H   0  0  0  0  0  0  0  0  0  0  0  0
  136.9717  138.9318  161.9518 H   0  0  0  0  0  0  0  0  0  0  0  0
  136.7340  140.6898  162.2297 H   0  0  0  0  0  0  0  0  0  0  0  0
  134.3860  140.4877  162.3179 H   0  0  0  0  0  0  0  0  0  0  0  0
  134.7659  138.8045  162.7958 H   0  0  0  0  0  0  0  0  0  0  0  0
  132.1312  136.3458  163.0929 H   0  0  0  0  0  0  0  0  0  0  0  0
  129.3086  136.0853  160.9702 H   0  0  0  0  0  0  0  0  0  0  0  0
  124.9669  135.7745  161.4587 H   0  0  0  0  0  0  0  0  0  0  0  0
  128.2596  133.3143  160.0182 H   0  0  0  0  0  0  0  0  0  0  0  0
  126.0491  130.7153  161.3424 H   0  0  0  0  0  0  0  0  0  0  0  0
  125.6014  130.1356  159.7173 H   0  0  0  0  0  0  0  0  0  0  0  0
  123.7700  131.5120  160.6676 H   0  0  0  0  0  0  0  0  0  0  0  0
  124.4960  132.3411  159.2663 H   0  0  0  0  0  0  0  0  0  0  0  0
  124.9706  132.8954  162.2255 H   0  0  0  0  0  0  0  0  0  0  0  0
  124.3207  134.0069  160.9964 H   0  0  0  0  0  0  0  0  0  0  0  0
  126.9823  133.7390  163.6674 H   0  0  0  0  0  0  0  0  0  0  0  0
  128.9123  133.5445  165.1808 H   0  0  0  0  0  0  0  0  0  0  0  0
  129.2713  135.9922  165.9252 H   0  0  0  0  0  0  0  0  0  0  0  0
  129.0237  137.9394  167.4094 H   0  0  0  0  0  0  0  0  0  0  0  0
  131.0157  139.0179  168.3712 H   0  0  0  0  0  0  0  0  0  0  0  0
  133.2604  138.1461  167.8622 H   0  0  0  0  0  0  0  0  0  0  0  0
  133.5194  136.1933  166.3875 H   0  0  0  0  0  0  0  0  0  0  0  0
  1  2  1  0
  1  3  1  0
  1  4  1  0
  1  5  1  0
  5  6  1  1
  5  7  1  0
  5 13  1  0
  7  8  1  0
  7 38  1  0
  7 39  1  0
  8 12  1  0
  8  9  2  0
  9 10  1  0
  9 40  1  0
 10 11  1  0
 10 41  1  0
 10 42  1  0
 11 12  1  0
 11 43  1  0
 11 44  1  0
 12 45  1  0
 12 46  1  0
 13 14  2  0
 13 15  1  0
 15 16  1  0
 15 47  1  0
 16 30  1  0
 16 17  2  0
 17 18  1  0
 17 48  1  0
 18 19  1  0
 18 28  2  0
 19 20  1  6
 19 21  1  0
 19 22  1  0
 21 49  1  0
 22 27  1  0
 22 23  2  0
 23 24  1  0
 23 50  1  0
 24 25  1  0
 25 26  1  0
 25 51  1  0
 25 52  1  0
 26 27  1  0
 26 53  1  0
 26 54  1  0
 27 55  1  0
 27 56  1  0
 28 29  1  0
 28 57  1  0
 29 30  2  0
 29 58  1  0
 30 31  1  0
 31 32  1  0
 32 37  1  0
 32 33  2  0
 33 34  1  0
 33 59  1  0
 34 35  2  0
 34 60  1  0
 35 36  1  0
 35 61  1  0
 36 37  2  0
 36 62  1  0
 37 63  1  0
M  CHG  1   1   1
M  END
>  <DOCK_score>  (1) 
-41.117817

>  <SMILES>  (1) 
[NH3+][C@@H](CC1=CCCC1)C(=O)Nc1cc([C@H](O)C2=COCCC2)ccc1Sc1ccccc1

$$$$
