Fc1ccc(NCc2ccccc2N2CC[NH+](C(c3ccccc3)c3ccccc3)CC2)cc1
     RDKit          3D

 65 69  0  0  0  0  0  0  0  0999 V2000
  129.0338  142.5826  164.9030 F   0  0  0  0  0  0  0  0  0  0  0  0
  129.8372  141.5745  164.4987 C   0  0  0  0  0  0  0  0  0  0  0  0
  131.1400  141.8409  164.1128 C   0  0  0  0  0  0  0  0  0  0  0  0
  131.9628  140.8119  163.6987 C   0  0  0  0  0  0  0  0  0  0  0  0
  131.4829  139.5090  163.6700 C   0  0  0  0  0  0  0  0  0  0  0  0
  132.3141  138.4657  163.2511 N   0  0  0  0  0  0  0  0  0  0  0  0
  133.7689  138.6386  163.2624 C   0  0  0  0  0  0  0  0  0  0  0  0
  134.2191  139.1933  161.9356 C   0  0  0  0  0  0  0  0  0  0  0  0
  135.1308  140.2301  161.8931 C   0  0  0  0  0  0  0  0  0  0  0  0
  135.5439  140.7401  160.6762 C   0  0  0  0  0  0  0  0  0  0  0  0
  135.0460  140.2147  159.4977 C   0  0  0  0  0  0  0  0  0  0  0  0
  134.1387  139.1743  159.5327 C   0  0  0  0  0  0  0  0  0  0  0  0
  133.7174  138.6631  160.7539 C   0  0  0  0  0  0  0  0  0  0  0  0
  132.7957  137.6143  160.7932 N   0  0  0  0  0  0  0  0  0  0  0  0
  133.3499  136.4026  160.1729 C   0  0  0  0  0  0  0  0  0  0  0  0
  132.3345  135.2635  160.2894 C   0  0  0  0  0  0  0  0  0  0  0  0
  131.0858  135.6501  159.6195 N   0  0  0  0  0  0  0  0  0  0  0  0
  131.2731  135.8487  158.6481 H   0  0  0  0  0  0  0  0  0  0  0  0
  130.1178  134.5494  159.7159 C   0  0  0  0  0  0  0  0  0  0  0  0
  128.8365  134.9457  159.0286 C   0  0  0  0  0  0  0  0  0  0  0  0
  127.6305  134.4290  159.4636 C   0  0  0  0  0  0  0  0  0  0  0  0
  126.4546  134.7961  158.8363 C   0  0  0  0  0  0  0  0  0  0  0  0
  126.4859  135.6720  157.7674 C   0  0  0  0  0  0  0  0  0  0  0  0
  127.6926  136.1848  157.3290 C   0  0  0  0  0  0  0  0  0  0  0  0
  128.8677  135.8216  157.9597 C   0  0  0  0  0  0  0  0  0  0  0  0
  130.6853  133.3217  159.0513 C   0  0  0  0  0  0  0  0  0  0  0  0
  130.4534  133.0934  157.7079 C   0  0  0  0  0  0  0  0  0  0  0  0
  130.9780  131.9697  157.0972 C   0  0  0  0  0  0  0  0  0  0  0  0
  131.7258  131.0689  157.8324 C   0  0  0  0  0  0  0  0  0  0  0  0
  131.9533  131.2946  159.1770 C   0  0  0  0  0  0  0  0  0  0  0  0
  131.4331  132.4210  159.7865 C   0  0  0  0  0  0  0  0  0  0  0  0
  130.5317  136.8471  160.2657 C   0  0  0  0  0  0  0  0  0  0  0  0
  131.5321  137.9994  160.1490 C   0  0  0  0  0  0  0  0  0  0  0  0
  130.1743  139.2447  164.0523 C   0  0  0  0  0  0  0  0  0  0  0  0
  129.3564  140.2763  164.4704 C   0  0  0  0  0  0  0  0  0  0  0  0
  131.5128  142.8543  164.1354 H   0  0  0  0  0  0  0  0  0  0  0  0
  132.9788  141.0203  163.3972 H   0  0  0  0  0  0  0  0  0  0  0  0
  131.9277  137.6274  162.9529 H   0  0  0  0  0  0  0  0  0  0  0  0
  134.2479  137.6746  163.4345 H   0  0  0  0  0  0  0  0  0  0  0  0
  134.0466  139.3295  164.0583 H   0  0  0  0  0  0  0  0  0  0  0  0
  135.5211  140.6431  162.8115 H   0  0  0  0  0  0  0  0  0  0  0  0
  136.2569  141.5507  160.6458 H   0  0  0  0  0  0  0  0  0  0  0  0
  135.3706  140.6155  158.5488 H   0  0  0  0  0  0  0  0  0  0  0  0
  133.7537  138.7615  158.6120 H   0  0  0  0  0  0  0  0  0  0  0  0
  133.5602  136.5962  159.1212 H   0  0  0  0  0  0  0  0  0  0  0  0
  134.2713  136.1219  160.6829 H   0  0  0  0  0  0  0  0  0  0  0  0
  132.1349  135.0612  161.3416 H   0  0  0  0  0  0  0  0  0  0  0  0
  132.7379  134.3678  159.8174 H   0  0  0  0  0  0  0  0  0  0  0  0
  129.9158  134.3341  160.7652 H   0  0  0  0  0  0  0  0  0  0  0  0
  127.6064  133.7412  160.2959 H   0  0  0  0  0  0  0  0  0  0  0  0
  125.5120  134.3953  159.1785 H   0  0  0  0  0  0  0  0  0  0  0  0
  125.5678  135.9555  157.2744 H   0  0  0  0  0  0  0  0  0  0  0  0
  127.7171  136.8688  156.4936 H   0  0  0  0  0  0  0  0  0  0  0  0
  129.8105  136.2219  157.6169 H   0  0  0  0  0  0  0  0  0  0  0  0
  129.8655  133.7947  157.1346 H   0  0  0  0  0  0  0  0  0  0  0  0
  130.7999  131.7931  156.0467 H   0  0  0  0  0  0  0  0  0  0  0  0
  132.1319  130.1887  157.3562 H   0  0  0  0  0  0  0  0  0  0  0  0
  132.5372  130.5908  159.7515 H   0  0  0  0  0  0  0  0  0  0  0  0
  131.6105  132.5971  160.8372 H   0  0  0  0  0  0  0  0  0  0  0  0
  130.3411  136.6367  161.3181 H   0  0  0  0  0  0  0  0  0  0  0  0
  129.5985  137.1252  159.7760 H   0  0  0  0  0  0  0  0  0  0  0  0
  131.1274  138.8835  160.6414 H   0  0  0  0  0  0  0  0  0  0  0  0
  131.7124  138.2192  159.0969 H   0  0  0  0  0  0  0  0  0  0  0  0
  129.7976  138.2329  164.0265 H   0  0  0  0  0  0  0  0  0  0  0  0
  128.3397  140.0708  164.7711 H   0  0  0  0  0  0  0  0  0  0  0  0
  1  2  1  0
  2 35  2  0
  2  3  1  0
  3  4  2  0
  3 36  1  0
  4  5  1  0
  4 37  1  0
  5  6  1  0
  5 34  2  0
  6  7  1  0
  6 38  1  0
  7  8  1  0
  7 39  1  0
  7 40  1  0
  8 13  1  0
  8  9  2  0
  9 10  1  0
  9 41  1  0
 10 11  2  0
 10 42  1  0
 11 12  1  0
 11 43  1  0
 12 13  2  0
 12 44  1  0
 13 14  1  0
 14 33  1  0
 14 15  1  0
 15 16  1  0
 15 45  1  0
 15 46  1  0
 16 17  1  0
 16 47  1  0
 16 48  1  0
 17 18  1  0
 17 19  1  0
 17 32  1  0
 19 20  1  0
 19 26  1  0
 19 49  1  0
 20 25  1  0
 20 21  2  0
 21 22  1  0
 21 50  1  0
 22 23  2  0
 22 51  1  0
 23 24  1  0
 23 52  1  0
 24 25  2  0
 24 53  1  0
 25 54  1  0
 26 31  1  0
 26 27  2  0
 27 28  1  0
 27 55  1  0
 28 29  2  0
 28 56  1  0
 29 30  1  0
 29 57  1  0
 30 31  2  0
 30 58  1  0
 31 59  1  0
 32 33  1  0
 32 60  1  0
 32 61  1  0
 33 62  1  0
 33 63  1  0
 34 35  1  0
 34 64  1  0
 35 65  1  0
M  CHG  1  17   1
M  END
>  <DOCK_score>  (1) 
-59.03643

>  <SMILES>  (1) 
Fc1ccc(NCc2ccccc2N2CC[NH+](C(c3ccccc3)c3ccccc3)CC2)cc1

$$$$
