C=C/C=C/C=C[C@@H](Nc1[nH]cc(-c2ccc(CC)cc2)[nH+]1)c1cccc2ccccc12
     RDKit          3D

 59 62  0  0  1  0  0  0  0  0999 V2000
  131.3195  129.9910  152.3634 C   0  0  0  0  0  0  0  0  0  0  0  0
  131.3065  129.1550  153.4014 C   0  0  0  0  0  0  0  0  0  0  0  0
  131.3431  129.6825  154.7672 C   0  0  0  0  0  0  0  0  0  0  0  0
  130.6325  130.7846  155.0838 C   0  0  0  0  0  0  0  0  0  0  0  0
  130.6689  131.3123  156.4497 C   0  0  0  0  0  0  0  0  0  0  0  0
  129.9668  132.4012  156.7625 C   0  0  0  0  0  0  0  0  0  0  0  0
  130.0044  132.9441  158.1678 C   0  0  1  0  0  0  0  0  0  0  0  0
  130.1658  132.1255  158.8693 H   0  0  0  0  0  0  0  0  0  0  0  0
  131.0968  133.9128  158.2881 N   0  0  0  0  0  0  0  0  0  0  0  0
  131.3285  134.5483  159.4960 C   0  0  0  0  0  0  0  0  0  0  0  0
  131.0688  134.0298  160.7272 N   0  0  0  0  0  0  0  0  0  0  0  0
  130.6911  133.1563  160.9147 H   0  0  0  0  0  0  0  0  0  0  0  0
  131.4407  134.9718  161.6553 C   0  0  0  0  0  0  0  0  0  0  0  0
  131.9164  136.0378  160.9654 C   0  0  0  0  0  0  0  0  0  0  0  0
  132.4339  137.2976  161.5531 C   0  0  0  0  0  0  0  0  0  0  0  0
  133.4198  138.0257  160.8894 C   0  0  0  0  0  0  0  0  0  0  0  0
  133.8974  139.1974  161.4406 C   0  0  0  0  0  0  0  0  0  0  0  0
  133.3995  139.6493  162.6495 C   0  0  0  0  0  0  0  0  0  0  0  0
  133.9254  140.9292  163.2465 C   0  0  0  0  0  0  0  0  0  0  0  0
  135.1269  140.6187  164.1413 C   0  0  0  0  0  0  0  0  0  0  0  0
  132.4249  138.9279  163.3154 C   0  0  0  0  0  0  0  0  0  0  0  0
  131.9357  137.7580  162.7705 C   0  0  0  0  0  0  0  0  0  0  0  0
  131.8299  135.7505  159.6423 N   0  0  0  0  0  0  0  0  0  0  0  0
  132.0986  136.3396  158.9200 H   0  0  0  0  0  0  0  0  0  0  0  0
  128.6952  133.6221  158.4796 C   0  0  0  0  0  0  0  0  0  0  0  0
  128.5314  134.9476  158.2165 C   0  0  0  0  0  0  0  0  0  0  0  0
  127.3280  135.5914  158.4975 C   0  0  0  0  0  0  0  0  0  0  0  0
  126.2813  134.9137  159.0433 C   0  0  0  0  0  0  0  0  0  0  0  0
  126.4128  133.5443  159.3289 C   0  0  0  0  0  0  0  0  0  0  0  0
  125.3543  132.8110  159.8920 C   0  0  0  0  0  0  0  0  0  0  0  0
  125.5125  131.4821  160.1395 C   0  0  0  0  0  0  0  0  0  0  0  0
  126.7163  130.8381  159.8587 C   0  0  0  0  0  0  0  0  0  0  0  0
  127.7647  131.5169  159.3181 C   0  0  0  0  0  0  0  0  0  0  0  0
  127.6351  132.8882  159.0380 C   0  0  0  0  0  0  0  0  0  0  0  0
  131.3572  131.0575  152.5294 H   0  0  0  0  0  0  0  0  0  0  0  0
  131.2924  129.6020  151.3562 H   0  0  0  0  0  0  0  0  0  0  0  0
  131.2689  128.0885  153.2352 H   0  0  0  0  0  0  0  0  0  0  0  0
  131.9389  129.1893  155.5208 H   0  0  0  0  0  0  0  0  0  0  0  0
  130.0366  131.2780  154.3301 H   0  0  0  0  0  0  0  0  0  0  0  0
  131.2648  130.8190  157.2034 H   0  0  0  0  0  0  0  0  0  0  0  0
  129.3709  132.8945  156.0088 H   0  0  0  0  0  0  0  0  0  0  0  0
  131.6576  134.1089  157.5214 H   0  0  0  0  0  0  0  0  0  0  0  0
  131.3679  134.8806  162.7291 H   0  0  0  0  0  0  0  0  0  0  0  0
  133.8096  137.6736  159.9458 H   0  0  0  0  0  0  0  0  0  0  0  0
  134.6612  139.7624  160.9273 H   0  0  0  0  0  0  0  0  0  0  0  0
  133.1427  141.4017  163.8401 H   0  0  0  0  0  0  0  0  0  0  0  0
  134.2322  141.6037  162.4472 H   0  0  0  0  0  0  0  0  0  0  0  0
  135.9095  140.1463  163.5477 H   0  0  0  0  0  0  0  0  0  0  0  0
  135.5072  141.5444  164.5731 H   0  0  0  0  0  0  0  0  0  0  0  0
  134.8200  139.9442  164.9406 H   0  0  0  0  0  0  0  0  0  0  0  0
  132.0433  139.2829  164.2612 H   0  0  0  0  0  0  0  0  0  0  0  0
  131.1714  137.1980  163.2890 H   0  0  0  0  0  0  0  0  0  0  0  0
  129.3464  135.5087  157.7838 H   0  0  0  0  0  0  0  0  0  0  0  0
  127.2244  136.6441  158.2793 H   0  0  0  0  0  0  0  0  0  0  0  0
  125.3544  135.4258  159.2555 H   0  0  0  0  0  0  0  0  0  0  0  0
  124.4160  133.2968  160.1155 H   0  0  0  0  0  0  0  0  0  0  0  0
  124.6960  130.9200  160.5681 H   0  0  0  0  0  0  0  0  0  0  0  0
  126.8186  129.7846  160.0731 H   0  0  0  0  0  0  0  0  0  0  0  0
  128.6915  131.0047  159.1060 H   0  0  0  0  0  0  0  0  0  0  0  0
  1  2  2  0
  1 35  1  0
  1 36  1  0
  2  3  1  0
  2 37  1  0
  3  4  2  0
  3 38  1  0
  4  5  1  0
  4 39  1  0
  5  6  2  0
  5 40  1  0
  6  7  1  0
  6 41  1  0
  7  8  1  1
  7  9  1  0
  7 25  1  0
  9 42  1  0
 10  9  1  0
 10 23  2  0
 10 11  1  0
 11 12  1  0
 11 13  1  0
 13 14  2  0
 13 43  1  0
 14 15  1  0
 14 23  1  0
 15 22  1  0
 15 16  2  0
 16 17  1  0
 16 44  1  0
 17 18  2  0
 17 45  1  0
 18 19  1  0
 18 21  1  0
 19 20  1  0
 19 46  1  0
 19 47  1  0
 20 48  1  0
 20 49  1  0
 20 50  1  0
 21 22  2  0
 21 51  1  0
 22 52  1  0
 23 24  1  0
 25 34  1  0
 25 26  2  0
 26 27  1  0
 26 53  1  0
 27 28  2  0
 27 54  1  0
 28 29  1  0
 28 55  1  0
 29 34  2  0
 29 30  1  0
 30 31  2  0
 30 56  1  0
 31 32  1  0
 31 57  1  0
 32 33  2  0
 32 58  1  0
 33 34  1  0
 33 59  1  0
M  CHG  1  23   1
M  END
>  <DOCK_score>  (1) 
-62.828381

>  <SMILES>  (1) 
C=C/C=C/C=C[C@@H](Nc1[nH]cc(-c2ccc(CC)cc2)[nH+]1)c1cccc2ccccc12

$$$$
