Cc1[nH]c(N[C@@H]2C[C@@H](O)C[C@H]2[C@H](O)c2cccc(-c3ccccc3)c2)[nH+]c1C
     RDKit          3D

 56 59  0  0  1  0  0  0  0  0999 V2000
  130.5287  129.6202  158.1306 C   0  0  0  0  0  0  0  0  0  0  0  0
  130.6227  131.0552  157.6800 C   0  0  0  0  0  0  0  0  0  0  0  0
  130.3967  132.1562  158.4469 N   0  0  0  0  0  0  0  0  0  0  0  0
  130.1465  132.1550  159.3840 H   0  0  0  0  0  0  0  0  0  0  0  0
  130.5787  133.2343  157.6896 C   0  0  0  0  0  0  0  0  0  0  0  0
  130.4423  134.5447  158.1071 N   0  0  0  0  0  0  0  0  0  0  0  0
  130.0665  134.8366  159.4927 C   0  0  2  0  0  0  0  0  0  0  0  0
  130.5795  134.1546  160.1707 H   0  0  0  0  0  0  0  0  0  0  0  0
  128.5431  134.7040  159.6646 C   0  0  0  0  0  0  0  0  0  0  0  0
  128.0280  136.0879  160.1113 C   0  0  1  0  0  0  0  0  0  0  0  0
  127.6822  136.6637  159.2528 H   0  0  0  0  0  0  0  0  0  0  0  0
  126.9794  135.9452  161.0715 O   0  0  0  0  0  0  0  0  0  0  0  0
  129.2641  136.7637  160.7550 C   0  0  0  0  0  0  0  0  0  0  0  0
  130.4239  136.2963  159.8408 C   0  0  1  0  0  0  0  0  0  0  0  0
  130.4679  136.9060  158.9384 H   0  0  0  0  0  0  0  0  0  0  0  0
  131.7555  136.3570  160.5919 C   0  0  2  0  0  0  0  0  0  0  0  0
  132.5445  135.9384  159.9670 H   0  0  0  0  0  0  0  0  0  0  0  0
  131.6550  135.6025  161.8014 O   0  0  0  0  0  0  0  0  0  0  0  0
  132.0821  137.7911  160.9203 C   0  0  0  0  0  0  0  0  0  0  0  0
  132.8147  138.5540  160.0286 C   0  0  0  0  0  0  0  0  0  0  0  0
  133.1177  139.8708  160.3233 C   0  0  0  0  0  0  0  0  0  0  0  0
  132.6905  140.4309  161.5106 C   0  0  0  0  0  0  0  0  0  0  0  0
  131.9523  139.6672  162.4120 C   0  0  0  0  0  0  0  0  0  0  0  0
  131.4903  140.2637  163.6899 C   0  0  0  0  0  0  0  0  0  0  0  0
  130.3086  139.8215  164.2812 C   0  0  0  0  0  0  0  0  0  0  0  0
  129.8861  140.3766  165.4721 C   0  0  0  0  0  0  0  0  0  0  0  0
  130.6277  141.3775  166.0731 C   0  0  0  0  0  0  0  0  0  0  0  0
  131.7989  141.8241  165.4878 C   0  0  0  0  0  0  0  0  0  0  0  0
  132.2335  141.2723  164.2998 C   0  0  0  0  0  0  0  0  0  0  0  0
  131.6450  138.3425  162.1073 C   0  0  0  0  0  0  0  0  0  0  0  0
  130.9085  132.8418  156.4624 N   0  0  0  0  0  0  0  0  0  0  0  0
  131.0932  133.4245  155.7093 H   0  0  0  0  0  0  0  0  0  0  0  0
  130.9444  131.4817  156.4467 C   0  0  0  0  0  0  0  0  0  0  0  0
  131.2775  130.6125  155.2615 C   0  0  0  0  0  0  0  0  0  0  0  0
  129.5135  129.2559  157.9740 H   0  0  0  0  0  0  0  0  0  0  0  0
  131.2261  129.0121  157.5544 H   0  0  0  0  0  0  0  0  0  0  0  0
  130.7788  129.5550  159.1896 H   0  0  0  0  0  0  0  0  0  0  0  0
  130.5955  135.2710  157.4829 H   0  0  0  0  0  0  0  0  0  0  0  0
  128.3168  133.9578  160.4262 H   0  0  0  0  0  0  0  0  0  0  0  0
  128.0835  134.4225  158.7172 H   0  0  0  0  0  0  0  0  0  0  0  0
  127.2194  135.4081  161.8392 H   0  0  0  0  0  0  0  0  0  0  0  0
  129.4101  136.4100  161.7755 H   0  0  0  0  0  0  0  0  0  0  0  0
  129.1692  137.8493  160.7338 H   0  0  0  0  0  0  0  0  0  0  0  0
  131.4463  134.6681  161.6658 H   0  0  0  0  0  0  0  0  0  0  0  0
  133.1510  138.1198  159.0986 H   0  0  0  0  0  0  0  0  0  0  0  0
  133.6899  140.4619  159.6238 H   0  0  0  0  0  0  0  0  0  0  0  0
  132.9282  141.4590  161.7401 H   0  0  0  0  0  0  0  0  0  0  0  0
  129.7267  139.0428  163.8105 H   0  0  0  0  0  0  0  0  0  0  0  0
  128.9727  140.0313  165.9335 H   0  0  0  0  0  0  0  0  0  0  0  0
  130.2914  141.8118  167.0031 H   0  0  0  0  0  0  0  0  0  0  0  0
  132.3739  142.6061  165.9613 H   0  0  0  0  0  0  0  0  0  0  0  0
  133.1478  141.6219  163.8434 H   0  0  0  0  0  0  0  0  0  0  0  0
  131.0696  137.7473  162.8009 H   0  0  0  0  0  0  0  0  0  0  0  0
  130.3651  130.3844  154.7103 H   0  0  0  0  0  0  0  0  0  0  0  0
  131.9740  131.1390  154.6090 H   0  0  0  0  0  0  0  0  0  0  0  0
  131.7341  129.6852  155.6077 H   0  0  0  0  0  0  0  0  0  0  0  0
  1  2  1  0
  1 35  1  0
  1 36  1  0
  1 37  1  0
  2 33  2  0
  2  3  1  0
  3  4  1  0
  3  5  1  0
  5  6  1  0
  5 31  2  0
  6  7  1  0
  6 38  1  0
  7  8  1  1
  7 14  1  0
  7  9  1  0
  9 10  1  0
  9 39  1  0
  9 40  1  0
 10 11  1  6
 10 12  1  0
 10 13  1  0
 12 41  1  0
 13 14  1  0
 13 42  1  0
 13 43  1  0
 14 15  1  6
 14 16  1  0
 16 17  1  6
 16 18  1  0
 16 19  1  0
 18 44  1  0
 19 30  1  0
 19 20  2  0
 20 21  1  0
 20 45  1  0
 21 22  2  0
 21 46  1  0
 22 23  1  0
 22 47  1  0
 23 24  1  0
 23 30  2  0
 24 29  1  0
 24 25  2  0
 25 26  1  0
 25 48  1  0
 26 27  2  0
 26 49  1  0
 27 28  1  0
 27 50  1  0
 28 29  2  0
 28 51  1  0
 29 52  1  0
 30 53  1  0
 31 32  1  0
 31 33  1  0
 33 34  1  0
 34 54  1  0
 34 55  1  0
 34 56  1  0
M  CHG  1  31   1
M  END
>  <DOCK_score>  (1) 
-46.775364

>  <SMILES>  (1) 
Cc1[nH]c(N[C@@H]2C[C@@H](O)C[C@H]2[C@H](O)c2cccc(-c3ccccc3)c2)[nH+]c1C

$$$$
