CCc1ccc(-c2c[nH]c(N[C@@H](C)c3cc4ccccc4[nH]3)[nH+]2)cc1
     RDKit          3D

 48 51  0  0  1  0  0  0  0  0999 V2000
  130.3913  128.5300  151.7324 C   0  0  0  0  0  0  0  0  0  0  0  0
  131.5258  129.4956  152.0806 C   0  0  0  0  0  0  0  0  0  0  0  0
  131.1701  130.2590  153.3303 C   0  0  0  0  0  0  0  0  0  0  0  0
  131.5273  129.7578  154.5686 C   0  0  0  0  0  0  0  0  0  0  0  0
  131.2092  130.4553  155.7163 C   0  0  0  0  0  0  0  0  0  0  0  0
  130.5166  131.6614  155.6261 C   0  0  0  0  0  0  0  0  0  0  0  0
  130.1671  132.4129  156.8563 C   0  0  0  0  0  0  0  0  0  0  0  0
  129.4000  131.9586  157.8782 C   0  0  0  0  0  0  0  0  0  0  0  0
  129.3327  132.9694  158.8060 N   0  0  0  0  0  0  0  0  0  0  0  0
  128.8540  132.9442  159.6492 H   0  0  0  0  0  0  0  0  0  0  0  0
  130.0613  134.0127  158.3236 C   0  0  0  0  0  0  0  0  0  0  0  0
  130.2467  135.2287  158.9587 N   0  0  0  0  0  0  0  0  0  0  0  0
  130.2441  135.2987  160.4221 C   0  0  1  0  0  0  0  0  0  0  0  0
  129.4683  134.6420  160.8158 H   0  0  0  0  0  0  0  0  0  0  0  0
  131.6075  134.8553  160.9563 C   0  0  0  0  0  0  0  0  0  0  0  0
  129.9710  136.7157  160.8567 C   0  0  0  0  0  0  0  0  0  0  0  0
  130.3114  137.8136  160.1635 C   0  0  0  0  0  0  0  0  0  0  0  0
  129.8578  138.9690  160.9412 C   0  0  0  0  0  0  0  0  0  0  0  0
  129.9167  140.3509  160.7507 C   0  0  0  0  0  0  0  0  0  0  0  0
  129.3927  141.1888  161.6941 C   0  0  0  0  0  0  0  0  0  0  0  0
  128.8006  140.6771  162.8409 C   0  0  0  0  0  0  0  0  0  0  0  0
  128.7313  139.3172  163.0489 C   0  0  0  0  0  0  0  0  0  0  0  0
  129.2591  138.4455  162.1016 C   0  0  0  0  0  0  0  0  0  0  0  0
  129.3442  137.0737  162.0191 N   0  0  0  0  0  0  0  0  0  0  0  0
  129.0101  136.4536  162.6859 H   0  0  0  0  0  0  0  0  0  0  0  0
  130.5631  133.6743  157.1610 N   0  0  0  0  0  0  0  0  0  0  0  0
  131.1257  134.2367  156.6060 H   0  0  0  0  0  0  0  0  0  0  0  0
  130.1542  132.1591  154.3757 C   0  0  0  0  0  0  0  0  0  0  0  0
  130.4825  131.4560  153.2345 C   0  0  0  0  0  0  0  0  0  0  0  0
  129.4730  129.0928  151.5656 H   0  0  0  0  0  0  0  0  0  0  0  0
  130.6485  127.9780  150.8285 H   0  0  0  0  0  0  0  0  0  0  0  0
  130.2444  127.8308  152.5557 H   0  0  0  0  0  0  0  0  0  0  0  0
  132.4440  128.9333  152.2470 H   0  0  0  0  0  0  0  0  0  0  0  0
  131.6725  130.1953  151.2569 H   0  0  0  0  0  0  0  0  0  0  0  0
  132.0597  128.8208  154.6376 H   0  0  0  0  0  0  0  0  0  0  0  0
  131.4927  130.0652  156.6827 H   0  0  0  0  0  0  0  0  0  0  0  0
  128.9315  130.9881  157.9488 H   0  0  0  0  0  0  0  0  0  0  0  0
  130.3785  136.0344  158.4349 H   0  0  0  0  0  0  0  0  0  0  0  0
  131.8051  133.8304  160.6420 H   0  0  0  0  0  0  0  0  0  0  0  0
  132.3831  135.5120  160.5626 H   0  0  0  0  0  0  0  0  0  0  0  0
  131.6054  134.9074  162.0452 H   0  0  0  0  0  0  0  0  0  0  0  0
  130.8212  137.8400  159.2117 H   0  0  0  0  0  0  0  0  0  0  0  0
  130.3754  140.7562  159.8608 H   0  0  0  0  0  0  0  0  0  0  0  0
  129.4389  142.2576  161.5463 H   0  0  0  0  0  0  0  0  0  0  0  0
  128.3901  141.3520  163.5773 H   0  0  0  0  0  0  0  0  0  0  0  0
  128.2685  138.9288  163.9440 H   0  0  0  0  0  0  0  0  0  0  0  0
  129.6173  133.0932  154.3000 H   0  0  0  0  0  0  0  0  0  0  0  0
  130.2019  131.8405  152.2650 H   0  0  0  0  0  0  0  0  0  0  0  0
  1  2  1  0
  1 30  1  0
  1 31  1  0
  1 32  1  0
  2  3  1  0
  2 33  1  0
  2 34  1  0
  3 29  2  0
  3  4  1  0
  4  5  2  0
  4 35  1  0
  5  6  1  0
  5 36  1  0
  6  7  1  0
  6 28  2  0
  7 26  1  0
  7  8  2  0
  8  9  1  0
  8 37  1  0
  9 10  1  0
  9 11  1  0
 11 12  1  0
 11 26  2  0
 12 13  1  0
 12 38  1  0
 13 14  1  1
 13 15  1  0
 13 16  1  0
 15 39  1  0
 15 40  1  0
 15 41  1  0
 16 24  1  0
 16 17  2  0
 17 18  1  0
 17 42  1  0
 18 23  2  0
 18 19  1  0
 19 20  2  0
 19 43  1  0
 20 21  1  0
 20 44  1  0
 21 22  2  0
 21 45  1  0
 22 23  1  0
 22 46  1  0
 23 24  1  0
 24 25  1  0
 26 27  1  0
 28 29  1  0
 28 47  1  0
 29 48  1  0
M  CHG  1  26   1
M  END
>  <DOCK_score>  (1) 
-56.427029

>  <SMILES>  (1) 
CCc1ccc(-c2c[nH]c(N[C@@H](C)c3cc4ccccc4[nH]3)[nH+]2)cc1

$$$$
