CCSc1ccccc1[C@@H](Nc1[nH]cc(-c2ccc(CC)cc2)[nH+]1)C1=CCC1
     RDKit          3D

 56 59  0  0  1  0  0  0  0  0999 V2000
  130.5726  132.6125  163.1980 C   0  0  0  0  0  0  0  0  0  0  0  0
  129.2024  132.8363  162.5553 C   0  0  0  0  0  0  0  0  0  0  0  0
  128.7324  134.5801  162.7250 S   0  0  0  0  0  0  0  0  0  0  0  0
  127.7338  134.8619  161.3010 C   0  0  0  0  0  0  0  0  0  0  0  0
  126.3614  134.6494  161.3593 C   0  0  0  0  0  0  0  0  0  0  0  0
  125.5829  134.8657  160.2401 C   0  0  0  0  0  0  0  0  0  0  0  0
  126.1663  135.2986  159.0627 C   0  0  0  0  0  0  0  0  0  0  0  0
  127.5303  135.5175  159.0029 C   0  0  0  0  0  0  0  0  0  0  0  0
  128.3154  135.3031  160.1187 C   0  0  0  0  0  0  0  0  0  0  0  0
  129.8019  135.5417  160.0523 C   0  0  1  0  0  0  0  0  0  0  0  0
  130.3093  134.8669  160.7419 H   0  0  0  0  0  0  0  0  0  0  0  0
  130.2759  135.2932  158.6886 N   0  0  0  0  0  0  0  0  0  0  0  0
  130.1118  134.0437  158.1155 C   0  0  0  0  0  0  0  0  0  0  0  0
  129.5331  132.9670  158.7138 N   0  0  0  0  0  0  0  0  0  0  0  0
  129.1648  132.9372  159.6107 H   0  0  0  0  0  0  0  0  0  0  0  0
  129.5663  131.9305  157.8130 C   0  0  0  0  0  0  0  0  0  0  0  0
  130.1638  132.4030  156.6911 C   0  0  0  0  0  0  0  0  0  0  0  0
  130.4189  131.6348  155.4482 C   0  0  0  0  0  0  0  0  0  0  0  0
  129.8622  132.0528  154.2408 C   0  0  0  0  0  0  0  0  0  0  0  0
  130.1032  131.3343  153.0875 C   0  0  0  0  0  0  0  0  0  0  0  0
  130.8952  130.2005  153.1286 C   0  0  0  0  0  0  0  0  0  0  0  0
  131.1544  129.4198  151.8657 C   0  0  0  0  0  0  0  0  0  0  0  0
  130.0709  128.3541  151.6935 C   0  0  0  0  0  0  0  0  0  0  0  0
  131.4458  129.7783  154.3247 C   0  0  0  0  0  0  0  0  0  0  0  0
  131.2166  130.4924  155.4833 C   0  0  0  0  0  0  0  0  0  0  0  0
  130.4923  133.7013  156.9089 N   0  0  0  0  0  0  0  0  0  0  0  0
  130.9355  134.2838  156.2724 H   0  0  0  0  0  0  0  0  0  0  0  0
  130.0993  136.9684  160.4355 C   0  0  0  0  0  0  0  0  0  0  0  0
  130.2026  138.1031  159.7872 C   0  0  0  0  0  0  0  0  0  0  0  0
  130.5196  139.0049  160.9532 C   0  0  0  0  0  0  0  0  0  0  0  0
  130.4093  137.6872  161.7241 C   0  0  0  0  0  0  0  0  0  0  0  0
  131.3137  133.2386  162.7010 H   0  0  0  0  0  0  0  0  0  0  0  0
  130.5254  132.8747  164.2548 H   0  0  0  0  0  0  0  0  0  0  0  0
  130.8551  131.5647  163.0960 H   0  0  0  0  0  0  0  0  0  0  0  0
  128.4613  132.2102  163.0521 H   0  0  0  0  0  0  0  0  0  0  0  0
  129.2496  132.5739  161.4983 H   0  0  0  0  0  0  0  0  0  0  0  0
  125.9053  134.3107  162.2778 H   0  0  0  0  0  0  0  0  0  0  0  0
  124.5171  134.6961  160.2831 H   0  0  0  0  0  0  0  0  0  0  0  0
  125.5548  135.4668  158.1886 H   0  0  0  0  0  0  0  0  0  0  0  0
  127.9824  135.8562  158.0824 H   0  0  0  0  0  0  0  0  0  0  0  0
  130.7049  136.0042  158.1872 H   0  0  0  0  0  0  0  0  0  0  0  0
  129.1888  130.9306  157.9686 H   0  0  0  0  0  0  0  0  0  0  0  0
  129.2430  132.9371  154.2079 H   0  0  0  0  0  0  0  0  0  0  0  0
  129.6723  131.6574  152.1513 H   0  0  0  0  0  0  0  0  0  0  0  0
  132.1308  128.9396  151.9295 H   0  0  0  0  0  0  0  0  0  0  0  0
  131.1380  130.0965  151.0105 H   0  0  0  0  0  0  0  0  0  0  0  0
  130.0876  127.6781  152.5484 H   0  0  0  0  0  0  0  0  0  0  0  0
  129.0949  128.8350  151.6295 H   0  0  0  0  0  0  0  0  0  0  0  0
  130.2585  127.7895  150.7802 H   0  0  0  0  0  0  0  0  0  0  0  0
  132.0596  128.8900  154.3515 H   0  0  0  0  0  0  0  0  0  0  0  0
  131.6508  130.1641  156.4161 H   0  0  0  0  0  0  0  0  0  0  0  0
  130.0933  138.3250  158.7359 H   0  0  0  0  0  0  0  0  0  0  0  0
  129.7433  139.7326  161.1898 H   0  0  0  0  0  0  0  0  0  0  0  0
  131.5223  139.4319  160.9304 H   0  0  0  0  0  0  0  0  0  0  0  0
  129.5815  137.6730  162.4331 H   0  0  0  0  0  0  0  0  0  0  0  0
  131.3512  137.3735  162.1744 H   0  0  0  0  0  0  0  0  0  0  0  0
  1  2  1  0
  1 32  1  0
  1 33  1  0
  1 34  1  0
  2  3  1  0
  2 35  1  0
  2 36  1  0
  3  4  1  0
  4  9  2  0
  4  5  1  0
  5  6  2  0
  5 37  1  0
  6  7  1  0
  6 38  1  0
  7  8  2  0
  7 39  1  0
  8  9  1  0
  8 40  1  0
  9 10  1  0
 10 11  1  1
 10 12  1  0
 10 28  1  0
 12 41  1  0
 13 12  1  0
 13 26  2  0
 13 14  1  0
 14 15  1  0
 14 16  1  0
 16 17  2  0
 16 42  1  0
 17 18  1  0
 17 26  1  0
 18 25  1  0
 18 19  2  0
 19 20  1  0
 19 43  1  0
 20 21  2  0
 20 44  1  0
 21 22  1  0
 21 24  1  0
 22 23  1  0
 22 45  1  0
 22 46  1  0
 23 47  1  0
 23 48  1  0
 23 49  1  0
 24 25  2  0
 24 50  1  0
 25 51  1  0
 26 27  1  0
 28 31  1  0
 28 29  2  0
 29 30  1  0
 29 52  1  0
 30 31  1  0
 30 53  1  0
 30 54  1  0
 31 55  1  0
 31 56  1  0
M  CHG  1  26   1
M  END
>  <DOCK_score>  (1) 
-59.423538

>  <SMILES>  (1) 
CCSc1ccccc1[C@@H](Nc1[nH]cc(-c2ccc(CC)cc2)[nH+]1)C1=CCC1

$$$$
