CC(Br)[C@H](C)C(Cc1ccc(F)cc1)Nc1[nH]cc(-c2ccc(-c3ccccc3)cc2)[nH+]1
     RDKit          3D

 60 63  0  0  1  0  0  0  0  0999 V2000
  127.9456  135.8115  161.9503 C   0  0  0  0  0  0  0  0  0  0  0  0
  129.2935  135.1602  161.6344 C   0  0  2  0  0  0  0  0  0  0  0  0
  129.6675  133.7535  162.9560 Br  0  0  0  0  0  0  0  0  0  0  0  0
  130.3969  136.2187  161.6900 C   0  0  2  0  0  0  0  0  0  0  0  0
  130.4299  136.6568  162.6875 H   0  0  0  0  0  0  0  0  0  0  0  0
  130.1059  137.3132  160.6616 C   0  0  0  0  0  0  0  0  0  0  0  0
  131.7448  135.5674  161.3742 C   0  0  2  0  0  0  0  0  0  0  0  0
  132.8753  136.4544  161.8998 C   0  0  0  0  0  0  0  0  0  0  0  0
  133.0409  136.2320  163.3811 C   0  0  0  0  0  0  0  0  0  0  0  0
  132.3326  137.0080  164.2795 C   0  0  0  0  0  0  0  0  0  0  0  0
  132.4797  136.8015  165.6380 C   0  0  0  0  0  0  0  0  0  0  0  0
  133.3409  135.8204  166.0993 C   0  0  0  0  0  0  0  0  0  0  0  0
  133.4852  135.6172  167.4271 F   0  0  0  0  0  0  0  0  0  0  0  0
  134.0537  135.0472  165.1987 C   0  0  0  0  0  0  0  0  0  0  0  0
  133.9050  135.2555  163.8405 C   0  0  0  0  0  0  0  0  0  0  0  0
  131.8827  135.4085  159.9244 N   0  0  0  0  0  0  0  0  0  0  0  0
  131.4407  134.2495  159.3100 C   0  0  0  0  0  0  0  0  0  0  0  0
  130.8688  133.1871  159.9398 N   0  0  0  0  0  0  0  0  0  0  0  0
  130.6990  133.1067  160.8914 H   0  0  0  0  0  0  0  0  0  0  0  0
  130.5742  132.2508  158.9790 C   0  0  0  0  0  0  0  0  0  0  0  0
  130.9817  132.7642  157.7912 C   0  0  0  0  0  0  0  0  0  0  0  0
  130.8694  132.1016  156.4697 C   0  0  0  0  0  0  0  0  0  0  0  0
  130.1268  132.6984  155.4510 C   0  0  0  0  0  0  0  0  0  0  0  0
  130.0269  132.0853  154.2216 C   0  0  0  0  0  0  0  0  0  0  0  0
  130.6597  130.8625  153.9988 C   0  0  0  0  0  0  0  0  0  0  0  0
  130.5475  130.1995  152.6770 C   0  0  0  0  0  0  0  0  0  0  0  0
  130.5987  128.8098  152.5847 C   0  0  0  0  0  0  0  0  0  0  0  0
  130.4894  128.1982  151.3525 C   0  0  0  0  0  0  0  0  0  0  0  0
  130.3393  128.9630  150.2086 C   0  0  0  0  0  0  0  0  0  0  0  0
  130.2930  130.3421  150.2940 C   0  0  0  0  0  0  0  0  0  0  0  0
  130.3965  130.9644  151.5215 C   0  0  0  0  0  0  0  0  0  0  0  0
  131.3975  130.2629  155.0190 C   0  0  0  0  0  0  0  0  0  0  0  0
  131.5018  130.8784  156.2469 C   0  0  0  0  0  0  0  0  0  0  0  0
  131.5092  133.9920  158.0267 N   0  0  0  0  0  0  0  0  0  0  0  0
  131.8786  134.5842  157.3531 H   0  0  0  0  0  0  0  0  0  0  0  0
  127.7395  136.5931  161.2191 H   0  0  0  0  0  0  0  0  0  0  0  0
  127.1591  135.0579  161.9079 H   0  0  0  0  0  0  0  0  0  0  0  0
  127.9778  136.2472  162.9488 H   0  0  0  0  0  0  0  0  0  0  0  0
  129.2604  134.7220  160.6368 H   0  0  0  0  0  0  0  0  0  0  0  0
  130.0728  136.8751  159.6640 H   0  0  0  0  0  0  0  0  0  0  0  0
  129.1456  137.7772  160.8865 H   0  0  0  0  0  0  0  0  0  0  0  0
  130.8919  138.0674  160.7013 H   0  0  0  0  0  0  0  0  0  0  0  0
  131.7973  134.5899  161.8535 H   0  0  0  0  0  0  0  0  0  0  0  0
  132.6323  137.5007  161.7145 H   0  0  0  0  0  0  0  0  0  0  0  0
  133.8038  136.2009  161.3882 H   0  0  0  0  0  0  0  0  0  0  0  0
  131.6607  137.7731  163.9194 H   0  0  0  0  0  0  0  0  0  0  0  0
  131.9229  137.4049  166.3396 H   0  0  0  0  0  0  0  0  0  0  0  0
  134.7254  134.2813  165.5574 H   0  0  0  0  0  0  0  0  0  0  0  0
  134.4607  134.6523  163.1380 H   0  0  0  0  0  0  0  0  0  0  0  0
  132.2837  136.1156  159.3949 H   0  0  0  0  0  0  0  0  0  0  0  0
  130.1110  131.2884  159.1391 H   0  0  0  0  0  0  0  0  0  0  0  0
  129.6334  133.6433  155.6249 H   0  0  0  0  0  0  0  0  0  0  0  0
  129.4556  132.5496  153.4316 H   0  0  0  0  0  0  0  0  0  0  0  0
  130.7202  128.2126  153.4765 H   0  0  0  0  0  0  0  0  0  0  0  0
  130.5251  127.1212  151.2802 H   0  0  0  0  0  0  0  0  0  0  0  0
  130.2586  128.4807  149.2457 H   0  0  0  0  0  0  0  0  0  0  0  0
  130.1758  130.9336  149.3981 H   0  0  0  0  0  0  0  0  0  0  0  0
  130.3606  132.0418  151.5865 H   0  0  0  0  0  0  0  0  0  0  0  0
  131.8870  129.3158  154.8466 H   0  0  0  0  0  0  0  0  0  0  0  0
  132.0736  130.4142  157.0368 H   0  0  0  0  0  0  0  0  0  0  0  0
  1  2  1  0
  1 36  1  0
  1 37  1  0
  1 38  1  0
  2  3  1  0
  2  4  1  0
  2 39  1  6
  4  5  1  1
  4  6  1  0
  4  7  1  0
  6 40  1  0
  6 41  1  0
  6 42  1  0
  7  8  1  0
  7 16  1  0
  7 43  1  1
  8  9  1  0
  8 44  1  0
  8 45  1  0
  9 15  1  0
  9 10  2  0
 10 11  1  0
 10 46  1  0
 11 12  2  0
 11 47  1  0
 12 13  1  0
 12 14  1  0
 14 15  2  0
 14 48  1  0
 15 49  1  0
 16 50  1  0
 17 16  1  0
 17 34  2  0
 17 18  1  0
 18 19  1  0
 18 20  1  0
 20 21  2  0
 20 51  1  0
 21 22  1  0
 21 34  1  0
 22 33  1  0
 22 23  2  0
 23 24  1  0
 23 52  1  0
 24 25  2  0
 24 53  1  0
 25 26  1  0
 25 32  1  0
 26 31  1  0
 26 27  2  0
 27 28  1  0
 27 54  1  0
 28 29  2  0
 28 55  1  0
 29 30  1  0
 29 56  1  0
 30 31  2  0
 30 57  1  0
 31 58  1  0
 32 33  2  0
 32 59  1  0
 33 60  1  0
 34 35  1  0
M  CHG  1  34   1
M  END
>  <DOCK_score>  (1) 
-61.516571

>  <SMILES>  (1) 
CC(Br)[C@H](C)C(Cc1ccc(F)cc1)Nc1[nH]cc(-c2ccc(-c3ccccc3)cc2)[nH+]1

$$$$
