COc1cc(N)ccc1Nc1[nH]cc(-c2ccncc2)[nH+]1
     RDKit          3D

 37 39  0  0  1  0  0  0  0  0999 V2000
  131.5535  134.3792  160.8738 C   0  0  0  0  0  0  0  0  0  0  0  0
  130.9892  135.5793  160.3411 O   0  0  0  0  0  0  0  0  0  0  0  0
  129.6616  135.5595  160.0471 C   0  0  0  0  0  0  0  0  0  0  0  0
  128.7334  135.9293  161.0058 C   0  0  0  0  0  0  0  0  0  0  0  0
  127.3787  135.9024  160.7058 C   0  0  0  0  0  0  0  0  0  0  0  0
  126.4393  136.2697  161.6759 N   0  0  0  0  0  0  0  0  0  0  0  0
  126.9538  135.5113  159.4422 C   0  0  0  0  0  0  0  0  0  0  0  0
  127.8790  135.1476  158.4825 C   0  0  0  0  0  0  0  0  0  0  0  0
  129.2338  135.1726  158.7791 C   0  0  0  0  0  0  0  0  0  0  0  0
  130.1725  134.8026  157.8042 N   0  0  0  0  0  0  0  0  0  0  0  0
  130.1350  133.5329  157.2536 C   0  0  0  0  0  0  0  0  0  0  0  0
  129.6974  132.4078  157.8836 N   0  0  0  0  0  0  0  0  0  0  0  0
  129.3627  132.3516  158.7923 H   0  0  0  0  0  0  0  0  0  0  0  0
  129.8227  131.3672  156.9986 C   0  0  0  0  0  0  0  0  0  0  0  0
  130.3331  131.8839  155.8522 C   0  0  0  0  0  0  0  0  0  0  0  0
  130.6383  131.1278  154.6144 C   0  0  0  0  0  0  0  0  0  0  0  0
  130.0085  131.4431  153.4062 C   0  0  0  0  0  0  0  0  0  0  0  0
  130.3258  130.7175  152.2771 C   0  0  0  0  0  0  0  0  0  0  0  0
  131.2015  129.7318  152.3293 N   0  0  0  0  0  0  0  0  0  0  0  0
  131.8142  129.3987  153.4499 C   0  0  0  0  0  0  0  0  0  0  0  0
  131.5598  130.0756  154.6240 C   0  0  0  0  0  0  0  0  0  0  0  0
  130.5141  133.2155  156.0396 N   0  0  0  0  0  0  0  0  0  0  0  0
  130.8677  133.8335  155.3810 H   0  0  0  0  0  0  0  0  0  0  0  0
  132.6161  134.5305  161.0634 H   0  0  0  0  0  0  0  0  0  0  0  0
  131.0506  134.1242  161.8066 H   0  0  0  0  0  0  0  0  0  0  0  0
  131.4241  133.5679  160.1575 H   0  0  0  0  0  0  0  0  0  0  0  0
  129.0633  136.2339  161.9882 H   0  0  0  0  0  0  0  0  0  0  0  0
  125.4923  136.2507  161.4664 H   0  0  0  0  0  0  0  0  0  0  0  0
  126.7354  136.5430  162.5583 H   0  0  0  0  0  0  0  0  0  0  0  0
  125.8994  135.4910  159.2099 H   0  0  0  0  0  0  0  0  0  0  0  0
  127.5470  134.8433  157.5009 H   0  0  0  0  0  0  0  0  0  0  0  0
  130.8478  135.4365  157.5158 H   0  0  0  0  0  0  0  0  0  0  0  0
  129.5649  130.3342  157.1794 H   0  0  0  0  0  0  0  0  0  0  0  0
  129.2873  132.2456  153.3571 H   0  0  0  0  0  0  0  0  0  0  0  0
  129.8477  130.9561  151.3385 H   0  0  0  0  0  0  0  0  0  0  0  0
  132.5242  128.5848  153.4473 H   0  0  0  0  0  0  0  0  0  0  0  0
  132.0648  129.7977  155.5374 H   0  0  0  0  0  0  0  0  0  0  0  0
  1  2  1  0
  1 24  1  0
  1 25  1  0
  1 26  1  0
  2  3  1  0
  3  9  2  0
  3  4  1  0
  4  5  2  0
  4 27  1  0
  5  6  1  0
  5  7  1  0
  6 28  1  0
  6 29  1  0
  7  8  2  0
  7 30  1  0
  8  9  1  0
  8 31  1  0
  9 10  1  0
 10 32  1  0
 11 10  1  0
 11 22  2  0
 11 12  1  0
 12 13  1  0
 12 14  1  0
 14 15  2  0
 14 33  1  0
 15 16  1  0
 15 22  1  0
 16 21  1  0
 16 17  2  0
 17 18  1  0
 17 34  1  0
 18 19  2  0
 18 35  1  0
 19 20  1  0
 20 21  2  0
 20 36  1  0
 21 37  1  0
 22 23  1  0
M  CHG  1  22   1
M  END
>  <DOCK_score>  (1) 
-48.178898

>  <SMILES>  (1) 
COc1cc(N)ccc1Nc1[nH]cc(-c2ccncc2)[nH+]1

$$$$
