C1=C([C@H](Nc2[nH]cc(-c3cccnc3)[nH+]2)c2ccccc2)COC1
     RDKit          3D

 43 46  0  0  1  0  0  0  0  0999 V2000
  130.0172  138.0068  159.5454 C   0  0  0  0  0  0  0  0  0  0  0  0
  129.2885  137.1565  160.2300 C   0  0  0  0  0  0  0  0  0  0  0  0
  128.9647  135.7428  159.8202 C   0  0  2  0  0  0  0  0  0  0  0  0
  128.8369  135.1268  160.7104 H   0  0  0  0  0  0  0  0  0  0  0  0
  130.0599  135.2068  159.0084 N   0  0  0  0  0  0  0  0  0  0  0  0
  129.9875  133.9158  158.5139 C   0  0  0  0  0  0  0  0  0  0  0  0
  129.3414  132.8750  159.1067 N   0  0  0  0  0  0  0  0  0  0  0  0
  128.8530  132.9039  159.9443 H   0  0  0  0  0  0  0  0  0  0  0  0
  129.5064  131.7762  158.2988 C   0  0  0  0  0  0  0  0  0  0  0  0
  130.2546  132.1750  157.2404 C   0  0  0  0  0  0  0  0  0  0  0  0
  130.6897  131.3214  156.1079 C   0  0  0  0  0  0  0  0  0  0  0  0
  130.3069  131.6286  154.7989 C   0  0  0  0  0  0  0  0  0  0  0  0
  130.7428  130.8033  153.7768 C   0  0  0  0  0  0  0  0  0  0  0  0
  131.5274  129.7056  154.0814 C   0  0  0  0  0  0  0  0  0  0  0  0
  131.8686  129.4383  155.3272 N   0  0  0  0  0  0  0  0  0  0  0  0
  131.4819  130.1973  156.3321 C   0  0  0  0  0  0  0  0  0  0  0  0
  130.5345  133.4929  157.4004 N   0  0  0  0  0  0  0  0  0  0  0  0
  131.0563  134.0354  156.7887 H   0  0  0  0  0  0  0  0  0  0  0  0
  127.6907  135.7325  159.0151 C   0  0  0  0  0  0  0  0  0  0  0  0
  126.4731  135.5759  159.6501 C   0  0  0  0  0  0  0  0  0  0  0  0
  125.3042  135.5703  158.9121 C   0  0  0  0  0  0  0  0  0  0  0  0
  125.3539  135.7131  157.5380 C   0  0  0  0  0  0  0  0  0  0  0  0
  126.5721  135.8644  156.9024 C   0  0  0  0  0  0  0  0  0  0  0  0
  127.7405  135.8738  157.6409 C   0  0  0  0  0  0  0  0  0  0  0  0
  128.8346  137.8344  161.5027 C   0  0  0  0  0  0  0  0  0  0  0  0
  129.0145  139.2458  161.2787 O   0  0  0  0  0  0  0  0  0  0  0  0
  130.0844  139.3054  160.3162 C   0  0  0  0  0  0  0  0  0  0  0  0
  130.4867  137.8125  158.5925 H   0  0  0  0  0  0  0  0  0  0  0  0
  130.8359  135.7564  158.8173 H   0  0  0  0  0  0  0  0  0  0  0  0
  129.1180  130.7840  158.4748 H   0  0  0  0  0  0  0  0  0  0  0  0
  129.6899  132.4899  154.5901 H   0  0  0  0  0  0  0  0  0  0  0  0
  130.4697  131.0118  152.7530 H   0  0  0  0  0  0  0  0  0  0  0  0
  131.8660  129.0575  153.2868 H   0  0  0  0  0  0  0  0  0  0  0  0
  131.7820  129.9461  157.3388 H   0  0  0  0  0  0  0  0  0  0  0  0
  126.4346  135.4611  160.7234 H   0  0  0  0  0  0  0  0  0  0  0  0
  124.3525  135.4519  159.4087 H   0  0  0  0  0  0  0  0  0  0  0  0
  124.4409  135.7060  156.9610 H   0  0  0  0  0  0  0  0  0  0  0  0
  126.6109  135.9755  155.8287 H   0  0  0  0  0  0  0  0  0  0  0  0
  128.6923  135.9920  157.1443 H   0  0  0  0  0  0  0  0  0  0  0  0
  127.7841  137.6142  161.6923 H   0  0  0  0  0  0  0  0  0  0  0  0
  129.4456  137.5048  162.3431 H   0  0  0  0  0  0  0  0  0  0  0  0
  129.9404  140.1523  159.6452 H   0  0  0  0  0  0  0  0  0  0  0  0
  131.0446  139.3884  160.8255 H   0  0  0  0  0  0  0  0  0  0  0  0
  1 27  1  0
  1  2  2  0
  1 28  1  0
  2  3  1  0
  2 25  1  0
  3  4  1  1
  3  5  1  0
  3 19  1  0
  5 29  1  0
  6  5  1  0
  6 17  2  0
  6  7  1  0
  7  8  1  0
  7  9  1  0
  9 10  2  0
  9 30  1  0
 10 11  1  0
 10 17  1  0
 11 16  1  0
 11 12  2  0
 12 13  1  0
 12 31  1  0
 13 14  2  0
 13 32  1  0
 14 15  1  0
 14 33  1  0
 15 16  2  0
 16 34  1  0
 17 18  1  0
 19 24  1  0
 19 20  2  0
 20 21  1  0
 20 35  1  0
 21 22  2  0
 21 36  1  0
 22 23  1  0
 22 37  1  0
 23 24  2  0
 23 38  1  0
 24 39  1  0
 25 26  1  0
 25 40  1  0
 25 41  1  0
 26 27  1  0
 27 42  1  0
 27 43  1  0
M  CHG  1  17   1
M  END
>  <DOCK_score>  (1) 
-57.164673

>  <SMILES>  (1) 
C1=C([C@H](Nc2[nH]cc(-c3cccnc3)[nH+]2)c2ccccc2)COC1

$$$$
