Cc1ccc(-c2ccc(C[C@@H](Nc3[nH]cc(-c4ccc(C(F)(F)F)cc4)[nH+]3)c3ccccc3)cc2)cc1
     RDKit          3D

 64 68  0  0  1  0  0  0  0  0999 V2000
  138.6359  140.0325  161.0849 C   0  0  0  0  0  0  0  0  0  0  0  0
  137.1886  139.6168  161.0267 C   0  0  0  0  0  0  0  0  0  0  0  0
  136.3310  140.2296  160.1312 C   0  0  0  0  0  0  0  0  0  0  0  0
  135.0043  139.8531  160.0739 C   0  0  0  0  0  0  0  0  0  0  0  0
  134.5297  138.8532  160.9203 C   0  0  0  0  0  0  0  0  0  0  0  0
  133.1044  138.4441  160.8634 C   0  0  0  0  0  0  0  0  0  0  0  0
  132.4672  137.9685  162.0077 C   0  0  0  0  0  0  0  0  0  0  0  0
  131.1413  137.5898  161.9491 C   0  0  0  0  0  0  0  0  0  0  0  0
  130.4451  137.6817  160.7574 C   0  0  0  0  0  0  0  0  0  0  0  0
  128.9976  137.2662  160.6996 C   0  0  0  0  0  0  0  0  0  0  0  0
  128.9074  135.7795  160.3498 C   0  0  1  0  0  0  0  0  0  0  0  0
  127.8603  135.4790  160.3080 H   0  0  0  0  0  0  0  0  0  0  0  0
  129.5348  135.5455  159.0468 N   0  0  0  0  0  0  0  0  0  0  0  0
  129.5748  134.2670  158.5172 C   0  0  0  0  0  0  0  0  0  0  0  0
  129.0636  133.1501  159.1031 N   0  0  0  0  0  0  0  0  0  0  0  0
  128.6100  133.1068  159.9595 H   0  0  0  0  0  0  0  0  0  0  0  0
  129.3089  132.0952  158.2582 C   0  0  0  0  0  0  0  0  0  0  0  0
  129.9623  132.5973  157.1812 C   0  0  0  0  0  0  0  0  0  0  0  0
  130.4312  131.8234  156.0058 C   0  0  0  0  0  0  0  0  0  0  0  0
  130.5013  132.4291  154.7525 C   0  0  0  0  0  0  0  0  0  0  0  0
  130.9442  131.7060  153.6635 C   0  0  0  0  0  0  0  0  0  0  0  0
  131.3068  130.3794  153.8120 C   0  0  0  0  0  0  0  0  0  0  0  0
  131.7831  129.5932  152.6177 C   0  0  0  0  0  0  0  0  0  0  0  0
  131.7713  130.4136  151.4845 F   0  0  0  0  0  0  0  0  0  0  0  0
  133.0850  129.1364  152.8492 F   0  0  0  0  0  0  0  0  0  0  0  0
  130.9352  128.4999  152.4108 F   0  0  0  0  0  0  0  0  0  0  0  0
  131.2333  129.7714  155.0523 C   0  0  0  0  0  0  0  0  0  0  0  0
  130.7979  130.4865  156.1495 C   0  0  0  0  0  0  0  0  0  0  0  0
  130.1059  133.9337  157.3664 N   0  0  0  0  0  0  0  0  0  0  0  0
  130.5351  134.5444  156.7469 H   0  0  0  0  0  0  0  0  0  0  0  0
  129.6203  134.9713  161.4031 C   0  0  0  0  0  0  0  0  0  0  0  0
  130.9640  134.6808  161.2595 C   0  0  0  0  0  0  0  0  0  0  0  0
  131.6192  133.9431  162.2278 C   0  0  0  0  0  0  0  0  0  0  0  0
  130.9282  133.4883  163.3353 C   0  0  0  0  0  0  0  0  0  0  0  0
  129.5831  133.7743  163.4764 C   0  0  0  0  0  0  0  0  0  0  0  0
  128.9291  134.5156  162.5101 C   0  0  0  0  0  0  0  0  0  0  0  0
  131.0741  138.1483  159.6172 C   0  0  0  0  0  0  0  0  0  0  0  0
  132.3982  138.5347  159.6656 C   0  0  0  0  0  0  0  0  0  0  0  0
  135.3967  138.2429  161.8244 C   0  0  0  0  0  0  0  0  0  0  0  0
  136.7227  138.6233  161.8691 C   0  0  0  0  0  0  0  0  0  0  0  0
  138.7528  140.8415  161.8060 H   0  0  0  0  0  0  0  0  0  0  0  0
  139.2462  139.1825  161.3903 H   0  0  0  0  0  0  0  0  0  0  0  0
  138.9556  140.3742  160.1005 H   0  0  0  0  0  0  0  0  0  0  0  0
  136.7001  141.0045  159.4755 H   0  0  0  0  0  0  0  0  0  0  0  0
  134.3356  140.3323  159.3743 H   0  0  0  0  0  0  0  0  0  0  0  0
  133.0099  137.8959  162.9385 H   0  0  0  0  0  0  0  0  0  0  0  0
  130.6463  137.2213  162.8356 H   0  0  0  0  0  0  0  0  0  0  0  0
  128.5307  137.4404  161.6691 H   0  0  0  0  0  0  0  0  0  0  0  0
  128.4819  137.8507  159.9378 H   0  0  0  0  0  0  0  0  0  0  0  0
  129.9224  136.2865  158.5551 H   0  0  0  0  0  0  0  0  0  0  0  0
  129.0341  131.0634  158.4205 H   0  0  0  0  0  0  0  0  0  0  0  0
  130.2138  133.4633  154.6344 H   0  0  0  0  0  0  0  0  0  0  0  0
  131.0034  132.1756  152.6928 H   0  0  0  0  0  0  0  0  0  0  0  0
  131.5177  128.7355  155.1625 H   0  0  0  0  0  0  0  0  0  0  0  0
  130.7410  130.0109  157.1174 H   0  0  0  0  0  0  0  0  0  0  0  0
  131.5031  135.0329  160.3923 H   0  0  0  0  0  0  0  0  0  0  0  0
  132.6701  133.7200  162.1178 H   0  0  0  0  0  0  0  0  0  0  0  0
  131.4393  132.9097  164.0906 H   0  0  0  0  0  0  0  0  0  0  0  0
  129.0432  133.4190  164.3416 H   0  0  0  0  0  0  0  0  0  0  0  0
  127.8782  134.7392  162.6203 H   0  0  0  0  0  0  0  0  0  0  0  0
  130.5269  138.2142  158.6885 H   0  0  0  0  0  0  0  0  0  0  0  0
  132.8874  138.9023  158.7758 H   0  0  0  0  0  0  0  0  0  0  0  0
  135.0328  137.4708  162.4859 H   0  0  0  0  0  0  0  0  0  0  0  0
  137.3967  138.1478  162.5662 H   0  0  0  0  0  0  0  0  0  0  0  0
  1  2  1  0
  1 41  1  0
  1 42  1  0
  1 43  1  0
  2 40  2  0
  2  3  1  0
  3  4  2  0
  3 44  1  0
  4  5  1  0
  4 45  1  0
  5  6  1  0
  5 39  2  0
  6 38  1  0
  6  7  2  0
  7  8  1  0
  7 46  1  0
  8  9  2  0
  8 47  1  0
  9 10  1  0
  9 37  1  0
 10 11  1  0
 10 48  1  0
 10 49  1  0
 11 12  1  6
 11 13  1  0
 11 31  1  0
 13 50  1  0
 14 13  1  0
 14 29  2  0
 14 15  1  0
 15 16  1  0
 15 17  1  0
 17 18  2  0
 17 51  1  0
 18 19  1  0
 18 29  1  0
 19 28  1  0
 19 20  2  0
 20 21  1  0
 20 52  1  0
 21 22  2  0
 21 53  1  0
 22 23  1  0
 22 27  1  0
 23 24  1  0
 23 25  1  0
 23 26  1  0
 27 28  2  0
 27 54  1  0
 28 55  1  0
 29 30  1  0
 31 36  1  0
 31 32  2  0
 32 33  1  0
 32 56  1  0
 33 34  2  0
 33 57  1  0
 34 35  1  0
 34 58  1  0
 35 36  2  0
 35 59  1  0
 36 60  1  0
 37 38  2  0
 37 61  1  0
 38 62  1  0
 39 40  1  0
 39 63  1  0
 40 64  1  0
M  CHG  1  29   1
M  END
>  <DOCK_score>  (1) 
-56.86129

>  <SMILES>  (1) 
Cc1ccc(-c2ccc(C[C@@H](Nc3[nH]cc(-c4ccc(C(F)(F)F)cc4)[nH+]3)c3ccccc3)cc2)cc1

$$$$
