O=C1CC[C@H](NC(NC2COc3cc(O)ccc3C2)=[NH+]Cc2ncccc2Cl)CN1
     RDKit          3D

 55 58  0  0  1  0  0  0  0  0999 V2000
  123.7704  133.9404  161.7496 O   0  0  0  0  0  0  0  0  0  0  0  0
  124.9509  133.9458  161.4713 C   0  0  0  0  0  0  0  0  0  0  0  0
  125.7362  132.6828  161.6804 C   0  0  0  0  0  0  0  0  0  0  0  0
  127.2337  132.9995  161.6966 C   0  0  0  0  0  0  0  0  0  0  0  0
  127.5572  133.8746  160.4797 C   0  0  2  0  0  0  0  0  0  0  0  0
  127.1756  133.3997  159.5758 H   0  0  0  0  0  0  0  0  0  0  0  0
  129.0078  134.0496  160.3719 N   0  0  0  0  0  0  0  0  0  0  0  0
  129.5890  134.2258  159.1384 C   0  0  0  0  0  0  0  0  0  0  0  0
  130.9503  134.3900  159.0373 N   0  0  0  0  0  0  0  0  0  0  0  0
  131.7814  134.3774  160.2437 C   0  0  1  0  0  0  0  0  0  0  0  0
  133.1855  133.8643  159.8991 C   0  0  0  0  0  0  0  0  0  0  0  0
  133.9380  133.7650  161.1090 O   0  0  0  0  0  0  0  0  0  0  0  0
  133.9394  134.8355  161.9455 C   0  0  0  0  0  0  0  0  0  0  0  0
  134.9260  134.9113  162.9224 C   0  0  0  0  0  0  0  0  0  0  0  0
  134.9586  135.9844  163.7968 C   0  0  0  0  0  0  0  0  0  0  0  0
  135.9233  136.0564  164.7512 O   0  0  0  0  0  0  0  0  0  0  0  0
  134.0030  136.9861  163.6966 C   0  0  0  0  0  0  0  0  0  0  0  0
  133.0254  136.9104  162.7256 C   0  0  0  0  0  0  0  0  0  0  0  0
  132.9906  135.8387  161.8480 C   0  0  0  0  0  0  0  0  0  0  0  0
  131.9113  135.7991  160.7956 C   0  0  0  0  0  0  0  0  0  0  0  0
  128.8497  134.2370  158.0651 N   0  0  0  0  0  0  0  0  0  0  0  0
  127.9337  134.5529  158.1104 H   0  0  0  0  0  0  0  0  0  0  0  0
  129.4021  133.7727  156.7901 C   0  0  0  0  0  0  0  0  0  0  0  0
  129.8300  132.3338  156.9225 C   0  0  0  0  0  0  0  0  0  0  0  0
  129.6665  131.7081  158.0718 N   0  0  0  0  0  0  0  0  0  0  0  0
  130.0255  130.4498  158.2337 C   0  0  0  0  0  0  0  0  0  0  0  0
  130.5905  129.7357  157.1938 C   0  0  0  0  0  0  0  0  0  0  0  0
  130.7785  130.3587  155.9700 C   0  0  0  0  0  0  0  0  0  0  0  0
  130.3843  131.6826  155.8355 C   0  0  0  0  0  0  0  0  0  0  0  0
  130.5890  132.5119  154.3242 Cl  0  0  0  0  0  0  0  0  0  0  0  0
  126.8884  135.2372  160.6647 C   0  0  0  0  0  0  0  0  0  0  0  0
  125.4788  135.0726  160.9970 N   0  0  0  0  0  0  0  0  0  0  0  0
  125.5223  131.9853  160.8706 H   0  0  0  0  0  0  0  0  0  0  0  0
  125.4510  132.2323  162.6311 H   0  0  0  0  0  0  0  0  0  0  0  0
  127.4855  133.5357  162.6115 H   0  0  0  0  0  0  0  0  0  0  0  0
  127.8052  132.0728  161.6453 H   0  0  0  0  0  0  0  0  0  0  0  0
  129.5579  134.0410  161.1707 H   0  0  0  0  0  0  0  0  0  0  0  0
  131.3606  134.5145  158.1671 H   0  0  0  0  0  0  0  0  0  0  0  0
  131.3281  133.7309  160.9952 H   0  0  0  0  0  0  0  0  0  0  0  0
  133.1129  132.8829  159.4302 H   0  0  0  0  0  0  0  0  0  0  0  0
  133.6741  134.5612  159.2182 H   0  0  0  0  0  0  0  0  0  0  0  0
  135.6688  134.1311  162.9996 H   0  0  0  0  0  0  0  0  0  0  0  0
  135.8631  136.8414  165.3128 H   0  0  0  0  0  0  0  0  0  0  0  0
  134.0243  137.8237  164.3782 H   0  0  0  0  0  0  0  0  0  0  0  0
  132.2829  137.6909  162.6494 H   0  0  0  0  0  0  0  0  0  0  0  0
  132.1696  136.4806  159.9851 H   0  0  0  0  0  0  0  0  0  0  0  0
  130.9630  136.1049  161.2374 H   0  0  0  0  0  0  0  0  0  0  0  0
  128.6422  133.8558  156.0131 H   0  0  0  0  0  0  0  0  0  0  0  0
  130.2635  134.3848  156.5229 H   0  0  0  0  0  0  0  0  0  0  0  0
  129.8757  129.9711  159.1902 H   0  0  0  0  0  0  0  0  0  0  0  0
  130.8815  128.7050  157.3329 H   0  0  0  0  0  0  0  0  0  0  0  0
  131.2174  129.8254  155.1397 H   0  0  0  0  0  0  0  0  0  0  0  0
  127.3875  135.7772  161.4693 H   0  0  0  0  0  0  0  0  0  0  0  0
  126.9733  135.8087  159.7405 H   0  0  0  0  0  0  0  0  0  0  0  0
  124.8888  135.8311  160.8638 H   0  0  0  0  0  0  0  0  0  0  0  0
  1  2  2  0
  2 32  1  0
  2  3  1  0
  3  4  1  0
  3 33  1  0
  3 34  1  0
  4  5  1  0
  4 35  1  0
  4 36  1  0
  5  6  1  6
  5  7  1  0
  5 31  1  0
  7 37  1  0
  8  7  1  0
  8  9  1  0
  8 21  2  0
  9 10  1  0
  9 38  1  0
 10 20  1  0
 10 11  1  0
 10 39  1  1
 11 12  1  0
 11 40  1  0
 11 41  1  0
 12 13  1  0
 13 19  2  0
 13 14  1  0
 14 15  2  0
 14 42  1  0
 15 16  1  0
 15 17  1  0
 16 43  1  0
 17 18  2  0
 17 44  1  0
 18 19  1  0
 18 45  1  0
 19 20  1  0
 20 46  1  0
 20 47  1  0
 21 22  1  0
 21 23  1  0
 23 24  1  0
 23 48  1  0
 23 49  1  0
 24 29  1  0
 24 25  2  0
 25 26  1  0
 26 27  2  0
 26 50  1  0
 27 28  1  0
 27 51  1  0
 28 29  2  0
 28 52  1  0
 29 30  1  0
 31 32  1  0
 31 53  1  0
 31 54  1  0
 32 55  1  0
M  CHG  1  21   1
M  END
>  <DOCK_score>  (1) 
-53.016556

>  <SMILES>  (1) 
O=C1CC[C@H](NC(NC2COc3cc(O)ccc3C2)=[NH+]Cc2ncccc2Cl)CN1

$$$$
