COc1ccncc1Nc1c(N)c(Nc2[nH]c3c(N)cccc3[nH+]2)c(Cl)c(Cl)c1Cl
     RDKit          3D

 47 50  0  0  1  0  0  0  0  0999 V2000
  130.8389  132.1699  155.3979 C   0  0  0  0  0  0  0  0  0  0  0  0
  131.6817  131.6823  156.4438 O   0  0  0  0  0  0  0  0  0  0  0  0
  131.0736  131.2885  157.5929 C   0  0  0  0  0  0  0  0  0  0  0  0
  130.6470  129.9758  157.7605 C   0  0  0  0  0  0  0  0  0  0  0  0
  130.0377  129.6120  158.9453 C   0  0  0  0  0  0  0  0  0  0  0  0
  129.8477  130.4927  159.9091 N   0  0  0  0  0  0  0  0  0  0  0  0
  130.2314  131.7495  159.7912 C   0  0  0  0  0  0  0  0  0  0  0  0
  130.8554  132.1939  158.6360 C   0  0  0  0  0  0  0  0  0  0  0  0
  131.2603  133.5283  158.5151 N   0  0  0  0  0  0  0  0  0  0  0  0
  130.5531  134.5381  159.1814 C   0  0  0  0  0  0  0  0  0  0  0  0
  131.1980  135.3365  160.1229 C   0  0  0  0  0  0  0  0  0  0  0  0
  132.5572  135.1316  160.4064 N   0  0  0  0  0  0  0  0  0  0  0  0
  130.4921  136.3415  160.7777 C   0  0  0  0  0  0  0  0  0  0  0  0
  131.1379  137.1520  161.7224 N   0  0  0  0  0  0  0  0  0  0  0  0
  132.2213  137.9196  161.3472 C   0  0  0  0  0  0  0  0  0  0  0  0
  132.7459  137.9741  160.0881 N   0  0  0  0  0  0  0  0  0  0  0  0
  132.4289  137.4877  159.3109 H   0  0  0  0  0  0  0  0  0  0  0  0
  133.8167  138.8545  160.1277 C   0  0  0  0  0  0  0  0  0  0  0  0
  134.7261  139.3121  159.1774 C   0  0  0  0  0  0  0  0  0  0  0  0
  134.6483  138.8600  157.8563 N   0  0  0  0  0  0  0  0  0  0  0  0
  135.7082  140.2176  159.5463 C   0  0  0  0  0  0  0  0  0  0  0  0
  135.7893  140.6686  160.8550 C   0  0  0  0  0  0  0  0  0  0  0  0
  134.8974  140.2245  161.8050 C   0  0  0  0  0  0  0  0  0  0  0  0
  133.8986  139.3110  161.4510 C   0  0  0  0  0  0  0  0  0  0  0  0
  132.8967  138.7097  162.1447 N   0  0  0  0  0  0  0  0  0  0  0  0
  132.7112  138.8435  163.0873 H   0  0  0  0  0  0  0  0  0  0  0  0
  129.1455  136.5370  160.4981 C   0  0  0  0  0  0  0  0  0  0  0  0
  128.2621  137.7854  161.3195 Cl  0  0  0  0  0  0  0  0  0  0  0  0
  128.5070  135.7378  159.5661 C   0  0  0  0  0  0  0  0  0  0  0  0
  126.8240  135.9866  159.2206 Cl  0  0  0  0  0  0  0  0  0  0  0  0
  129.2067  134.7406  158.9080 C   0  0  0  0  0  0  0  0  0  0  0  0
  128.3996  133.7417  157.7400 Cl  0  0  0  0  0  0  0  0  0  0  0  0
  130.1356  131.3904  155.1048 H   0  0  0  0  0  0  0  0  0  0  0  0
  130.2882  133.0416  155.7516 H   0  0  0  0  0  0  0  0  0  0  0  0
  131.4498  132.4496  154.5396 H   0  0  0  0  0  0  0  0  0  0  0  0
  130.7940  129.2487  156.9755 H   0  0  0  0  0  0  0  0  0  0  0  0
  129.7085  128.5928  159.0832 H   0  0  0  0  0  0  0  0  0  0  0  0
  130.0569  132.4397  160.6035 H   0  0  0  0  0  0  0  0  0  0  0  0
  132.0303  133.7540  157.9702 H   0  0  0  0  0  0  0  0  0  0  0  0
  133.0298  134.3864  160.0037 H   0  0  0  0  0  0  0  0  0  0  0  0
  133.0241  135.7352  161.0052 H   0  0  0  0  0  0  0  0  0  0  0  0
  130.8231  137.1730  162.6397 H   0  0  0  0  0  0  0  0  0  0  0  0
  133.9599  138.2265  157.6001 H   0  0  0  0  0  0  0  0  0  0  0  0
  135.2827  139.1801  157.1960 H   0  0  0  0  0  0  0  0  0  0  0  0
  136.4143  140.5735  158.8107 H   0  0  0  0  0  0  0  0  0  0  0  0
  136.5589  141.3740  161.1315 H   0  0  0  0  0  0  0  0  0  0  0  0
  134.9682  140.5812  162.8218 H   0  0  0  0  0  0  0  0  0  0  0  0
  1  2  1  0
  1 33  1  0
  1 34  1  0
  1 35  1  0
  2  3  1  0
  3  8  2  0
  3  4  1  0
  4  5  2  0
  4 36  1  0
  5  6  1  0
  5 37  1  0
  6  7  2  0
  7  8  1  0
  7 38  1  0
  8  9  1  0
  9 10  1  0
  9 39  1  0
 10 31  1  0
 10 11  2  0
 11 12  1  0
 11 13  1  0
 12 40  1  0
 12 41  1  0
 13 14  1  0
 13 27  2  0
 14 42  1  0
 15 14  1  0
 15 25  2  0
 15 16  1  0
 16 17  1  0
 16 18  1  0
 18 24  2  0
 18 19  1  0
 19 20  1  0
 19 21  2  0
 20 43  1  0
 20 44  1  0
 21 22  1  0
 21 45  1  0
 22 23  2  0
 22 46  1  0
 23 24  1  0
 23 47  1  0
 24 25  1  0
 25 26  1  0
 27 28  1  0
 27 29  1  0
 29 30  1  0
 29 31  2  0
 31 32  1  0
M  CHG  1  25   1
M  END
>  <DOCK_score>  (1) 
-58.84547

>  <SMILES>  (1) 
COc1ccncc1Nc1c(N)c(Nc2[nH]c3c(N)cccc3[nH+]2)c(Cl)c(Cl)c1Cl

$$$$
