Brc1ccc(-c2c[nH]c(Nc3ccc(-c4n[nH]cc4C[NH2+][C@@H]4C=CCC4)o3)n2)cc1
     RDKit          3D

 52 56  0  0  1  0  0  0  0  0999 V2000
  126.5565  143.9255  167.1751 Br  0  0  0  0  0  0  0  0  0  0  0  0
  126.8214  142.3844  166.1117 C   0  0  0  0  0  0  0  0  0  0  0  0
  125.7394  141.6028  165.7478 C   0  0  0  0  0  0  0  0  0  0  0  0
  125.9277  140.4770  164.9724 C   0  0  0  0  0  0  0  0  0  0  0  0
  127.2111  140.1276  164.5556 C   0  0  0  0  0  0  0  0  0  0  0  0
  127.4194  138.9181  163.7223 C   0  0  0  0  0  0  0  0  0  0  0  0
  128.5303  138.1398  163.7090 C   0  0  0  0  0  0  0  0  0  0  0  0
  128.2994  137.1310  162.8065 N   0  0  0  0  0  0  0  0  0  0  0  0
  128.9100  136.4122  162.5795 H   0  0  0  0  0  0  0  0  0  0  0  0
  127.0567  137.3275  162.2868 C   0  0  0  0  0  0  0  0  0  0  0  0
  126.4440  136.5285  161.3356 N   0  0  0  0  0  0  0  0  0  0  0  0
  127.1103  135.4189  160.8258 C   0  0  0  0  0  0  0  0  0  0  0  0
  126.5255  134.2789  160.3806 C   0  0  0  0  0  0  0  0  0  0  0  0
  127.5615  133.4245  159.9552 C   0  0  0  0  0  0  0  0  0  0  0  0
  128.7295  134.0881  160.1629 C   0  0  0  0  0  0  0  0  0  0  0  0
  130.0820  133.5746  159.8623 C   0  0  0  0  0  0  0  0  0  0  0  0
  130.3674  132.3974  159.3416 N   0  0  0  0  0  0  0  0  0  0  0  0
  131.7593  132.3031  159.2171 N   0  0  0  0  0  0  0  0  0  0  0  0
  132.2486  131.5440  158.8632 H   0  0  0  0  0  0  0  0  0  0  0  0
  132.3024  133.4516  159.6756 C   0  0  0  0  0  0  0  0  0  0  0  0
  131.2969  134.2590  160.0759 C   0  0  0  0  0  0  0  0  0  0  0  0
  131.4462  135.6438  160.6513 C   0  0  0  0  0  0  0  0  0  0  0  0
  132.4118  136.4062  159.8484 N   0  0  0  0  0  0  0  0  0  0  0  0
  133.3053  135.9378  159.8631 H   0  0  0  0  0  0  0  0  0  0  0  0
  132.0814  136.4711  158.8973 H   0  0  0  0  0  0  0  0  0  0  0  0
  132.5573  137.7561  160.4094 C   0  0  2  0  0  0  0  0  0  0  0  0
  132.5643  137.7152  161.4985 H   0  0  0  0  0  0  0  0  0  0  0  0
  131.4411  138.6512  159.9235 C   0  0  0  0  0  0  0  0  0  0  0  0
  131.8591  139.4457  158.9724 C   0  0  0  0  0  0  0  0  0  0  0  0
  133.3209  139.2117  158.6696 C   0  0  0  0  0  0  0  0  0  0  0  0
  133.8524  138.4199  159.8868 C   0  0  0  0  0  0  0  0  0  0  0  0
  128.4420  135.2961  160.6911 O   0  0  0  0  0  0  0  0  0  0  0  0
  126.5330  138.3946  162.8397 N   0  0  0  0  0  0  0  0  0  0  0  0
  128.2985  140.9153  164.9290 C   0  0  0  0  0  0  0  0  0  0  0  0
  128.0987  142.0416  165.7009 C   0  0  0  0  0  0  0  0  0  0  0  0
  124.7454  141.8744  166.0712 H   0  0  0  0  0  0  0  0  0  0  0  0
  125.0822  139.8678  164.6888 H   0  0  0  0  0  0  0  0  0  0  0  0
  129.4234  138.2833  164.2992 H   0  0  0  0  0  0  0  0  0  0  0  0
  125.5504  136.7425  161.0249 H   0  0  0  0  0  0  0  0  0  0  0  0
  125.4668  134.0669  160.3562 H   0  0  0  0  0  0  0  0  0  0  0  0
  127.4495  132.4311  159.5467 H   0  0  0  0  0  0  0  0  0  0  0  0
  133.3563  133.6849  159.7121 H   0  0  0  0  0  0  0  0  0  0  0  0
  130.4809  136.1498  160.6356 H   0  0  0  0  0  0  0  0  0  0  0  0
  131.8030  135.5739  161.6789 H   0  0  0  0  0  0  0  0  0  0  0  0
  130.4330  138.6357  160.3110 H   0  0  0  0  0  0  0  0  0  0  0  0
  131.2403  140.1744  158.4700 H   0  0  0  0  0  0  0  0  0  0  0  0
  133.8462  140.1619  158.5759 H   0  0  0  0  0  0  0  0  0  0  0  0
  133.4323  138.6254  157.7573 H   0  0  0  0  0  0  0  0  0  0  0  0
  134.2777  139.0899  160.6341 H   0  0  0  0  0  0  0  0  0  0  0  0
  134.5798  137.6690  159.5779 H   0  0  0  0  0  0  0  0  0  0  0  0
  129.2953  140.6466  164.6120 H   0  0  0  0  0  0  0  0  0  0  0  0
  128.9402  142.6544  165.9884 H   0  0  0  0  0  0  0  0  0  0  0  0
  1  2  1  0
  2 35  2  0
  2  3  1  0
  3  4  2  0
  3 36  1  0
  4  5  1  0
  4 37  1  0
  5  6  1  0
  5 34  2  0
  6 33  1  0
  6  7  2  0
  7  8  1  0
  7 38  1  0
  8  9  1  0
  8 10  1  0
 10 11  1  0
 10 33  2  0
 11 12  1  0
 11 39  1  0
 12 32  1  0
 12 13  2  0
 13 14  1  0
 13 40  1  0
 14 15  2  0
 14 41  1  0
 15 16  1  0
 15 32  1  0
 16 21  1  0
 16 17  2  0
 17 18  1  0
 18 19  1  0
 18 20  1  0
 20 21  2  0
 20 42  1  0
 21 22  1  0
 22 23  1  0
 22 43  1  0
 22 44  1  0
 23 24  1  0
 23 25  1  0
 23 26  1  0
 26 27  1  1
 26 31  1  0
 26 28  1  0
 28 29  2  0
 28 45  1  0
 29 30  1  0
 29 46  1  0
 30 31  1  0
 30 47  1  0
 30 48  1  0
 31 49  1  0
 31 50  1  0
 34 35  1  0
 34 51  1  0
 35 52  1  0
M  CHG  1  23   1
M  END
>  <DOCK_score>  (1) 
-52.390217

>  <SMILES>  (1) 
Brc1ccc(-c2c[nH]c(Nc3ccc(-c4n[nH]cc4C[NH2+][C@@H]4C=CCC4)o3)n2)cc1

$$$$
