Cn1nccc1[C@@H](Nc1[nH]cc(-c2ccc(N)cc2)[nH+]1)C(CCc1ccccc1)c1ccccc1
     RDKit          3D

 66 70  0  0  1  0  0  0  0  0999 V2000
  128.0587  134.6722  162.6598 C   0  0  0  0  0  0  0  0  0  0  0  0
  127.5943  135.0384  161.3195 N   0  0  0  0  0  0  0  0  0  0  0  0
  126.2643  135.0384  160.8795 N   0  0  0  0  0  0  0  0  0  0  0  0
  126.2480  135.4179  159.6275 C   0  0  0  0  0  0  0  0  0  0  0  0
  127.5645  135.6761  159.2320 C   0  0  0  0  0  0  0  0  0  0  0  0
  128.3718  135.4380  160.2915 C   0  0  0  0  0  0  0  0  0  0  0  0
  129.8713  135.5864  160.3170 C   0  0  1  0  0  0  0  0  0  0  0  0
  130.2952  134.8714  161.0221 H   0  0  0  0  0  0  0  0  0  0  0  0
  130.4102  135.3308  158.9790 N   0  0  0  0  0  0  0  0  0  0  0  0
  130.2059  134.1027  158.3734 C   0  0  0  0  0  0  0  0  0  0  0  0
  129.5200  133.0580  158.9117 N   0  0  0  0  0  0  0  0  0  0  0  0
  129.0901  133.0396  159.7810 H   0  0  0  0  0  0  0  0  0  0  0  0
  129.5493  132.0331  157.9957 C   0  0  0  0  0  0  0  0  0  0  0  0
  130.2516  132.4816  156.9261 C   0  0  0  0  0  0  0  0  0  0  0  0
  130.5428  131.7155  155.6896 C   0  0  0  0  0  0  0  0  0  0  0  0
  130.0923  132.1836  154.4562 C   0  0  0  0  0  0  0  0  0  0  0  0
  130.3686  131.4726  153.3075 C   0  0  0  0  0  0  0  0  0  0  0  0
  131.0858  130.2842  153.3799 C   0  0  0  0  0  0  0  0  0  0  0  0
  131.3595  129.5633  152.2151 N   0  0  0  0  0  0  0  0  0  0  0  0
  131.5314  129.8131  154.6092 C   0  0  0  0  0  0  0  0  0  0  0  0
  131.2623  130.5237  155.7598 C   0  0  0  0  0  0  0  0  0  0  0  0
  130.6366  133.7564  157.1848 N   0  0  0  0  0  0  0  0  0  0  0  0
  131.1507  134.3209  156.5866 H   0  0  0  0  0  0  0  0  0  0  0  0
  130.2359  137.0077  160.7507 C   0  0  2  0  0  0  0  0  0  0  0  0
  131.7583  137.1583  160.7767 C   0  0  0  0  0  0  0  0  0  0  0  0
  132.1227  138.5795  161.2102 C   0  0  0  0  0  0  0  0  0  0  0  0
  133.6223  138.7280  161.2357 C   0  0  0  0  0  0  0  0  0  0  0  0
  134.3249  138.4485  162.3929 C   0  0  0  0  0  0  0  0  0  0  0  0
  135.7008  138.5800  162.4147 C   0  0  0  0  0  0  0  0  0  0  0  0
  136.3731  139.0005  161.2824 C   0  0  0  0  0  0  0  0  0  0  0  0
  135.6698  139.2856  160.1269 C   0  0  0  0  0  0  0  0  0  0  0  0
  134.2944  139.1490  160.1034 C   0  0  0  0  0  0  0  0  0  0  0  0
  129.6815  137.2706  162.1271 C   0  0  0  0  0  0  0  0  0  0  0  0
  128.4130  137.8005  162.2717 C   0  0  0  0  0  0  0  0  0  0  0  0
  127.9068  138.0471  163.5342 C   0  0  0  0  0  0  0  0  0  0  0  0
  128.6650  137.7540  164.6523 C   0  0  0  0  0  0  0  0  0  0  0  0
  129.9336  137.2243  164.5077 C   0  0  0  0  0  0  0  0  0  0  0  0
  130.4418  136.9825  163.2450 C   0  0  0  0  0  0  0  0  0  0  0  0
  128.0715  135.5582  163.2946 H   0  0  0  0  0  0  0  0  0  0  0  0
  127.3857  133.9288  163.0871 H   0  0  0  0  0  0  0  0  0  0  0  0
  129.0644  134.2570  162.5950 H   0  0  0  0  0  0  0  0  0  0  0  0
  125.3696  135.5155  159.0068 H   0  0  0  0  0  0  0  0  0  0  0  0
  127.8808  136.0072  158.2538 H   0  0  0  0  0  0  0  0  0  0  0  0
  130.9100  136.0221  158.5171 H   0  0  0  0  0  0  0  0  0  0  0  0
  129.0991  131.0577  158.1070 H   0  0  0  0  0  0  0  0  0  0  0  0
  129.5309  133.1044  154.3998 H   0  0  0  0  0  0  0  0  0  0  0  0
  130.0237  131.8370  152.3510 H   0  0  0  0  0  0  0  0  0  0  0  0
  131.8604  128.7334  152.2654 H   0  0  0  0  0  0  0  0  0  0  0  0
  131.0490  129.8909  151.3572 H   0  0  0  0  0  0  0  0  0  0  0  0
  132.0886  128.8894  154.6633 H   0  0  0  0  0  0  0  0  0  0  0  0
  131.6090  130.1573  156.7148 H   0  0  0  0  0  0  0  0  0  0  0  0
  129.8119  137.7227  160.0455 H   0  0  0  0  0  0  0  0  0  0  0  0
  132.1822  136.4433  161.4816 H   0  0  0  0  0  0  0  0  0  0  0  0
  132.1591  136.9682  159.7810 H   0  0  0  0  0  0  0  0  0  0  0  0
  131.6987  139.2946  160.5052 H   0  0  0  0  0  0  0  0  0  0  0  0
  131.7219  138.7697  162.2058 H   0  0  0  0  0  0  0  0  0  0  0  0
  133.7993  138.1238  163.2787 H   0  0  0  0  0  0  0  0  0  0  0  0
  136.2501  138.3578  163.3177 H   0  0  0  0  0  0  0  0  0  0  0  0
  137.4476  139.1068  161.3007 H   0  0  0  0  0  0  0  0  0  0  0  0
  136.1950  139.6145  159.2425 H   0  0  0  0  0  0  0  0  0  0  0  0
  133.7450  139.3716  159.2007 H   0  0  0  0  0  0  0  0  0  0  0  0
  127.8192  138.0259  161.3983 H   0  0  0  0  0  0  0  0  0  0  0  0
  126.9174  138.4652  163.6471 H   0  0  0  0  0  0  0  0  0  0  0  0
  128.2680  137.9431  165.6388 H   0  0  0  0  0  0  0  0  0  0  0  0
  130.5277  136.9995  165.3811 H   0  0  0  0  0  0  0  0  0  0  0  0
  131.4330  136.5689  163.1320 H   0  0  0  0  0  0  0  0  0  0  0  0
  1  2  1  0
  1 39  1  0
  1 40  1  0
  1 41  1  0
  2  6  1  0
  2  3  1  0
  3  4  2  0
  4  5  1  0
  4 42  1  0
  5  6  2  0
  5 43  1  0
  6  7  1  0
  7  8  1  1
  7  9  1  0
  7 24  1  0
  9 44  1  0
 10  9  1  0
 10 22  2  0
 10 11  1  0
 11 12  1  0
 11 13  1  0
 13 14  2  0
 13 45  1  0
 14 15  1  0
 14 22  1  0
 15 21  1  0
 15 16  2  0
 16 17  1  0
 16 46  1  0
 17 18  2  0
 17 47  1  0
 18 19  1  0
 18 20  1  0
 19 48  1  0
 19 49  1  0
 20 21  2  0
 20 50  1  0
 21 51  1  0
 22 23  1  0
 24 25  1  0
 24 33  1  0
 24 52  1  6
 25 26  1  0
 25 53  1  0
 25 54  1  0
 26 27  1  0
 26 55  1  0
 26 56  1  0
 27 32  1  0
 27 28  2  0
 28 29  1  0
 28 57  1  0
 29 30  2  0
 29 58  1  0
 30 31  1  0
 30 59  1  0
 31 32  2  0
 31 60  1  0
 32 61  1  0
 33 38  1  0
 33 34  2  0
 34 35  1  0
 34 62  1  0
 35 36  2  0
 35 63  1  0
 36 37  1  0
 36 64  1  0
 37 38  2  0
 37 65  1  0
 38 66  1  0
M  CHG  1  22   1
M  END
>  <DOCK_score>  (1) 
-61.512894

>  <SMILES>  (1) 
Cn1nccc1[C@@H](Nc1[nH]cc(-c2ccc(N)cc2)[nH+]1)C(CCc1ccccc1)c1ccccc1

$$$$
