Cc1nn(-c2ccc(F)cc2)cc1C[NH2+][C@H]1CCC=C1N[C@@H]1C[C@H]1c1ccccc1
     RDKit          3D

 58 62  0  0  1  0  0  0  0  0999 V2000
  131.0412  131.5251  160.1725 C   0  0  0  0  0  0  0  0  0  0  0  0
  130.8051  132.0329  158.7734 C   0  0  0  0  0  0  0  0  0  0  0  0
  130.9679  131.3467  157.6706 N   0  0  0  0  0  0  0  0  0  0  0  0
  130.6458  132.1753  156.5878 N   0  0  0  0  0  0  0  0  0  0  0  0
  130.6904  131.8170  155.2326 C   0  0  0  0  0  0  0  0  0  0  0  0
  130.3374  132.7404  154.2578 C   0  0  0  0  0  0  0  0  0  0  0  0
  130.3867  132.3873  152.9235 C   0  0  0  0  0  0  0  0  0  0  0  0
  130.7781  131.1102  152.5583 C   0  0  0  0  0  0  0  0  0  0  0  0
  130.8210  130.7651  151.2528 F   0  0  0  0  0  0  0  0  0  0  0  0
  131.1251  130.1860  153.5297 C   0  0  0  0  0  0  0  0  0  0  0  0
  131.0818  130.5370  154.8646 C   0  0  0  0  0  0  0  0  0  0  0  0
  130.2791  133.3797  157.0810 C   0  0  0  0  0  0  0  0  0  0  0  0
  130.3749  133.3189  158.4296 C   0  0  0  0  0  0  0  0  0  0  0  0
  130.0663  134.4372  159.3914 C   0  0  0  0  0  0  0  0  0  0  0  0
  131.2833  135.2230  159.6355 N   0  0  0  0  0  0  0  0  0  0  0  0
  131.6140  135.6102  158.7644 H   0  0  0  0  0  0  0  0  0  0  0  0
  131.9951  134.6267  160.0302 H   0  0  0  0  0  0  0  0  0  0  0  0
  130.9825  136.3130  160.5731 C   0  0  1  0  0  0  0  0  0  0  0  0
  130.2140  136.9668  160.1603 H   0  0  0  0  0  0  0  0  0  0  0  0
  130.5273  135.7411  161.9355 C   0  0  0  0  0  0  0  0  0  0  0  0
  131.1554  136.7528  162.9215 C   0  0  0  0  0  0  0  0  0  0  0  0
  132.3295  137.3415  162.1739 C   0  0  0  0  0  0  0  0  0  0  0  0
  132.2318  137.1044  160.8836 C   0  0  0  0  0  0  0  0  0  0  0  0
  133.1550  137.5232  159.9340 N   0  0  0  0  0  0  0  0  0  0  0  0
  133.9186  138.7550  160.1480 C   0  0  2  0  0  0  0  0  0  0  0  0
  133.3257  139.6637  160.2513 H   0  0  0  0  0  0  0  0  0  0  0  0
  135.2776  138.8731  159.4550 C   0  0  0  0  0  0  0  0  0  0  0  0
  135.2066  138.6543  160.9677 C   0  0  1  0  0  0  0  0  0  0  0  0
  135.4858  137.6717  161.3477 H   0  0  0  0  0  0  0  0  0  0  0  0
  135.5585  139.8193  161.8565 C   0  0  0  0  0  0  0  0  0  0  0  0
  136.3359  140.8521  161.3669 C   0  0  0  0  0  0  0  0  0  0  0  0
  136.6548  141.9230  162.1807 C   0  0  0  0  0  0  0  0  0  0  0  0
  136.2041  141.9563  163.4875 C   0  0  0  0  0  0  0  0  0  0  0  0
  135.4318  140.9208  163.9786 C   0  0  0  0  0  0  0  0  0  0  0  0
  135.1085  139.8523  163.1632 C   0  0  0  0  0  0  0  0  0  0  0  0
  130.1207  131.0893  160.5609 H   0  0  0  0  0  0  0  0  0  0  0  0
  131.8238  130.7666  160.1565 H   0  0  0  0  0  0  0  0  0  0  0  0
  131.3498  132.3521  160.8119 H   0  0  0  0  0  0  0  0  0  0  0  0
  130.0279  133.7351  154.5425 H   0  0  0  0  0  0  0  0  0  0  0  0
  130.1166  133.1067  152.1646 H   0  0  0  0  0  0  0  0  0  0  0  0
  131.4300  129.1904  153.2430 H   0  0  0  0  0  0  0  0  0  0  0  0
  131.3522  129.8159  155.6219 H   0  0  0  0  0  0  0  0  0  0  0  0
  129.9683  134.2371  156.5024 H   0  0  0  0  0  0  0  0  0  0  0  0
  129.7090  134.0189  160.3324 H   0  0  0  0  0  0  0  0  0  0  0  0
  129.2973  135.0814  158.9650 H   0  0  0  0  0  0  0  0  0  0  0  0
  130.9297  134.7404  162.0933 H   0  0  0  0  0  0  0  0  0  0  0  0
  129.4403  135.7406  162.0157 H   0  0  0  0  0  0  0  0  0  0  0  0
  131.4963  136.2431  163.8225 H   0  0  0  0  0  0  0  0  0  0  0  0
  130.4369  137.5325  163.1742 H   0  0  0  0  0  0  0  0  0  0  0  0
  133.1381  137.8878  162.6366 H   0  0  0  0  0  0  0  0  0  0  0  0
  133.2942  136.9999  159.1291 H   0  0  0  0  0  0  0  0  0  0  0  0
  135.6035  138.0344  158.8400 H   0  0  0  0  0  0  0  0  0  0  0  0
  135.5787  139.8596  159.1025 H   0  0  0  0  0  0  0  0  0  0  0  0
  136.6911  140.8241  160.3473 H   0  0  0  0  0  0  0  0  0  0  0  0
  137.2587  142.7319  161.7969 H   0  0  0  0  0  0  0  0  0  0  0  0
  136.4563  142.7912  164.1245 H   0  0  0  0  0  0  0  0  0  0  0  0
  135.0803  140.9467  164.9995 H   0  0  0  0  0  0  0  0  0  0  0  0
  134.5049  139.0434  163.5471 H   0  0  0  0  0  0  0  0  0  0  0  0
  1  2  1  0
  1 36  1  0
  1 37  1  0
  1 38  1  0
  2 13  1  0
  2  3  2  0
  3  4  1  0
  4  5  1  0
  4 12  1  0
  5 11  1  0
  5  6  2  0
  6  7  1  0
  6 39  1  0
  7  8  2  0
  7 40  1  0
  8  9  1  0
  8 10  1  0
 10 11  2  0
 10 41  1  0
 11 42  1  0
 12 13  2  0
 12 43  1  0
 13 14  1  0
 14 15  1  0
 14 44  1  0
 14 45  1  0
 15 16  1  0
 15 17  1  0
 15 18  1  0
 18 19  1  6
 18 23  1  0
 18 20  1  0
 20 21  1  0
 20 46  1  0
 20 47  1  0
 21 22  1  0
 21 48  1  0
 21 49  1  0
 22 23  2  0
 22 50  1  0
 23 24  1  0
 24 25  1  0
 24 51  1  0
 25 26  1  1
 25 28  1  0
 25 27  1  0
 27 28  1  0
 27 52  1  0
 27 53  1  0
 28 29  1  1
 28 30  1  0
 30 35  1  0
 30 31  2  0
 31 32  1  0
 31 54  1  0
 32 33  2  0
 32 55  1  0
 33 34  1  0
 33 56  1  0
 34 35  2  0
 34 57  1  0
 35 58  1  0
M  CHG  1  15   1
M  END
>  <DOCK_score>  (1) 
-56.317314

>  <SMILES>  (1) 
Cc1nn(-c2ccc(F)cc2)cc1C[NH2+][C@H]1CCC=C1N[C@@H]1C[C@H]1c1ccccc1

$$$$
