OC(C[NH2+][C@H]1CC12CC2)c1ccccc1-c1ccc(-c2cnn(-c3ccccc3)c2)s1
     RDKit          3D

 57 62  0  0  1  0  0  0  0  0999 V2000
  131.1767  132.1720  158.0717 O   0  0  0  0  0  0  0  0  0  0  0  0
  130.1384  133.0826  157.7046 C   0  0  1  0  0  0  0  0  0  0  0  0
  129.7285  132.8301  156.2523 C   0  0  0  0  0  0  0  0  0  0  0  0
  130.8888  133.0307  155.3741 N   0  0  0  0  0  0  0  0  0  0  0  0
  131.2230  133.9779  155.4694 H   0  0  0  0  0  0  0  0  0  0  0  0
  131.6219  132.3877  155.6331 H   0  0  0  0  0  0  0  0  0  0  0  0
  130.4952  132.7883  153.9796 C   0  0  1  0  0  0  0  0  0  0  0  0
  129.5137  133.1676  153.6954 H   0  0  0  0  0  0  0  0  0  0  0  0
  131.5979  132.8167  152.9193 C   0  0  0  0  0  0  0  0  0  0  0  0
  130.9643  131.4851  153.3296 C   0  0  0  0  0  0  0  0  0  0  0  0
  130.3537  130.2510  152.6624 C   0  0  0  0  0  0  0  0  0  0  0  0
  131.4100  130.0853  153.7568 C   0  0  0  0  0  0  0  0  0  0  0  0
  128.9480  132.8769  158.6056 C   0  0  0  0  0  0  0  0  0  0  0  0
  128.3159  131.6513  158.6469 C   0  0  0  0  0  0  0  0  0  0  0  0
  127.2199  131.4621  159.4694 C   0  0  0  0  0  0  0  0  0  0  0  0
  126.7521  132.4983  160.2589 C   0  0  0  0  0  0  0  0  0  0  0  0
  127.3779  133.7270  160.2314 C   0  0  0  0  0  0  0  0  0  0  0  0
  128.4854  133.9246  159.4039 C   0  0  0  0  0  0  0  0  0  0  0  0
  129.1607  135.2380  159.3691 C   0  0  0  0  0  0  0  0  0  0  0  0
  128.8455  136.2526  158.5373 C   0  0  0  0  0  0  0  0  0  0  0  0
  129.6113  137.3851  158.6907 C   0  0  0  0  0  0  0  0  0  0  0  0
  130.5639  137.3008  159.6428 C   0  0  0  0  0  0  0  0  0  0  0  0
  131.5142  138.3783  159.9958 C   0  0  0  0  0  0  0  0  0  0  0  0
  131.2769  139.7655  159.8966 C   0  0  0  0  0  0  0  0  0  0  0  0
  132.3503  140.3918  160.3001 N   0  0  0  0  0  0  0  0  0  0  0  0
  133.3093  139.4415  160.6707 N   0  0  0  0  0  0  0  0  0  0  0  0
  134.5942  139.7174  161.1572 C   0  0  0  0  0  0  0  0  0  0  0  0
  135.4487  138.6763  161.4947 C   0  0  0  0  0  0  0  0  0  0  0  0
  136.7169  138.9515  161.9678 C   0  0  0  0  0  0  0  0  0  0  0  0
  137.1313  140.2622  162.1175 C   0  0  0  0  0  0  0  0  0  0  0  0
  136.2803  141.3013  161.7881 C   0  0  0  0  0  0  0  0  0  0  0  0
  135.0133  141.0325  161.3082 C   0  0  0  0  0  0  0  0  0  0  0  0
  132.7819  138.2117  160.4784 C   0  0  0  0  0  0  0  0  0  0  0  0
  130.4984  135.7173  160.4053 S   0  0  0  0  0  0  0  0  0  0  0  0
  131.9756  132.2482  157.5323 H   0  0  0  0  0  0  0  0  0  0  0  0
  130.4994  134.1059  157.8075 H   0  0  0  0  0  0  0  0  0  0  0  0
  129.3675  131.8067  156.1494 H   0  0  0  0  0  0  0  0  0  0  0  0
  128.9365  133.5246  155.9723 H   0  0  0  0  0  0  0  0  0  0  0  0
  131.3415  133.2146  151.9372 H   0  0  0  0  0  0  0  0  0  0  0  0
  132.6152  133.0153  153.2563 H   0  0  0  0  0  0  0  0  0  0  0  0
  129.3234  130.0002  152.9153 H   0  0  0  0  0  0  0  0  0  0  0  0
  130.6527  130.0334  151.6372 H   0  0  0  0  0  0  0  0  0  0  0  0
  132.4041  129.7586  153.4514 H   0  0  0  0  0  0  0  0  0  0  0  0
  131.0749  129.7254  154.7295 H   0  0  0  0  0  0  0  0  0  0  0  0
  128.6750  130.8388  158.0327 H   0  0  0  0  0  0  0  0  0  0  0  0
  126.7263  130.5019  159.4948 H   0  0  0  0  0  0  0  0  0  0  0  0
  125.8955  132.3442  160.8984 H   0  0  0  0  0  0  0  0  0  0  0  0
  127.0119  134.5348  160.8478 H   0  0  0  0  0  0  0  0  0  0  0  0
  128.0503  136.1824  157.8098 H   0  0  0  0  0  0  0  0  0  0  0  0
  129.4635  138.2725  158.0930 H   0  0  0  0  0  0  0  0  0  0  0  0
  130.3662  140.2292  159.5473 H   0  0  0  0  0  0  0  0  0  0  0  0
  135.1238  137.6524  161.3830 H   0  0  0  0  0  0  0  0  0  0  0  0
  137.3839  138.1420  162.2257 H   0  0  0  0  0  0  0  0  0  0  0  0
  138.1216  140.4749  162.4922 H   0  0  0  0  0  0  0  0  0  0  0  0
  136.6068  142.3240  161.9057 H   0  0  0  0  0  0  0  0  0  0  0  0
  134.3495  141.8444  161.0504 H   0  0  0  0  0  0  0  0  0  0  0  0
  133.2729  137.2693  160.6711 H   0  0  0  0  0  0  0  0  0  0  0  0
  1  2  1  0
  1 35  1  0
  2  3  1  0
  2 13  1  0
  2 36  1  6
  3  4  1  0
  3 37  1  0
  3 38  1  0
  4  5  1  0
  4  6  1  0
  4  7  1  0
  7  8  1  6
  7 10  1  0
  7  9  1  0
  9 10  1  0
  9 39  1  0
  9 40  1  0
 10 12  1  0
 10 11  1  0
 11 12  1  0
 11 41  1  0
 11 42  1  0
 12 43  1  0
 12 44  1  0
 13 18  1  0
 13 14  2  0
 14 15  1  0
 14 45  1  0
 15 16  2  0
 15 46  1  0
 16 17  1  0
 16 47  1  0
 17 18  2  0
 17 48  1  0
 18 19  1  0
 19 34  1  0
 19 20  2  0
 20 21  1  0
 20 49  1  0
 21 22  2  0
 21 50  1  0
 22 23  1  0
 22 34  1  0
 23 33  2  0
 23 24  1  0
 24 25  2  0
 24 51  1  0
 25 26  1  0
 26 27  1  0
 26 33  1  0
 27 32  1  0
 27 28  2  0
 28 29  1  0
 28 52  1  0
 29 30  2  0
 29 53  1  0
 30 31  1  0
 30 54  1  0
 31 32  2  0
 31 55  1  0
 32 56  1  0
 33 57  1  0
M  CHG  1   4   1
M  END
>  <DOCK_score>  (1) 
-58.306694

>  <SMILES>  (1) 
OC(C[NH2+][C@H]1CC12CC2)c1ccccc1-c1ccc(-c2cnn(-c3ccccc3)c2)s1

$$$$
