Cc1cc(C[N@@H+]2CC=C(c3cccc(CCc4ccccc4O)c3)CC2)[nH]c1C
     RDKit          3D

 60 63  0  0  1  0  0  0  0  0999 V2000
  131.6197  130.7598  159.8771 C   0  0  0  0  0  0  0  0  0  0  0  0
  131.0794  132.0727  159.3717 C   0  0  0  0  0  0  0  0  0  0  0  0
  130.7934  133.2118  160.1499 C   0  0  0  0  0  0  0  0  0  0  0  0
  130.3314  134.1652  159.3156 C   0  0  0  0  0  0  0  0  0  0  0  0
  129.9003  135.5534  159.7127 C   0  0  0  0  0  0  0  0  0  0  0  0
  131.0531  136.4615  159.6480 N   0  0  2  0  0  0  0  0  0  0  0  0
  131.4166  136.4793  158.7069 H   0  0  0  0  0  0  0  0  0  0  0  0
  132.0976  135.9989  160.5693 C   0  0  0  0  0  0  0  0  0  0  0  0
  133.2069  137.0076  160.6497 C   0  0  0  0  0  0  0  0  0  0  0  0
  133.0629  138.2609  160.2769 C   0  0  0  0  0  0  0  0  0  0  0  0
  134.2134  139.1797  160.4067 C   0  0  0  0  0  0  0  0  0  0  0  0
  134.7346  139.8139  159.2781 C   0  0  0  0  0  0  0  0  0  0  0  0
  135.8082  140.6707  159.4061 C   0  0  0  0  0  0  0  0  0  0  0  0
  136.3647  140.9060  160.6509 C   0  0  0  0  0  0  0  0  0  0  0  0
  135.8563  140.2765  161.7727 C   0  0  0  0  0  0  0  0  0  0  0  0
  136.4720  140.5345  163.1236 C   0  0  0  0  0  0  0  0  0  0  0  0
  135.7749  141.7265  163.7827 C   0  0  0  0  0  0  0  0  0  0  0  0
  136.3906  141.9845  165.1337 C   0  0  0  0  0  0  0  0  0  0  0  0
  137.4660  142.8442  165.2505 C   0  0  0  0  0  0  0  0  0  0  0  0
  138.0353  143.0766  166.4887 C   0  0  0  0  0  0  0  0  0  0  0  0
  137.5231  142.4585  167.6149 C   0  0  0  0  0  0  0  0  0  0  0  0
  136.4483  141.5982  167.5033 C   0  0  0  0  0  0  0  0  0  0  0  0
  135.8787  141.3589  166.2609 C   0  0  0  0  0  0  0  0  0  0  0  0
  134.8208  140.5133  166.1487 O   0  0  0  0  0  0  0  0  0  0  0  0
  134.7826  139.4172  161.6581 C   0  0  0  0  0  0  0  0  0  0  0  0
  131.7713  138.7909  159.7175 C   0  0  0  0  0  0  0  0  0  0  0  0
  130.6351  137.8169  160.0399 C   0  0  0  0  0  0  0  0  0  0  0  0
  130.3163  133.6544  158.0515 N   0  0  0  0  0  0  0  0  0  0  0  0
  130.0251  134.1254  157.2551 H   0  0  0  0  0  0  0  0  0  0  0  0
  130.7814  132.3734  158.0914 C   0  0  0  0  0  0  0  0  0  0  0  0
  130.9309  131.4505  156.9093 C   0  0  0  0  0  0  0  0  0  0  0  0
  130.7905  130.1038  160.1428 H   0  0  0  0  0  0  0  0  0  0  0  0
  132.2198  130.2898  159.0981 H   0  0  0  0  0  0  0  0  0  0  0  0
  132.2392  130.9363  160.7564 H   0  0  0  0  0  0  0  0  0  0  0  0
  130.9210  133.3046  161.2184 H   0  0  0  0  0  0  0  0  0  0  0  0
  129.5087  135.5353  160.7297 H   0  0  0  0  0  0  0  0  0  0  0  0
  129.1245  135.9019  159.0308 H   0  0  0  0  0  0  0  0  0  0  0  0
  131.6659  135.8525  161.5593 H   0  0  0  0  0  0  0  0  0  0  0  0
  132.5004  135.0515  160.2109 H   0  0  0  0  0  0  0  0  0  0  0  0
  134.1650  136.6909  161.0350 H   0  0  0  0  0  0  0  0  0  0  0  0
  134.2987  139.6339  158.3065 H   0  0  0  0  0  0  0  0  0  0  0  0
  136.2122  141.1623  158.5335 H   0  0  0  0  0  0  0  0  0  0  0  0
  137.2027  141.5808  160.7463 H   0  0  0  0  0  0  0  0  0  0  0  0
  137.5328  140.7550  163.0034 H   0  0  0  0  0  0  0  0  0  0  0  0
  136.3533  139.6516  163.7517 H   0  0  0  0  0  0  0  0  0  0  0  0
  134.7142  141.5061  163.9029 H   0  0  0  0  0  0  0  0  0  0  0  0
  135.8935  142.6094  163.1547 H   0  0  0  0  0  0  0  0  0  0  0  0
  137.8650  143.3315  164.3732 H   0  0  0  0  0  0  0  0  0  0  0  0
  138.8788  143.7452  166.5773 H   0  0  0  0  0  0  0  0  0  0  0  0
  137.9666  142.6454  168.5816 H   0  0  0  0  0  0  0  0  0  0  0  0
  136.0511  141.1127  168.3825 H   0  0  0  0  0  0  0  0  0  0  0  0
  134.5358  140.1263  166.9878 H   0  0  0  0  0  0  0  0  0  0  0  0
  134.3836  138.9297  162.5354 H   0  0  0  0  0  0  0  0  0  0  0  0
  131.5542  139.7619  160.1626 H   0  0  0  0  0  0  0  0  0  0  0  0
  131.8610  138.8990  158.6367 H   0  0  0  0  0  0  0  0  0  0  0  0
  130.4255  137.8402  161.1094 H   0  0  0  0  0  0  0  0  0  0  0  0
  129.7417  138.0997  159.4831 H   0  0  0  0  0  0  0  0  0  0  0  0
  130.0076  130.8887  156.7681 H   0  0  0  0  0  0  0  0  0  0  0  0
  131.1398  132.0370  156.0146 H   0  0  0  0  0  0  0  0  0  0  0  0
  131.7533  130.7585  157.0906 H   0  0  0  0  0  0  0  0  0  0  0  0
  1  2  1  0
  1 32  1  0
  1 33  1  0
  1 34  1  0
  2 30  2  0
  2  3  1  0
  3  4  2  0
  3 35  1  0
  4  5  1  0
  4 28  1  0
  5  6  1  0
  5 36  1  0
  5 37  1  0
  6  7  1  6
  6 27  1  0
  6  8  1  0
  8  9  1  0
  8 38  1  0
  8 39  1  0
  9 10  2  0
  9 40  1  0
 10 11  1  0
 10 26  1  0
 11 25  1  0
 11 12  2  0
 12 13  1  0
 12 41  1  0
 13 14  2  0
 13 42  1  0
 14 15  1  0
 14 43  1  0
 15 16  1  0
 15 25  2  0
 16 17  1  0
 16 44  1  0
 16 45  1  0
 17 18  1  0
 17 46  1  0
 17 47  1  0
 18 23  1  0
 18 19  2  0
 19 20  1  0
 19 48  1  0
 20 21  2  0
 20 49  1  0
 21 22  1  0
 21 50  1  0
 22 23  2  0
 22 51  1  0
 23 24  1  0
 24 52  1  0
 25 53  1  0
 26 27  1  0
 26 54  1  0
 26 55  1  0
 27 56  1  0
 27 57  1  0
 28 29  1  0
 28 30  1  0
 30 31  1  0
 31 58  1  0
 31 59  1  0
 31 60  1  0
M  CHG  1   6   1
M  END
>  <DOCK_score>  (1) 
-57.018478

>  <SMILES>  (1) 
Cc1cc(C[N@@H+]2CC=C(c3cccc(CCc4ccccc4O)c3)CC2)[nH]c1C

$$$$
