O=C(CC1(O)C[NH2+]C1)c1cccc(NCc2cccc(Cl)c2)c1
     RDKit          3D

 43 45  0  0  0  0  0  0  0  0999 V2000
  127.5078  131.1940  158.2708 O   0  0  0  0  0  0  0  0  0  0  0  0
  127.7937  132.0046  159.1262 C   0  0  0  0  0  0  0  0  0  0  0  0
  129.2397  132.2965  159.4342 C   0  0  0  0  0  0  0  0  0  0  0  0
  130.0809  132.0945  158.1724 C   0  0  0  0  0  0  0  0  0  0  0  0
  130.1613  130.7257  157.7698 O   0  0  0  0  0  0  0  0  0  0  0  0
  129.7235  133.0574  157.0258 C   0  0  0  0  0  0  0  0  0  0  0  0
  131.1818  133.1815  156.8078 N   0  0  0  0  0  0  0  0  0  0  0  0
  131.4685  134.1242  156.5902 H   0  0  0  0  0  0  0  0  0  0  0  0
  131.5385  132.5060  156.1486 H   0  0  0  0  0  0  0  0  0  0  0  0
  131.4440  132.8086  158.2154 C   0  0  0  0  0  0  0  0  0  0  0  0
  126.7286  132.7031  159.8636 C   0  0  0  0  0  0  0  0  0  0  0  0
  125.4994  132.0736  160.0862 C   0  0  0  0  0  0  0  0  0  0  0  0
  124.5038  132.7310  160.7780 C   0  0  0  0  0  0  0  0  0  0  0  0
  124.7151  134.0121  161.2537 C   0  0  0  0  0  0  0  0  0  0  0  0
  125.9326  134.6478  161.0385 C   0  0  0  0  0  0  0  0  0  0  0  0
  126.1395  135.9424  161.5213 N   0  0  0  0  0  0  0  0  0  0  0  0
  127.5027  136.4498  161.6962 C   0  0  0  0  0  0  0  0  0  0  0  0
  127.4499  137.8598  162.2251 C   0  0  0  0  0  0  0  0  0  0  0  0
  128.2670  138.8333  161.6808 C   0  0  0  0  0  0  0  0  0  0  0  0
  128.2158  140.1279  162.1622 C   0  0  0  0  0  0  0  0  0  0  0  0
  127.3550  140.4478  163.1954 C   0  0  0  0  0  0  0  0  0  0  0  0
  126.5408  139.4731  163.7439 C   0  0  0  0  0  0  0  0  0  0  0  0
  125.4591  139.8743  165.0411 Cl  0  0  0  0  0  0  0  0  0  0  0  0
  126.5888  138.1784  163.2580 C   0  0  0  0  0  0  0  0  0  0  0  0
  126.9431  133.9957  160.3492 C   0  0  0  0  0  0  0  0  0  0  0  0
  129.5884  131.6211  160.2153 H   0  0  0  0  0  0  0  0  0  0  0  0
  129.3376  133.3273  159.7749 H   0  0  0  0  0  0  0  0  0  0  0  0
  130.4723  130.6001  156.8628 H   0  0  0  0  0  0  0  0  0  0  0  0
  129.1951  132.5805  156.2004 H   0  0  0  0  0  0  0  0  0  0  0  0
  129.2493  133.9805  157.3593 H   0  0  0  0  0  0  0  0  0  0  0  0
  131.4729  133.6589  158.8968 H   0  0  0  0  0  0  0  0  0  0  0  0
  132.2899  132.1330  158.3423 H   0  0  0  0  0  0  0  0  0  0  0  0
  125.3300  131.0731  159.7161 H   0  0  0  0  0  0  0  0  0  0  0  0
  123.5556  132.2431  160.9492 H   0  0  0  0  0  0  0  0  0  0  0  0
  123.9312  134.5209  161.7950 H   0  0  0  0  0  0  0  0  0  0  0  0
  125.3806  136.5054  161.7408 H   0  0  0  0  0  0  0  0  0  0  0  0
  128.0383  135.8162  162.4032 H   0  0  0  0  0  0  0  0  0  0  0  0
  128.0196  136.4408  160.7365 H   0  0  0  0  0  0  0  0  0  0  0  0
  128.9431  138.5829  160.8766 H   0  0  0  0  0  0  0  0  0  0  0  0
  128.8514  140.8888  161.7339 H   0  0  0  0  0  0  0  0  0  0  0  0
  127.3176  141.4586  163.5741 H   0  0  0  0  0  0  0  0  0  0  0  0
  125.9534  137.4171  163.6856 H   0  0  0  0  0  0  0  0  0  0  0  0
  127.8910  134.4863  160.1846 H   0  0  0  0  0  0  0  0  0  0  0  0
  1  2  2  0
  2  3  1  0
  2 11  1  0
  3  4  1  0
  3 26  1  0
  3 27  1  0
  4 10  1  0
  4  5  1  0
  4  6  1  0
  5 28  1  0
  6  7  1  0
  6 29  1  0
  6 30  1  0
  7  8  1  0
  7  9  1  0
  7 10  1  0
 10 31  1  0
 10 32  1  0
 11 25  1  0
 11 12  2  0
 12 13  1  0
 12 33  1  0
 13 14  2  0
 13 34  1  0
 14 15  1  0
 14 35  1  0
 15 16  1  0
 15 25  2  0
 16 17  1  0
 16 36  1  0
 17 18  1  0
 17 37  1  0
 17 38  1  0
 18 24  1  0
 18 19  2  0
 19 20  1  0
 19 39  1  0
 20 21  2  0
 20 40  1  0
 21 22  1  0
 21 41  1  0
 22 23  1  0
 22 24  2  0
 24 42  1  0
 25 43  1  0
M  CHG  1   7   1
M  END
>  <DOCK_score>  (1) 
-41.108917

>  <SMILES>  (1) 
O=C(CC1(O)C[NH2+]C1)c1cccc(NCc2cccc(Cl)c2)c1

$$$$
