Cc1ccccc1C(c1ccccc1)[N@@H+]1CC=C(CNc2ccccc2)CC1
     RDKit          3D

 57 60  0  0  1  0  0  0  0  0999 V2000
  126.8645  132.3720  159.7172 C   0  0  0  0  0  0  0  0  0  0  0  0
  127.0225  133.6501  158.9346 C   0  0  0  0  0  0  0  0  0  0  0  0
  125.9101  134.2808  158.4088 C   0  0  0  0  0  0  0  0  0  0  0  0
  126.0550  135.4530  157.6911 C   0  0  0  0  0  0  0  0  0  0  0  0
  127.3123  135.9955  157.4998 C   0  0  0  0  0  0  0  0  0  0  0  0
  128.4239  135.3671  158.0288 C   0  0  0  0  0  0  0  0  0  0  0  0
  128.2794  134.1917  158.7422 C   0  0  0  0  0  0  0  0  0  0  0  0
  129.4919  133.5043  159.3153 C   0  0  1  0  0  0  0  0  0  0  0  0
  130.0364  132.5240  158.3085 C   0  0  0  0  0  0  0  0  0  0  0  0
  129.8794  132.7632  156.9561 C   0  0  0  0  0  0  0  0  0  0  0  0
  130.3826  131.8660  156.0325 C   0  0  0  0  0  0  0  0  0  0  0  0
  131.0344  130.7251  156.4616 C   0  0  0  0  0  0  0  0  0  0  0  0
  131.1873  130.4835  157.8141 C   0  0  0  0  0  0  0  0  0  0  0  0
  130.6878  131.3828  158.7375 C   0  0  0  0  0  0  0  0  0  0  0  0
  130.5199  134.5057  159.6292 N   0  0  2  0  0  0  0  0  0  0  0  0
  130.7798  134.9982  158.7877 H   0  0  0  0  0  0  0  0  0  0  0  0
  131.7003  133.8409  160.1936 C   0  0  0  0  0  0  0  0  0  0  0  0
  132.6846  134.8574  160.6953 C   0  0  0  0  0  0  0  0  0  0  0  0
  132.3676  136.0929  160.9414 C   0  0  0  0  0  0  0  0  0  0  0  0
  133.4358  137.0272  161.4485 C   0  0  0  0  0  0  0  0  0  0  0  0
  134.1010  137.6708  160.3128 N   0  0  0  0  0  0  0  0  0  0  0  0
  135.1332  138.5852  160.5347 C   0  0  0  0  0  0  0  0  0  0  0  0
  135.7688  139.1920  159.4588 C   0  0  0  0  0  0  0  0  0  0  0  0
  136.7858  140.0992  159.6819 C   0  0  0  0  0  0  0  0  0  0  0  0
  137.1787  140.3960  160.9741 C   0  0  0  0  0  0  0  0  0  0  0  0
  136.5516  139.7897  162.0473 C   0  0  0  0  0  0  0  0  0  0  0  0
  135.5303  138.8856  161.8315 C   0  0  0  0  0  0  0  0  0  0  0  0
  130.9763  136.6270  160.7404 C   0  0  0  0  0  0  0  0  0  0  0  0
  129.9921  135.4610  160.6162 C   0  0  0  0  0  0  0  0  0  0  0  0
  126.6908  132.6078  160.7671 H   0  0  0  0  0  0  0  0  0  0  0  0
  126.0170  131.8090  159.3262 H   0  0  0  0  0  0  0  0  0  0  0  0
  127.7715  131.7746  159.6243 H   0  0  0  0  0  0  0  0  0  0  0  0
  124.9280  133.8571  158.5587 H   0  0  0  0  0  0  0  0  0  0  0  0
  125.1862  135.9455  157.2801 H   0  0  0  0  0  0  0  0  0  0  0  0
  127.4254  136.9117  156.9393 H   0  0  0  0  0  0  0  0  0  0  0  0
  129.4056  135.7928  157.8822 H   0  0  0  0  0  0  0  0  0  0  0  0
  129.2123  132.9732  160.2252 H   0  0  0  0  0  0  0  0  0  0  0  0
  129.3665  133.6526  156.6210 H   0  0  0  0  0  0  0  0  0  0  0  0
  130.2635  132.0550  154.9759 H   0  0  0  0  0  0  0  0  0  0  0  0
  131.4247  130.0225  155.7400 H   0  0  0  0  0  0  0  0  0  0  0  0
  131.6965  129.5920  158.1492 H   0  0  0  0  0  0  0  0  0  0  0  0
  130.8069  131.1938  159.7941 H   0  0  0  0  0  0  0  0  0  0  0  0
  131.3924  133.1997  161.0195 H   0  0  0  0  0  0  0  0  0  0  0  0
  132.1728  133.2306  159.4241 H   0  0  0  0  0  0  0  0  0  0  0  0
  133.7058  134.5463  160.8597 H   0  0  0  0  0  0  0  0  0  0  0  0
  132.9813  137.7887  162.0824 H   0  0  0  0  0  0  0  0  0  0  0  0
  134.1677  136.4630  162.0262 H   0  0  0  0  0  0  0  0  0  0  0  0
  133.8245  137.4619  159.4069 H   0  0  0  0  0  0  0  0  0  0  0  0
  135.4654  138.9573  158.4492 H   0  0  0  0  0  0  0  0  0  0  0  0
  137.2776  140.5744  158.8461 H   0  0  0  0  0  0  0  0  0  0  0  0
  137.9769  141.1030  161.1458 H   0  0  0  0  0  0  0  0  0  0  0  0
  136.8611  140.0234  163.0553 H   0  0  0  0  0  0  0  0  0  0  0  0
  135.0412  138.4121  162.6700 H   0  0  0  0  0  0  0  0  0  0  0  0
  130.9456  137.2264  159.8305 H   0  0  0  0  0  0  0  0  0  0  0  0
  130.6992  137.2469  161.5930 H   0  0  0  0  0  0  0  0  0  0  0  0
  129.0233  135.8336  160.2834 H   0  0  0  0  0  0  0  0  0  0  0  0
  129.8853  134.9678  161.5824 H   0  0  0  0  0  0  0  0  0  0  0  0
  1  2  1  0
  1 30  1  0
  1 31  1  0
  1 32  1  0
  2  7  2  0
  2  3  1  0
  3  4  2  0
  3 33  1  0
  4  5  1  0
  4 34  1  0
  5  6  2  0
  5 35  1  0
  6  7  1  0
  6 36  1  0
  7  8  1  0
  8  9  1  0
  8 15  1  0
  8 37  1  1
  9 14  1  0
  9 10  2  0
 10 11  1  0
 10 38  1  0
 11 12  2  0
 11 39  1  0
 12 13  1  0
 12 40  1  0
 13 14  2  0
 13 41  1  0
 14 42  1  0
 15 16  1  6
 15 29  1  0
 15 17  1  0
 17 18  1  0
 17 43  1  0
 17 44  1  0
 18 19  2  0
 18 45  1  0
 19 20  1  0
 19 28  1  0
 20 21  1  0
 20 46  1  0
 20 47  1  0
 21 22  1  0
 21 48  1  0
 22 27  1  0
 22 23  2  0
 23 24  1  0
 23 49  1  0
 24 25  2  0
 24 50  1  0
 25 26  1  0
 25 51  1  0
 26 27  2  0
 26 52  1  0
 27 53  1  0
 28 29  1  0
 28 54  1  0
 28 55  1  0
 29 56  1  0
 29 57  1  0
M  CHG  1  15   1
M  END
>  <DOCK_score>  (1) 
-55.070015

>  <SMILES>  (1) 
Cc1ccccc1C(c1ccccc1)[N@@H+]1CC=C(CNc2ccccc2)CC1

$$$$
