CCc1ccc(-c2c[nH]c(NC(c3ccnn3C)[C@@H]3CC(O)C3(C)C)[nH+]2)cc1
     RDKit          3D

 58 61  0  0  1  0  0  0  0  0999 V2000
  130.2680  128.5516  151.5325 C   0  0  0  0  0  0  0  0  0  0  0  0
  131.4192  129.5017  151.8683 C   0  0  0  0  0  0  0  0  0  0  0  0
  131.0944  130.2584  153.1302 C   0  0  0  0  0  0  0  0  0  0  0  0
  131.4672  129.7425  154.3584 C   0  0  0  0  0  0  0  0  0  0  0  0
  131.1730  130.4318  155.5174 C   0  0  0  0  0  0  0  0  0  0  0  0
  130.4987  131.6496  155.4487 C   0  0  0  0  0  0  0  0  0  0  0  0
  130.1799  132.3951  156.6908 C   0  0  0  0  0  0  0  0  0  0  0  0
  129.4115  131.9481  157.7148 C   0  0  0  0  0  0  0  0  0  0  0  0
  129.3782  132.9492  158.6548 N   0  0  0  0  0  0  0  0  0  0  0  0
  128.9073  132.9261  159.5025 H   0  0  0  0  0  0  0  0  0  0  0  0
  130.1278  133.9799  158.1771 C   0  0  0  0  0  0  0  0  0  0  0  0
  130.3496  135.1833  158.8243 N   0  0  0  0  0  0  0  0  0  0  0  0
  129.7529  135.4286  160.1396 C   0  0  2  0  0  0  0  0  0  0  0  0
  128.2521  135.3432  160.0342 C   0  0  0  0  0  0  0  0  0  0  0  0
  127.4047  134.9503  161.0131 C   0  0  0  0  0  0  0  0  0  0  0  0
  126.1025  135.0146  160.5067 C   0  0  0  0  0  0  0  0  0  0  0  0
  126.1659  135.4313  159.2680 N   0  0  0  0  0  0  0  0  0  0  0  0
  127.5120  135.6503  158.9483 N   0  0  0  0  0  0  0  0  0  0  0  0
  128.0260  136.1259  157.6615 C   0  0  0  0  0  0  0  0  0  0  0  0
  130.1514  136.8226  160.6285 C   0  0  2  0  0  0  0  0  0  0  0  0
  129.5515  137.6160  160.1829 H   0  0  0  0  0  0  0  0  0  0  0  0
  131.6676  137.0888  160.5711 C   0  0  0  0  0  0  0  0  0  0  0  0
  131.5133  137.8058  161.9227 C   0  0  2  0  0  0  0  0  0  0  0  0
  132.5816  137.5440  162.8350 O   0  0  0  0  0  0  0  0  0  0  0  0
  130.2731  136.9275  162.1579 C   0  0  0  0  0  0  0  0  0  0  0  0
  130.5867  135.5946  162.8406 C   0  0  0  0  0  0  0  0  0  0  0  0
  129.1099  137.6727  162.8157 C   0  0  0  0  0  0  0  0  0  0  0  0
  130.6006  133.6471  157.0008 N   0  0  0  0  0  0  0  0  0  0  0  0
  131.1634  134.2059  156.4422 H   0  0  0  0  0  0  0  0  0  0  0  0
  130.1201  132.1616  154.2089 C   0  0  0  0  0  0  0  0  0  0  0  0
  130.4249  131.4667  153.0561 C   0  0  0  0  0  0  0  0  0  0  0  0
  130.5030  128.0043  150.6197 H   0  0  0  0  0  0  0  0  0  0  0  0
  130.1270  127.8475  152.3525 H   0  0  0  0  0  0  0  0  0  0  0  0
  129.3536  129.1266  151.3862 H   0  0  0  0  0  0  0  0  0  0  0  0
  131.5602  130.2058  151.0483 H   0  0  0  0  0  0  0  0  0  0  0  0
  132.3337  128.9267  152.0147 H   0  0  0  0  0  0  0  0  0  0  0  0
  131.9897  128.7988  154.4105 H   0  0  0  0  0  0  0  0  0  0  0  0
  131.4652  130.0284  156.4757 H   0  0  0  0  0  0  0  0  0  0  0  0
  128.9204  130.9883  157.7794 H   0  0  0  0  0  0  0  0  0  0  0  0
  130.9002  135.8643  158.4069 H   0  0  0  0  0  0  0  0  0  0  0  0
  130.1107  134.6797  160.8462 H   0  0  0  0  0  0  0  0  0  0  0  0
  127.6843  134.6417  162.0097 H   0  0  0  0  0  0  0  0  0  0  0  0
  125.2005  134.7633  161.0449 H   0  0  0  0  0  0  0  0  0  0  0  0
  128.2312  135.2729  157.0146 H   0  0  0  0  0  0  0  0  0  0  0  0
  127.2838  136.7696  157.1893 H   0  0  0  0  0  0  0  0  0  0  0  0
  128.9452  136.6889  157.8230 H   0  0  0  0  0  0  0  0  0  0  0  0
  131.9642  137.7505  159.7572 H   0  0  0  0  0  0  0  0  0  0  0  0
  132.2722  136.1835  160.6236 H   0  0  0  0  0  0  0  0  0  0  0  0
  131.2852  138.8678  161.8316 H   0  0  0  0  0  0  0  0  0  0  0  0
  132.9122  136.6358  162.8031 H   0  0  0  0  0  0  0  0  0  0  0  0
  129.7785  134.8889  162.6485 H   0  0  0  0  0  0  0  0  0  0  0  0
  131.5202  135.1944  162.4450 H   0  0  0  0  0  0  0  0  0  0  0  0
  130.6847  135.7508  163.9150 H   0  0  0  0  0  0  0  0  0  0  0  0
  129.2776  137.7311  163.8911 H   0  0  0  0  0  0  0  0  0  0  0  0
  129.0438  138.6794  162.4031 H   0  0  0  0  0  0  0  0  0  0  0  0
  128.1799  137.1386  162.6214 H   0  0  0  0  0  0  0  0  0  0  0  0
  129.5931  133.1025  154.1501 H   0  0  0  0  0  0  0  0  0  0  0  0
  130.1363  131.8649  152.0945 H   0  0  0  0  0  0  0  0  0  0  0  0
  1  2  1  0
  1 32  1  0
  1 33  1  0
  1 34  1  0
  2  3  1  0
  2 35  1  0
  2 36  1  0
  3 31  2  0
  3  4  1  0
  4  5  2  0
  4 37  1  0
  5  6  1  0
  5 38  1  0
  6  7  1  0
  6 30  2  0
  7 28  1  0
  7  8  2  0
  8  9  1  0
  8 39  1  0
  9 10  1  0
  9 11  1  0
 11 12  1  0
 11 28  2  0
 12 13  1  0
 12 40  1  0
 13 14  1  0
 13 20  1  0
 13 41  1  1
 14 18  1  0
 14 15  2  0
 15 16  1  0
 15 42  1  0
 16 17  2  0
 16 43  1  0
 17 18  1  0
 18 19  1  0
 19 44  1  0
 19 45  1  0
 19 46  1  0
 20 21  1  6
 20 25  1  0
 20 22  1  0
 22 23  1  0
 22 47  1  0
 22 48  1  0
 23 24  1  0
 23 25  1  0
 23 49  1  6
 24 50  1  0
 25 26  1  0
 25 27  1  0
 26 51  1  0
 26 52  1  0
 26 53  1  0
 27 54  1  0
 27 55  1  0
 27 56  1  0
 28 29  1  0
 30 31  1  0
 30 57  1  0
 31 58  1  0
M  CHG  1  28   1
M  END
>  <DOCK_score>  (1) 
-59.390175

>  <SMILES>  (1) 
CCc1ccc(-c2c[nH]c(NC(c3ccnn3C)[C@@H]3CC(O)C3(C)C)[nH+]2)cc1

$$$$
