CCc1ccc(-c2c[nH]c(N[C@@H](C)Cc3ccc(F)cc3-c3ccc(C)cc3)[nH+]2)cc1
     RDKit          3D

 60 63  0  0  1  0  0  0  0  0999 V2000
  130.1944  128.5028  151.5643 C   0  0  0  0  0  0  0  0  0  0  0  0
  131.3336  129.4834  151.8490 C   0  0  0  0  0  0  0  0  0  0  0  0
  131.0432  130.2343  153.1230 C   0  0  0  0  0  0  0  0  0  0  0  0
  131.4839  129.7303  154.3341 C   0  0  0  0  0  0  0  0  0  0  0  0
  131.2265  130.4158  155.5040 C   0  0  0  0  0  0  0  0  0  0  0  0
  130.5119  131.6119  155.4649 C   0  0  0  0  0  0  0  0  0  0  0  0
  130.2272  132.3504  156.7194 C   0  0  0  0  0  0  0  0  0  0  0  0
  129.5308  131.8783  157.7829 C   0  0  0  0  0  0  0  0  0  0  0  0
  129.5054  132.8821  158.7203 N   0  0  0  0  0  0  0  0  0  0  0  0
  129.0801  132.8443  159.5912 H   0  0  0  0  0  0  0  0  0  0  0  0
  130.1877  133.9393  158.2017 C   0  0  0  0  0  0  0  0  0  0  0  0
  130.3938  135.1541  158.8329 N   0  0  0  0  0  0  0  0  0  0  0  0
  129.8556  135.3819  160.1764 C   0  0  1  0  0  0  0  0  0  0  0  0
  128.8603  134.9435  160.2483 H   0  0  0  0  0  0  0  0  0  0  0  0
  130.7756  134.7314  161.2114 C   0  0  0  0  0  0  0  0  0  0  0  0
  129.7708  136.8862  160.4433 C   0  0  0  0  0  0  0  0  0  0  0  0
  128.7983  137.1431  161.5654 C   0  0  0  0  0  0  0  0  0  0  0  0
  127.5774  136.4987  161.5827 C   0  0  0  0  0  0  0  0  0  0  0  0
  126.6854  136.7288  162.6138 C   0  0  0  0  0  0  0  0  0  0  0  0
  127.0072  137.6146  163.6296 C   0  0  0  0  0  0  0  0  0  0  0  0
  126.1296  137.8394  164.6320 F   0  0  0  0  0  0  0  0  0  0  0  0
  128.2247  138.2688  163.6183 C   0  0  0  0  0  0  0  0  0  0  0  0
  129.1278  138.0354  162.5834 C   0  0  0  0  0  0  0  0  0  0  0  0
  130.4367  138.7342  162.5658 C   0  0  0  0  0  0  0  0  0  0  0  0
  131.5422  138.1645  163.1943 C   0  0  0  0  0  0  0  0  0  0  0  0
  132.7583  138.8167  163.1707 C   0  0  0  0  0  0  0  0  0  0  0  0
  132.8784  140.0386  162.5338 C   0  0  0  0  0  0  0  0  0  0  0  0
  134.2077  140.7485  162.5159 C   0  0  0  0  0  0  0  0  0  0  0  0
  131.7831  140.6114  161.9129 C   0  0  0  0  0  0  0  0  0  0  0  0
  130.5635  139.9654  161.9257 C   0  0  0  0  0  0  0  0  0  0  0  0
  130.6225  133.6157  157.0083 N   0  0  0  0  0  0  0  0  0  0  0  0
  131.1418  134.1900  156.4240 H   0  0  0  0  0  0  0  0  0  0  0  0
  130.0660  132.1116  154.2425 C   0  0  0  0  0  0  0  0  0  0  0  0
  130.3342  131.4205  153.0784 C   0  0  0  0  0  0  0  0  0  0  0  0
  130.1087  127.7964  152.3899 H   0  0  0  0  0  0  0  0  0  0  0  0
  129.2592  129.0525  151.4579 H   0  0  0  0  0  0  0  0  0  0  0  0
  130.4038  127.9604  150.6423 H   0  0  0  0  0  0  0  0  0  0  0  0
  132.2685  128.9342  151.9550 H   0  0  0  0  0  0  0  0  0  0  0  0
  131.4190  130.1903  151.0229 H   0  0  0  0  0  0  0  0  0  0  0  0
  132.0333  128.8011  154.3638 H   0  0  0  0  0  0  0  0  0  0  0  0
  131.5746  130.0242  156.4484 H   0  0  0  0  0  0  0  0  0  0  0  0
  129.0818  130.9003  157.8751 H   0  0  0  0  0  0  0  0  0  0  0  0
  130.8945  135.8543  158.3859 H   0  0  0  0  0  0  0  0  0  0  0  0
  131.7710  135.1700  161.1395 H   0  0  0  0  0  0  0  0  0  0  0  0
  130.3752  134.9010  162.2109 H   0  0  0  0  0  0  0  0  0  0  0  0
  130.8360  133.6599  161.0212 H   0  0  0  0  0  0  0  0  0  0  0  0
  130.7553  137.2616  160.7226 H   0  0  0  0  0  0  0  0  0  0  0  0
  129.4296  137.3964  159.5426 H   0  0  0  0  0  0  0  0  0  0  0  0
  127.3201  135.8106  160.7912 H   0  0  0  0  0  0  0  0  0  0  0  0
  125.7329  136.2197  162.6252 H   0  0  0  0  0  0  0  0  0  0  0  0
  128.4752  138.9598  164.4096 H   0  0  0  0  0  0  0  0  0  0  0  0
  131.4483  137.2126  163.6956 H   0  0  0  0  0  0  0  0  0  0  0  0
  133.6166  138.3742  163.6542 H   0  0  0  0  0  0  0  0  0  0  0  0
  134.2833  141.4000  163.3865 H   0  0  0  0  0  0  0  0  0  0  0  0
  135.0123  140.0137  162.5410 H   0  0  0  0  0  0  0  0  0  0  0  0
  134.2888  141.3451  161.6073 H   0  0  0  0  0  0  0  0  0  0  0  0
  131.8822  141.5657  161.4173 H   0  0  0  0  0  0  0  0  0  0  0  0
  129.7087  140.4136  161.4409 H   0  0  0  0  0  0  0  0  0  0  0  0
  129.5116  133.0377  154.2065 H   0  0  0  0  0  0  0  0  0  0  0  0
  129.9890  131.8066  152.1308 H   0  0  0  0  0  0  0  0  0  0  0  0
  1  2  1  0
  1 35  1  0
  1 36  1  0
  1 37  1  0
  2  3  1  0
  2 38  1  0
  2 39  1  0
  3 34  2  0
  3  4  1  0
  4  5  2  0
  4 40  1  0
  5  6  1  0
  5 41  1  0
  6  7  1  0
  6 33  2  0
  7 31  1  0
  7  8  2  0
  8  9  1  0
  8 42  1  0
  9 10  1  0
  9 11  1  0
 11 12  1  0
 11 31  2  0
 12 13  1  0
 12 43  1  0
 13 14  1  6
 13 15  1  0
 13 16  1  0
 15 44  1  0
 15 45  1  0
 15 46  1  0
 16 17  1  0
 16 47  1  0
 16 48  1  0
 17 23  1  0
 17 18  2  0
 18 19  1  0
 18 49  1  0
 19 20  2  0
 19 50  1  0
 20 21  1  0
 20 22  1  0
 22 23  2  0
 22 51  1  0
 23 24  1  0
 24 30  1  0
 24 25  2  0
 25 26  1  0
 25 52  1  0
 26 27  2  0
 26 53  1  0
 27 28  1  0
 27 29  1  0
 28 54  1  0
 28 55  1  0
 28 56  1  0
 29 30  2  0
 29 57  1  0
 30 58  1  0
 31 32  1  0
 33 34  1  0
 33 59  1  0
 34 60  1  0
M  CHG  1  31   1
M  END
>  <DOCK_score>  (1) 
-58.599598

>  <SMILES>  (1) 
CCc1ccc(-c2c[nH]c(N[C@@H](C)Cc3ccc(F)cc3-c3ccc(C)cc3)[nH+]2)cc1

$$$$
