CC=C[C@](O)(c1ccccc1)c1c(C)cccc1N1CC[NH+](C(c2ccccc2)c2ccccc2)CC1
     RDKit          3D

 74 78  0  0  1  0  0  0  0  0999 V2000
  131.5950  141.4852  164.5905 C   0  0  0  0  0  0  0  0  0  0  0  0
  132.2130  140.2958  163.9017 C   0  0  0  0  0  0  0  0  0  0  0  0
  133.5089  140.1103  163.9517 C   0  0  0  0  0  0  0  0  0  0  0  0
  134.1400  138.9875  163.1693 C   0  0  2  0  0  0  0  0  0  0  0  0
  133.2096  137.9097  163.0480 O   0  0  0  0  0  0  0  0  0  0  0  0
  135.3747  138.5070  163.8874 C   0  0  0  0  0  0  0  0  0  0  0  0
  135.4502  138.5921  165.2651 C   0  0  0  0  0  0  0  0  0  0  0  0
  136.5808  138.1468  165.9241 C   0  0  0  0  0  0  0  0  0  0  0  0
  137.6398  137.6254  165.2048 C   0  0  0  0  0  0  0  0  0  0  0  0
  137.5666  137.5453  163.8267 C   0  0  0  0  0  0  0  0  0  0  0  0
  136.4338  137.9859  163.1680 C   0  0  0  0  0  0  0  0  0  0  0  0
  134.5177  139.4819  161.7967 C   0  0  0  0  0  0  0  0  0  0  0  0
  135.4108  140.5266  161.6597 C   0  0  0  0  0  0  0  0  0  0  0  0
  136.0081  141.1717  162.8837 C   0  0  0  0  0  0  0  0  0  0  0  0
  135.7535  140.9846  160.4010 C   0  0  0  0  0  0  0  0  0  0  0  0
  135.2078  140.3954  159.2749 C   0  0  0  0  0  0  0  0  0  0  0  0
  134.3186  139.3468  159.4046 C   0  0  0  0  0  0  0  0  0  0  0  0
  133.9721  138.8841  160.6679 C   0  0  0  0  0  0  0  0  0  0  0  0
  133.0728  137.8241  160.8028 N   0  0  0  0  0  0  0  0  0  0  0  0
  131.7485  138.1869  160.2784 C   0  0  0  0  0  0  0  0  0  0  0  0
  130.7796  137.0231  160.4986 C   0  0  0  0  0  0  0  0  0  0  0  0
  131.2863  135.8274  159.8121 N   0  0  0  0  0  0  0  0  0  0  0  0
  131.3778  136.0196  158.8258 H   0  0  0  0  0  0  0  0  0  0  0  0
  130.3469  134.7153  160.0087 C   0  0  0  0  0  0  0  0  0  0  0  0
  129.0013  135.0881  159.4415 C   0  0  0  0  0  0  0  0  0  0  0  0
  127.8487  134.5602  159.9925 C   0  0  0  0  0  0  0  0  0  0  0  0
  126.6142  134.9060  159.4754 C   0  0  0  0  0  0  0  0  0  0  0  0
  126.5326  135.7716  158.4013 C   0  0  0  0  0  0  0  0  0  0  0  0
  127.6859  136.2954  157.8463 C   0  0  0  0  0  0  0  0  0  0  0  0
  128.9200  135.9537  158.3668 C   0  0  0  0  0  0  0  0  0  0  0  0
  130.8663  133.4885  159.3044 C   0  0  0  0  0  0  0  0  0  0  0  0
  130.5125  133.2438  157.9907 C   0  0  0  0  0  0  0  0  0  0  0  0
  130.9930  132.1209  157.3430 C   0  0  0  0  0  0  0  0  0  0  0  0
  131.8189  131.2374  158.0125 C   0  0  0  0  0  0  0  0  0  0  0  0
  132.1685  131.4794  159.3279 C   0  0  0  0  0  0  0  0  0  0  0  0
  131.6922  132.6049  159.9738 C   0  0  0  0  0  0  0  0  0  0  0  0
  132.5981  135.4631  160.3635 C   0  0  0  0  0  0  0  0  0  0  0  0
  133.5821  136.6139  160.1422 C   0  0  0  0  0  0  0  0  0  0  0  0
  130.5155  141.4718  164.4402 H   0  0  0  0  0  0  0  0  0  0  0  0
  131.8137  141.4414  165.6574 H   0  0  0  0  0  0  0  0  0  0  0  0
  132.0087  142.4028  164.1721 H   0  0  0  0  0  0  0  0  0  0  0  0
  131.5876  139.5964  163.3669 H   0  0  0  0  0  0  0  0  0  0  0  0
  134.1248  140.7620  164.5534 H   0  0  0  0  0  0  0  0  0  0  0  0
  133.6092  137.0749  162.7679 H   0  0  0  0  0  0  0  0  0  0  0  0
  134.6244  139.0033  165.8268 H   0  0  0  0  0  0  0  0  0  0  0  0
  136.6381  138.2096  167.0007 H   0  0  0  0  0  0  0  0  0  0  0  0
  138.5247  137.2809  165.7194 H   0  0  0  0  0  0  0  0  0  0  0  0
  138.3942  137.1384  163.2646 H   0  0  0  0  0  0  0  0  0  0  0  0
  136.3767  137.9234  162.0913 H   0  0  0  0  0  0  0  0  0  0  0  0
  135.3507  141.9686  163.2317 H   0  0  0  0  0  0  0  0  0  0  0  0
  136.1211  140.4249  163.6696 H   0  0  0  0  0  0  0  0  0  0  0  0
  136.9841  141.5884  162.6352 H   0  0  0  0  0  0  0  0  0  0  0  0
  136.4487  141.8045  160.2966 H   0  0  0  0  0  0  0  0  0  0  0  0
  135.4776  140.7555  158.2932 H   0  0  0  0  0  0  0  0  0  0  0  0
  133.8929  138.8872  158.5250 H   0  0  0  0  0  0  0  0  0  0  0  0
  131.8253  138.3995  159.2121 H   0  0  0  0  0  0  0  0  0  0  0  0
  131.3803  139.0703  160.8002 H   0  0  0  0  0  0  0  0  0  0  0  0
  129.8004  137.2848  160.0976 H   0  0  0  0  0  0  0  0  0  0  0  0
  130.6926  136.8197  161.5659 H   0  0  0  0  0  0  0  0  0  0  0  0
  130.2472  134.5079  161.0741 H   0  0  0  0  0  0  0  0  0  0  0  0
  127.9124  133.8806  160.8294 H   0  0  0  0  0  0  0  0  0  0  0  0
  125.7134  134.4965  159.9082 H   0  0  0  0  0  0  0  0  0  0  0  0
  125.5687  136.0382  157.9937 H   0  0  0  0  0  0  0  0  0  0  0  0
  127.6224  136.9712  157.0063 H   0  0  0  0  0  0  0  0  0  0  0  0
  129.8209  136.3625  157.9334 H   0  0  0  0  0  0  0  0  0  0  0  0
  129.8638  133.9317  157.4691 H   0  0  0  0  0  0  0  0  0  0  0  0
  130.7197  131.9317  156.3155 H   0  0  0  0  0  0  0  0  0  0  0  0
  132.1908  130.3579  157.5080 H   0  0  0  0  0  0  0  0  0  0  0  0
  132.8135  130.7888  159.8510 H   0  0  0  0  0  0  0  0  0  0  0  0
  131.9650  132.7937  161.0016 H   0  0  0  0  0  0  0  0  0  0  0  0
  132.5017  135.2677  161.4315 H   0  0  0  0  0  0  0  0  0  0  0  0
  132.9670  134.5683  159.8622 H   0  0  0  0  0  0  0  0  0  0  0  0
  134.5516  136.3497  160.5645 H   0  0  0  0  0  0  0  0  0  0  0  0
  133.6891  136.8006  159.0737 H   0  0  0  0  0  0  0  0  0  0  0  0
  1  2  1  0
  1 39  1  0
  1 40  1  0
  1 41  1  0
  2  3  2  0
  2 42  1  0
  3 43  1  0
  4  3  1  0
  4  5  1  6
  4  6  1  0
  4 12  1  0
  5 44  1  0
  6 11  1  0
  6  7  2  0
  7  8  1  0
  7 45  1  0
  8  9  2  0
  8 46  1  0
  9 10  1  0
  9 47  1  0
 10 11  2  0
 10 48  1  0
 11 49  1  0
 12 18  1  0
 12 13  2  0
 13 14  1  0
 13 15  1  0
 14 50  1  0
 14 51  1  0
 14 52  1  0
 15 16  2  0
 15 53  1  0
 16 17  1  0
 16 54  1  0
 17 18  2  0
 17 55  1  0
 18 19  1  0
 19 38  1  0
 19 20  1  0
 20 21  1  0
 20 56  1  0
 20 57  1  0
 21 22  1  0
 21 58  1  0
 21 59  1  0
 22 23  1  0
 22 24  1  0
 22 37  1  0
 24 25  1  0
 24 31  1  0
 24 60  1  0
 25 30  1  0
 25 26  2  0
 26 27  1  0
 26 61  1  0
 27 28  2  0
 27 62  1  0
 28 29  1  0
 28 63  1  0
 29 30  2  0
 29 64  1  0
 30 65  1  0
 31 36  1  0
 31 32  2  0
 32 33  1  0
 32 66  1  0
 33 34  2  0
 33 67  1  0
 34 35  1  0
 34 68  1  0
 35 36  2  0
 35 69  1  0
 36 70  1  0
 37 38  1  0
 37 71  1  0
 37 72  1  0
 38 73  1  0
 38 74  1  0
M  CHG  1  22   1
M  END
>  <DOCK_score>  (1) 
-62.192635

>  <SMILES>  (1) 
CC=C[C@](O)(c1ccccc1)c1c(C)cccc1N1CC[NH+](C(c2ccccc2)c2ccccc2)CC1

$$$$
