CCCCNc1ccc(Nc2[nH]cc(-c3ccc(N)cc3)[nH+]2)cc1
     RDKit          3D

 48 50  0  0  1  0  0  0  0  0999 V2000
  128.3522  139.3795  165.7024 C   0  0  0  0  0  0  0  0  0  0  0  0
  127.7590  138.0213  165.3224 C   0  0  0  0  0  0  0  0  0  0  0  0
  127.3801  138.0269  163.8401 C   0  0  0  0  0  0  0  0  0  0  0  0
  126.7869  136.6688  163.4601 C   0  0  0  0  0  0  0  0  0  0  0  0
  126.4241  136.6743  162.0409 N   0  0  0  0  0  0  0  0  0  0  0  0
  127.3576  136.2731  161.0783 C   0  0  0  0  0  0  0  0  0  0  0  0
  126.9291  135.8778  159.8178 C   0  0  0  0  0  0  0  0  0  0  0  0
  127.8501  135.4816  158.8684 C   0  0  0  0  0  0  0  0  0  0  0  0
  129.2048  135.4785  159.1741 C   0  0  0  0  0  0  0  0  0  0  0  0
  130.1390  135.0767  158.2109 N   0  0  0  0  0  0  0  0  0  0  0  0
  130.0787  133.7997  157.6782 C   0  0  0  0  0  0  0  0  0  0  0  0
  129.6223  132.6919  158.3240 N   0  0  0  0  0  0  0  0  0  0  0  0
  129.2836  132.6549  159.2322 H   0  0  0  0  0  0  0  0  0  0  0  0
  129.7266  131.6362  157.4502 C   0  0  0  0  0  0  0  0  0  0  0  0
  130.2519  132.1275  156.3005 C   0  0  0  0  0  0  0  0  0  0  0  0
  130.5487  131.3485  155.0734 C   0  0  0  0  0  0  0  0  0  0  0  0
  129.9225  131.6740  153.8713 C   0  0  0  0  0  0  0  0  0  0  0  0
  130.2039  130.9518  152.7308 C   0  0  0  0  0  0  0  0  0  0  0  0
  131.1026  129.8935  152.7813 C   0  0  0  0  0  0  0  0  0  0  0  0
  131.3821  129.1598  151.6258 N   0  0  0  0  0  0  0  0  0  0  0  0
  131.7243  129.5633  153.9802 C   0  0  0  0  0  0  0  0  0  0  0  0
  131.4498  130.2861  155.1220 C   0  0  0  0  0  0  0  0  0  0  0  0
  130.4572  133.4573  156.4706 N   0  0  0  0  0  0  0  0  0  0  0  0
  130.8254  134.0591  155.8049 H   0  0  0  0  0  0  0  0  0  0  0  0
  129.6329  135.8685  160.4363 C   0  0  0  0  0  0  0  0  0  0  0  0
  128.7123  136.2700  161.3838 C   0  0  0  0  0  0  0  0  0  0  0  0
  127.6157  140.1618  165.5187 H   0  0  0  0  0  0  0  0  0  0  0  0
  128.6221  139.3754  166.7584 H   0  0  0  0  0  0  0  0  0  0  0  0
  129.2411  139.5689  165.1009 H   0  0  0  0  0  0  0  0  0  0  0  0
  126.8701  137.8319  165.9240 H   0  0  0  0  0  0  0  0  0  0  0  0
  128.4955  137.2390  165.5061 H   0  0  0  0  0  0  0  0  0  0  0  0
  128.2691  138.2163  163.2385 H   0  0  0  0  0  0  0  0  0  0  0  0
  126.6438  138.8093  163.6564 H   0  0  0  0  0  0  0  0  0  0  0  0
  125.8979  136.4795  164.0617 H   0  0  0  0  0  0  0  0  0  0  0  0
  127.5233  135.8864  163.6439 H   0  0  0  0  0  0  0  0  0  0  0  0
  125.5368  136.9559  161.7681 H   0  0  0  0  0  0  0  0  0  0  0  0
  125.8756  135.8805  159.5802 H   0  0  0  0  0  0  0  0  0  0  0  0
  127.5169  135.1738  157.8883 H   0  0  0  0  0  0  0  0  0  0  0  0
  130.8256  135.6942  157.9140 H   0  0  0  0  0  0  0  0  0  0  0  0
  129.4485  130.6107  157.6438 H   0  0  0  0  0  0  0  0  0  0  0  0
  129.2204  132.4936  153.8324 H   0  0  0  0  0  0  0  0  0  0  0  0
  129.7220  131.2063  151.7984 H   0  0  0  0  0  0  0  0  0  0  0  0
  132.0097  128.4205  151.6607 H   0  0  0  0  0  0  0  0  0  0  0  0
  130.9489  129.3890  150.7892 H   0  0  0  0  0  0  0  0  0  0  0  0
  132.4226  128.7402  154.0174 H   0  0  0  0  0  0  0  0  0  0  0  0
  131.9331  130.0295  156.0531 H   0  0  0  0  0  0  0  0  0  0  0  0
  130.6860  135.8615  160.6755 H   0  0  0  0  0  0  0  0  0  0  0  0
  129.0454  136.5772  162.3642 H   0  0  0  0  0  0  0  0  0  0  0  0
  1  2  1  0
  1 27  1  0
  1 28  1  0
  1 29  1  0
  2  3  1  0
  2 30  1  0
  2 31  1  0
  3  4  1  0
  3 32  1  0
  3 33  1  0
  4  5  1  0
  4 34  1  0
  4 35  1  0
  5  6  1  0
  5 36  1  0
  6 26  2  0
  6  7  1  0
  7  8  2  0
  7 37  1  0
  8  9  1  0
  8 38  1  0
  9 10  1  0
  9 25  2  0
 10 39  1  0
 11 10  1  0
 11 23  2  0
 11 12  1  0
 12 13  1  0
 12 14  1  0
 14 15  2  0
 14 40  1  0
 15 16  1  0
 15 23  1  0
 16 22  1  0
 16 17  2  0
 17 18  1  0
 17 41  1  0
 18 19  2  0
 18 42  1  0
 19 20  1  0
 19 21  1  0
 20 43  1  0
 20 44  1  0
 21 22  2  0
 21 45  1  0
 22 46  1  0
 23 24  1  0
 25 26  1  0
 25 47  1  0
 26 48  1  0
M  CHG  1  23   1
M  END
>  <DOCK_score>  (1) 
-54.58535

>  <SMILES>  (1) 
CCCCNc1ccc(Nc2[nH]cc(-c3ccc(N)cc3)[nH+]2)cc1

$$$$
