
     RDKit          2D

 37 42  0  0  0  0  0  0  0  0999 V2000
    1.5000    0.0000    0.0000 C   0  0  0  0  0  0  0  0  0  0  0  0
    0.7500   -1.2990    0.0000 C   0  0  0  0  0  0  0  0  0  0  0  0
   -0.7500   -1.2990    0.0000 C   0  0  0  0  0  0  0  0  0  0  0  0
   -1.5000    0.0000    0.0000 C   0  0  0  0  0  0  0  0  0  0  0  0
   -3.0000    0.0000    0.0000 C   0  0  0  0  0  0  0  0  0  0  0  0
   -3.7500    1.2990    0.0000 N   0  0  0  0  0  0  0  0  0  0  0  0
   -5.2418    1.4558    0.0000 C   0  0  0  0  0  0  0  0  0  0  0  0
   -5.5537    2.9231    0.0000 C   0  0  0  0  0  0  0  0  0  0  0  0
   -6.9240    3.5332    0.0000 C   0  0  0  0  0  0  0  0  0  0  0  0
   -8.1375    2.6515    0.0000 N   0  0  0  0  0  0  0  0  0  0  0  0
   -9.5078    3.2616    0.0000 C   0  0  0  0  0  0  0  0  0  0  0  0
  -10.8069    2.5116    0.0000 N   0  0  0  0  0  0  0  0  0  0  0  0
  -11.9216    3.5153    0.0000 C   0  0  0  0  0  0  0  0  0  0  0  0
  -11.3115    4.8856    0.0000 C   0  0  0  0  0  0  0  0  0  0  0  0
  -12.0615    6.1846    0.0000 C   0  0  0  0  0  0  0  0  0  0  0  0
  -11.3115    7.4837    0.0000 C   0  0  0  0  0  0  0  0  0  0  0  0
  -12.0615    8.7827    0.0000 C   0  0  0  0  0  0  0  0  0  0  0  0
  -13.5615    8.7827    0.0000 C   0  0  0  0  0  0  0  0  0  0  0  0
  -14.3115   10.0818    0.0000 C   0  0  0  0  0  0  0  0  0  0  0  0
  -13.5615   11.3808    0.0000 C   0  0  0  0  0  0  0  0  0  0  0  0
  -14.3115   12.6798    0.0000 C   0  0  0  0  0  0  0  0  0  0  0  0
  -15.8115   12.6798    0.0000 C   0  0  0  0  0  0  0  0  0  0  0  0
  -16.5615   11.3808    0.0000 C   0  0  0  0  0  0  0  0  0  0  0  0
  -15.8115   10.0818    0.0000 C   0  0  0  0  0  0  0  0  0  0  0  0
  -14.3115    7.4837    0.0000 C   0  0  0  0  0  0  0  0  0  0  0  0
  -13.5615    6.1846    0.0000 C   0  0  0  0  0  0  0  0  0  0  0  0
   -9.8197    4.7288    0.0000 N   0  0  0  0  0  0  0  0  0  0  0  0
   -7.0808    5.0249    0.0000 C   0  0  0  0  0  0  0  0  0  0  0  0
   -5.8672    5.9066    0.0000 C   0  0  0  0  0  0  0  0  0  0  0  0
   -6.0240    7.3984    0.0000 C   0  0  0  0  0  0  0  0  0  0  0  0
   -7.3943    8.0085    0.0000 C   0  0  0  0  0  0  0  0  0  0  0  0
   -8.6079    7.1268    0.0000 C   0  0  0  0  0  0  0  0  0  0  0  0
   -8.4511    5.6350    0.0000 C   0  0  0  0  0  0  0  0  0  0  0  0
   -4.2546    3.6731    0.0000 C   0  0  0  0  0  0  0  0  0  0  0  0
   -3.1399    2.6694    0.0000 N   0  0  0  0  0  0  0  0  0  0  0  0
   -0.7500    1.2990    0.0000 C   0  0  0  0  0  0  0  0  0  0  0  0
    0.7500    1.2990    0.0000 C   0  0  0  0  0  0  0  0  0  0  0  0
  1  2  2  0
  2  3  1  0
  3  4  2  0
  4  5  1  0
  5  6  1  0
  6  7  1  0
  7  8  2  0
  8  9  1  0
  9 10  1  0
 10 11  1  0
 11 12  2  0
 12 13  1  0
 13 14  2  0
 14 15  1  0
 15 16  2  0
 16 17  1  0
 17 18  2  0
 18 19  1  0
 19 20  2  0
 20 21  1  0
 21 22  2  0
 22 23  1  0
 23 24  2  0
 18 25  1  0
 25 26  2  0
 14 27  1  0
  9 28  1  0
 28 29  2  0
 29 30  1  0
 30 31  2  0
 31 32  1  0
 32 33  2  0
  8 34  1  0
 34 35  2  0
  4 36  1  0
 36 37  2  0
 37  1  1  0
 35  6  1  0
 27 11  1  0
 33 28  1  0
 26 15  1  0
 24 19  1  0
M  END
$$$$
