Cc1ccc(Nc2cc(Nc3[nH]c4ccccc4[nH+]3)cc(NC[C@@H]3CC3(F)F)c2Cl)cc1
     RDKit          3D

 55 59  0  0  1  0  0  0  0  0999 V2000
  134.7785  140.3944  163.7102 C   0  0  0  0  0  0  0  0  0  0  0  0
  133.3473  140.0353  163.4044 C   0  0  0  0  0  0  0  0  0  0  0  0
  132.8256  138.8364  163.8546 C   0  0  0  0  0  0  0  0  0  0  0  0
  131.5143  138.5041  163.5762 C   0  0  0  0  0  0  0  0  0  0  0  0
  130.7194  139.3756  162.8423 C   0  0  0  0  0  0  0  0  0  0  0  0
  129.3927  139.0425  162.5583 N   0  0  0  0  0  0  0  0  0  0  0  0
  129.1034  137.8867  161.8275 C   0  0  0  0  0  0  0  0  0  0  0  0
  130.0077  137.4172  160.8838 C   0  0  0  0  0  0  0  0  0  0  0  0
  129.7206  136.2693  160.1585 C   0  0  0  0  0  0  0  0  0  0  0  0
  130.6316  135.7969  159.2077 N   0  0  0  0  0  0  0  0  0  0  0  0
  130.7107  134.4490  158.9406 C   0  0  0  0  0  0  0  0  0  0  0  0
  131.0503  133.9233  157.7656 N   0  0  0  0  0  0  0  0  0  0  0  0
  131.2795  134.4223  156.9661 H   0  0  0  0  0  0  0  0  0  0  0  0
  131.0239  132.5583  157.8778 C   0  0  0  0  0  0  0  0  0  0  0  0
  131.2842  131.5142  156.9948 C   0  0  0  0  0  0  0  0  0  0  0  0
  131.1602  130.2096  157.4211 C   0  0  0  0  0  0  0  0  0  0  0  0
  130.7774  129.9288  158.7246 C   0  0  0  0  0  0  0  0  0  0  0  0
  130.5154  130.9504  159.6115 C   0  0  0  0  0  0  0  0  0  0  0  0
  130.6363  132.2739  159.1976 C   0  0  0  0  0  0  0  0  0  0  0  0
  130.4534  133.4815  159.8180 N   0  0  0  0  0  0  0  0  0  0  0  0
  130.1827  133.6098  160.7405 H   0  0  0  0  0  0  0  0  0  0  0  0
  128.5271  135.5928  160.3722 C   0  0  0  0  0  0  0  0  0  0  0  0
  127.6252  136.0584  161.3191 C   0  0  0  0  0  0  0  0  0  0  0  0
  126.4264  135.3744  161.5378 N   0  0  0  0  0  0  0  0  0  0  0  0
  126.1215  134.1659  160.7679 C   0  0  0  0  0  0  0  0  0  0  0  0
  124.7598  133.6170  161.1983 C   0  0  2  0  0  0  0  0  0  0  0  0
  123.9152  134.2916  161.0579 H   0  0  0  0  0  0  0  0  0  0  0  0
  124.7253  132.6839  162.4104 C   0  0  0  0  0  0  0  0  0  0  0  0
  124.5082  132.1203  161.0046 C   0  0  0  0  0  0  0  0  0  0  0  0
  123.2117  131.7223  160.6613 F   0  0  0  0  0  0  0  0  0  0  0  0
  125.5409  131.3584  160.4475 F   0  0  0  0  0  0  0  0  0  0  0  0
  127.9119  137.2072  162.0453 C   0  0  0  0  0  0  0  0  0  0  0  0
  126.7808  137.7939  163.2244 Cl  0  0  0  0  0  0  0  0  0  0  0  0
  131.2485  140.5768  162.3866 C   0  0  0  0  0  0  0  0  0  0  0  0
  132.5588  140.9052  162.6737 C   0  0  0  0  0  0  0  0  0  0  0  0
  135.4243  140.0236  162.9143 H   0  0  0  0  0  0  0  0  0  0  0  0
  134.8742  141.4780  163.7805 H   0  0  0  0  0  0  0  0  0  0  0  0
  135.0724  139.9416  164.6572 H   0  0  0  0  0  0  0  0  0  0  0  0
  133.4441  138.1592  164.4251 H   0  0  0  0  0  0  0  0  0  0  0  0
  131.1076  137.5676  163.9282 H   0  0  0  0  0  0  0  0  0  0  0  0
  128.6724  139.6133  162.8684 H   0  0  0  0  0  0  0  0  0  0  0  0
  130.9345  137.9452  160.7147 H   0  0  0  0  0  0  0  0  0  0  0  0
  131.2102  136.4189  158.7396 H   0  0  0  0  0  0  0  0  0  0  0  0
  131.5825  131.7259  155.9786 H   0  0  0  0  0  0  0  0  0  0  0  0
  131.3619  129.4000  156.7353 H   0  0  0  0  0  0  0  0  0  0  0  0
  130.6833  128.9022  159.0464 H   0  0  0  0  0  0  0  0  0  0  0  0
  130.2182  130.7249  160.6250 H   0  0  0  0  0  0  0  0  0  0  0  0
  128.3025  134.7020  159.8047 H   0  0  0  0  0  0  0  0  0  0  0  0
  125.7961  135.6998  162.1995 H   0  0  0  0  0  0  0  0  0  0  0  0
  126.0961  134.4088  159.7056 H   0  0  0  0  0  0  0  0  0  0  0  0
  126.8902  133.4152  160.9507 H   0  0  0  0  0  0  0  0  0  0  0  0
  125.6727  132.4612  162.9011 H   0  0  0  0  0  0  0  0  0  0  0  0
  123.8580  132.7447  163.0677 H   0  0  0  0  0  0  0  0  0  0  0  0
  130.6345  141.2545  161.8121 H   0  0  0  0  0  0  0  0  0  0  0  0
  132.9695  141.8407  162.3232 H   0  0  0  0  0  0  0  0  0  0  0  0
  1  2  1  0
  1 36  1  0
  1 37  1  0
  1 38  1  0
  2 35  2  0
  2  3  1  0
  3  4  2  0
  3 39  1  0
  4  5  1  0
  4 40  1  0
  5  6  1  0
  5 34  2  0
  6  7  1  0
  6 41  1  0
  7 32  1  0
  7  8  2  0
  8  9  1  0
  8 42  1  0
  9 10  1  0
  9 22  2  0
 10 11  1  0
 10 43  1  0
 11 20  1  0
 11 12  2  0
 12 13  1  0
 12 14  1  0
 14 19  2  0
 14 15  1  0
 15 16  2  0
 15 44  1  0
 16 17  1  0
 16 45  1  0
 17 18  2  0
 17 46  1  0
 18 19  1  0
 18 47  1  0
 19 20  1  0
 20 21  1  0
 22 23  1  0
 22 48  1  0
 23 24  1  0
 23 32  2  0
 24 25  1  0
 24 49  1  0
 25 26  1  0
 25 50  1  0
 25 51  1  0
 26 27  1  1
 26 29  1  0
 26 28  1  0
 28 29  1  0
 28 52  1  0
 28 53  1  0
 29 30  1  0
 29 31  1  0
 32 33  1  0
 34 35  1  0
 34 54  1  0
 35 55  1  0
M  CHG  1  12   1
M  END
>  <DOCK_score>  (1) 
-51.569176

>  <SMILES>  (1) 
Cc1ccc(Nc2cc(Nc3[nH]c4ccccc4[nH+]3)cc(NC[C@@H]3CC3(F)F)c2Cl)cc1

$$$$
