Cn1nccc1C[C@@H](Nc1[nH]cc(-c2ccc(C(F)(F)F)cc2)[nH+]1)C1=CCCCC1
     RDKit          3D

 55 58  0  0  1  0  0  0  0  0999 V2000
  126.9678  134.8854  161.6177 C   0  0  0  0  0  0  0  0  0  0  0  0
  127.1579  135.4092  160.2628 N   0  0  0  0  0  0  0  0  0  0  0  0
  126.2361  135.3282  159.2110 N   0  0  0  0  0  0  0  0  0  0  0  0
  126.7636  135.9019  158.1601 C   0  0  0  0  0  0  0  0  0  0  0  0
  128.0343  136.3705  158.5097 C   0  0  0  0  0  0  0  0  0  0  0  0
  128.2507  136.0575  159.8083 C   0  0  0  0  0  0  0  0  0  0  0  0
  129.4923  136.3709  160.6027 C   0  0  0  0  0  0  0  0  0  0  0  0
  130.4900  135.2189  160.4653 C   0  0  1  0  0  0  0  0  0  0  0  0
  130.0392  134.3011  160.8426 H   0  0  0  0  0  0  0  0  0  0  0  0
  130.8437  135.0451  159.0544 N   0  0  0  0  0  0  0  0  0  0  0  0
  130.5875  133.8418  158.4197 C   0  0  0  0  0  0  0  0  0  0  0  0
  130.0141  132.7491  158.9938 N   0  0  0  0  0  0  0  0  0  0  0  0
  129.7145  132.6739  159.9133 H   0  0  0  0  0  0  0  0  0  0  0  0
  129.9386  131.7722  158.0309 C   0  0  0  0  0  0  0  0  0  0  0  0
  130.4622  132.2974  156.8956 C   0  0  0  0  0  0  0  0  0  0  0  0
  130.5847  131.6054  155.5892 C   0  0  0  0  0  0  0  0  0  0  0  0
  129.9448  132.1193  154.4628 C   0  0  0  0  0  0  0  0  0  0  0  0
  130.0670  131.4743  153.2487 C   0  0  0  0  0  0  0  0  0  0  0  0
  130.8136  130.3134  153.1514 C   0  0  0  0  0  0  0  0  0  0  0  0
  130.9392  129.6109  151.8241 C   0  0  0  0  0  0  0  0  0  0  0  0
  130.2192  130.3163  150.8532 F   0  0  0  0  0  0  0  0  0  0  0  0
  132.2866  129.5517  151.4529 F   0  0  0  0  0  0  0  0  0  0  0  0
  130.4275  128.3139  151.9332 F   0  0  0  0  0  0  0  0  0  0  0  0
  131.4464  129.7963  154.2671 C   0  0  0  0  0  0  0  0  0  0  0  0
  131.3356  130.4358  155.4850 C   0  0  0  0  0  0  0  0  0  0  0  0
  130.8571  133.5668  157.1668 N   0  0  0  0  0  0  0  0  0  0  0  0
  131.2692  134.1752  156.5336 H   0  0  0  0  0  0  0  0  0  0  0  0
  131.7317  135.5323  161.2596 C   0  0  0  0  0  0  0  0  0  0  0  0
  131.7731  135.1521  162.4962 C   0  0  0  0  0  0  0  0  0  0  0  0
  132.9364  135.3959  163.4123 C   0  0  0  0  0  0  0  0  0  0  0  0
  134.1806  135.7622  162.6005 C   0  0  0  0  0  0  0  0  0  0  0  0
  133.8019  136.8636  161.6024 C   0  0  0  0  0  0  0  0  0  0  0  0
  132.8407  136.2711  160.5696 C   0  0  0  0  0  0  0  0  0  0  0  0
  126.5092  135.6519  162.2424 H   0  0  0  0  0  0  0  0  0  0  0  0
  126.3192  134.0101  161.5812 H   0  0  0  0  0  0  0  0  0  0  0  0
  127.9339  134.6047  162.0375 H   0  0  0  0  0  0  0  0  0  0  0  0
  126.2984  135.9968  157.1900 H   0  0  0  0  0  0  0  0  0  0  0  0
  128.7214  136.8901  157.8583 H   0  0  0  0  0  0  0  0  0  0  0  0
  129.2291  136.5002  161.6525 H   0  0  0  0  0  0  0  0  0  0  0  0
  129.9432  137.2889  160.2254 H   0  0  0  0  0  0  0  0  0  0  0  0
  131.2576  135.7731  158.5647 H   0  0  0  0  0  0  0  0  0  0  0  0
  129.5347  130.7781  158.1533 H   0  0  0  0  0  0  0  0  0  0  0  0
  129.3580  133.0227  154.5388 H   0  0  0  0  0  0  0  0  0  0  0  0
  129.5755  131.8742  152.3742 H   0  0  0  0  0  0  0  0  0  0  0  0
  132.0279  128.8900  154.1851 H   0  0  0  0  0  0  0  0  0  0  0  0
  131.8298  130.0308  156.3557 H   0  0  0  0  0  0  0  0  0  0  0  0
  130.9189  134.6231  162.8923 H   0  0  0  0  0  0  0  0  0  0  0  0
  133.1363  134.4958  163.9937 H   0  0  0  0  0  0  0  0  0  0  0  0
  132.6917  136.2154  164.0882 H   0  0  0  0  0  0  0  0  0  0  0  0
  134.5371  134.8850  162.0603 H   0  0  0  0  0  0  0  0  0  0  0  0
  134.9605  136.1262  163.2693 H   0  0  0  0  0  0  0  0  0  0  0  0
  134.6986  137.2284  161.1016 H   0  0  0  0  0  0  0  0  0  0  0  0
  133.3136  137.6834  162.1294 H   0  0  0  0  0  0  0  0  0  0  0  0
  133.3849  135.5834  159.9223 H   0  0  0  0  0  0  0  0  0  0  0  0
  132.4187  137.0748  159.9660 H   0  0  0  0  0  0  0  0  0  0  0  0
  1  2  1  0
  1 34  1  0
  1 35  1  0
  1 36  1  0
  2  6  1  0
  2  3  1  0
  3  4  2  0
  4  5  1  0
  4 37  1  0
  5  6  2  0
  5 38  1  0
  6  7  1  0
  7  8  1  0
  7 39  1  0
  7 40  1  0
  8  9  1  1
  8 10  1  0
  8 28  1  0
 10 41  1  0
 11 10  1  0
 11 26  2  0
 11 12  1  0
 12 13  1  0
 12 14  1  0
 14 15  2  0
 14 42  1  0
 15 16  1  0
 15 26  1  0
 16 25  1  0
 16 17  2  0
 17 18  1  0
 17 43  1  0
 18 19  2  0
 18 44  1  0
 19 20  1  0
 19 24  1  0
 20 21  1  0
 20 22  1  0
 20 23  1  0
 24 25  2  0
 24 45  1  0
 25 46  1  0
 26 27  1  0
 28 33  1  0
 28 29  2  0
 29 30  1  0
 29 47  1  0
 30 31  1  0
 30 48  1  0
 30 49  1  0
 31 32  1  0
 31 50  1  0
 31 51  1  0
 32 33  1  0
 32 52  1  0
 32 53  1  0
 33 54  1  0
 33 55  1  0
M  CHG  1  26   1
M  END
>  <DOCK_score>  (1) 
-58.958817

>  <SMILES>  (1) 
Cn1nccc1C[C@@H](Nc1[nH]cc(-c2ccc(C(F)(F)F)cc2)[nH+]1)C1=CCCCC1

$$$$
