Oc1ccc(Sc2ccc3[nH]cc(Cl)c3c2)c(Nc2[nH]cc(-c3ccccc3)[nH+]2)c1
     RDKit          3D

 48 52  0  0  1  0  0  0  0  0999 V2000
  126.2385  133.8111  160.9381 O   0  0  0  0  0  0  0  0  0  0  0  0
  127.3198  133.2385  160.3443 C   0  0  0  0  0  0  0  0  0  0  0  0
  127.2720  131.9079  159.9543 C   0  0  0  0  0  0  0  0  0  0  0  0
  128.3684  131.3220  159.3502 C   0  0  0  0  0  0  0  0  0  0  0  0
  129.5188  132.0648  159.1281 C   0  0  0  0  0  0  0  0  0  0  0  0
  130.9142  131.3195  158.3525 S   0  0  0  0  0  0  0  0  0  0  0  0
  130.6263  131.6244  156.6411 C   0  0  0  0  0  0  0  0  0  0  0  0
  129.9242  132.7632  156.2464 C   0  0  0  0  0  0  0  0  0  0  0  0
  129.6914  133.0159  154.9138 C   0  0  0  0  0  0  0  0  0  0  0  0
  130.1577  132.1320  153.9456 C   0  0  0  0  0  0  0  0  0  0  0  0
  130.0846  132.1127  152.5685 N   0  0  0  0  0  0  0  0  0  0  0  0
  129.6498  132.7874  152.0237 H   0  0  0  0  0  0  0  0  0  0  0  0
  130.7175  130.9986  152.0848 C   0  0  0  0  0  0  0  0  0  0  0  0
  131.2106  130.2748  153.1029 C   0  0  0  0  0  0  0  0  0  0  0  0
  132.0906  128.7836  152.9782 Cl  0  0  0  0  0  0  0  0  0  0  0  0
  130.8657  130.9823  154.3390 C   0  0  0  0  0  0  0  0  0  0  0  0
  131.1021  130.7370  155.6933 C   0  0  0  0  0  0  0  0  0  0  0  0
  129.5706  133.4015  159.5239 C   0  0  0  0  0  0  0  0  0  0  0  0
  130.7311  134.1536  159.3052 N   0  0  0  0  0  0  0  0  0  0  0  0
  131.0604  135.1855  160.1681 C   0  0  0  0  0  0  0  0  0  0  0  0
  130.7515  135.2407  161.4927 N   0  0  0  0  0  0  0  0  0  0  0  0
  130.2658  134.5701  161.9978 H   0  0  0  0  0  0  0  0  0  0  0  0
  131.2552  136.4209  161.9820 C   0  0  0  0  0  0  0  0  0  0  0  0
  131.8621  137.0500  160.9449 C   0  0  0  0  0  0  0  0  0  0  0  0
  132.5544  138.3607  161.0035 C   0  0  0  0  0  0  0  0  0  0  0  0
  133.6248  138.6250  160.1510 C   0  0  0  0  0  0  0  0  0  0  0  0
  134.2612  139.8484  160.2056 C   0  0  0  0  0  0  0  0  0  0  0  0
  133.8461  140.8069  161.1124 C   0  0  0  0  0  0  0  0  0  0  0  0
  132.7882  140.5478  161.9651 C   0  0  0  0  0  0  0  0  0  0  0  0
  132.1404  139.3302  161.9151 C   0  0  0  0  0  0  0  0  0  0  0  0
  131.7210  136.2705  159.8440 N   0  0  0  0  0  0  0  0  0  0  0  0
  132.0587  136.4801  158.9592 H   0  0  0  0  0  0  0  0  0  0  0  0
  128.4680  133.9855  160.1293 C   0  0  0  0  0  0  0  0  0  0  0  0
  126.3656  134.7403  161.1738 H   0  0  0  0  0  0  0  0  0  0  0  0
  126.3761  131.3289  160.1229 H   0  0  0  0  0  0  0  0  0  0  0  0
  128.3282  130.2861  159.0474 H   0  0  0  0  0  0  0  0  0  0  0  0
  129.5601  133.4531  156.9934 H   0  0  0  0  0  0  0  0  0  0  0  0
  129.1470  133.9009  154.6193 H   0  0  0  0  0  0  0  0  0  0  0  0
  130.8072  130.7407  151.0399 H   0  0  0  0  0  0  0  0  0  0  0  0
  131.6499  129.8577  155.9987 H   0  0  0  0  0  0  0  0  0  0  0  0
  131.3044  133.9516  158.5492 H   0  0  0  0  0  0  0  0  0  0  0  0
  131.1855  136.7777  162.9990 H   0  0  0  0  0  0  0  0  0  0  0  0
  133.9529  137.8754  159.4459 H   0  0  0  0  0  0  0  0  0  0  0  0
  135.0876  140.0563  159.5421 H   0  0  0  0  0  0  0  0  0  0  0  0
  134.3496  141.7615  161.1546 H   0  0  0  0  0  0  0  0  0  0  0  0
  132.4682  141.2999  162.6712 H   0  0  0  0  0  0  0  0  0  0  0  0
  131.3141  139.1292  162.5808 H   0  0  0  0  0  0  0  0  0  0  0  0
  128.5038  135.0211  160.4334 H   0  0  0  0  0  0  0  0  0  0  0  0
  1  2  1  0
  1 34  1  0
  2 33  2  0
  2  3  1  0
  3  4  2  0
  3 35  1  0
  4  5  1  0
  4 36  1  0
  5  6  1  0
  5 18  2  0
  6  7  1  0
  7 17  1  0
  7  8  2  0
  8  9  1  0
  8 37  1  0
  9 10  2  0
  9 38  1  0
 10 16  1  0
 10 11  1  0
 11 12  1  0
 11 13  1  0
 13 14  2  0
 13 39  1  0
 14 15  1  0
 14 16  1  0
 16 17  2  0
 17 40  1  0
 18 19  1  0
 18 33  1  0
 19 41  1  0
 20 19  1  0
 20 31  2  0
 20 21  1  0
 21 22  1  0
 21 23  1  0
 23 24  2  0
 23 42  1  0
 24 25  1  0
 24 31  1  0
 25 30  1  0
 25 26  2  0
 26 27  1  0
 26 43  1  0
 27 28  2  0
 27 44  1  0
 28 29  1  0
 28 45  1  0
 29 30  2  0
 29 46  1  0
 30 47  1  0
 31 32  1  0
 33 48  1  0
M  CHG  1  31   1
M  END
>  <DOCK_score>  (1) 
-59.33223

>  <SMILES>  (1) 
Oc1ccc(Sc2ccc3[nH]cc(Cl)c3c2)c(Nc2[nH]cc(-c3ccccc3)[nH+]2)c1

$$$$
