Cc1nn(-c2ccc(F)cc2)cc1C[NH2+][C@@H]1CCC=C1Nc1nc(-c2ccc(N)cc2)c[nH]1
     RDKit          3D

 60 64  0  0  1  0  0  0  0  0999 V2000
  126.5641  135.4335  162.9700 C   0  0  0  0  0  0  0  0  0  0  0  0
  127.1886  136.6883  163.5238 C   0  0  0  0  0  0  0  0  0  0  0  0
  126.5712  137.8223  163.7381 N   0  0  0  0  0  0  0  0  0  0  0  0
  127.4993  138.7354  164.2549 N   0  0  0  0  0  0  0  0  0  0  0  0
  127.2371  140.0659  164.6123 C   0  0  0  0  0  0  0  0  0  0  0  0
  128.2543  140.8625  165.1204 C   0  0  0  0  0  0  0  0  0  0  0  0
  127.9954  142.1741  165.4668 C   0  0  0  0  0  0  0  0  0  0  0  0
  126.7195  142.6916  165.3177 C   0  0  0  0  0  0  0  0  0  0  0  0
  126.4669  143.9734  165.6621 F   0  0  0  0  0  0  0  0  0  0  0  0
  125.7022  141.8967  164.8167 C   0  0  0  0  0  0  0  0  0  0  0  0
  125.9586  140.5864  164.4642 C   0  0  0  0  0  0  0  0  0  0  0  0
  128.6942  138.1086  164.3425 C   0  0  0  0  0  0  0  0  0  0  0  0
  128.5284  136.8417  163.8963 C   0  0  0  0  0  0  0  0  0  0  0  0
  129.5978  135.7833  163.8153 C   0  0  0  0  0  0  0  0  0  0  0  0
  130.2558  135.8513  162.5037 N   0  0  0  0  0  0  0  0  0  0  0  0
  129.5734  135.6962  161.7767 H   0  0  0  0  0  0  0  0  0  0  0  0
  130.6738  136.7616  162.3839 H   0  0  0  0  0  0  0  0  0  0  0  0
  131.2984  134.8195  162.4247 C   0  0  2  0  0  0  0  0  0  0  0  0
  130.8616  133.8291  162.5524 H   0  0  0  0  0  0  0  0  0  0  0  0
  132.3861  135.0702  163.4945 C   0  0  0  0  0  0  0  0  0  0  0  0
  133.6659  134.6391  162.7419 C   0  0  0  0  0  0  0  0  0  0  0  0
  133.3285  134.8099  161.2787 C   0  0  0  0  0  0  0  0  0  0  0  0
  132.0283  134.9089  161.1046 C   0  0  0  0  0  0  0  0  0  0  0  0
  131.4086  135.0737  159.8710 N   0  0  0  0  0  0  0  0  0  0  0  0
  130.1346  134.5704  159.6630 C   0  0  0  0  0  0  0  0  0  0  0  0
  129.4153  133.9235  160.5477 N   0  0  0  0  0  0  0  0  0  0  0  0
  128.2259  133.5846  159.9916 C   0  0  0  0  0  0  0  0  0  0  0  0
  127.1286  132.8439  160.6611 C   0  0  0  0  0  0  0  0  0  0  0  0
  125.8038  133.0780  160.2959 C   0  0  0  0  0  0  0  0  0  0  0  0
  124.7860  132.3843  160.9156 C   0  0  0  0  0  0  0  0  0  0  0  0
  125.0793  131.4601  161.9114 C   0  0  0  0  0  0  0  0  0  0  0  0
  124.0461  130.7623  162.5416 N   0  0  0  0  0  0  0  0  0  0  0  0
  126.3990  131.2296  162.2816 C   0  0  0  0  0  0  0  0  0  0  0  0
  127.4204  131.9169  161.6606 C   0  0  0  0  0  0  0  0  0  0  0  0
  128.2168  134.0424  158.7150 C   0  0  0  0  0  0  0  0  0  0  0  0
  129.4212  134.6711  158.5083 N   0  0  0  0  0  0  0  0  0  0  0  0
  129.7103  135.1045  157.6902 H   0  0  0  0  0  0  0  0  0  0  0  0
  126.6438  135.4372  161.8829 H   0  0  0  0  0  0  0  0  0  0  0  0
  127.0832  134.5625  163.3695 H   0  0  0  0  0  0  0  0  0  0  0  0
  125.5132  135.3935  163.2570 H   0  0  0  0  0  0  0  0  0  0  0  0
  129.2485  140.4581  165.2405 H   0  0  0  0  0  0  0  0  0  0  0  0
  128.7874  142.7953  165.8581 H   0  0  0  0  0  0  0  0  0  0  0  0
  124.7078  142.3021  164.7012 H   0  0  0  0  0  0  0  0  0  0  0  0
  125.1648  139.9667  164.0737 H   0  0  0  0  0  0  0  0  0  0  0  0
  129.6157  138.5416  164.7029 H   0  0  0  0  0  0  0  0  0  0  0  0
  130.3351  135.9507  164.6007 H   0  0  0  0  0  0  0  0  0  0  0  0
  129.1463  134.7997  163.9448 H   0  0  0  0  0  0  0  0  0  0  0  0
  132.4297  136.1245  163.7678 H   0  0  0  0  0  0  0  0  0  0  0  0
  132.2205  134.4473  164.3737 H   0  0  0  0  0  0  0  0  0  0  0  0
  134.5022  135.2822  163.0160 H   0  0  0  0  0  0  0  0  0  0  0  0
  133.9006  133.5968  162.9581 H   0  0  0  0  0  0  0  0  0  0  0  0
  134.0575  134.8457  160.4826 H   0  0  0  0  0  0  0  0  0  0  0  0
  131.8682  135.5412  159.1561 H   0  0  0  0  0  0  0  0  0  0  0  0
  125.5751  133.7993  159.5252 H   0  0  0  0  0  0  0  0  0  0  0  0
  123.7598  132.5621  160.6297 H   0  0  0  0  0  0  0  0  0  0  0  0
  124.2500  130.1175  163.2369 H   0  0  0  0  0  0  0  0  0  0  0  0
  123.1248  130.9227  162.2838 H   0  0  0  0  0  0  0  0  0  0  0  0
  126.6246  130.5114  163.0558 H   0  0  0  0  0  0  0  0  0  0  0  0
  128.4457  131.7370  161.9479 H   0  0  0  0  0  0  0  0  0  0  0  0
  127.4146  133.9376  157.9994 H   0  0  0  0  0  0  0  0  0  0  0  0
  1  2  1  0
  1 38  1  0
  1 39  1  0
  1 40  1  0
  2 13  1  0
  2  3  2  0
  3  4  1  0
  4  5  1  0
  4 12  1  0
  5 11  1  0
  5  6  2  0
  6  7  1  0
  6 41  1  0
  7  8  2  0
  7 42  1  0
  8  9  1  0
  8 10  1  0
 10 11  2  0
 10 43  1  0
 11 44  1  0
 12 13  2  0
 12 45  1  0
 13 14  1  0
 14 15  1  0
 14 46  1  0
 14 47  1  0
 15 16  1  0
 15 17  1  0
 15 18  1  0
 18 19  1  1
 18 23  1  0
 18 20  1  0
 20 21  1  0
 20 48  1  0
 20 49  1  0
 21 22  1  0
 21 50  1  0
 21 51  1  0
 22 23  2  0
 22 52  1  0
 23 24  1  0
 24 25  1  0
 24 53  1  0
 25 36  1  0
 25 26  2  0
 26 27  1  0
 27 28  1  0
 27 35  2  0
 28 34  1  0
 28 29  2  0
 29 30  1  0
 29 54  1  0
 30 31  2  0
 30 55  1  0
 31 32  1  0
 31 33  1  0
 32 56  1  0
 32 57  1  0
 33 34  2  0
 33 58  1  0
 34 59  1  0
 35 36  1  0
 35 60  1  0
 36 37  1  0
M  CHG  1  15   1
M  END
>  <DOCK_score>  (1) 
-46.24889

>  <SMILES>  (1) 
Cc1nn(-c2ccc(F)cc2)cc1C[NH2+][C@@H]1CCC=C1Nc1nc(-c2ccc(N)cc2)c[nH]1

$$$$
