CCOC(=O)/C=C/[C@H](Nc1[nH]cc(-c2ccc(C(F)(F)F)cc2)[nH+]1)c1ccccc1
     RDKit          3D

 51 53  0  0  1  0  0  0  0  0999 V2000
  132.7282  140.3200  163.0721 C   0  0  0  0  0  0  0  0  0  0  0  0
  131.3825  139.8709  163.6451 C   0  0  0  0  0  0  0  0  0  0  0  0
  131.0864  138.5251  163.1873 O   0  0  0  0  0  0  0  0  0  0  0  0
  130.4015  138.4085  162.0321 C   0  0  0  0  0  0  0  0  0  0  0  0
  130.0613  139.4043  161.4242 O   0  0  0  0  0  0  0  0  0  0  0  0
  130.0663  137.0772  161.5079 C   0  0  0  0  0  0  0  0  0  0  0  0
  129.3901  136.9620  160.3675 C   0  0  0  0  0  0  0  0  0  0  0  0
  129.0465  135.5968  159.8298 C   0  0  2  0  0  0  0  0  0  0  0  0
  128.9262  134.8995  160.6590 H   0  0  0  0  0  0  0  0  0  0  0  0
  130.1239  135.1316  158.9530 N   0  0  0  0  0  0  0  0  0  0  0  0
  130.0312  133.8945  158.3388 C   0  0  0  0  0  0  0  0  0  0  0  0
  129.3791  132.8089  158.8372 N   0  0  0  0  0  0  0  0  0  0  0  0
  128.8969  132.7642  159.6776 H   0  0  0  0  0  0  0  0  0  0  0  0
  129.5248  131.7899  157.9275 C   0  0  0  0  0  0  0  0  0  0  0  0
  130.2611  132.2815  156.9004 C   0  0  0  0  0  0  0  0  0  0  0  0
  130.6699  131.5368  155.6845 C   0  0  0  0  0  0  0  0  0  0  0  0
  130.2669  131.9781  154.4254 C   0  0  0  0  0  0  0  0  0  0  0  0
  130.6546  131.2842  153.2972 C   0  0  0  0  0  0  0  0  0  0  0  0
  131.4326  130.1470  153.4148 C   0  0  0  0  0  0  0  0  0  0  0  0
  131.8473  129.3898  152.1795 C   0  0  0  0  0  0  0  0  0  0  0  0
  131.3290  130.0258  151.0469 F   0  0  0  0  0  0  0  0  0  0  0  0
  133.2439  129.3581  152.0992 F   0  0  0  0  0  0  0  0  0  0  0  0
  131.3548  128.0818  152.2467 F   0  0  0  0  0  0  0  0  0  0  0  0
  131.8306  129.7005  154.6626 C   0  0  0  0  0  0  0  0  0  0  0  0
  131.4537  130.3897  155.7973 C   0  0  0  0  0  0  0  0  0  0  0  0
  130.5570  133.5755  157.1814 N   0  0  0  0  0  0  0  0  0  0  0  0
  131.0746  134.1697  156.6157 H   0  0  0  0  0  0  0  0  0  0  0  0
  127.7605  135.6740  159.0481 C   0  0  0  0  0  0  0  0  0  0  0  0
  126.5510  135.4675  159.6849 C   0  0  0  0  0  0  0  0  0  0  0  0
  125.3711  135.5423  158.9688 C   0  0  0  0  0  0  0  0  0  0  0  0
  125.4011  135.8153  157.6139 C   0  0  0  0  0  0  0  0  0  0  0  0
  126.6108  136.0166  156.9759 C   0  0  0  0  0  0  0  0  0  0  0  0
  127.7904  135.9457  157.6930 C   0  0  0  0  0  0  0  0  0  0  0  0
  132.6813  140.3088  161.9831 H   0  0  0  0  0  0  0  0  0  0  0  0
  132.9505  141.3303  163.4156 H   0  0  0  0  0  0  0  0  0  0  0  0
  133.5114  139.6410  163.4091 H   0  0  0  0  0  0  0  0  0  0  0  0
  130.5993  140.5499  163.3081 H   0  0  0  0  0  0  0  0  0  0  0  0
  131.4295  139.8822  164.7340 H   0  0  0  0  0  0  0  0  0  0  0  0
  130.3688  136.1922  162.0482 H   0  0  0  0  0  0  0  0  0  0  0  0
  129.0877  137.8470  159.8273 H   0  0  0  0  0  0  0  0  0  0  0  0
  130.9024  135.6907  158.8029 H   0  0  0  0  0  0  0  0  0  0  0  0
  129.1285  130.7890  158.0138 H   0  0  0  0  0  0  0  0  0  0  0  0
  129.6558  132.8637  154.3324 H   0  0  0  0  0  0  0  0  0  0  0  0
  130.3467  131.6277  152.3207 H   0  0  0  0  0  0  0  0  0  0  0  0
  132.4381  128.8116  154.7488 H   0  0  0  0  0  0  0  0  0  0  0  0
  131.7650  130.0407  156.7708 H   0  0  0  0  0  0  0  0  0  0  0  0
  126.5278  135.2509  160.7426 H   0  0  0  0  0  0  0  0  0  0  0  0
  124.4259  135.3848  159.4670 H   0  0  0  0  0  0  0  0  0  0  0  0
  124.4793  135.8711  157.0537 H   0  0  0  0  0  0  0  0  0  0  0  0
  126.6342  136.2294  155.9174 H   0  0  0  0  0  0  0  0  0  0  0  0
  128.7356  136.1029  157.1946 H   0  0  0  0  0  0  0  0  0  0  0  0
  1  2  1  0
  1 34  1  0
  1 35  1  0
  1 36  1  0
  2  3  1  0
  2 37  1  0
  2 38  1  0
  3  4  1  0
  4  5  2  0
  4  6  1  0
  6  7  2  0
  6 39  1  0
  7  8  1  0
  7 40  1  0
  8  9  1  1
  8 10  1  0
  8 28  1  0
 10 41  1  0
 11 10  1  0
 11 26  2  0
 11 12  1  0
 12 13  1  0
 12 14  1  0
 14 15  2  0
 14 42  1  0
 15 16  1  0
 15 26  1  0
 16 25  1  0
 16 17  2  0
 17 18  1  0
 17 43  1  0
 18 19  2  0
 18 44  1  0
 19 20  1  0
 19 24  1  0
 20 21  1  0
 20 22  1  0
 20 23  1  0
 24 25  2  0
 24 45  1  0
 25 46  1  0
 26 27  1  0
 28 33  1  0
 28 29  2  0
 29 30  1  0
 29 47  1  0
 30 31  2  0
 30 48  1  0
 31 32  1  0
 31 49  1  0
 32 33  2  0
 32 50  1  0
 33 51  1  0
M  CHG  1  26   1
M  END
>  <DOCK_score>  (1) 
-57.306217

>  <SMILES>  (1) 
CCOC(=O)/C=C/[C@H](Nc1[nH]cc(-c2ccc(C(F)(F)F)cc2)[nH+]1)c1ccccc1

$$$$
