Nc1ccc(-c2cnc(CCNc3[nH]cc(-c4ccccc4)[nH+]3)nc2)cc1
     RDKit          3D

 48 51  0  0  1  0  0  0  0  0999 V2000
  138.6656  140.1043  161.3909 N   0  0  0  0  0  0  0  0  0  0  0  0
  137.5116  139.3194  161.4033 C   0  0  0  0  0  0  0  0  0  0  0  0
  137.2764  138.4471  162.4602 C   0  0  0  0  0  0  0  0  0  0  0  0
  136.1347  137.6746  162.4765 C   0  0  0  0  0  0  0  0  0  0  0  0
  135.2215  137.7599  161.4270 C   0  0  0  0  0  0  0  0  0  0  0  0
  133.9955  136.9248  161.4393 C   0  0  0  0  0  0  0  0  0  0  0  0
  133.4024  136.5024  160.2465 C   0  0  0  0  0  0  0  0  0  0  0  0
  132.3139  135.7545  160.3031 N   0  0  0  0  0  0  0  0  0  0  0  0
  131.7821  135.4177  161.4615 C   0  0  0  0  0  0  0  0  0  0  0  0
  130.5366  134.5695  161.4740 C   0  0  0  0  0  0  0  0  0  0  0  0
  129.5443  135.1051  160.4400 C   0  0  0  0  0  0  0  0  0  0  0  0
  130.1536  135.0583  159.1084 N   0  0  0  0  0  0  0  0  0  0  0  0
  130.0094  133.9292  158.3205 C   0  0  0  0  0  0  0  0  0  0  0  0
  129.3239  132.8049  158.6644 N   0  0  0  0  0  0  0  0  0  0  0  0
  128.8530  132.6516  159.4985 H   0  0  0  0  0  0  0  0  0  0  0  0
  129.4226  131.9268  157.6126 C   0  0  0  0  0  0  0  0  0  0  0  0
  130.1647  132.5393  156.6570 C   0  0  0  0  0  0  0  0  0  0  0  0
  130.5330  131.9684  155.3384 C   0  0  0  0  0  0  0  0  0  0  0  0
  130.1321  132.6038  154.1645 C   0  0  0  0  0  0  0  0  0  0  0  0
  130.4828  132.0715  152.9404 C   0  0  0  0  0  0  0  0  0  0  0  0
  131.2208  130.9029  152.8774 C   0  0  0  0  0  0  0  0  0  0  0  0
  131.6161  130.2649  154.0391 C   0  0  0  0  0  0  0  0  0  0  0  0
  131.2763  130.7914  155.2686 C   0  0  0  0  0  0  0  0  0  0  0  0
  130.5055  133.7690  157.1180 N   0  0  0  0  0  0  0  0  0  0  0  0
  131.0338  134.4241  156.6356 H   0  0  0  0  0  0  0  0  0  0  0  0
  132.3063  135.7997  162.6092 N   0  0  0  0  0  0  0  0  0  0  0  0
  133.3982  136.5443  162.6436 C   0  0  0  0  0  0  0  0  0  0  0  0
  135.4623  138.6307  160.3651 C   0  0  0  0  0  0  0  0  0  0  0  0
  136.6026  139.4054  160.3553 C   0  0  0  0  0  0  0  0  0  0  0  0
  138.8331  140.7090  160.6519 H   0  0  0  0  0  0  0  0  0  0  0  0
  139.3011  140.0436  162.1219 H   0  0  0  0  0  0  0  0  0  0  0  0
  137.9862  138.3781  163.2713 H   0  0  0  0  0  0  0  0  0  0  0  0
  135.9501  137.0003  163.2997 H   0  0  0  0  0  0  0  0  0  0  0  0
  133.8296  136.7782  159.2938 H   0  0  0  0  0  0  0  0  0  0  0  0
  130.7959  133.5396  161.2292 H   0  0  0  0  0  0  0  0  0  0  0  0
  130.0832  134.6045  162.4647 H   0  0  0  0  0  0  0  0  0  0  0  0
  128.6433  134.4918  160.4490 H   0  0  0  0  0  0  0  0  0  0  0  0
  129.2849  136.1353  160.6847 H   0  0  0  0  0  0  0  0  0  0  0  0
  130.6581  135.8184  158.7791 H   0  0  0  0  0  0  0  0  0  0  0  0
  128.9916  130.9382  157.5573 H   0  0  0  0  0  0  0  0  0  0  0  0
  129.5518  133.5135  154.2126 H   0  0  0  0  0  0  0  0  0  0  0  0
  130.1768  132.5656  152.0301 H   0  0  0  0  0  0  0  0  0  0  0  0
  131.4898  130.4874  151.9175 H   0  0  0  0  0  0  0  0  0  0  0  0
  132.1921  129.3530  153.9839 H   0  0  0  0  0  0  0  0  0  0  0  0
  131.5861  130.2927  156.1752 H   0  0  0  0  0  0  0  0  0  0  0  0
  133.8219  136.8531  163.5878 H   0  0  0  0  0  0  0  0  0  0  0  0
  134.7558  138.6987  159.5510 H   0  0  0  0  0  0  0  0  0  0  0  0
  136.7897  140.0799  159.5328 H   0  0  0  0  0  0  0  0  0  0  0  0
  1  2  1  0
  1 30  1  0
  1 31  1  0
  2 29  2  0
  2  3  1  0
  3  4  2  0
  3 32  1  0
  4  5  1  0
  4 33  1  0
  5  6  1  0
  5 28  2  0
  6 27  1  0
  6  7  2  0
  7  8  1  0
  7 34  1  0
  8  9  2  0
  9 10  1  0
  9 26  1  0
 10 11  1  0
 10 35  1  0
 10 36  1  0
 11 12  1  0
 11 37  1  0
 11 38  1  0
 12 39  1  0
 13 12  1  0
 13 24  2  0
 13 14  1  0
 14 15  1  0
 14 16  1  0
 16 17  2  0
 16 40  1  0
 17 18  1  0
 17 24  1  0
 18 23  1  0
 18 19  2  0
 19 20  1  0
 19 41  1  0
 20 21  2  0
 20 42  1  0
 21 22  1  0
 21 43  1  0
 22 23  2  0
 22 44  1  0
 23 45  1  0
 24 25  1  0
 26 27  2  0
 27 46  1  0
 28 29  1  0
 28 47  1  0
 29 48  1  0
M  CHG  1  24   1
M  END
>  <DOCK_score>  (1) 
-59.662041

>  <SMILES>  (1) 
Nc1ccc(-c2cnc(CCNc3[nH]cc(-c4ccccc4)[nH+]3)nc2)cc1

$$$$
