O[C@@H]1C[C@H](O)C[C@H](Nc2ccc(-c3n[nH]cc3C[NH2+]CC3CC4C[C@@H]4C3)o2)C1
     RDKit          3D

 59 63  0  0  1  0  0  0  0  0999 V2000
  129.4302  138.7044  162.9639 O   0  0  0  0  0  0  0  0  0  0  0  0
  128.4136  137.8683  163.5204 C   0  0  2  0  0  0  0  0  0  0  0  0
  127.7127  138.4786  164.0898 H   0  0  0  0  0  0  0  0  0  0  0  0
  129.0555  136.8318  164.4449 C   0  0  0  0  0  0  0  0  0  0  0  0
  127.9671  135.9366  165.0407 C   0  0  2  0  0  0  0  0  0  0  0  0
  127.2660  136.5468  165.6102 H   0  0  0  0  0  0  0  0  0  0  0  0
  128.5664  134.9686  165.9043 O   0  0  0  0  0  0  0  0  0  0  0  0
  127.2209  135.2212  163.9126 C   0  0  0  0  0  0  0  0  0  0  0  0
  126.5793  136.2576  162.9881 C   0  0  2  0  0  0  0  0  0  0  0  0
  125.8782  136.8679  163.5576 H   0  0  0  0  0  0  0  0  0  0  0  0
  125.8649  135.5727  161.9079 N   0  0  0  0  0  0  0  0  0  0  0  0
  126.5548  134.7319  161.0423 C   0  0  0  0  0  0  0  0  0  0  0  0
  126.0396  133.6453  160.4149 C   0  0  0  0  0  0  0  0  0  0  0  0
  127.0749  133.0907  159.6367 C   0  0  0  0  0  0  0  0  0  0  0  0
  128.1748  133.8637  159.8362 C   0  0  0  0  0  0  0  0  0  0  0  0
  129.5026  133.6546  159.2228 C   0  0  0  0  0  0  0  0  0  0  0  0
  129.8300  132.6845  158.3921 N   0  0  0  0  0  0  0  0  0  0  0  0
  131.1765  132.8472  158.0428 N   0  0  0  0  0  0  0  0  0  0  0  0
  131.6815  132.2764  157.4428 H   0  0  0  0  0  0  0  0  0  0  0  0
  131.6521  133.9328  158.6909 C   0  0  0  0  0  0  0  0  0  0  0  0
  130.6472  134.4540  159.4267 C   0  0  0  0  0  0  0  0  0  0  0  0
  130.7328  135.6726  160.3092 C   0  0  0  0  0  0  0  0  0  0  0  0
  132.0935  136.2235  160.2526 N   0  0  0  0  0  0  0  0  0  0  0  0
  132.7512  135.5288  160.5736 H   0  0  0  0  0  0  0  0  0  0  0  0
  132.3130  136.4805  159.3019 H   0  0  0  0  0  0  0  0  0  0  0  0
  132.1770  137.4113  161.1128 C   0  0  0  0  0  0  0  0  0  0  0  0
  133.5941  137.9852  161.0539 C   0  0  1  0  0  0  0  0  0  0  0  0
  133.9021  138.5432  159.6423 C   0  0  0  0  0  0  0  0  0  0  0  0
  135.0189  139.5802  159.8809 C   0  0  2  0  0  0  0  0  0  0  0  0
  136.1245  139.2350  160.8807 C   0  0  0  0  0  0  0  0  0  0  0  0
  134.9004  140.0240  161.3495 C   0  0  2  0  0  0  0  0  0  0  0  0
  135.0172  141.0688  161.6371 H   0  0  0  0  0  0  0  0  0  0  0  0
  133.7155  139.2411  161.9521 C   0  0  0  0  0  0  0  0  0  0  0  0
  127.8459  134.8554  160.6906 O   0  0  0  0  0  0  0  0  0  0  0  0
  127.6675  137.1529  162.3923 C   0  0  0  0  0  0  0  0  0  0  0  0
  130.0904  138.2271  162.4431 H   0  0  0  0  0  0  0  0  0  0  0  0
  129.7564  136.2216  163.8754 H   0  0  0  0  0  0  0  0  0  0  0  0
  129.5869  137.3414  165.2486 H   0  0  0  0  0  0  0  0  0  0  0  0
  129.0573  135.3518  166.6440 H   0  0  0  0  0  0  0  0  0  0  0  0
  126.4456  134.5834  164.3370 H   0  0  0  0  0  0  0  0  0  0  0  0
  127.9220  134.6109  163.3432 H   0  0  0  0  0  0  0  0  0  0  0  0
  124.9105  135.7059  161.7968 H   0  0  0  0  0  0  0  0  0  0  0  0
  125.0277  133.2765  160.4950 H   0  0  0  0  0  0  0  0  0  0  0  0
  127.0085  132.2164  159.0061 H   0  0  0  0  0  0  0  0  0  0  0  0
  132.6597  134.3167  158.6308 H   0  0  0  0  0  0  0  0  0  0  0  0
  130.0223  136.4230  159.9623 H   0  0  0  0  0  0  0  0  0  0  0  0
  130.4956  135.3950  161.3362 H   0  0  0  0  0  0  0  0  0  0  0  0
  131.4665  138.1617  160.7661 H   0  0  0  0  0  0  0  0  0  0  0  0
  131.9399  137.1336  162.1398 H   0  0  0  0  0  0  0  0  0  0  0  0
  134.3270  137.2303  161.3393 H   0  0  0  0  0  0  0  0  0  0  0  0
  134.2543  137.7475  158.9859 H   0  0  0  0  0  0  0  0  0  0  0  0
  133.0184  139.0216  159.2200 H   0  0  0  0  0  0  0  0  0  0  0  0
  135.2279  140.2866  159.0774 H   0  0  0  0  0  0  0  0  0  0  0  0
  136.2061  138.1965  161.2010 H   0  0  0  0  0  0  0  0  0  0  0  0
  137.0672  139.7753  160.7940 H   0  0  0  0  0  0  0  0  0  0  0  0
  132.8023  139.8343  161.9038 H   0  0  0  0  0  0  0  0  0  0  0  0
  133.9315  138.9547  162.9814 H   0  0  0  0  0  0  0  0  0  0  0  0
  127.2104  137.8914  161.7337 H   0  0  0  0  0  0  0  0  0  0  0  0
  128.3686  136.5427  161.8229 H   0  0  0  0  0  0  0  0  0  0  0  0
  1  2  1  0
  1 36  1  0
  2  3  1  1
  2 35  1  0
  2  4  1  0
  4  5  1  0
  4 37  1  0
  4 38  1  0
  5  6  1  1
  5  7  1  0
  5  8  1  0
  7 39  1  0
  8  9  1  0
  8 40  1  0
  8 41  1  0
  9 10  1  1
  9 11  1  0
  9 35  1  0
 11 12  1  0
 11 42  1  0
 12 34  1  0
 12 13  2  0
 13 14  1  0
 13 43  1  0
 14 15  2  0
 14 44  1  0
 15 16  1  0
 15 34  1  0
 16 21  1  0
 16 17  2  0
 17 18  1  0
 18 19  1  0
 18 20  1  0
 20 21  2  0
 20 45  1  0
 21 22  1  0
 22 23  1  0
 22 46  1  0
 22 47  1  0
 23 24  1  0
 23 25  1  0
 23 26  1  0
 26 27  1  0
 26 48  1  0
 26 49  1  0
 27 33  1  0
 27 28  1  0
 27 50  1  1
 28 29  1  0
 28 51  1  0
 28 52  1  0
 29 31  1  0
 29 30  1  0
 29 53  1  6
 30 31  1  0
 30 54  1  0
 30 55  1  0
 31 32  1  6
 31 33  1  0
 33 56  1  0
 33 57  1  0
 35 58  1  0
 35 59  1  0
M  CHG  1  23   1
M  END
>  <DOCK_score>  (1) 
-43.45092

>  <SMILES>  (1) 
O[C@@H]1C[C@H](O)C[C@H](Nc2ccc(-c3n[nH]cc3C[NH2+]CC3CC4C[C@@H]4C3)o2)C1

$$$$
