O=C1CC[C@H](NC(NC2CC=CC2)=[NH+]C(CO)CO)CN1
     RDKit          3D

 46 47  0  0  1  0  0  0  0  0999 V2000
  123.7279  133.1534  161.2591 O   0  0  0  0  0  0  0  0  0  0  0  0
  124.7759  133.6647  160.9256 C   0  0  0  0  0  0  0  0  0  0  0  0
  125.9302  132.7652  160.5876 C   0  0  0  0  0  0  0  0  0  0  0  0
  127.2376  133.5601  160.6289 C   0  0  0  0  0  0  0  0  0  0  0  0
  127.0492  134.8456  159.8143 C   0  0  2  0  0  0  0  0  0  0  0  0
  126.6676  134.5981  158.8237 H   0  0  0  0  0  0  0  0  0  0  0  0
  128.3324  135.5416  159.6906 N   0  0  0  0  0  0  0  0  0  0  0  0
  129.3965  134.9186  159.0827 C   0  0  0  0  0  0  0  0  0  0  0  0
  129.1758  133.9928  158.0905 N   0  0  0  0  0  0  0  0  0  0  0  0
  130.3096  133.3288  157.4427 C   0  0  0  0  0  0  0  0  0  0  0  0
  129.9117  132.7815  156.0522 C   0  0  0  0  0  0  0  0  0  0  0  0
  130.6532  131.4698  155.9300 C   0  0  0  0  0  0  0  0  0  0  0  0
  131.0780  131.0595  157.0939 C   0  0  0  0  0  0  0  0  0  0  0  0
  130.6903  132.0280  158.1871 C   0  0  0  0  0  0  0  0  0  0  0  0
  130.6146  135.2055  159.4471 N   0  0  0  0  0  0  0  0  0  0  0  0
  131.3398  135.1444  158.8059 H   0  0  0  0  0  0  0  0  0  0  0  0
  130.8884  135.6200  160.8253 C   0  0  0  0  0  0  0  0  0  0  0  0
  130.4678  134.5061  161.7861 C   0  0  0  0  0  0  0  0  0  0  0  0
  131.2055  133.3184  161.4905 O   0  0  0  0  0  0  0  0  0  0  0  0
  132.3847  135.8954  160.9873 C   0  0  0  0  0  0  0  0  0  0  0  0
  132.7773  136.9359  160.0900 O   0  0  0  0  0  0  0  0  0  0  0  0
  126.0467  135.7431  160.5408 C   0  0  0  0  0  0  0  0  0  0  0  0
  124.8404  134.9957  160.8734 N   0  0  0  0  0  0  0  0  0  0  0  0
  125.7903  132.3501  159.5895 H   0  0  0  0  0  0  0  0  0  0  0  0
  125.9767  131.9538  161.3140 H   0  0  0  0  0  0  0  0  0  0  0  0
  128.0423  132.9659  160.1959 H   0  0  0  0  0  0  0  0  0  0  0  0
  127.4821  133.8121  161.6609 H   0  0  0  0  0  0  0  0  0  0  0  0
  128.4312  136.4421  160.0375 H   0  0  0  0  0  0  0  0  0  0  0  0
  128.2692  133.7792  157.8194 H   0  0  0  0  0  0  0  0  0  0  0  0
  131.1640  134.0016  157.3686 H   0  0  0  0  0  0  0  0  0  0  0  0
  128.8357  132.6152  156.0032 H   0  0  0  0  0  0  0  0  0  0  0  0
  130.2264  133.4707  155.2686 H   0  0  0  0  0  0  0  0  0  0  0  0
  130.8111  130.9417  155.0012 H   0  0  0  0  0  0  0  0  0  0  0  0
  131.6333  130.1471  157.2548 H   0  0  0  0  0  0  0  0  0  0  0  0
  131.5340  132.2052  158.8541 H   0  0  0  0  0  0  0  0  0  0  0  0
  129.8367  131.6480  158.7483 H   0  0  0  0  0  0  0  0  0  0  0  0
  130.3258  136.5259  161.0509 H   0  0  0  0  0  0  0  0  0  0  0  0
  130.6717  134.8145  162.8115 H   0  0  0  0  0  0  0  0  0  0  0  0
  129.4019  134.3100  161.6707 H   0  0  0  0  0  0  0  0  0  0  0  0
  131.0723  132.9858  160.5924 H   0  0  0  0  0  0  0  0  0  0  0  0
  132.5884  136.2039  162.0128 H   0  0  0  0  0  0  0  0  0  0  0  0
  132.9473  134.9896  160.7618 H   0  0  0  0  0  0  0  0  0  0  0  0
  132.6243  136.7297  159.1578 H   0  0  0  0  0  0  0  0  0  0  0  0
  125.7841  136.5836  159.8985 H   0  0  0  0  0  0  0  0  0  0  0  0
  126.5019  136.1186  161.4572 H   0  0  0  0  0  0  0  0  0  0  0  0
  124.0349  135.4980  161.0731 H   0  0  0  0  0  0  0  0  0  0  0  0
  1  2  2  0
  2 23  1  0
  2  3  1  0
  3  4  1  0
  3 24  1  0
  3 25  1  0
  4  5  1  0
  4 26  1  0
  4 27  1  0
  5  6  1  6
  5  7  1  0
  5 22  1  0
  7 28  1  0
  8  7  1  0
  8  9  1  0
  8 15  2  0
  9 10  1  0
  9 29  1  0
 10 14  1  0
 10 11  1  0
 10 30  1  0
 11 12  1  0
 11 31  1  0
 11 32  1  0
 12 13  2  0
 12 33  1  0
 13 14  1  0
 13 34  1  0
 14 35  1  0
 14 36  1  0
 15 16  1  0
 15 17  1  0
 17 18  1  0
 17 20  1  0
 17 37  1  0
 18 19  1  0
 18 38  1  0
 18 39  1  0
 19 40  1  0
 20 21  1  0
 20 41  1  0
 20 42  1  0
 21 43  1  0
 22 23  1  0
 22 44  1  0
 22 45  1  0
 23 46  1  0
M  CHG  1  15   1
M  END
>  <DOCK_score>  (1) 
-47.86422

>  <SMILES>  (1) 
O=C1CC[C@H](NC(NC2CC=CC2)=[NH+]C(CO)CO)CN1

$$$$
