Nc1ccc(-c2ccc(NC(=O)Nc3cc(Nc4[nH]c5ccc(N)cc5[nH+]4)c4ccccc4c3)cc2)cc1
     RDKit          3D

 64 69  0  0  1  0  0  0  0  0999 V2000
  138.9144  137.5570  167.7055 N   0  0  0  0  0  0  0  0  0  0  0  0
  138.0050  137.3419  166.6683 C   0  0  0  0  0  0  0  0  0  0  0  0
  136.8198  138.0667  166.6228 C   0  0  0  0  0  0  0  0  0  0  0  0
  135.9201  137.8553  165.5997 C   0  0  0  0  0  0  0  0  0  0  0  0
  136.2000  136.9140  164.6102 C   0  0  0  0  0  0  0  0  0  0  0  0
  135.2334  136.6835  163.5090 C   0  0  0  0  0  0  0  0  0  0  0  0
  135.1423  135.4285  162.9104 C   0  0  0  0  0  0  0  0  0  0  0  0
  134.2433  135.2176  161.8866 C   0  0  0  0  0  0  0  0  0  0  0  0
  133.4285  136.2557  161.4510 C   0  0  0  0  0  0  0  0  0  0  0  0
  132.5176  136.0394  160.4116 N   0  0  0  0  0  0  0  0  0  0  0  0
  131.2658  135.6234  160.6883 C   0  0  0  0  0  0  0  0  0  0  0  0
  130.9284  135.4361  161.8413 O   0  0  0  0  0  0  0  0  0  0  0  0
  130.3881  135.4148  159.6870 N   0  0  0  0  0  0  0  0  0  0  0  0
  129.0892  134.9829  159.9741 C   0  0  0  0  0  0  0  0  0  0  0  0
  128.2615  135.7707  160.7795 C   0  0  0  0  0  0  0  0  0  0  0  0
  126.9794  135.3671  161.0763 C   0  0  0  0  0  0  0  0  0  0  0  0
  126.1632  136.1612  161.8811 N   0  0  0  0  0  0  0  0  0  0  0  0
  126.7242  136.9636  162.8541 C   0  0  0  0  0  0  0  0  0  0  0  0
  126.2038  138.1484  163.2898 N   0  0  0  0  0  0  0  0  0  0  0  0
  125.3883  138.5691  162.9752 H   0  0  0  0  0  0  0  0  0  0  0  0
  127.0594  138.6385  164.2658 C   0  0  0  0  0  0  0  0  0  0  0  0
  127.0577  139.7744  165.0612 C   0  0  0  0  0  0  0  0  0  0  0  0
  128.0812  139.9863  165.9607 C   0  0  0  0  0  0  0  0  0  0  0  0
  129.1134  139.0591  166.0841 C   0  0  0  0  0  0  0  0  0  0  0  0
  130.1431  139.2823  167.0051 N   0  0  0  0  0  0  0  0  0  0  0  0
  129.1254  137.9190  165.3017 C   0  0  0  0  0  0  0  0  0  0  0  0
  128.0959  137.6983  164.3835 C   0  0  0  0  0  0  0  0  0  0  0  0
  127.8347  136.7017  163.4975 N   0  0  0  0  0  0  0  0  0  0  0  0
  128.3867  135.9156  163.3622 H   0  0  0  0  0  0  0  0  0  0  0  0
  126.4973  134.1416  160.5660 C   0  0  0  0  0  0  0  0  0  0  0  0
  125.1972  133.6980  160.8535 C   0  0  0  0  0  0  0  0  0  0  0  0
  124.7614  132.5115  160.3465 C   0  0  0  0  0  0  0  0  0  0  0  0
  125.5881  131.7280  159.5439 C   0  0  0  0  0  0  0  0  0  0  0  0
  126.8514  132.1308  159.2366 C   0  0  0  0  0  0  0  0  0  0  0  0
  127.3370  133.3481  159.7461 C   0  0  0  0  0  0  0  0  0  0  0  0
  128.6407  133.7858  159.4603 C   0  0  0  0  0  0  0  0  0  0  0  0
  133.5212  137.5098  162.0423 C   0  0  0  0  0  0  0  0  0  0  0  0
  134.4149  137.7242  163.0701 C   0  0  0  0  0  0  0  0  0  0  0  0
  137.3872  136.1848  164.6605 C   0  0  0  0  0  0  0  0  0  0  0  0
  138.2864  136.4032  165.6825 C   0  0  0  0  0  0  0  0  0  0  0  0
  138.7189  138.2125  168.3936 H   0  0  0  0  0  0  0  0  0  0  0  0
  139.7417  137.0521  167.7380 H   0  0  0  0  0  0  0  0  0  0  0  0
  136.6032  138.7959  167.3896 H   0  0  0  0  0  0  0  0  0  0  0  0
  134.9989  138.4182  165.5650 H   0  0  0  0  0  0  0  0  0  0  0  0
  135.7751  134.6214  163.2488 H   0  0  0  0  0  0  0  0  0  0  0  0
  134.1726  134.2451  161.4223 H   0  0  0  0  0  0  0  0  0  0  0  0
  132.7868  136.1888  159.4918 H   0  0  0  0  0  0  0  0  0  0  0  0
  130.6574  135.5643  158.7671 H   0  0  0  0  0  0  0  0  0  0  0  0
  128.6318  136.7060  161.1727 H   0  0  0  0  0  0  0  0  0  0  0  0
  125.2012  136.1497  161.7572 H   0  0  0  0  0  0  0  0  0  0  0  0
  126.2578  140.4948  164.9731 H   0  0  0  0  0  0  0  0  0  0  0  0
  128.0801  140.8740  166.5759 H   0  0  0  0  0  0  0  0  0  0  0  0
  130.1369  140.0811  167.5554 H   0  0  0  0  0  0  0  0  0  0  0  0
  130.8630  138.6383  167.0930 H   0  0  0  0  0  0  0  0  0  0  0  0
  129.9271  137.2021  165.4004 H   0  0  0  0  0  0  0  0  0  0  0  0
  124.5454  134.2946  161.4744 H   0  0  0  0  0  0  0  0  0  0  0  0
  123.7603  132.1732  160.5694 H   0  0  0  0  0  0  0  0  0  0  0  0
  125.2187  130.7908  159.1543 H   0  0  0  0  0  0  0  0  0  0  0  0
  127.4813  131.5135  158.6133 H   0  0  0  0  0  0  0  0  0  0  0  0
  129.2897  133.1856  158.8399 H   0  0  0  0  0  0  0  0  0  0  0  0
  132.8899  138.3160  161.6993 H   0  0  0  0  0  0  0  0  0  0  0  0
  134.4839  138.6980  163.5320 H   0  0  0  0  0  0  0  0  0  0  0  0
  137.6041  135.4522  163.8972 H   0  0  0  0  0  0  0  0  0  0  0  0
  139.2078  135.8412  165.7198 H   0  0  0  0  0  0  0  0  0  0  0  0
  1  2  1  0
  1 41  1  0
  1 42  1  0
  2 40  2  0
  2  3  1  0
  3  4  2  0
  3 43  1  0
  4  5  1  0
  4 44  1  0
  5  6  1  0
  5 39  2  0
  6 38  1  0
  6  7  2  0
  7  8  1  0
  7 45  1  0
  8  9  2  0
  8 46  1  0
  9 10  1  0
  9 37  1  0
 10 11  1  0
 10 47  1  0
 11 12  2  0
 11 13  1  0
 13 14  1  0
 13 48  1  0
 14 36  1  0
 14 15  2  0
 15 16  1  0
 15 49  1  0
 16 17  1  0
 16 30  2  0
 17 50  1  0
 18 17  1  0
 18 28  2  0
 18 19  1  0
 19 20  1  0
 19 21  1  0
 21 27  2  0
 21 22  1  0
 22 23  2  0
 22 51  1  0
 23 24  1  0
 23 52  1  0
 24 25  1  0
 24 26  2  0
 25 53  1  0
 25 54  1  0
 26 27  1  0
 26 55  1  0
 27 28  1  0
 28 29  1  0
 30 35  1  0
 30 31  1  0
 31 32  2  0
 31 56  1  0
 32 33  1  0
 32 57  1  0
 33 34  2  0
 33 58  1  0
 34 35  1  0
 34 59  1  0
 35 36  2  0
 36 60  1  0
 37 38  2  0
 37 61  1  0
 38 62  1  0
 39 40  1  0
 39 63  1  0
 40 64  1  0
M  CHG  1  28   1
M  END
>  <DOCK_score>  (1) 
-45.587105

>  <SMILES>  (1) 
Nc1ccc(-c2ccc(NC(=O)Nc3cc(Nc4[nH]c5ccc(N)cc5[nH+]4)c4ccccc4c3)cc2)cc1

$$$$
