O=C1CC[C@H](NC(NC2CC=CC2)=[NH+]C2CC(Cl)(Cl)C2)CN1
     RDKit          3D

 45 47  0  0  1  0  0  0  0  0999 V2000
  124.0323  133.6343  161.5635 O   0  0  0  0  0  0  0  0  0  0  0  0
  125.2064  133.9054  161.4258 C   0  0  0  0  0  0  0  0  0  0  0  0
  126.1258  132.8383  160.9051 C   0  0  0  0  0  0  0  0  0  0  0  0
  127.5792  133.2090  161.2098 C   0  0  0  0  0  0  0  0  0  0  0  0
  127.8126  134.6589  160.7686 C   0  0  2  0  0  0  0  0  0  0  0  0
  127.4935  134.7848  159.7340 H   0  0  0  0  0  0  0  0  0  0  0  0
  129.2358  134.9857  160.8871 N   0  0  0  0  0  0  0  0  0  0  0  0
  130.0814  134.7703  159.8248 C   0  0  0  0  0  0  0  0  0  0  0  0
  129.5914  134.2481  158.6510 N   0  0  0  0  0  0  0  0  0  0  0  0
  130.4536  133.4257  157.7988 C   0  0  0  0  0  0  0  0  0  0  0  0
  129.6469  132.7874  156.6444 C   0  0  0  0  0  0  0  0  0  0  0  0
  130.2429  131.4083  156.4768 C   0  0  0  0  0  0  0  0  0  0  0  0
  130.9535  131.0733  157.5191 C   0  0  0  0  0  0  0  0  0  0  0  0
  130.9498  132.1723  158.5561 C   0  0  0  0  0  0  0  0  0  0  0  0
  131.3476  135.0611  159.9302 N   0  0  0  0  0  0  0  0  0  0  0  0
  131.9441  134.9091  159.1805 H   0  0  0  0  0  0  0  0  0  0  0  0
  131.8697  135.6175  161.1807 C   0  0  0  0  0  0  0  0  0  0  0  0
  133.3349  136.0748  161.0870 C   0  0  0  0  0  0  0  0  0  0  0  0
  133.5266  135.4860  162.4948 C   0  0  0  0  0  0  0  0  0  0  0  0
  133.1804  136.6574  163.8208 Cl  0  0  0  0  0  0  0  0  0  0  0  0
  135.0960  134.6256  162.7125 Cl  0  0  0  0  0  0  0  0  0  0  0  0
  132.3491  134.5490  162.1774 C   0  0  0  0  0  0  0  0  0  0  0  0
  126.9968  135.5833  161.6732 C   0  0  0  0  0  0  0  0  0  0  0  0
  125.6117  135.1352  161.7443 N   0  0  0  0  0  0  0  0  0  0  0  0
  125.8864  131.8887  161.3839 H   0  0  0  0  0  0  0  0  0  0  0  0
  125.9950  132.7419  159.8273 H   0  0  0  0  0  0  0  0  0  0  0  0
  128.2496  132.5464  160.6623 H   0  0  0  0  0  0  0  0  0  0  0  0
  127.7646  133.1166  162.2800 H   0  0  0  0  0  0  0  0  0  0  0  0
  129.5815  135.3541  161.7152 H   0  0  0  0  0  0  0  0  0  0  0  0
  128.6734  134.4210  158.3892 H   0  0  0  0  0  0  0  0  0  0  0  0
  131.2913  134.0084  157.4154 H   0  0  0  0  0  0  0  0  0  0  0  0
  128.5927  132.7154  156.9122 H   0  0  0  0  0  0  0  0  0  0  0  0
  129.7683  133.3680  155.7298 H   0  0  0  0  0  0  0  0  0  0  0  0
  130.0996  130.7826  155.6083 H   0  0  0  0  0  0  0  0  0  0  0  0
  131.4754  130.1340  157.6263 H   0  0  0  0  0  0  0  0  0  0  0  0
  131.9565  132.3347  158.9409 H   0  0  0  0  0  0  0  0  0  0  0  0
  130.2681  131.9260  159.3704 H   0  0  0  0  0  0  0  0  0  0  0  0
  131.2064  136.3608  161.6230 H   0  0  0  0  0  0  0  0  0  0  0  0
  133.9054  135.5573  160.3159 H   0  0  0  0  0  0  0  0  0  0  0  0
  133.4527  137.1578  161.0471 H   0  0  0  0  0  0  0  0  0  0  0  0
  131.6711  134.4001  163.0177 H   0  0  0  0  0  0  0  0  0  0  0  0
  132.6503  133.6143  161.7044 H   0  0  0  0  0  0  0  0  0  0  0  0
  127.4283  135.5805  162.6742 H   0  0  0  0  0  0  0  0  0  0  0  0
  127.0275  136.5971  161.2740 H   0  0  0  0  0  0  0  0  0  0  0  0
  124.9429  135.7713  162.0425 H   0  0  0  0  0  0  0  0  0  0  0  0
  1  2  2  0
  2 24  1  0
  2  3  1  0
  3  4  1  0
  3 25  1  0
  3 26  1  0
  4  5  1  0
  4 27  1  0
  4 28  1  0
  5  6  1  6
  5  7  1  0
  5 23  1  0
  7 29  1  0
  8  7  1  0
  8  9  1  0
  8 15  2  0
  9 10  1  0
  9 30  1  0
 10 14  1  0
 10 11  1  0
 10 31  1  0
 11 12  1  0
 11 32  1  0
 11 33  1  0
 12 13  2  0
 12 34  1  0
 13 14  1  0
 13 35  1  0
 14 36  1  0
 14 37  1  0
 15 16  1  0
 15 17  1  0
 17 22  1  0
 17 18  1  0
 17 38  1  0
 18 19  1  0
 18 39  1  0
 18 40  1  0
 19 20  1  0
 19 21  1  0
 19 22  1  0
 22 41  1  0
 22 42  1  0
 23 24  1  0
 23 43  1  0
 23 44  1  0
 24 45  1  0
M  CHG  1  15   1
M  END
>  <DOCK_score>  (1) 
-41.800167

>  <SMILES>  (1) 
O=C1CC[C@H](NC(NC2CC=CC2)=[NH+]C2CC(Cl)(Cl)C2)CN1

$$$$
