Cc1ccc(N)cc1NC(=O)[C@@H](Cc1cnn(-c2ccccc2)c1)Nc1[nH]c2ccccc2[nH+]1
     RDKit          3D

 60 64  0  0  1  0  0  0  0  0999 V2000
  126.5525  138.6529  163.8662 C   0  0  0  0  0  0  0  0  0  0  0  0
  127.5670  139.7297  163.5795 C   0  0  0  0  0  0  0  0  0  0  0  0
  127.3812  141.0040  164.0807 C   0  0  0  0  0  0  0  0  0  0  0  0
  128.3061  141.9952  163.8159 C   0  0  0  0  0  0  0  0  0  0  0  0
  129.4293  141.7123  163.0479 C   0  0  0  0  0  0  0  0  0  0  0  0
  130.3636  142.7153  162.7796 N   0  0  0  0  0  0  0  0  0  0  0  0
  129.6213  140.4324  162.5475 C   0  0  0  0  0  0  0  0  0  0  0  0
  128.6904  139.4389  162.8160 C   0  0  0  0  0  0  0  0  0  0  0  0
  128.8802  138.1470  162.3133 N   0  0  0  0  0  0  0  0  0  0  0  0
  129.5452  137.9655  161.1551 C   0  0  0  0  0  0  0  0  0  0  0  0
  129.9789  138.9220  160.5485 O   0  0  0  0  0  0  0  0  0  0  0  0
  129.7497  136.5741  160.6136 C   0  0  1  0  0  0  0  0  0  0  0  0
  129.8039  135.8666  161.4411 H   0  0  0  0  0  0  0  0  0  0  0  0
  128.5776  136.2041  159.7023 C   0  0  0  0  0  0  0  0  0  0  0  0
  128.7822  134.8127  159.1609 C   0  0  0  0  0  0  0  0  0  0  0  0
  128.3380  133.6254  159.7533 C   0  0  0  0  0  0  0  0  0  0  0  0
  128.7029  132.6259  158.9914 N   0  0  0  0  0  0  0  0  0  0  0  0
  129.3919  133.1452  157.8877 N   0  0  0  0  0  0  0  0  0  0  0  0
  129.9468  132.4015  156.8371 C   0  0  0  0  0  0  0  0  0  0  0  0
  130.0374  132.9534  155.5663 C   0  0  0  0  0  0  0  0  0  0  0  0
  130.5839  132.2178  154.5327 C   0  0  0  0  0  0  0  0  0  0  0  0
  131.0408  130.9331  154.7629 C   0  0  0  0  0  0  0  0  0  0  0  0
  130.9520  130.3808  156.0274 C   0  0  0  0  0  0  0  0  0  0  0  0
  130.4061  131.1112  157.0648 C   0  0  0  0  0  0  0  0  0  0  0  0
  129.4320  134.4906  158.0185 C   0  0  0  0  0  0  0  0  0  0  0  0
  130.9977  136.5266  159.8479 N   0  0  0  0  0  0  0  0  0  0  0  0
  132.1091  137.1961  160.3025 C   0  0  0  0  0  0  0  0  0  0  0  0
  133.0633  137.7049  159.5260 N   0  0  0  0  0  0  0  0  0  0  0  0
  133.0878  137.6637  158.5572 H   0  0  0  0  0  0  0  0  0  0  0  0
  134.0030  138.2988  160.3269 C   0  0  0  0  0  0  0  0  0  0  0  0
  135.1923  138.9769  160.0757 C   0  0  0  0  0  0  0  0  0  0  0  0
  135.9384  139.4636  161.1272 C   0  0  0  0  0  0  0  0  0  0  0  0
  135.5128  139.2825  162.4349 C   0  0  0  0  0  0  0  0  0  0  0  0
  134.3378  138.6134  162.7011 C   0  0  0  0  0  0  0  0  0  0  0  0
  133.5721  138.1156  161.6509 C   0  0  0  0  0  0  0  0  0  0  0  0
  132.3906  137.4250  161.5833 N   0  0  0  0  0  0  0  0  0  0  0  0
  131.8510  137.1490  162.3406 H   0  0  0  0  0  0  0  0  0  0  0  0
  126.8210  138.1368  164.7880 H   0  0  0  0  0  0  0  0  0  0  0  0
  125.5659  139.1031  163.9759 H   0  0  0  0  0  0  0  0  0  0  0  0
  126.5367  137.9398  163.0420 H   0  0  0  0  0  0  0  0  0  0  0  0
  126.5090  141.2264  164.6776 H   0  0  0  0  0  0  0  0  0  0  0  0
  128.1560  142.9912  164.2057 H   0  0  0  0  0  0  0  0  0  0  0  0
  131.1473  142.5172  162.2432 H   0  0  0  0  0  0  0  0  0  0  0  0
  130.2289  143.6098  163.1297 H   0  0  0  0  0  0  0  0  0  0  0  0
  130.4934  140.2098  161.9507 H   0  0  0  0  0  0  0  0  0  0  0  0
  128.5333  137.3820  162.7985 H   0  0  0  0  0  0  0  0  0  0  0  0
  128.5235  136.9116  158.8749 H   0  0  0  0  0  0  0  0  0  0  0  0
  127.6491  136.2395  160.2719 H   0  0  0  0  0  0  0  0  0  0  0  0
  127.7888  133.5473  160.6799 H   0  0  0  0  0  0  0  0  0  0  0  0
  129.6809  133.9568  155.3860 H   0  0  0  0  0  0  0  0  0  0  0  0
  130.6584  132.6481  153.5450 H   0  0  0  0  0  0  0  0  0  0  0  0
  131.4677  130.3599  153.9532 H   0  0  0  0  0  0  0  0  0  0  0  0
  131.3094  129.3770  156.2040 H   0  0  0  0  0  0  0  0  0  0  0  0
  130.3363  130.6791  158.0521 H   0  0  0  0  0  0  0  0  0  0  0  0
  129.8968  135.1836  157.3328 H   0  0  0  0  0  0  0  0  0  0  0  0
  131.0397  136.0226  159.0201 H   0  0  0  0  0  0  0  0  0  0  0  0
  135.5292  139.1217  159.0598 H   0  0  0  0  0  0  0  0  0  0  0  0
  136.8609  139.9900  160.9315 H   0  0  0  0  0  0  0  0  0  0  0  0
  136.1066  139.6684  163.2503 H   0  0  0  0  0  0  0  0  0  0  0  0
  134.0119  138.4762  163.7215 H   0  0  0  0  0  0  0  0  0  0  0  0
  1  2  1  0
  1 38  1  0
  1 39  1  0
  1 40  1  0
  2  8  2  0
  2  3  1  0
  3  4  2  0
  3 41  1  0
  4  5  1  0
  4 42  1  0
  5  6  1  0
  5  7  2  0
  6 43  1  0
  6 44  1  0
  7  8  1  0
  7 45  1  0
  8  9  1  0
  9 10  1  0
  9 46  1  0
 10 11  2  0
 10 12  1  0
 12 13  1  1
 12 14  1  0
 12 26  1  0
 14 15  1  0
 14 47  1  0
 14 48  1  0
 15 25  2  0
 15 16  1  0
 16 17  2  0
 16 49  1  0
 17 18  1  0
 18 19  1  0
 18 25  1  0
 19 24  1  0
 19 20  2  0
 20 21  1  0
 20 50  1  0
 21 22  2  0
 21 51  1  0
 22 23  1  0
 22 52  1  0
 23 24  2  0
 23 53  1  0
 24 54  1  0
 25 55  1  0
 26 27  1  0
 26 56  1  0
 27 36  1  0
 27 28  2  0
 28 29  1  0
 28 30  1  0
 30 35  2  0
 30 31  1  0
 31 32  2  0
 31 57  1  0
 32 33  1  0
 32 58  1  0
 33 34  2  0
 33 59  1  0
 34 35  1  0
 34 60  1  0
 35 36  1  0
 36 37  1  0
M  CHG  1  28   1
M  END
>  <DOCK_score>  (1) 
-56.338299

>  <SMILES>  (1) 
Cc1ccc(N)cc1NC(=O)[C@@H](Cc1cnn(-c2ccccc2)c1)Nc1[nH]c2ccccc2[nH+]1

$$$$
