Cc1cccc(N2CC[NH+](C(c3ccccc3)c3ccccc3)CC2)c1COC[C@H]1C=CCC1
     RDKit          3D

 71 75  0  0  1  0  0  0  0  0999 V2000
  135.9282  141.0106  162.6196 C   0  0  0  0  0  0  0  0  0  0  0  0
  135.3502  140.2506  161.4535 C   0  0  0  0  0  0  0  0  0  0  0  0
  135.8115  140.4951  160.1728 C   0  0  0  0  0  0  0  0  0  0  0  0
  135.2841  139.8001  159.1002 C   0  0  0  0  0  0  0  0  0  0  0  0
  134.2978  138.8551  159.3053 C   0  0  0  0  0  0  0  0  0  0  0  0
  133.8288  138.6106  160.5896 C   0  0  0  0  0  0  0  0  0  0  0  0
  132.8284  137.6589  160.8001 N   0  0  0  0  0  0  0  0  0  0  0  0
  131.5783  138.0527  160.1350 C   0  0  0  0  0  0  0  0  0  0  0  0
  130.4940  137.0166  160.4387 C   0  0  0  0  0  0  0  0  0  0  0  0
  130.9290  135.6978  159.9599 N   0  0  0  0  0  0  0  0  0  0  0  0
  131.0985  135.7401  158.9661 H   0  0  0  0  0  0  0  0  0  0  0  0
  129.8803  134.7068  160.2358 C   0  0  0  0  0  0  0  0  0  0  0  0
  128.6125  135.1060  159.5257 C   0  0  0  0  0  0  0  0  0  0  0  0
  127.3842  134.7591  160.0567 C   0  0  0  0  0  0  0  0  0  0  0  0
  126.2212  135.1295  159.4078 C   0  0  0  0  0  0  0  0  0  0  0  0
  126.2861  135.8377  158.2233 C   0  0  0  0  0  0  0  0  0  0  0  0
  127.5150  136.1802  157.6888 C   0  0  0  0  0  0  0  0  0  0  0  0
  128.6779  135.8143  158.3404 C   0  0  0  0  0  0  0  0  0  0  0  0
  130.3263  133.3536  159.7445 C   0  0  0  0  0  0  0  0  0  0  0  0
  129.8886  132.2080  160.3826 C   0  0  0  0  0  0  0  0  0  0  0  0
  130.2940  130.9667  159.9291 C   0  0  0  0  0  0  0  0  0  0  0  0
  131.1453  130.8714  158.8441 C   0  0  0  0  0  0  0  0  0  0  0  0
  131.5871  132.0171  158.2094 C   0  0  0  0  0  0  0  0  0  0  0  0
  131.1777  133.2583  158.6597 C   0  0  0  0  0  0  0  0  0  0  0  0
  132.1649  135.3073  160.6509 C   0  0  0  0  0  0  0  0  0  0  0  0
  133.2631  136.3293  160.3490 C   0  0  0  0  0  0  0  0  0  0  0  0
  134.3611  139.3108  161.6651 C   0  0  0  0  0  0  0  0  0  0  0  0
  133.8598  139.0444  163.0610 C   0  0  0  0  0  0  0  0  0  0  0  0
  132.7621  139.9137  163.3470 O   0  0  0  0  0  0  0  0  0  0  0  0
  132.4995  140.0789  164.7419 C   0  0  0  0  0  0  0  0  0  0  0  0
  131.0688  140.5856  164.9349 C   0  0  1  0  0  0  0  0  0  0  0  0
  130.8531  140.7167  165.9953 H   0  0  0  0  0  0  0  0  0  0  0  0
  130.8660  141.8855  164.1918 C   0  0  0  0  0  0  0  0  0  0  0  0
  129.7338  141.8797  163.5384 C   0  0  0  0  0  0  0  0  0  0  0  0
  128.9943  140.5776  163.7413 C   0  0  0  0  0  0  0  0  0  0  0  0
  130.0589  139.6035  164.2971 C   0  0  0  0  0  0  0  0  0  0  0  0
  136.7839  140.4666  163.0197 H   0  0  0  0  0  0  0  0  0  0  0  0
  136.2486  141.9979  162.2869 H   0  0  0  0  0  0  0  0  0  0  0  0
  135.1702  141.1168  163.3956 H   0  0  0  0  0  0  0  0  0  0  0  0
  136.5854  141.2308  160.0102 H   0  0  0  0  0  0  0  0  0  0  0  0
  135.6466  139.9935  158.1014 H   0  0  0  0  0  0  0  0  0  0  0  0
  133.8893  138.3095  158.4676 H   0  0  0  0  0  0  0  0  0  0  0  0
  131.7401  138.1051  159.0583 H   0  0  0  0  0  0  0  0  0  0  0  0
  131.2622  139.0287  160.5035 H   0  0  0  0  0  0  0  0  0  0  0  0
  129.5698  137.2994  159.9348 H   0  0  0  0  0  0  0  0  0  0  0  0
  130.3230  136.9743  161.5144 H   0  0  0  0  0  0  0  0  0  0  0  0
  129.6968  134.6613  161.3093 H   0  0  0  0  0  0  0  0  0  0  0  0
  127.3332  134.2019  160.9804 H   0  0  0  0  0  0  0  0  0  0  0  0
  125.2616  134.8617  159.8245 H   0  0  0  0  0  0  0  0  0  0  0  0
  125.3781  136.1234  157.7131 H   0  0  0  0  0  0  0  0  0  0  0  0
  127.5661  136.7333  156.7625 H   0  0  0  0  0  0  0  0  0  0  0  0
  129.6376  136.0815  157.9232 H   0  0  0  0  0  0  0  0  0  0  0  0
  129.2272  132.2827  161.2329 H   0  0  0  0  0  0  0  0  0  0  0  0
  129.9491  130.0715  160.4250 H   0  0  0  0  0  0  0  0  0  0  0  0
  131.4654  129.9017  158.4925 H   0  0  0  0  0  0  0  0  0  0  0  0
  132.2525  131.9427  157.3619 H   0  0  0  0  0  0  0  0  0  0  0  0
  131.5231  134.1535  158.1641 H   0  0  0  0  0  0  0  0  0  0  0  0
  131.9853  135.2737  161.7255 H   0  0  0  0  0  0  0  0  0  0  0  0
  132.4794  134.3229  160.3043 H   0  0  0  0  0  0  0  0  0  0  0  0
  133.4526  136.3533  159.2758 H   0  0  0  0  0  0  0  0  0  0  0  0
  134.1763  136.0480  160.8734 H   0  0  0  0  0  0  0  0  0  0  0  0
  133.5318  138.0077  163.1378 H   0  0  0  0  0  0  0  0  0  0  0  0
  134.6623  139.2254  163.7762 H   0  0  0  0  0  0  0  0  0  0  0  0
  132.6174  139.1216  165.2496 H   0  0  0  0  0  0  0  0  0  0  0  0
  133.2003  140.8010  165.1604 H   0  0  0  0  0  0  0  0  0  0  0  0
  131.5647  142.7089  164.1994 H   0  0  0  0  0  0  0  0  0  0  0  0
  129.3736  142.6990  162.9338 H   0  0  0  0  0  0  0  0  0  0  0  0
  128.6031  140.2112  162.7921 H   0  0  0  0  0  0  0  0  0  0  0  0
  128.1851  140.7065  164.4602 H   0  0  0  0  0  0  0  0  0  0  0  0
  130.5232  139.0315  163.4938 H   0  0  0  0  0  0  0  0  0  0  0  0
  129.6288  138.9415  165.0487 H   0  0  0  0  0  0  0  0  0  0  0  0
  1  2  1  0
  1 37  1  0
  1 38  1  0
  1 39  1  0
  2 27  2  0
  2  3  1  0
  3  4  2  0
  3 40  1  0
  4  5  1  0
  4 41  1  0
  5  6  2  0
  5 42  1  0
  6  7  1  0
  6 27  1  0
  7 26  1  0
  7  8  1  0
  8  9  1  0
  8 43  1  0
  8 44  1  0
  9 10  1  0
  9 45  1  0
  9 46  1  0
 10 11  1  0
 10 12  1  0
 10 25  1  0
 12 13  1  0
 12 19  1  0
 12 47  1  0
 13 18  1  0
 13 14  2  0
 14 15  1  0
 14 48  1  0
 15 16  2  0
 15 49  1  0
 16 17  1  0
 16 50  1  0
 17 18  2  0
 17 51  1  0
 18 52  1  0
 19 24  1  0
 19 20  2  0
 20 21  1  0
 20 53  1  0
 21 22  2  0
 21 54  1  0
 22 23  1  0
 22 55  1  0
 23 24  2  0
 23 56  1  0
 24 57  1  0
 25 26  1  0
 25 58  1  0
 25 59  1  0
 26 60  1  0
 26 61  1  0
 27 28  1  0
 28 29  1  0
 28 62  1  0
 28 63  1  0
 29 30  1  0
 30 31  1  0
 30 64  1  0
 30 65  1  0
 31 32  1  1
 31 36  1  0
 31 33  1  0
 33 34  2  0
 33 66  1  0
 34 35  1  0
 34 67  1  0
 35 36  1  0
 35 68  1  0
 35 69  1  0
 36 70  1  0
 36 71  1  0
M  CHG  1  10   1
M  END
>  <DOCK_score>  (1) 
-56.851761

>  <SMILES>  (1) 
Cc1cccc(N2CC[NH+](C(c3ccccc3)c3ccccc3)CC2)c1COC[C@H]1C=CCC1

$$$$
