Cc1c(Nc2[nH]c3cccc(N)c3[nH+]2)ccc(N)c1Nc1ccccc1Nc1ccccc1Cl
     RDKit          3D

 59 63  0  0  1  0  0  0  0  0999 V2000
  128.4355  136.8884  161.1137 C   0  0  0  0  0  0  0  0  0  0  0  0
  129.5002  135.9857  160.5457 C   0  0  0  0  0  0  0  0  0  0  0  0
  130.8420  136.2932  160.7278 C   0  0  0  0  0  0  0  0  0  0  0  0
  131.2060  137.4432  161.4398 N   0  0  0  0  0  0  0  0  0  0  0  0
  132.3822  138.1001  161.1359 C   0  0  0  0  0  0  0  0  0  0  0  0
  133.1353  138.8144  162.0246 N   0  0  0  0  0  0  0  0  0  0  0  0
  132.9417  138.9482  162.9656 H   0  0  0  0  0  0  0  0  0  0  0  0
  134.2281  139.3090  161.3324 C   0  0  0  0  0  0  0  0  0  0  0  0
  135.3203  140.0886  161.6898 C   0  0  0  0  0  0  0  0  0  0  0  0
  136.2632  140.4296  160.7427 C   0  0  0  0  0  0  0  0  0  0  0  0
  136.1305  139.9993  159.4310 C   0  0  0  0  0  0  0  0  0  0  0  0
  135.0498  139.2222  159.0551 C   0  0  0  0  0  0  0  0  0  0  0  0
  134.9208  138.7916  157.7314 N   0  0  0  0  0  0  0  0  0  0  0  0
  134.0839  138.8685  160.0089 C   0  0  0  0  0  0  0  0  0  0  0  0
  132.9397  138.1363  159.9520 N   0  0  0  0  0  0  0  0  0  0  0  0
  132.5900  137.7064  159.1558 H   0  0  0  0  0  0  0  0  0  0  0  0
  131.8230  135.4616  160.2050 C   0  0  0  0  0  0  0  0  0  0  0  0
  131.4672  134.3254  159.5020 C   0  0  0  0  0  0  0  0  0  0  0  0
  130.1295  134.0135  159.3171 C   0  0  0  0  0  0  0  0  0  0  0  0
  129.7697  132.8605  158.6040 N   0  0  0  0  0  0  0  0  0  0  0  0
  129.1411  134.8501  159.8362 C   0  0  0  0  0  0  0  0  0  0  0  0
  127.7893  134.5407  159.6457 N   0  0  0  0  0  0  0  0  0  0  0  0
  127.1113  135.0287  158.5228 C   0  0  0  0  0  0  0  0  0  0  0  0
  127.7995  135.2601  157.3408 C   0  0  0  0  0  0  0  0  0  0  0  0
  127.1264  135.7364  156.2311 C   0  0  0  0  0  0  0  0  0  0  0  0
  125.7697  135.9956  156.2987 C   0  0  0  0  0  0  0  0  0  0  0  0
  125.0767  135.7729  157.4738 C   0  0  0  0  0  0  0  0  0  0  0  0
  125.7424  135.2894  158.5906 C   0  0  0  0  0  0  0  0  0  0  0  0
  125.0428  135.0633  159.7817 N   0  0  0  0  0  0  0  0  0  0  0  0
  125.0023  133.7809  160.3356 C   0  0  0  0  0  0  0  0  0  0  0  0
  125.0738  132.6643  159.5122 C   0  0  0  0  0  0  0  0  0  0  0  0
  125.0336  131.3985  160.0628 C   0  0  0  0  0  0  0  0  0  0  0  0
  124.9221  131.2409  161.4322 C   0  0  0  0  0  0  0  0  0  0  0  0
  124.8506  132.3496  162.2556 C   0  0  0  0  0  0  0  0  0  0  0  0
  124.8960  133.6196  161.7122 C   0  0  0  0  0  0  0  0  0  0  0  0
  124.8142  135.0111  162.7468 Cl  0  0  0  0  0  0  0  0  0  0  0  0
  128.1729  137.6484  160.3779 H   0  0  0  0  0  0  0  0  0  0  0  0
  127.5520  136.2989  161.3584 H   0  0  0  0  0  0  0  0  0  0  0  0
  128.8117  137.3708  162.0158 H   0  0  0  0  0  0  0  0  0  0  0  0
  130.6318  137.7783  162.1461 H   0  0  0  0  0  0  0  0  0  0  0  0
  135.4316  140.4276  162.7091 H   0  0  0  0  0  0  0  0  0  0  0  0
  137.1114  141.0357  161.0247 H   0  0  0  0  0  0  0  0  0  0  0  0
  136.8752  140.2732  158.6984 H   0  0  0  0  0  0  0  0  0  0  0  0
  134.1617  138.2468  157.4705 H   0  0  0  0  0  0  0  0  0  0  0  0
  135.5901  139.0376  157.0740 H   0  0  0  0  0  0  0  0  0  0  0  0
  132.8662  135.7028  160.3474 H   0  0  0  0  0  0  0  0  0  0  0  0
  132.2325  133.6804  159.0960 H   0  0  0  0  0  0  0  0  0  0  0  0
  130.4572  132.2732  158.2530 H   0  0  0  0  0  0  0  0  0  0  0  0
  128.8335  132.6486  158.4651 H   0  0  0  0  0  0  0  0  0  0  0  0
  127.3225  133.9880  160.2918 H   0  0  0  0  0  0  0  0  0  0  0  0
  128.8601  135.0640  157.2862 H   0  0  0  0  0  0  0  0  0  0  0  0
  127.6627  135.9111  155.3101 H   0  0  0  0  0  0  0  0  0  0  0  0
  125.2497  136.3716  155.4300 H   0  0  0  0  0  0  0  0  0  0  0  0
  124.0172  135.9761  157.5228 H   0  0  0  0  0  0  0  0  0  0  0  0
  124.5859  135.7967  160.2225 H   0  0  0  0  0  0  0  0  0  0  0  0
  125.1605  132.7861  158.4426 H   0  0  0  0  0  0  0  0  0  0  0  0
  125.0888  130.5302  159.4229 H   0  0  0  0  0  0  0  0  0  0  0  0
  124.8905  130.2496  161.8597 H   0  0  0  0  0  0  0  0  0  0  0  0
  124.7640  132.2229  163.3245 H   0  0  0  0  0  0  0  0  0  0  0  0
  1  2  1  0
  1 37  1  0
  1 38  1  0
  1 39  1  0
  2 21  2  0
  2  3  1  0
  3  4  1  0
  3 17  2  0
  4 40  1  0
  5  4  1  0
  5 15  2  0
  5  6  1  0
  6  7  1  0
  6  8  1  0
  8 14  2  0
  8  9  1  0
  9 10  2  0
  9 41  1  0
 10 11  1  0
 10 42  1  0
 11 12  2  0
 11 43  1  0
 12 13  1  0
 12 14  1  0
 13 44  1  0
 13 45  1  0
 14 15  1  0
 15 16  1  0
 17 18  1  0
 17 46  1  0
 18 19  2  0
 18 47  1  0
 19 20  1  0
 19 21  1  0
 20 48  1  0
 20 49  1  0
 21 22  1  0
 22 23  1  0
 22 50  1  0
 23 28  1  0
 23 24  2  0
 24 25  1  0
 24 51  1  0
 25 26  2  0
 25 52  1  0
 26 27  1  0
 26 53  1  0
 27 28  2  0
 27 54  1  0
 28 29  1  0
 29 30  1  0
 29 55  1  0
 30 35  1  0
 30 31  2  0
 31 32  1  0
 31 56  1  0
 32 33  2  0
 32 57  1  0
 33 34  1  0
 33 58  1  0
 34 35  2  0
 34 59  1  0
 35 36  1  0
M  CHG  1  15   1
M  END
>  <DOCK_score>  (1) 
-55.37994

>  <SMILES>  (1) 
Cc1c(Nc2[nH]c3cccc(N)c3[nH+]2)ccc(N)c1Nc1ccccc1Nc1ccccc1Cl

$$$$
