Cn1nccc1[C@H](CSCc1cc(F)ccc1F)Nc1[nH]cc(-c2ccc(C(F)(F)F)cc2)[nH+]1
     RDKit          3D

 55 58  0  0  1  0  0  0  0  0999 V2000
  127.9428  135.0746  162.6307 C   0  0  0  0  0  0  0  0  0  0  0  0
  127.4864  135.3909  161.2750 N   0  0  0  0  0  0  0  0  0  0  0  0
  126.1587  135.3786  160.8284 N   0  0  0  0  0  0  0  0  0  0  0  0
  126.1501  135.7099  159.5628 C   0  0  0  0  0  0  0  0  0  0  0  0
  127.4695  135.9483  159.1645 C   0  0  0  0  0  0  0  0  0  0  0  0
  128.2705  135.7483  160.2365 C   0  0  0  0  0  0  0  0  0  0  0  0
  129.7704  135.8924  160.2641 C   0  0  2  0  0  0  0  0  0  0  0  0
  130.1882  135.2036  160.9982 H   0  0  0  0  0  0  0  0  0  0  0  0
  130.1378  137.3281  160.6449 C   0  0  0  0  0  0  0  0  0  0  0  0
  131.9433  137.5016  160.6782 S   0  0  0  0  0  0  0  0  0  0  0  0
  132.1838  139.2933  160.5293 C   0  0  0  0  0  0  0  0  0  0  0  0
  133.6582  139.6051  160.5418 C   0  0  0  0  0  0  0  0  0  0  0  0
  134.3010  139.8568  161.7390 C   0  0  0  0  0  0  0  0  0  0  0  0
  135.6564  140.1385  161.7510 C   0  0  0  0  0  0  0  0  0  0  0  0
  136.2860  140.3792  162.9219 F   0  0  0  0  0  0  0  0  0  0  0  0
  136.3655  140.1786  160.5623 C   0  0  0  0  0  0  0  0  0  0  0  0
  135.7218  139.9320  159.3651 C   0  0  0  0  0  0  0  0  0  0  0  0
  134.3672  139.6447  159.3537 C   0  0  0  0  0  0  0  0  0  0  0  0
  133.7378  139.4036  158.1829 F   0  0  0  0  0  0  0  0  0  0  0  0
  130.3152  135.5839  158.9396 N   0  0  0  0  0  0  0  0  0  0  0  0
  130.1095  134.3344  158.3805 C   0  0  0  0  0  0  0  0  0  0  0  0
  129.4169  133.3132  158.9548 N   0  0  0  0  0  0  0  0  0  0  0  0
  128.9824  133.3299  159.8218 H   0  0  0  0  0  0  0  0  0  0  0  0
  129.4468  132.2545  158.0799 C   0  0  0  0  0  0  0  0  0  0  0  0
  130.1561  132.6588  156.9971 C   0  0  0  0  0  0  0  0  0  0  0  0
  130.4501  131.8446  155.7926 C   0  0  0  0  0  0  0  0  0  0  0  0
  130.0082  132.2650  154.5392 C   0  0  0  0  0  0  0  0  0  0  0  0
  130.2896  131.5065  153.4212 C   0  0  0  0  0  0  0  0  0  0  0  0
  130.9992  130.3254  153.5441 C   0  0  0  0  0  0  0  0  0  0  0  0
  131.2986  129.4981  152.3206 C   0  0  0  0  0  0  0  0  0  0  0  0
  130.7610  130.1257  151.1910 F   0  0  0  0  0  0  0  0  0  0  0  0
  132.6835  129.3733  152.1692 F   0  0  0  0  0  0  0  0  0  0  0  0
  130.7283  128.2291  152.4643 F   0  0  0  0  0  0  0  0  0  0  0  0
  131.4348  129.9002  154.7863 C   0  0  0  0  0  0  0  0  0  0  0  0
  131.1641  130.6535  155.9104 C   0  0  0  0  0  0  0  0  0  0  0  0
  130.5448  133.9413  157.2084 N   0  0  0  0  0  0  0  0  0  0  0  0
  131.0642  134.4806  156.5916 H   0  0  0  0  0  0  0  0  0  0  0  0
  127.9556  135.9842  163.2311 H   0  0  0  0  0  0  0  0  0  0  0  0
  127.2648  134.3505  163.0826 H   0  0  0  0  0  0  0  0  0  0  0  0
  128.9473  134.6539  162.5870 H   0  0  0  0  0  0  0  0  0  0  0  0
  125.2752  135.7866  158.9341 H   0  0  0  0  0  0  0  0  0  0  0  0
  127.7919  136.2408  158.1761 H   0  0  0  0  0  0  0  0  0  0  0  0
  129.7201  138.0169  159.9107 H   0  0  0  0  0  0  0  0  0  0  0  0
  129.7325  137.5576  161.6304 H   0  0  0  0  0  0  0  0  0  0  0  0
  131.7467  139.6421  159.5936 H   0  0  0  0  0  0  0  0  0  0  0  0
  131.6991  139.7959  161.3664 H   0  0  0  0  0  0  0  0  0  0  0  0
  133.7469  139.8300  162.6656 H   0  0  0  0  0  0  0  0  0  0  0  0
  137.4220  140.4030  160.5712 H   0  0  0  0  0  0  0  0  0  0  0  0
  136.2749  139.9636  158.4380 H   0  0  0  0  0  0  0  0  0  0  0  0
  130.8199  136.2553  158.4543 H   0  0  0  0  0  0  0  0  0  0  0  0
  128.9922  131.2859  158.2262 H   0  0  0  0  0  0  0  0  0  0  0  0
  129.4503  133.1847  154.4428 H   0  0  0  0  0  0  0  0  0  0  0  0
  129.9516  131.8335  152.4490 H   0  0  0  0  0  0  0  0  0  0  0  0
  131.9881  128.9770  154.8764 H   0  0  0  0  0  0  0  0  0  0  0  0
  131.5048  130.3206  156.8797 H   0  0  0  0  0  0  0  0  0  0  0  0
  1  2  1  0
  1 38  1  0
  1 39  1  0
  1 40  1  0
  2  6  1  0
  2  3  1  0
  3  4  2  0
  4  5  1  0
  4 41  1  0
  5  6  2  0
  5 42  1  0
  6  7  1  0
  7  8  1  1
  7  9  1  0
  7 20  1  0
  9 10  1  0
  9 43  1  0
  9 44  1  0
 10 11  1  0
 11 12  1  0
 11 45  1  0
 11 46  1  0
 12 18  1  0
 12 13  2  0
 13 14  1  0
 13 47  1  0
 14 15  1  0
 14 16  2  0
 16 17  1  0
 16 48  1  0
 17 18  2  0
 17 49  1  0
 18 19  1  0
 20 50  1  0
 21 20  1  0
 21 36  2  0
 21 22  1  0
 22 23  1  0
 22 24  1  0
 24 25  2  0
 24 51  1  0
 25 26  1  0
 25 36  1  0
 26 35  1  0
 26 27  2  0
 27 28  1  0
 27 52  1  0
 28 29  2  0
 28 53  1  0
 29 30  1  0
 29 34  1  0
 30 31  1  0
 30 32  1  0
 30 33  1  0
 34 35  2  0
 34 54  1  0
 35 55  1  0
 36 37  1  0
M  CHG  1  36   1
M  END
>  <DOCK_score>  (1) 
-61.173725

>  <SMILES>  (1) 
Cn1nccc1[C@H](CSCc1cc(F)ccc1F)Nc1[nH]cc(-c2ccc(C(F)(F)F)cc2)[nH+]1

$$$$
