Fc1ccccc1[C@H](c1ccccc1)[NH+]1CCN(c2cncc3ccccc23)CC1
     RDKit          3D

 55 59  0  0  1  0  0  0  0  0999 V2000
  130.7271  132.8724  161.9684 F   0  0  0  0  0  0  0  0  0  0  0  0
  131.0011  132.6534  160.6638 C   0  0  0  0  0  0  0  0  0  0  0  0
  131.4816  131.4208  160.2541 C   0  0  0  0  0  0  0  0  0  0  0  0
  131.7610  131.1978  158.9194 C   0  0  0  0  0  0  0  0  0  0  0  0
  131.5614  132.2046  157.9930 C   0  0  0  0  0  0  0  0  0  0  0  0
  131.0763  133.4334  158.3999 C   0  0  0  0  0  0  0  0  0  0  0  0
  130.8015  133.6607  159.7353 C   0  0  0  0  0  0  0  0  0  0  0  0
  130.2787  135.0024  160.1796 C   0  0  2  0  0  0  0  0  0  0  0  0
  130.1179  134.9909  161.2576 H   0  0  0  0  0  0  0  0  0  0  0  0
  128.9752  135.2902  159.4803 C   0  0  0  0  0  0  0  0  0  0  0  0
  127.7816  134.8890  160.0506 C   0  0  0  0  0  0  0  0  0  0  0  0
  126.5856  135.1568  159.4113 C   0  0  0  0  0  0  0  0  0  0  0  0
  126.5838  135.8174  158.1971 C   0  0  0  0  0  0  0  0  0  0  0  0
  127.7776  136.2143  157.6243 C   0  0  0  0  0  0  0  0  0  0  0  0
  128.9734  135.9503  158.2658 C   0  0  0  0  0  0  0  0  0  0  0  0
  131.2565  136.0453  159.8413 N   0  0  0  0  0  0  0  0  0  0  0  0
  131.4051  136.0558  158.8434 H   0  0  0  0  0  0  0  0  0  0  0  0
  130.7464  137.3531  160.2738 C   0  0  0  0  0  0  0  0  0  0  0  0
  131.7561  138.4420  159.9048 C   0  0  0  0  0  0  0  0  0  0  0  0
  133.0408  138.1571  160.5595 N   0  0  0  0  0  0  0  0  0  0  0  0
  133.9720  139.1585  160.2895 C   0  0  0  0  0  0  0  0  0  0  0  0
  134.3516  139.4389  158.9928 C   0  0  0  0  0  0  0  0  0  0  0  0
  135.2314  140.3904  158.7179 N   0  0  0  0  0  0  0  0  0  0  0  0
  135.8066  141.1185  159.6460 C   0  0  0  0  0  0  0  0  0  0  0  0
  135.4958  140.9120  160.9997 C   0  0  0  0  0  0  0  0  0  0  0  0
  136.0889  141.6690  162.0226 C   0  0  0  0  0  0  0  0  0  0  0  0
  135.7515  141.4257  163.3193 C   0  0  0  0  0  0  0  0  0  0  0  0
  134.8258  140.4375  163.6484 C   0  0  0  0  0  0  0  0  0  0  0  0
  134.2306  139.6838  162.6817 C   0  0  0  0  0  0  0  0  0  0  0  0
  134.5539  139.9062  161.3371 C   0  0  0  0  0  0  0  0  0  0  0  0
  133.5518  136.8397  160.1552 C   0  0  0  0  0  0  0  0  0  0  0  0
  132.5272  135.7639  160.5221 C   0  0  0  0  0  0  0  0  0  0  0  0
  131.6374  130.6342  160.9774 H   0  0  0  0  0  0  0  0  0  0  0  0
  132.1361  130.2368  158.5998 H   0  0  0  0  0  0  0  0  0  0  0  0
  131.7800  132.0294  156.9500 H   0  0  0  0  0  0  0  0  0  0  0  0
  130.9166  134.2176  157.6748 H   0  0  0  0  0  0  0  0  0  0  0  0
  127.7833  134.3692  160.9974 H   0  0  0  0  0  0  0  0  0  0  0  0
  125.6529  134.8470  159.8589 H   0  0  0  0  0  0  0  0  0  0  0  0
  125.6496  136.0236  157.6958 H   0  0  0  0  0  0  0  0  0  0  0  0
  127.7762  136.7304  156.6756 H   0  0  0  0  0  0  0  0  0  0  0  0
  129.9061  136.2602  157.8181 H   0  0  0  0  0  0  0  0  0  0  0  0
  130.5979  137.3461  161.3537 H   0  0  0  0  0  0  0  0  0  0  0  0
  129.7970  137.5548  159.7778 H   0  0  0  0  0  0  0  0  0  0  0  0
  131.3847  139.4108  160.2390 H   0  0  0  0  0  0  0  0  0  0  0  0
  131.8947  138.4588  158.8238 H   0  0  0  0  0  0  0  0  0  0  0  0
  133.9177  138.8721  158.1823 H   0  0  0  0  0  0  0  0  0  0  0  0
  136.5208  141.8794  159.3676 H   0  0  0  0  0  0  0  0  0  0  0  0
  136.8076  142.4388  161.7829 H   0  0  0  0  0  0  0  0  0  0  0  0
  136.2086  142.0085  164.1054 H   0  0  0  0  0  0  0  0  0  0  0  0
  134.5766  140.2662  164.6852 H   0  0  0  0  0  0  0  0  0  0  0  0
  133.5148  138.9210  162.9502 H   0  0  0  0  0  0  0  0  0  0  0  0
  133.7199  136.8296  159.0783 H   0  0  0  0  0  0  0  0  0  0  0  0
  134.4904  136.6394  160.6719 H   0  0  0  0  0  0  0  0  0  0  0  0
  132.3696  135.7651  161.6007 H   0  0  0  0  0  0  0  0  0  0  0  0
  132.8981  134.7875  160.2102 H   0  0  0  0  0  0  0  0  0  0  0  0
  1  2  1  0
  2  7  2  0
  2  3  1  0
  3  4  2  0
  3 33  1  0
  4  5  1  0
  4 34  1  0
  5  6  2  0
  5 35  1  0
  6  7  1  0
  6 36  1  0
  7  8  1  0
  8  9  1  1
  8 10  1  0
  8 16  1  0
 10 15  1  0
 10 11  2  0
 11 12  1  0
 11 37  1  0
 12 13  2  0
 12 38  1  0
 13 14  1  0
 13 39  1  0
 14 15  2  0
 14 40  1  0
 15 41  1  0
 16 17  1  0
 16 32  1  0
 16 18  1  0
 18 19  1  0
 18 42  1  0
 18 43  1  0
 19 20  1  0
 19 44  1  0
 19 45  1  0
 20 21  1  0
 20 31  1  0
 21 30  1  0
 21 22  2  0
 22 23  1  0
 22 46  1  0
 23 24  2  0
 24 25  1  0
 24 47  1  0
 25 30  2  0
 25 26  1  0
 26 27  2  0
 26 48  1  0
 27 28  1  0
 27 49  1  0
 28 29  2  0
 28 50  1  0
 29 30  1  0
 29 51  1  0
 31 32  1  0
 31 52  1  0
 31 53  1  0
 32 54  1  0
 32 55  1  0
M  CHG  1  16   1
M  END
>  <DOCK_score>  (1) 
-59.630421

>  <SMILES>  (1) 
Fc1ccccc1[C@H](c1ccccc1)[NH+]1CCN(c2cncc3ccccc23)CC1

$$$$
