CC(NC(NC1CCCC1)=[NH+][C@H]1CCC(=O)NC1)C1=C[C@H](CBr)C=CC1
     RDKit          3D

 58 60  0  0  1  0  0  0  0  0999 V2000
  132.9128  134.3976  162.1704 C   0  0  0  0  0  0  0  0  0  0  0  0
  131.7690  135.2185  161.5716 C   0  0  2  0  0  0  0  0  0  0  0  0
  131.3855  134.6501  160.2768 N   0  0  0  0  0  0  0  0  0  0  0  0
  130.0881  134.7592  159.8353 C   0  0  0  0  0  0  0  0  0  0  0  0
  129.7283  134.2259  158.6203 N   0  0  0  0  0  0  0  0  0  0  0  0
  130.7275  133.5412  157.7962 C   0  0  0  0  0  0  0  0  0  0  0  0
  130.0643  132.9742  156.5239 C   0  0  0  0  0  0  0  0  0  0  0  0
  130.7858  131.6238  156.2892 C   0  0  0  0  0  0  0  0  0  0  0  0
  130.9781  131.0843  157.7281 C   0  0  0  0  0  0  0  0  0  0  0  0
  131.3085  132.3396  158.5619 C   0  0  0  0  0  0  0  0  0  0  0  0
  129.1992  135.3684  160.5686 N   0  0  0  0  0  0  0  0  0  0  0  0
  129.4692  136.0884  161.1598 H   0  0  0  0  0  0  0  0  0  0  0  0
  127.7924  134.9655  160.4998 C   0  0  1  0  0  0  0  0  0  0  0  0
  127.4245  135.0940  159.4818 H   0  0  0  0  0  0  0  0  0  0  0  0
  127.6575  133.4951  160.9138 C   0  0  0  0  0  0  0  0  0  0  0  0
  126.2151  133.0510  160.6588 C   0  0  0  0  0  0  0  0  0  0  0  0
  125.2611  134.0531  161.2430 C   0  0  0  0  0  0  0  0  0  0  0  0
  124.1105  133.7140  161.4212 O   0  0  0  0  0  0  0  0  0  0  0  0
  125.6115  135.2960  161.5758 N   0  0  0  0  0  0  0  0  0  0  0  0
  126.9652  135.8250  161.4566 C   0  0  0  0  0  0  0  0  0  0  0  0
  132.2198  136.6438  161.3808 C   0  0  0  0  0  0  0  0  0  0  0  0
  131.5768  137.5868  161.9995 C   0  0  0  0  0  0  0  0  0  0  0  0
  131.9438  139.0353  161.8791 C   0  0  2  0  0  0  0  0  0  0  0  0
  131.8512  139.5097  162.8561 H   0  0  0  0  0  0  0  0  0  0  0  0
  130.9862  139.7154  160.8986 C   0  0  0  0  0  0  0  0  0  0  0  0
  129.2954  140.1273  161.8132 Br  0  0  0  0  0  0  0  0  0  0  0  0
  133.3512  139.1972  161.3891 C   0  0  0  0  0  0  0  0  0  0  0  0
  133.9922  138.2560  160.7656 C   0  0  0  0  0  0  0  0  0  0  0  0
  133.3916  136.9114  160.4850 C   0  0  0  0  0  0  0  0  0  0  0  0
  132.6127  133.3518  162.2382 H   0  0  0  0  0  0  0  0  0  0  0  0
  133.7931  134.4825  161.5332 H   0  0  0  0  0  0  0  0  0  0  0  0
  133.1474  134.7736  163.1662 H   0  0  0  0  0  0  0  0  0  0  0  0
  130.9131  135.1955  162.2462 H   0  0  0  0  0  0  0  0  0  0  0  0
  132.0470  134.1969  159.7312 H   0  0  0  0  0  0  0  0  0  0  0  0
  128.8129  134.3027  158.3088 H   0  0  0  0  0  0  0  0  0  0  0  0
  131.5253  134.2328  157.5257 H   0  0  0  0  0  0  0  0  0  0  0  0
  128.9987  132.8139  156.6882 H   0  0  0  0  0  0  0  0  0  0  0  0
  130.2245  133.6442  155.6793 H   0  0  0  0  0  0  0  0  0  0  0  0
  131.7489  131.7798  155.8031 H   0  0  0  0  0  0  0  0  0  0  0  0
  130.1613  130.9489  155.7036 H   0  0  0  0  0  0  0  0  0  0  0  0
  131.8052  130.3752  157.7624 H   0  0  0  0  0  0  0  0  0  0  0  0
  130.0601  130.6187  158.0870 H   0  0  0  0  0  0  0  0  0  0  0  0
  132.3884  132.4476  158.6623 H   0  0  0  0  0  0  0  0  0  0  0  0
  130.8477  132.2662  159.5469 H   0  0  0  0  0  0  0  0  0  0  0  0
  128.3396  132.8836  160.3232 H   0  0  0  0  0  0  0  0  0  0  0  0
  127.8930  133.3890  161.9728 H   0  0  0  0  0  0  0  0  0  0  0  0
  126.0449  132.9723  159.5851 H   0  0  0  0  0  0  0  0  0  0  0  0
  126.0477  132.0796  161.1241 H   0  0  0  0  0  0  0  0  0  0  0  0
  124.9219  135.8869  161.9166 H   0  0  0  0  0  0  0  0  0  0  0  0
  127.4369  135.8262  162.4392 H   0  0  0  0  0  0  0  0  0  0  0  0
  126.9239  136.8466  161.0789 H   0  0  0  0  0  0  0  0  0  0  0  0
  130.7417  137.3159  162.6285 H   0  0  0  0  0  0  0  0  0  0  0  0
  131.4359  140.6386  160.5329 H   0  0  0  0  0  0  0  0  0  0  0  0
  130.7919  139.0483  160.0588 H   0  0  0  0  0  0  0  0  0  0  0  0
  133.8522  140.1388  161.5586 H   0  0  0  0  0  0  0  0  0  0  0  0
  135.0035  138.4486  160.4389 H   0  0  0  0  0  0  0  0  0  0  0  0
  133.0627  136.8768  159.4463 H   0  0  0  0  0  0  0  0  0  0  0  0
  134.1471  136.1422  160.6452 H   0  0  0  0  0  0  0  0  0  0  0  0
  1  2  1  0
  1 30  1  0
  1 31  1  0
  1 32  1  0
  2  3  1  0
  2 21  1  0
  2 33  1  1
  3 34  1  0
  4  3  1  0
  4  5  1  0
  4 11  2  0
  5  6  1  0
  5 35  1  0
  6 10  1  0
  6  7  1  0
  6 36  1  0
  7  8  1  0
  7 37  1  0
  7 38  1  0
  8  9  1  0
  8 39  1  0
  8 40  1  0
  9 10  1  0
  9 41  1  0
  9 42  1  0
 10 43  1  0
 10 44  1  0
 11 12  1  0
 11 13  1  0
 13 14  1  6
 13 20  1  0
 13 15  1  0
 15 16  1  0
 15 45  1  0
 15 46  1  0
 16 17  1  0
 16 47  1  0
 16 48  1  0
 17 18  2  0
 17 19  1  0
 19 20  1  0
 19 49  1  0
 20 50  1  0
 20 51  1  0
 21 29  1  0
 21 22  2  0
 22 23  1  0
 22 52  1  0
 23 24  1  1
 23 25  1  0
 23 27  1  0
 25 26  1  0
 25 53  1  0
 25 54  1  0
 27 28  2  0
 27 55  1  0
 28 29  1  0
 28 56  1  0
 29 57  1  0
 29 58  1  0
M  CHG  1  11   1
M  END
>  <DOCK_score>  (1) 
-43.423843

>  <SMILES>  (1) 
CC(NC(NC1CCCC1)=[NH+][C@H]1CCC(=O)NC1)C1=C[C@H](CBr)C=CC1

$$$$
