Cc1ccc([C@@H](CO)[NH+]2CC=C(Cc3cccc4cccnc34)C2)cc1
     RDKit          3D

 51 54  0  0  1  0  0  0  0  0999 V2000
  137.6221  140.0705  160.3315 C   0  0  0  0  0  0  0  0  0  0  0  0
  136.1864  139.6178  160.4024 C   0  0  0  0  0  0  0  0  0  0  0  0
  135.5525  139.5194  161.6270 C   0  0  0  0  0  0  0  0  0  0  0  0
  134.2357  139.1041  161.6921 C   0  0  0  0  0  0  0  0  0  0  0  0
  133.5523  138.7881  160.5327 C   0  0  0  0  0  0  0  0  0  0  0  0
  132.1167  138.3355  160.6037 C   0  0  1  0  0  0  0  0  0  0  0  0
  131.7919  138.3193  161.6441 H   0  0  0  0  0  0  0  0  0  0  0  0
  131.2369  139.3031  159.8097 C   0  0  0  0  0  0  0  0  0  0  0  0
  131.3293  138.9972  158.4169 O   0  0  0  0  0  0  0  0  0  0  0  0
  131.9997  136.9868  160.0333 N   0  0  1  0  0  0  0  0  0  0  0  0
  132.2963  136.9803  159.0689 H   0  0  0  0  0  0  0  0  0  0  0  0
  132.7775  136.0098  160.8321 C   0  0  0  0  0  0  0  0  0  0  0  0
  131.9714  134.7321  160.7970 C   0  0  0  0  0  0  0  0  0  0  0  0
  130.7449  134.9986  160.4155 C   0  0  0  0  0  0  0  0  0  0  0  0
  129.6405  133.9856  160.2567 C   0  0  0  0  0  0  0  0  0  0  0  0
  130.2321  132.6537  159.8729 C   0  0  0  0  0  0  0  0  0  0  0  0
  130.6028  131.7676  160.8373 C   0  0  0  0  0  0  0  0  0  0  0  0
  131.1469  130.5290  160.5047 C   0  0  0  0  0  0  0  0  0  0  0  0
  131.3326  130.1743  159.2031 C   0  0  0  0  0  0  0  0  0  0  0  0
  130.9666  131.0657  158.1820 C   0  0  0  0  0  0  0  0  0  0  0  0
  131.1424  130.7375  156.8245 C   0  0  0  0  0  0  0  0  0  0  0  0
  130.7638  131.6545  155.8857 C   0  0  0  0  0  0  0  0  0  0  0  0
  130.2210  132.8743  156.2843 C   0  0  0  0  0  0  0  0  0  0  0  0
  130.0592  133.1769  157.5494 N   0  0  0  0  0  0  0  0  0  0  0  0
  130.4084  132.3242  158.5180 C   0  0  0  0  0  0  0  0  0  0  0  0
  130.6118  136.4820  160.1593 C   0  0  0  0  0  0  0  0  0  0  0  0
  134.1877  138.8820  159.3086 C   0  0  0  0  0  0  0  0  0  0  0  0
  135.5033  139.3015  159.2431 C   0  0  0  0  0  0  0  0  0  0  0  0
  138.2798  139.2040  160.3972 H   0  0  0  0  0  0  0  0  0  0  0  0
  137.7940  140.5865  159.3867 H   0  0  0  0  0  0  0  0  0  0  0  0
  137.8305  140.7487  161.1589 H   0  0  0  0  0  0  0  0  0  0  0  0
  136.0862  139.7664  162.5328 H   0  0  0  0  0  0  0  0  0  0  0  0
  133.7406  139.0268  162.6489 H   0  0  0  0  0  0  0  0  0  0  0  0
  130.2016  139.2038  160.1357 H   0  0  0  0  0  0  0  0  0  0  0  0
  131.5751  140.3252  159.9804 H   0  0  0  0  0  0  0  0  0  0  0  0
  131.0438  138.1012  158.1912 H   0  0  0  0  0  0  0  0  0  0  0  0
  133.7578  135.8503  160.3831 H   0  0  0  0  0  0  0  0  0  0  0  0
  132.8840  136.3610  161.8584 H   0  0  0  0  0  0  0  0  0  0  0  0
  132.3467  133.7508  161.0471 H   0  0  0  0  0  0  0  0  0  0  0  0
  129.1009  133.8857  161.1984 H   0  0  0  0  0  0  0  0  0  0  0  0
  128.9536  134.3161  159.4776 H   0  0  0  0  0  0  0  0  0  0  0  0
  130.4697  132.0275  161.8771 H   0  0  0  0  0  0  0  0  0  0  0  0
  131.4292  129.8428  161.2894 H   0  0  0  0  0  0  0  0  0  0  0  0
  131.7585  129.2127  158.9577 H   0  0  0  0  0  0  0  0  0  0  0  0
  131.5652  129.7873  156.5333 H   0  0  0  0  0  0  0  0  0  0  0  0
  130.8855  131.4344  154.8354 H   0  0  0  0  0  0  0  0  0  0  0  0
  129.9265  133.5898  155.5309 H   0  0  0  0  0  0  0  0  0  0  0  0
  130.1085  136.9661  160.9963 H   0  0  0  0  0  0  0  0  0  0  0  0
  130.0608  136.6577  159.2354 H   0  0  0  0  0  0  0  0  0  0  0  0
  133.6552  138.6311  158.4033 H   0  0  0  0  0  0  0  0  0  0  0  0
  135.9984  139.3788  158.2865 H   0  0  0  0  0  0  0  0  0  0  0  0
  1  2  1  0
  1 29  1  0
  1 30  1  0
  1 31  1  0
  2 28  2  0
  2  3  1  0
  3  4  2  0
  3 32  1  0
  4  5  1  0
  4 33  1  0
  5  6  1  0
  5 27  2  0
  6  7  1  1
  6  8  1  0
  6 10  1  0
  8  9  1  0
  8 34  1  0
  8 35  1  0
  9 36  1  0
 10 11  1  6
 10 26  1  0
 10 12  1  0
 12 13  1  0
 12 37  1  0
 12 38  1  0
 13 14  2  0
 13 39  1  0
 14 15  1  0
 14 26  1  0
 15 16  1  0
 15 40  1  0
 15 41  1  0
 16 25  1  0
 16 17  2  0
 17 18  1  0
 17 42  1  0
 18 19  2  0
 18 43  1  0
 19 20  1  0
 19 44  1  0
 20 25  2  0
 20 21  1  0
 21 22  2  0
 21 45  1  0
 22 23  1  0
 22 46  1  0
 23 24  2  0
 23 47  1  0
 24 25  1  0
 26 48  1  0
 26 49  1  0
 27 28  1  0
 27 50  1  0
 28 51  1  0
M  CHG  1  10   1
M  END
>  <DOCK_score>  (1) 
-55.6642

>  <SMILES>  (1) 
Cc1ccc([C@@H](CO)[NH+]2CC=C(Cc3cccc4cccnc34)C2)cc1

$$$$
