CCc1ccc(-c2c[nH]c(N[C@H](c3ccccc3)c3cccnc3)[nH+]2)cc1
     RDKit          3D

 50 53  0  0  1  0  0  0  0  0999 V2000
  130.8302  128.9649  151.6984 C   0  0  0  0  0  0  0  0  0  0  0  0
  132.0412  129.5245  152.4475 C   0  0  0  0  0  0  0  0  0  0  0  0
  131.5724  130.3041  153.6490 C   0  0  0  0  0  0  0  0  0  0  0  0
  131.4069  129.6638  154.8640 C   0  0  0  0  0  0  0  0  0  0  0  0
  130.9823  130.3738  155.9687 C   0  0  0  0  0  0  0  0  0  0  0  0
  130.7101  131.7361  155.8560 C   0  0  0  0  0  0  0  0  0  0  0  0
  130.2487  132.5033  157.0385 C   0  0  0  0  0  0  0  0  0  0  0  0
  129.5282  132.0121  158.0771 C   0  0  0  0  0  0  0  0  0  0  0  0
  129.3198  133.0553  158.9464 N   0  0  0  0  0  0  0  0  0  0  0  0
  128.8344  133.0157  159.7853 H   0  0  0  0  0  0  0  0  0  0  0  0
  129.9196  134.1544  158.4131 C   0  0  0  0  0  0  0  0  0  0  0  0
  129.9406  135.4168  158.9808 N   0  0  0  0  0  0  0  0  0  0  0  0
  128.8304  135.8567  159.8295 C   0  0  2  0  0  0  0  0  0  0  0  0
  128.7377  135.1856  160.6833 H   0  0  0  0  0  0  0  0  0  0  0  0
  127.5510  135.8367  159.0334 C   0  0  0  0  0  0  0  0  0  0  0  0
  126.3469  135.5906  159.6662 C   0  0  0  0  0  0  0  0  0  0  0  0
  125.1728  135.5765  158.9366 C   0  0  0  0  0  0  0  0  0  0  0  0
  125.2040  135.7991  157.5727 C   0  0  0  0  0  0  0  0  0  0  0  0
  126.4086  136.0405  156.9391 C   0  0  0  0  0  0  0  0  0  0  0  0
  127.5822  136.0588  157.6694 C   0  0  0  0  0  0  0  0  0  0  0  0
  129.0961  137.2574  160.3181 C   0  0  0  0  0  0  0  0  0  0  0  0
  128.6027  137.6789  161.5435 C   0  0  0  0  0  0  0  0  0  0  0  0
  128.8717  138.9759  161.9525 C   0  0  0  0  0  0  0  0  0  0  0  0
  129.6178  139.8000  161.1308 C   0  0  0  0  0  0  0  0  0  0  0  0
  130.0711  139.3651  159.9715 N   0  0  0  0  0  0  0  0  0  0  0  0
  129.8393  138.1360  159.5532 C   0  0  0  0  0  0  0  0  0  0  0  0
  130.4780  133.8194  157.2756 N   0  0  0  0  0  0  0  0  0  0  0  0
  130.9742  134.4174  156.6950 H   0  0  0  0  0  0  0  0  0  0  0  0
  130.8736  132.3748  154.6280 C   0  0  0  0  0  0  0  0  0  0  0  0
  131.3036  131.6559  153.5313 C   0  0  0  0  0  0  0  0  0  0  0  0
  131.1693  128.4009  150.8295 H   0  0  0  0  0  0  0  0  0  0  0  0
  130.2655  128.3079  152.3600 H   0  0  0  0  0  0  0  0  0  0  0  0
  130.1930  129.7868  151.3722 H   0  0  0  0  0  0  0  0  0  0  0  0
  132.6784  128.7025  152.7738 H   0  0  0  0  0  0  0  0  0  0  0  0
  132.6059  130.1814  151.7859 H   0  0  0  0  0  0  0  0  0  0  0  0
  131.6139  128.6073  154.9491 H   0  0  0  0  0  0  0  0  0  0  0  0
  130.8578  129.8739  156.9179 H   0  0  0  0  0  0  0  0  0  0  0  0
  129.1838  130.9957  158.1975 H   0  0  0  0  0  0  0  0  0  0  0  0
  130.6902  136.0100  158.8167 H   0  0  0  0  0  0  0  0  0  0  0  0
  126.3231  135.4127  160.7312 H   0  0  0  0  0  0  0  0  0  0  0  0
  124.2316  135.3882  159.4317 H   0  0  0  0  0  0  0  0  0  0  0  0
  124.2871  135.7847  157.0021 H   0  0  0  0  0  0  0  0  0  0  0  0
  126.4329  136.2143  155.8734 H   0  0  0  0  0  0  0  0  0  0  0  0
  128.5235  136.2471  157.1742 H   0  0  0  0  0  0  0  0  0  0  0  0
  128.0226  137.0125  162.1649 H   0  0  0  0  0  0  0  0  0  0  0  0
  128.5036  139.3378  162.9010 H   0  0  0  0  0  0  0  0  0  0  0  0
  129.8321  140.8117  161.4421 H   0  0  0  0  0  0  0  0  0  0  0  0
  130.2311  137.8139  158.5997 H   0  0  0  0  0  0  0  0  0  0  0  0
  130.6638  133.4300  154.5348 H   0  0  0  0  0  0  0  0  0  0  0  0
  131.4310  132.1499  152.5792 H   0  0  0  0  0  0  0  0  0  0  0  0
  1  2  1  0
  1 31  1  0
  1 32  1  0
  1 33  1  0
  2  3  1  0
  2 34  1  0
  2 35  1  0
  3 30  2  0
  3  4  1  0
  4  5  2  0
  4 36  1  0
  5  6  1  0
  5 37  1  0
  6  7  1  0
  6 29  2  0
  7 27  1  0
  7  8  2  0
  8  9  1  0
  8 38  1  0
  9 10  1  0
  9 11  1  0
 11 12  1  0
 11 27  2  0
 12 13  1  0
 12 39  1  0
 13 14  1  1
 13 15  1  0
 13 21  1  0
 15 20  1  0
 15 16  2  0
 16 17  1  0
 16 40  1  0
 17 18  2  0
 17 41  1  0
 18 19  1  0
 18 42  1  0
 19 20  2  0
 19 43  1  0
 20 44  1  0
 21 26  1  0
 21 22  2  0
 22 23  1  0
 22 45  1  0
 23 24  2  0
 23 46  1  0
 24 25  1  0
 24 47  1  0
 25 26  2  0
 26 48  1  0
 27 28  1  0
 29 30  1  0
 29 49  1  0
 30 50  1  0
M  CHG  1  27   1
M  END
>  <DOCK_score>  (1) 
-61.330906

>  <SMILES>  (1) 
CCc1ccc(-c2c[nH]c(N[C@H](c3ccccc3)c3cccnc3)[nH+]2)cc1

$$$$
