Fc1cccc(NC[C@@H](Oc2ncnn3cccc23)c2ccccc2)c1C[NH2+]CCC1CC=CC1
     RDKit          3D

 66 70  0  0  1  0  0  0  0  0999 V2000
  133.1243  132.6243  159.2485 F   0  0  0  0  0  0  0  0  0  0  0  0
  131.7836  132.7374  159.3711 C   0  0  0  0  0  0  0  0  0  0  0  0
  130.9496  131.8763  158.6767 C   0  0  0  0  0  0  0  0  0  0  0  0
  129.5776  131.9896  158.8000 C   0  0  0  0  0  0  0  0  0  0  0  0
  129.0333  132.9622  159.6161 C   0  0  0  0  0  0  0  0  0  0  0  0
  129.8656  133.8280  160.3140 C   0  0  0  0  0  0  0  0  0  0  0  0
  129.3174  134.8124  161.1393 N   0  0  0  0  0  0  0  0  0  0  0  0
  127.9263  135.2327  160.9534 C   0  0  0  0  0  0  0  0  0  0  0  0
  127.7764  136.6976  161.3690 C   0  0  1  0  0  0  0  0  0  0  0  0
  126.7413  137.0104  161.2307 H   0  0  0  0  0  0  0  0  0  0  0  0
  128.1379  136.8421  162.7439 O   0  0  0  0  0  0  0  0  0  0  0  0
  127.5198  137.8231  163.4420 C   0  0  0  0  0  0  0  0  0  0  0  0
  126.6261  138.5987  162.8557 N   0  0  0  0  0  0  0  0  0  0  0  0
  125.9986  139.5680  163.5203 C   0  0  0  0  0  0  0  0  0  0  0  0
  126.2350  139.8156  164.7791 N   0  0  0  0  0  0  0  0  0  0  0  0
  127.1734  139.0455  165.4806 N   0  0  0  0  0  0  0  0  0  0  0  0
  127.6162  139.0655  166.7513 C   0  0  0  0  0  0  0  0  0  0  0  0
  128.5450  138.0864  166.9147 C   0  0  0  0  0  0  0  0  0  0  0  0
  128.6906  137.4244  165.6950 C   0  0  0  0  0  0  0  0  0  0  0  0
  127.8272  138.0329  164.8036 C   0  0  0  0  0  0  0  0  0  0  0  0
  128.6782  137.5557  160.5196 C   0  0  0  0  0  0  0  0  0  0  0  0
  129.2009  138.7280  161.0327 C   0  0  0  0  0  0  0  0  0  0  0  0
  130.0313  139.5131  160.2548 C   0  0  0  0  0  0  0  0  0  0  0  0
  130.3324  139.1300  158.9612 C   0  0  0  0  0  0  0  0  0  0  0  0
  129.8055  137.9602  158.4464 C   0  0  0  0  0  0  0  0  0  0  0  0
  128.9782  137.1733  159.2255 C   0  0  0  0  0  0  0  0  0  0  0  0
  131.2443  133.7130  160.1896 C   0  0  0  0  0  0  0  0  0  0  0  0
  132.1508  134.6503  160.9450 C   0  0  0  0  0  0  0  0  0  0  0  0
  132.4222  135.8373  160.1232 N   0  0  0  0  0  0  0  0  0  0  0  0
  132.8698  135.5564  159.2637 H   0  0  0  0  0  0  0  0  0  0  0  0
  131.5539  136.3062  159.9127 H   0  0  0  0  0  0  0  0  0  0  0  0
  133.3060  136.7509  160.8596 C   0  0  0  0  0  0  0  0  0  0  0  0
  133.5886  137.9874  160.0037 C   0  0  0  0  0  0  0  0  0  0  0  0
  134.5092  138.9389  160.7706 C   0  0  0  0  0  0  0  0  0  0  0  0
  133.7837  139.5482  161.9928 C   0  0  0  0  0  0  0  0  0  0  0  0
  134.2829  140.9725  162.0650 C   0  0  0  0  0  0  0  0  0  0  0  0
  134.8474  141.3301  160.9437 C   0  0  0  0  0  0  0  0  0  0  0  0
  134.8189  140.2038  159.9368 C   0  0  0  0  0  0  0  0  0  0  0  0
  131.3723  131.1149  158.0379 H   0  0  0  0  0  0  0  0  0  0  0  0
  128.9299  131.3168  158.2574 H   0  0  0  0  0  0  0  0  0  0  0  0
  127.9610  133.0523  159.7081 H   0  0  0  0  0  0  0  0  0  0  0  0
  129.8576  135.2177  161.8356 H   0  0  0  0  0  0  0  0  0  0  0  0
  127.6507  135.1227  159.9045 H   0  0  0  0  0  0  0  0  0  0  0  0
  127.2741  134.6122  161.5677 H   0  0  0  0  0  0  0  0  0  0  0  0
  125.2720  140.1724  162.9977 H   0  0  0  0  0  0  0  0  0  0  0  0
  127.2860  139.7498  167.5187 H   0  0  0  0  0  0  0  0  0  0  0  0
  129.0759  137.8604  167.8276 H   0  0  0  0  0  0  0  0  0  0  0  0
  129.3510  136.5955  165.4873 H   0  0  0  0  0  0  0  0  0  0  0  0
  128.9629  139.0291  162.0422 H   0  0  0  0  0  0  0  0  0  0  0  0
  130.4426  140.4272  160.6568 H   0  0  0  0  0  0  0  0  0  0  0  0
  130.9789  139.7448  158.3526 H   0  0  0  0  0  0  0  0  0  0  0  0
  130.0405  137.6612  157.4356 H   0  0  0  0  0  0  0  0  0  0  0  0
  128.5665  136.2593  158.8233 H   0  0  0  0  0  0  0  0  0  0  0  0
  131.6674  134.9539  161.8736 H   0  0  0  0  0  0  0  0  0  0  0  0
  133.0889  134.1438  161.1726 H   0  0  0  0  0  0  0  0  0  0  0  0
  132.8224  137.0547  161.7880 H   0  0  0  0  0  0  0  0  0  0  0  0
  134.2439  136.2445  161.0872 H   0  0  0  0  0  0  0  0  0  0  0  0
  134.0722  137.6836  159.0752 H   0  0  0  0  0  0  0  0  0  0  0  0
  132.6508  138.4938  159.7761 H   0  0  0  0  0  0  0  0  0  0  0  0
  135.4272  138.4340  161.0714 H   0  0  0  0  0  0  0  0  0  0  0  0
  132.7045  139.5313  161.8410 H   0  0  0  0  0  0  0  0  0  0  0  0
  134.0488  139.0065  162.9006 H   0  0  0  0  0  0  0  0  0  0  0  0
  134.1858  141.6107  162.9307 H   0  0  0  0  0  0  0  0  0  0  0  0
  135.2788  142.3030  160.7599 H   0  0  0  0  0  0  0  0  0  0  0  0
  135.7878  140.1078  159.4469 H   0  0  0  0  0  0  0  0  0  0  0  0
  134.0346  140.3738  159.1991 H   0  0  0  0  0  0  0  0  0  0  0  0
  1  2  1  0
  2 27  2  0
  2  3  1  0
  3  4  2  0
  3 39  1  0
  4  5  1  0
  4 40  1  0
  5  6  2  0
  5 41  1  0
  6  7  1  0
  6 27  1  0
  7  8  1  0
  7 42  1  0
  8  9  1  0
  8 43  1  0
  8 44  1  0
  9 10  1  1
  9 11  1  0
  9 21  1  0
 11 12  1  0
 12 20  1  0
 12 13  2  0
 13 14  1  0
 14 15  2  0
 14 45  1  0
 15 16  1  0
 16 20  1  0
 16 17  1  0
 17 18  2  0
 17 46  1  0
 18 19  1  0
 18 47  1  0
 19 20  2  0
 19 48  1  0
 21 26  1  0
 21 22  2  0
 22 23  1  0
 22 49  1  0
 23 24  2  0
 23 50  1  0
 24 25  1  0
 24 51  1  0
 25 26  2  0
 25 52  1  0
 26 53  1  0
 27 28  1  0
 28 29  1  0
 28 54  1  0
 28 55  1  0
 29 30  1  0
 29 31  1  0
 29 32  1  0
 32 33  1  0
 32 56  1  0
 32 57  1  0
 33 34  1  0
 33 58  1  0
 33 59  1  0
 34 38  1  0
 34 35  1  0
 34 60  1  0
 35 36  1  0
 35 61  1  0
 35 62  1  0
 36 37  2  0
 36 63  1  0
 37 38  1  0
 37 64  1  0
 38 65  1  0
 38 66  1  0
M  CHG  1  29   1
M  END
>  <DOCK_score>  (1) 
-45.833954

>  <SMILES>  (1) 
Fc1cccc(NC[C@@H](Oc2ncnn3cccc23)c2ccccc2)c1C[NH2+]CCC1CC=CC1

$$$$
