C[C@H](Cc1c[nH]c2ccccc12)[NH2+][C@@H]1C[C@@H]2C=C[C@H]1C2
     RDKit          3D

 43 46  0  0  1  0  0  0  0  0999 V2000
  129.9499  135.7022  159.6911 C   0  0  0  0  0  0  0  0  0  0  0  0
  129.5141  134.6973  158.6228 C   0  0  2  0  0  0  0  0  0  0  0  0
  130.2026  134.7427  157.7789 H   0  0  0  0  0  0  0  0  0  0  0  0
  128.1008  135.0397  158.1469 C   0  0  0  0  0  0  0  0  0  0  0  0
  127.1490  134.9769  159.3135 C   0  0  0  0  0  0  0  0  0  0  0  0
  126.8235  135.9884  160.1339 C   0  0  0  0  0  0  0  0  0  0  0  0
  125.9304  135.5560  161.0761 N   0  0  0  0  0  0  0  0  0  0  0  0
  125.5495  136.1074  161.7773 H   0  0  0  0  0  0  0  0  0  0  0  0
  125.6524  134.2218  160.8798 C   0  0  0  0  0  0  0  0  0  0  0  0
  124.8320  133.3082  161.5339 C   0  0  0  0  0  0  0  0  0  0  0  0
  124.7645  132.0070  161.0868 C   0  0  0  0  0  0  0  0  0  0  0  0
  125.5076  131.5962  159.9884 C   0  0  0  0  0  0  0  0  0  0  0  0
  126.3196  132.4768  159.3312 C   0  0  0  0  0  0  0  0  0  0  0  0
  126.3984  133.8021  159.7635 C   0  0  0  0  0  0  0  0  0  0  0  0
  129.5248  133.3429  159.1911 N   0  0  0  0  0  0  0  0  0  0  0  0
  128.6854  133.1983  159.7320 H   0  0  0  0  0  0  0  0  0  0  0  0
  130.3317  133.2346  159.7873 H   0  0  0  0  0  0  0  0  0  0  0  0
  129.5832  132.3562  158.1044 C   0  0  2  0  0  0  0  0  0  0  0  0
  128.9476  132.6642  157.2741 H   0  0  0  0  0  0  0  0  0  0  0  0
  129.1632  130.9393  158.6313 C   0  0  0  0  0  0  0  0  0  0  0  0
  130.4453  130.0839  158.3781 C   0  0  2  0  0  0  0  0  0  0  0  0
  130.3164  129.0018  158.4022 H   0  0  0  0  0  0  0  0  0  0  0  0
  131.4805  130.6673  159.3476 C   0  0  0  0  0  0  0  0  0  0  0  0
  131.8321  131.8608  158.9129 C   0  0  0  0  0  0  0  0  0  0  0  0
  131.0557  132.1552  157.6236 C   0  0  1  0  0  0  0  0  0  0  0  0
  131.4722  132.9245  156.9734 H   0  0  0  0  0  0  0  0  0  0  0  0
  130.9642  130.7025  157.0285 C   0  0  0  0  0  0  0  0  0  0  0  0
  129.2614  135.6568  160.5350 H   0  0  0  0  0  0  0  0  0  0  0  0
  130.9568  135.4583  160.0302 H   0  0  0  0  0  0  0  0  0  0  0  0
  129.9420  136.7073  159.2695 H   0  0  0  0  0  0  0  0  0  0  0  0
  128.0931  136.0448  157.7253 H   0  0  0  0  0  0  0  0  0  0  0  0
  127.7904  134.3239  157.3857 H   0  0  0  0  0  0  0  0  0  0  0  0
  127.2095  136.9945  160.0610 H   0  0  0  0  0  0  0  0  0  0  0  0
  124.2503  133.6180  162.3895 H   0  0  0  0  0  0  0  0  0  0  0  0
  124.1267  131.2994  161.5957 H   0  0  0  0  0  0  0  0  0  0  0  0
  125.4429  130.5725  159.6506 H   0  0  0  0  0  0  0  0  0  0  0  0
  126.8945  132.1501  158.4773 H   0  0  0  0  0  0  0  0  0  0  0  0
  128.3198  130.5420  158.0668 H   0  0  0  0  0  0  0  0  0  0  0  0
  128.9304  130.9750  159.6956 H   0  0  0  0  0  0  0  0  0  0  0  0
  131.8571  130.1825  160.2362 H   0  0  0  0  0  0  0  0  0  0  0  0
  132.5459  132.5199  159.3849 H   0  0  0  0  0  0  0  0  0  0  0  0
  131.9377  130.3090  156.7361 H   0  0  0  0  0  0  0  0  0  0  0  0
  130.2316  130.6257  156.2252 H   0  0  0  0  0  0  0  0  0  0  0  0
  1  2  1  0
  1 28  1  0
  1 29  1  0
  1 30  1  0
  2  3  1  6
  2  4  1  0
  2 15  1  0
  4  5  1  0
  4 31  1  0
  4 32  1  0
  5 14  1  0
  5  6  2  0
  6  7  1  0
  6 33  1  0
  7  8  1  0
  7  9  1  0
  9 14  2  0
  9 10  1  0
 10 11  2  0
 10 34  1  0
 11 12  1  0
 11 35  1  0
 12 13  2  0
 12 36  1  0
 13 14  1  0
 13 37  1  0
 15 16  1  0
 15 17  1  0
 15 18  1  0
 18 19  1  6
 18 25  1  0
 18 20  1  0
 20 21  1  0
 20 38  1  0
 20 39  1  0
 21 22  1  6
 21 27  1  0
 21 23  1  0
 23 24  2  0
 23 40  1  0
 24 25  1  0
 24 41  1  0
 25 26  1  6
 25 27  1  0
 27 42  1  0
 27 43  1  0
M  CHG  1  15   1
M  END
>  <DOCK_score>  (1) 
-41.45155

>  <SMILES>  (1) 
C[C@H](Cc1c[nH]c2ccccc12)[NH2+][C@@H]1C[C@@H]2C=C[C@H]1C2

$$$$
