CCc1ccc(-c2c[nH]c(N[C@@H](Cc3ccc(F)cc3)c3ccc(C)cc3)[nH+]2)cc1
     RDKit          3D

 57 60  0  0  1  0  0  0  0  0999 V2000
  130.4719  130.3770  151.0966 C   0  0  0  0  0  0  0  0  0  0  0  0
  131.2252  129.6268  152.1958 C   0  0  0  0  0  0  0  0  0  0  0  0
  131.0185  130.3263  153.5145 C   0  0  0  0  0  0  0  0  0  0  0  0
  130.2392  131.4672  153.5742 C   0  0  0  0  0  0  0  0  0  0  0  0
  130.0417  132.1089  154.7800 C   0  0  0  0  0  0  0  0  0  0  0  0
  130.6387  131.6116  155.9370 C   0  0  0  0  0  0  0  0  0  0  0  0
  130.4347  132.3000  157.2350 C   0  0  0  0  0  0  0  0  0  0  0  0
  129.8798  131.7580  158.3474 C   0  0  0  0  0  0  0  0  0  0  0  0
  129.8847  132.7358  159.3122 N   0  0  0  0  0  0  0  0  0  0  0  0
  129.5515  132.6497  160.2191 H   0  0  0  0  0  0  0  0  0  0  0  0
  130.4430  133.8477  158.7608 C   0  0  0  0  0  0  0  0  0  0  0  0
  130.6335  135.0583  159.4047 N   0  0  0  0  0  0  0  0  0  0  0  0
  130.2191  135.2186  160.8008 C   0  0  1  0  0  0  0  0  0  0  0  0
  130.7549  134.5021  161.4232 H   0  0  0  0  0  0  0  0  0  0  0  0
  130.5396  136.6400  161.2677 C   0  0  0  0  0  0  0  0  0  0  0  0
  132.0012  136.7346  161.6223 C   0  0  0  0  0  0  0  0  0  0  0  0
  132.4172  136.4700  162.9138 C   0  0  0  0  0  0  0  0  0  0  0  0
  133.7580  136.5510  163.2388 C   0  0  0  0  0  0  0  0  0  0  0  0
  134.6834  136.9088  162.2729 C   0  0  0  0  0  0  0  0  0  0  0  0
  135.9936  136.9945  162.5910 F   0  0  0  0  0  0  0  0  0  0  0  0
  134.2650  137.1791  160.9811 C   0  0  0  0  0  0  0  0  0  0  0  0
  132.9243  137.0916  160.6571 C   0  0  0  0  0  0  0  0  0  0  0  0
  128.7365  134.9744  160.9158 C   0  0  0  0  0  0  0  0  0  0  0  0
  127.9036  135.2641  159.8513 C   0  0  0  0  0  0  0  0  0  0  0  0
  126.5443  135.0350  159.9550 C   0  0  0  0  0  0  0  0  0  0  0  0
  126.0164  134.5270  161.1272 C   0  0  0  0  0  0  0  0  0  0  0  0
  124.5337  134.2831  161.2426 C   0  0  0  0  0  0  0  0  0  0  0  0
  126.8487  134.2423  162.1937 C   0  0  0  0  0  0  0  0  0  0  0  0
  128.2087  134.4659  162.0879 C   0  0  0  0  0  0  0  0  0  0  0  0
  130.7756  133.5816  157.5212 N   0  0  0  0  0  0  0  0  0  0  0  0
  131.1962  134.2026  156.9061 H   0  0  0  0  0  0  0  0  0  0  0  0
  131.4277  130.4645  155.8701 C   0  0  0  0  0  0  0  0  0  0  0  0
  131.6136  129.8278  154.6599 C   0  0  0  0  0  0  0  0  0  0  0  0
  129.4082  130.3976  151.3341 H   0  0  0  0  0  0  0  0  0  0  0  0
  130.8488  131.3974  151.0294 H   0  0  0  0  0  0  0  0  0  0  0  0
  130.6214  129.8708  150.1429 H   0  0  0  0  0  0  0  0  0  0  0  0
  130.8485  128.6056  152.2634 H   0  0  0  0  0  0  0  0  0  0  0  0
  132.2892  129.6056  151.9586 H   0  0  0  0  0  0  0  0  0  0  0  0
  129.7810  131.8544  152.6762 H   0  0  0  0  0  0  0  0  0  0  0  0
  129.4291  132.9972  154.8262 H   0  0  0  0  0  0  0  0  0  0  0  0
  129.5054  130.7506  158.4541 H   0  0  0  0  0  0  0  0  0  0  0  0
  131.0416  135.8004  158.9316 H   0  0  0  0  0  0  0  0  0  0  0  0
  130.3133  137.3449  160.4680 H   0  0  0  0  0  0  0  0  0  0  0  0
  129.9369  136.8790  162.1441 H   0  0  0  0  0  0  0  0  0  0  0  0
  131.6946  136.1959  163.6682 H   0  0  0  0  0  0  0  0  0  0  0  0
  134.0833  136.3403  164.2467 H   0  0  0  0  0  0  0  0  0  0  0  0
  134.9858  137.4587  160.2271 H   0  0  0  0  0  0  0  0  0  0  0  0
  132.5976  137.3023  159.6496 H   0  0  0  0  0  0  0  0  0  0  0  0
  128.3154  135.6655  158.9371 H   0  0  0  0  0  0  0  0  0  0  0  0
  125.8940  135.2571  159.1217 H   0  0  0  0  0  0  0  0  0  0  0  0
  124.0469  135.1796  161.6264 H   0  0  0  0  0  0  0  0  0  0  0  0
  124.1279  134.0415  160.2602 H   0  0  0  0  0  0  0  0  0  0  0  0
  124.3543  133.4518  161.9243 H   0  0  0  0  0  0  0  0  0  0  0  0
  126.4364  133.8453  163.1095 H   0  0  0  0  0  0  0  0  0  0  0  0
  128.8589  134.2438  162.9212 H   0  0  0  0  0  0  0  0  0  0  0  0
  131.8929  130.0750  156.7636 H   0  0  0  0  0  0  0  0  0  0  0  0
  132.2250  128.9391  154.6069 H   0  0  0  0  0  0  0  0  0  0  0  0
  1  2  1  0
  1 34  1  0
  1 35  1  0
  1 36  1  0
  2  3  1  0
  2 37  1  0
  2 38  1  0
  3 33  2  0
  3  4  1  0
  4  5  2  0
  4 39  1  0
  5  6  1  0
  5 40  1  0
  6  7  1  0
  6 32  2  0
  7 30  1  0
  7  8  2  0
  8  9  1  0
  8 41  1  0
  9 10  1  0
  9 11  1  0
 11 12  1  0
 11 30  2  0
 12 13  1  0
 12 42  1  0
 13 14  1  1
 13 15  1  0
 13 23  1  0
 15 16  1  0
 15 43  1  0
 15 44  1  0
 16 22  1  0
 16 17  2  0
 17 18  1  0
 17 45  1  0
 18 19  2  0
 18 46  1  0
 19 20  1  0
 19 21  1  0
 21 22  2  0
 21 47  1  0
 22 48  1  0
 23 29  1  0
 23 24  2  0
 24 25  1  0
 24 49  1  0
 25 26  2  0
 25 50  1  0
 26 27  1  0
 26 28  1  0
 27 51  1  0
 27 52  1  0
 27 53  1  0
 28 29  2  0
 28 54  1  0
 29 55  1  0
 30 31  1  0
 32 33  1  0
 32 56  1  0
 33 57  1  0
M  CHG  1  30   1
M  END
>  <DOCK_score>  (1) 
-59.512878

>  <SMILES>  (1) 
CCc1ccc(-c2c[nH]c(N[C@@H](Cc3ccc(F)cc3)c3ccc(C)cc3)[nH+]2)cc1

$$$$
