CCc1ccc(-c2c[nH]c(N[C@@H](Cc3ccc(F)cc3)c3ccccc3F)[nH+]2)cc1
     RDKit          3D

 54 57  0  0  1  0  0  0  0  0999 V2000
  129.6356  129.9308  151.4522 C   0  0  0  0  0  0  0  0  0  0  0  0
  130.8573  129.6854  152.3400 C   0  0  0  0  0  0  0  0  0  0  0  0
  130.7065  130.4559  153.6263 C   0  0  0  0  0  0  0  0  0  0  0  0
  129.9968  131.6433  153.6390 C   0  0  0  0  0  0  0  0  0  0  0  0
  129.8514  132.3508  154.8150 C   0  0  0  0  0  0  0  0  0  0  0  0
  130.4302  131.8722  155.9891 C   0  0  0  0  0  0  0  0  0  0  0  0
  130.2817  132.6306  157.2551 C   0  0  0  0  0  0  0  0  0  0  0  0
  129.7076  132.1746  158.3959 C   0  0  0  0  0  0  0  0  0  0  0  0
  129.7819  133.1935  159.3144 N   0  0  0  0  0  0  0  0  0  0  0  0
  129.4541  133.1692  160.2271 H   0  0  0  0  0  0  0  0  0  0  0  0
  130.3999  134.2432  158.7075 C   0  0  0  0  0  0  0  0  0  0  0  0
  130.6694  135.4684  159.2929 N   0  0  0  0  0  0  0  0  0  0  0  0
  130.2803  135.7173  160.6832 C   0  0  1  0  0  0  0  0  0  0  0  0
  130.7788  134.9991  161.3342 H   0  0  0  0  0  0  0  0  0  0  0  0
  130.6905  137.1366  161.0812 C   0  0  0  0  0  0  0  0  0  0  0  0
  132.1589  137.1589  161.4196 C   0  0  0  0  0  0  0  0  0  0  0  0
  132.5718  136.9293  162.7187 C   0  0  0  0  0  0  0  0  0  0  0  0
  133.9184  136.9439  163.0292 C   0  0  0  0  0  0  0  0  0  0  0  0
  134.8534  137.2003  162.0406 C   0  0  0  0  0  0  0  0  0  0  0  0
  136.1696  137.2212  162.3442 F   0  0  0  0  0  0  0  0  0  0  0  0
  134.4383  137.4357  160.7408 C   0  0  0  0  0  0  0  0  0  0  0  0
  133.0915  137.4146  160.4317 C   0  0  0  0  0  0  0  0  0  0  0  0
  128.7871  135.5685  160.8213 C   0  0  0  0  0  0  0  0  0  0  0  0
  127.9615  135.8587  159.7514 C   0  0  0  0  0  0  0  0  0  0  0  0
  126.5922  135.7168  159.8761 C   0  0  0  0  0  0  0  0  0  0  0  0
  126.0459  135.2958  161.0745 C   0  0  0  0  0  0  0  0  0  0  0  0
  126.8689  135.0103  162.1470 C   0  0  0  0  0  0  0  0  0  0  0  0
  128.2414  135.1466  162.0216 C   0  0  0  0  0  0  0  0  0  0  0  0
  129.0468  134.8685  163.0698 F   0  0  0  0  0  0  0  0  0  0  0  0
  130.7015  133.9013  157.4786 N   0  0  0  0  0  0  0  0  0  0  0  0
  131.1514  134.4671  156.8318 H   0  0  0  0  0  0  0  0  0  0  0  0
  131.1487  130.6780  155.9693 C   0  0  0  0  0  0  0  0  0  0  0  0
  131.2832  129.9763  154.7885 C   0  0  0  0  0  0  0  0  0  0  0  0
  129.5551  130.9950  151.2310 H   0  0  0  0  0  0  0  0  0  0  0  0
  129.7447  129.3733  150.5219 H   0  0  0  0  0  0  0  0  0  0  0  0
  128.7366  129.5987  151.9714 H   0  0  0  0  0  0  0  0  0  0  0  0
  130.9378  128.6211  152.5613 H   0  0  0  0  0  0  0  0  0  0  0  0
  131.7563  130.0175  151.8207 H   0  0  0  0  0  0  0  0  0  0  0  0
  129.5525  132.0155  152.7276 H   0  0  0  0  0  0  0  0  0  0  0  0
  129.2932  133.2753  154.8247 H   0  0  0  0  0  0  0  0  0  0  0  0
  129.2745  131.1977  158.5523 H   0  0  0  0  0  0  0  0  0  0  0  0
  131.1158  136.1620  158.7826 H   0  0  0  0  0  0  0  0  0  0  0  0
  130.4986  137.8165  160.2512 H   0  0  0  0  0  0  0  0  0  0  0  0
  130.1125  137.4516  161.9501 H   0  0  0  0  0  0  0  0  0  0  0  0
  131.8420  136.7344  163.4906 H   0  0  0  0  0  0  0  0  0  0  0  0
  134.2411  136.7605  164.0434 H   0  0  0  0  0  0  0  0  0  0  0  0
  135.1667  137.6355  159.9689 H   0  0  0  0  0  0  0  0  0  0  0  0
  132.7674  137.5981  159.4179 H   0  0  0  0  0  0  0  0  0  0  0  0
  128.3868  136.1922  158.8163 H   0  0  0  0  0  0  0  0  0  0  0  0
  125.9482  135.9396  159.0382 H   0  0  0  0  0  0  0  0  0  0  0  0
  124.9756  135.1899  161.1722 H   0  0  0  0  0  0  0  0  0  0  0  0
  126.4420  134.6810  163.0828 H   0  0  0  0  0  0  0  0  0  0  0  0
  131.5995  130.3027  156.8759 H   0  0  0  0  0  0  0  0  0  0  0  0
  131.8394  129.0506  154.7720 H   0  0  0  0  0  0  0  0  0  0  0  0
  1  2  1  0
  1 34  1  0
  1 35  1  0
  1 36  1  0
  2  3  1  0
  2 37  1  0
  2 38  1  0
  3 33  2  0
  3  4  1  0
  4  5  2  0
  4 39  1  0
  5  6  1  0
  5 40  1  0
  6  7  1  0
  6 32  2  0
  7 30  1  0
  7  8  2  0
  8  9  1  0
  8 41  1  0
  9 10  1  0
  9 11  1  0
 11 12  1  0
 11 30  2  0
 12 13  1  0
 12 42  1  0
 13 14  1  1
 13 15  1  0
 13 23  1  0
 15 16  1  0
 15 43  1  0
 15 44  1  0
 16 22  1  0
 16 17  2  0
 17 18  1  0
 17 45  1  0
 18 19  2  0
 18 46  1  0
 19 20  1  0
 19 21  1  0
 21 22  2  0
 21 47  1  0
 22 48  1  0
 23 28  1  0
 23 24  2  0
 24 25  1  0
 24 49  1  0
 25 26  2  0
 25 50  1  0
 26 27  1  0
 26 51  1  0
 27 28  2  0
 27 52  1  0
 28 29  1  0
 30 31  1  0
 32 33  1  0
 32 53  1  0
 33 54  1  0
M  CHG  1  30   1
M  END
>  <DOCK_score>  (1) 
-59.41573

>  <SMILES>  (1) 
CCc1ccc(-c2c[nH]c(N[C@@H](Cc3ccc(F)cc3)c3ccccc3F)[nH+]2)cc1

$$$$
