CCC1=CC[C@@H](NC(NC2CC=CC2)=[NH+]C[C@H](O)c2cccc(C#N)c2)CC1
     RDKit          3D

 59 61  0  0  1  0  0  0  0  0999 V2000
  130.3249  129.4189  159.7317 C   0  0  0  0  0  0  0  0  0  0  0  0
  130.0976  130.1820  158.4253 C   0  0  0  0  0  0  0  0  0  0  0  0
  130.2012  131.6630  158.6839 C   0  0  0  0  0  0  0  0  0  0  0  0
  131.3644  132.2193  158.5695 C   0  0  0  0  0  0  0  0  0  0  0  0
  131.6207  133.6829  158.7793 C   0  0  0  0  0  0  0  0  0  0  0  0
  130.4576  134.3172  159.5453 C   0  0  1  0  0  0  0  0  0  0  0  0
  130.4622  133.9641  160.5765 H   0  0  0  0  0  0  0  0  0  0  0  0
  130.5912  135.7759  159.5238 N   0  0  0  0  0  0  0  0  0  0  0  0
  130.1071  136.5260  160.5693 C   0  0  0  0  0  0  0  0  0  0  0  0
  130.7094  137.7178  160.8970 N   0  0  0  0  0  0  0  0  0  0  0  0
  131.8669  138.1883  160.1322 C   0  0  0  0  0  0  0  0  0  0  0  0
  133.0957  137.2803  160.3700 C   0  0  0  0  0  0  0  0  0  0  0  0
  134.2735  138.2277  160.3938 C   0  0  0  0  0  0  0  0  0  0  0  0
  133.8814  139.4615  160.5596 C   0  0  0  0  0  0  0  0  0  0  0  0
  132.3769  139.5435  160.6747 C   0  0  0  0  0  0  0  0  0  0  0  0
  129.0773  136.1073  161.2499 N   0  0  0  0  0  0  0  0  0  0  0  0
  128.6526  135.2665  161.0187 H   0  0  0  0  0  0  0  0  0  0  0  0
  128.5616  136.9066  162.3640 C   0  0  0  0  0  0  0  0  0  0  0  0
  127.3594  136.1954  162.9882 C   0  0  2  0  0  0  0  0  0  0  0  0
  127.6668  135.2163  163.3554 H   0  0  0  0  0  0  0  0  0  0  0  0
  126.3365  136.0353  162.0033 O   0  0  0  0  0  0  0  0  0  0  0  0
  126.8286  137.0177  164.1343 C   0  0  0  0  0  0  0  0  0  0  0  0
  126.7951  136.4830  165.4102 C   0  0  0  0  0  0  0  0  0  0  0  0
  126.3140  137.2325  166.4688 C   0  0  0  0  0  0  0  0  0  0  0  0
  125.8543  138.5160  166.2568 C   0  0  0  0  0  0  0  0  0  0  0  0
  125.8803  139.0598  164.9712 C   0  0  0  0  0  0  0  0  0  0  0  0
  125.4044  140.3911  164.7436 C   0  0  0  0  0  0  0  0  0  0  0  0
  125.0268  141.4473  164.5631 N   0  0  0  0  0  0  0  0  0  0  0  0
  126.3723  138.2995  163.9081 C   0  0  0  0  0  0  0  0  0  0  0  0
  129.1463  133.9050  158.8647 C   0  0  0  0  0  0  0  0  0  0  0  0
  128.9503  132.4004  159.0631 C   0  0  0  0  0  0  0  0  0  0  0  0
  130.2500  128.3477  159.5446 H   0  0  0  0  0  0  0  0  0  0  0  0
  131.3164  129.6514  160.1205 H   0  0  0  0  0  0  0  0  0  0  0  0
  129.5703  129.7140  160.4609 H   0  0  0  0  0  0  0  0  0  0  0  0
  129.1062  129.9494  158.0365 H   0  0  0  0  0  0  0  0  0  0  0  0
  130.8522  129.8869  157.6961 H   0  0  0  0  0  0  0  0  0  0  0  0
  132.2017  131.5917  158.3021 H   0  0  0  0  0  0  0  0  0  0  0  0
  132.5410  133.8105  159.3493 H   0  0  0  0  0  0  0  0  0  0  0  0
  131.7240  134.1740  157.8118 H   0  0  0  0  0  0  0  0  0  0  0  0
  131.0211  136.2126  158.7718 H   0  0  0  0  0  0  0  0  0  0  0  0
  130.3678  138.2471  161.6347 H   0  0  0  0  0  0  0  0  0  0  0  0
  131.6299  138.2561  159.0704 H   0  0  0  0  0  0  0  0  0  0  0  0
  133.0059  136.7623  161.3248 H   0  0  0  0  0  0  0  0  0  0  0  0
  133.2009  136.5630  159.5561 H   0  0  0  0  0  0  0  0  0  0  0  0
  135.3042  137.9233  160.2873 H   0  0  0  0  0  0  0  0  0  0  0  0
  134.5450  140.3121  160.6083 H   0  0  0  0  0  0  0  0  0  0  0  0
  131.9938  140.3639  160.0681 H   0  0  0  0  0  0  0  0  0  0  0  0
  132.0806  139.6716  161.7158 H   0  0  0  0  0  0  0  0  0  0  0  0
  129.3418  137.0288  163.1154 H   0  0  0  0  0  0  0  0  0  0  0  0
  128.2541  137.8859  161.9970 H   0  0  0  0  0  0  0  0  0  0  0  0
  126.0141  136.8679  161.6319 H   0  0  0  0  0  0  0  0  0  0  0  0
  127.1495  135.4773  165.5810 H   0  0  0  0  0  0  0  0  0  0  0  0
  126.2944  136.8105  167.4628 H   0  0  0  0  0  0  0  0  0  0  0  0
  125.4749  139.0984  167.0833 H   0  0  0  0  0  0  0  0  0  0  0  0
  126.3955  138.7143  162.9111 H   0  0  0  0  0  0  0  0  0  0  0  0
  128.3139  134.4455  159.3153 H   0  0  0  0  0  0  0  0  0  0  0  0
  129.1998  134.1302  157.7996 H   0  0  0  0  0  0  0  0  0  0  0  0
  128.7126  132.2016  160.1081 H   0  0  0  0  0  0  0  0  0  0  0  0
  128.1273  132.0574  158.4360 H   0  0  0  0  0  0  0  0  0  0  0  0
  1  2  1  0
  1 32  1  0
  1 33  1  0
  1 34  1  0
  2  3  1  0
  2 35  1  0
  2 36  1  0
  3 31  1  0
  3  4  2  0
  4  5  1  0
  4 37  1  0
  5  6  1  0
  5 38  1  0
  5 39  1  0
  6  7  1  1
  6  8  1  0
  6 30  1  0
  8 40  1  0
  9  8  1  0
  9 10  1  0
  9 16  2  0
 10 11  1  0
 10 41  1  0
 11 15  1  0
 11 12  1  0
 11 42  1  0
 12 13  1  0
 12 43  1  0
 12 44  1  0
 13 14  2  0
 13 45  1  0
 14 15  1  0
 14 46  1  0
 15 47  1  0
 15 48  1  0
 16 17  1  0
 16 18  1  0
 18 19  1  0
 18 49  1  0
 18 50  1  0
 19 20  1  1
 19 21  1  0
 19 22  1  0
 21 51  1  0
 22 29  1  0
 22 23  2  0
 23 24  1  0
 23 52  1  0
 24 25  2  0
 24 53  1  0
 25 26  1  0
 25 54  1  0
 26 27  1  0
 26 29  2  0
 27 28  3  0
 29 55  1  0
 30 31  1  0
 30 56  1  0
 30 57  1  0
 31 58  1  0
 31 59  1  0
M  CHG  1  16   1
M  END
>  <DOCK_score>  (1) 
-46.031059

>  <SMILES>  (1) 
CCC1=CC[C@@H](NC(NC2CC=CC2)=[NH+]C[C@H](O)c2cccc(C#N)c2)CC1

$$$$
