CCc1ccc([C@H](Nc2[nH]cc(C3=CC(O)CC3)[nH+]2)c2ccccc2Cl)cc1
     RDKit          3D

 53 56  0  0  1  0  0  0  0  0999 V2000
  124.9799  132.3898  161.8638 C   0  0  0  0  0  0  0  0  0  0  0  0
  125.1502  133.1956  160.5744 C   0  0  0  0  0  0  0  0  0  0  0  0
  126.5512  133.0142  160.0500 C   0  0  0  0  0  0  0  0  0  0  0  0
  126.8324  131.9852  159.1707 C   0  0  0  0  0  0  0  0  0  0  0  0
  128.1174  131.8194  158.6890 C   0  0  0  0  0  0  0  0  0  0  0  0
  129.1212  132.6827  159.0861 C   0  0  0  0  0  0  0  0  0  0  0  0
  130.5221  132.5020  158.5609 C   0  0  2  0  0  0  0  0  0  0  0  0
  131.0773  131.8412  159.2266 H   0  0  0  0  0  0  0  0  0  0  0  0
  131.1909  133.8038  158.4957 N   0  0  0  0  0  0  0  0  0  0  0  0
  131.9075  134.2690  159.5848 C   0  0  0  0  0  0  0  0  0  0  0  0
  132.0699  133.6117  160.7658 N   0  0  0  0  0  0  0  0  0  0  0  0
  131.7071  132.7414  160.9931 H   0  0  0  0  0  0  0  0  0  0  0  0
  132.8415  134.4076  161.5760 C   0  0  0  0  0  0  0  0  0  0  0  0
  133.1293  135.5299  160.8668 C   0  0  0  0  0  0  0  0  0  0  0  0
  133.9380  136.6731  161.3375 C   0  0  0  0  0  0  0  0  0  0  0  0
  134.1956  137.7556  160.6229 C   0  0  0  0  0  0  0  0  0  0  0  0
  135.0490  138.7259  161.4060 C   0  0  2  0  0  0  0  0  0  0  0  0
  136.0999  139.2390  160.5848 O   0  0  0  0  0  0  0  0  0  0  0  0
  135.6334  137.8900  162.5678 C   0  0  0  0  0  0  0  0  0  0  0  0
  134.5779  136.7666  162.7034 C   0  0  0  0  0  0  0  0  0  0  0  0
  132.5457  135.4120  159.6463 N   0  0  0  0  0  0  0  0  0  0  0  0
  132.5921  136.0692  158.9345 H   0  0  0  0  0  0  0  0  0  0  0  0
  130.4675  131.8958  157.1822 C   0  0  0  0  0  0  0  0  0  0  0  0
  129.8110  132.5578  156.1615 C   0  0  0  0  0  0  0  0  0  0  0  0
  129.7652  132.0044  154.8958 C   0  0  0  0  0  0  0  0  0  0  0  0
  130.3661  130.7831  154.6525 C   0  0  0  0  0  0  0  0  0  0  0  0
  131.0182  130.1179  155.6733 C   0  0  0  0  0  0  0  0  0  0  0  0
  131.0692  130.6742  156.9394 C   0  0  0  0  0  0  0  0  0  0  0  0
  131.8877  129.8390  158.2224 Cl  0  0  0  0  0  0  0  0  0  0  0  0
  128.8413  133.7086  159.9695 C   0  0  0  0  0  0  0  0  0  0  0  0
  127.5553  133.8771  160.4479 C   0  0  0  0  0  0  0  0  0  0  0  0
  123.9665  132.5210  162.2431 H   0  0  0  0  0  0  0  0  0  0  0  0
  125.1572  131.3341  161.6586 H   0  0  0  0  0  0  0  0  0  0  0  0
  125.6947  132.7403  162.6083 H   0  0  0  0  0  0  0  0  0  0  0  0
  124.9729  134.2513  160.7796 H   0  0  0  0  0  0  0  0  0  0  0  0
  124.4353  132.8451  159.8299 H   0  0  0  0  0  0  0  0  0  0  0  0
  126.0479  131.3111  158.8598 H   0  0  0  0  0  0  0  0  0  0  0  0
  128.3370  131.0155  158.0020 H   0  0  0  0  0  0  0  0  0  0  0  0
  131.1317  134.3398  157.6894 H   0  0  0  0  0  0  0  0  0  0  0  0
  133.1585  134.1843  162.5840 H   0  0  0  0  0  0  0  0  0  0  0  0
  133.8439  137.9232  159.6155 H   0  0  0  0  0  0  0  0  0  0  0  0
  134.4383  139.5416  161.7930 H   0  0  0  0  0  0  0  0  0  0  0  0
  135.7906  139.7316  159.8123 H   0  0  0  0  0  0  0  0  0  0  0  0
  136.6097  137.4835  162.3038 H   0  0  0  0  0  0  0  0  0  0  0  0
  135.6927  138.4801  163.4822 H   0  0  0  0  0  0  0  0  0  0  0  0
  133.8330  137.0313  163.4539 H   0  0  0  0  0  0  0  0  0  0  0  0
  135.0598  135.8238  162.9620 H   0  0  0  0  0  0  0  0  0  0  0  0
  129.3373  133.5095  156.3521 H   0  0  0  0  0  0  0  0  0  0  0  0
  129.2563  132.5242  154.0975 H   0  0  0  0  0  0  0  0  0  0  0  0
  130.3262  130.3491  153.6644 H   0  0  0  0  0  0  0  0  0  0  0  0
  131.4875  129.1640  155.4832 H   0  0  0  0  0  0  0  0  0  0  0  0
  129.6265  134.3804  160.2832 H   0  0  0  0  0  0  0  0  0  0  0  0
  127.3356  134.6812  161.1345 H   0  0  0  0  0  0  0  0  0  0  0  0
  1  2  1  0
  1 32  1  0
  1 33  1  0
  1 34  1  0
  2  3  1  0
  2 35  1  0
  2 36  1  0
  3 31  2  0
  3  4  1  0
  4  5  2  0
  4 37  1  0
  5  6  1  0
  5 38  1  0
  6  7  1  0
  6 30  2  0
  7  8  1  1
  7  9  1  0
  7 23  1  0
  9 39  1  0
 10  9  1  0
 10 21  2  0
 10 11  1  0
 11 12  1  0
 11 13  1  0
 13 14  2  0
 13 40  1  0
 14 15  1  0
 14 21  1  0
 15 20  1  0
 15 16  2  0
 16 17  1  0
 16 41  1  0
 17 18  1  0
 17 19  1  0
 17 42  1  1
 18 43  1  0
 19 20  1  0
 19 44  1  0
 19 45  1  0
 20 46  1  0
 20 47  1  0
 21 22  1  0
 23 28  1  0
 23 24  2  0
 24 25  1  0
 24 48  1  0
 25 26  2  0
 25 49  1  0
 26 27  1  0
 26 50  1  0
 27 28  2  0
 27 51  1  0
 28 29  1  0
 30 31  1  0
 30 52  1  0
 31 53  1  0
M  CHG  1  21   1
M  END
>  <DOCK_score>  (1) 
-58.964668

>  <SMILES>  (1) 
CCc1ccc([C@H](Nc2[nH]cc(C3=CC(O)CC3)[nH+]2)c2ccccc2Cl)cc1

$$$$
