Nc1ccc(N[C@@H]2C=CCC2)c(CNC(NC2CC=CC2)=[NH+]Cc2ccccc2)n1
     RDKit          3D

 61 64  0  0  1  0  0  0  0  0999 V2000
  126.0554  136.3912  161.5125 N   0  0  0  0  0  0  0  0  0  0  0  0
  127.0298  135.7919  160.7173 C   0  0  0  0  0  0  0  0  0  0  0  0
  126.6485  135.0514  159.6034 C   0  0  0  0  0  0  0  0  0  0  0  0
  127.6235  134.4610  158.8206 C   0  0  0  0  0  0  0  0  0  0  0  0
  128.9593  134.6372  159.1784 C   0  0  0  0  0  0  0  0  0  0  0  0
  129.9804  134.0625  158.4113 N   0  0  0  0  0  0  0  0  0  0  0  0
  129.7357  132.8154  157.6826 C   0  0  2  0  0  0  0  0  0  0  0  0
  128.9250  132.9480  156.9661 H   0  0  0  0  0  0  0  0  0  0  0  0
  129.4092  131.6982  158.6460 C   0  0  0  0  0  0  0  0  0  0  0  0
  130.0558  130.6072  158.3372 C   0  0  0  0  0  0  0  0  0  0  0  0
  130.9213  130.8150  157.1162 C   0  0  0  0  0  0  0  0  0  0  0  0
  131.0231  132.3504  156.9632 C   0  0  0  0  0  0  0  0  0  0  0  0
  129.2643  135.3842  160.3058 C   0  0  0  0  0  0  0  0  0  0  0  0
  130.7047  135.5761  160.7050 C   0  0  0  0  0  0  0  0  0  0  0  0
  131.2337  136.7807  160.0606 N   0  0  0  0  0  0  0  0  0  0  0  0
  131.1360  137.9978  160.6928 C   0  0  0  0  0  0  0  0  0  0  0  0
  130.0875  138.2467  161.5463 N   0  0  0  0  0  0  0  0  0  0  0  0
  129.9833  139.5436  162.2199 C   0  0  0  0  0  0  0  0  0  0  0  0
  131.1194  139.7251  163.2532 C   0  0  0  0  0  0  0  0  0  0  0  0
  130.4733  140.4536  164.4094 C   0  0  0  0  0  0  0  0  0  0  0  0
  129.1716  140.3851  164.3401 C   0  0  0  0  0  0  0  0  0  0  0  0
  128.7321  139.5992  163.1267 C   0  0  0  0  0  0  0  0  0  0  0  0
  132.0375  138.9153  160.4828 N   0  0  0  0  0  0  0  0  0  0  0  0
  131.9687  139.7741  160.9287 H   0  0  0  0  0  0  0  0  0  0  0  0
  133.1548  138.6499  159.5731 C   0  0  0  0  0  0  0  0  0  0  0  0
  134.3614  139.4364  160.0166 C   0  0  0  0  0  0  0  0  0  0  0  0
  135.2883  139.8643  159.0847 C   0  0  0  0  0  0  0  0  0  0  0  0
  136.3981  140.5807  159.4921 C   0  0  0  0  0  0  0  0  0  0  0  0
  136.5755  140.8784  160.8303 C   0  0  0  0  0  0  0  0  0  0  0  0
  135.6486  140.4504  161.7623 C   0  0  0  0  0  0  0  0  0  0  0  0
  134.5415  139.7294  161.3554 C   0  0  0  0  0  0  0  0  0  0  0  0
  128.3077  135.9337  161.0303 N   0  0  0  0  0  0  0  0  0  0  0  0
  126.3152  136.9090  162.2904 H   0  0  0  0  0  0  0  0  0  0  0  0
  125.1171  136.2907  161.2881 H   0  0  0  0  0  0  0  0  0  0  0  0
  125.6039  134.9388  159.3532 H   0  0  0  0  0  0  0  0  0  0  0  0
  127.3566  133.8804  157.9498 H   0  0  0  0  0  0  0  0  0  0  0  0
  130.8497  134.4902  158.3625 H   0  0  0  0  0  0  0  0  0  0  0  0
  128.7302  131.7903  159.4809 H   0  0  0  0  0  0  0  0  0  0  0  0
  129.9816  129.6779  158.8826 H   0  0  0  0  0  0  0  0  0  0  0  0
  131.9097  130.3828  157.2733 H   0  0  0  0  0  0  0  0  0  0  0  0
  130.4494  130.3762  156.2371 H   0  0  0  0  0  0  0  0  0  0  0  0
  131.0108  132.6406  155.9126 H   0  0  0  0  0  0  0  0  0  0  0  0
  131.9117  132.7354  157.4634 H   0  0  0  0  0  0  0  0  0  0  0  0
  131.2873  134.7102  160.3908 H   0  0  0  0  0  0  0  0  0  0  0  0
  130.7703  135.6846  161.7876 H   0  0  0  0  0  0  0  0  0  0  0  0
  131.6529  136.7197  159.1880 H   0  0  0  0  0  0  0  0  0  0  0  0
  129.4166  137.5638  161.7026 H   0  0  0  0  0  0  0  0  0  0  0  0
  129.9787  140.3586  161.4962 H   0  0  0  0  0  0  0  0  0  0  0  0
  131.4956  138.7551  163.5784 H   0  0  0  0  0  0  0  0  0  0  0  0
  131.9259  140.3236  162.8295 H   0  0  0  0  0  0  0  0  0  0  0  0
  131.0175  140.9642  165.1903 H   0  0  0  0  0  0  0  0  0  0  0  0
  128.4974  140.8315  165.0560 H   0  0  0  0  0  0  0  0  0  0  0  0
  127.9164  140.1121  162.6172 H   0  0  0  0  0  0  0  0  0  0  0  0
  128.4264  138.5931  163.4142 H   0  0  0  0  0  0  0  0  0  0  0  0
  132.8784  138.9479  158.5616 H   0  0  0  0  0  0  0  0  0  0  0  0
  133.3896  137.5856  159.5870 H   0  0  0  0  0  0  0  0  0  0  0  0
  135.1478  139.6350  158.0386 H   0  0  0  0  0  0  0  0  0  0  0  0
  137.1245  140.9112  158.7645 H   0  0  0  0  0  0  0  0  0  0  0  0
  137.4405  141.4414  161.1483 H   0  0  0  0  0  0  0  0  0  0  0  0
  135.7894  140.6791  162.8084 H   0  0  0  0  0  0  0  0  0  0  0  0
  133.8175  139.3948  162.0836 H   0  0  0  0  0  0  0  0  0  0  0  0
  1  2  1  0
  1 33  1  0
  1 34  1  0
  2 32  2  0
  2  3  1  0
  3  4  2  0
  3 35  1  0
  4  5  1  0
  4 36  1  0
  5  6  1  0
  5 13  2  0
  6  7  1  0
  6 37  1  0
  7  8  1  6
  7 12  1  0
  7  9  1  0
  9 10  2  0
  9 38  1  0
 10 11  1  0
 10 39  1  0
 11 12  1  0
 11 40  1  0
 11 41  1  0
 12 42  1  0
 12 43  1  0
 13 14  1  0
 13 32  1  0
 14 15  1  0
 14 44  1  0
 14 45  1  0
 15 46  1  0
 16 15  1  0
 16 17  1  0
 16 23  2  0
 17 18  1  0
 17 47  1  0
 18 22  1  0
 18 19  1  0
 18 48  1  0
 19 20  1  0
 19 49  1  0
 19 50  1  0
 20 21  2  0
 20 51  1  0
 21 22  1  0
 21 52  1  0
 22 53  1  0
 22 54  1  0
 23 24  1  0
 23 25  1  0
 25 26  1  0
 25 55  1  0
 25 56  1  0
 26 31  1  0
 26 27  2  0
 27 28  1  0
 27 57  1  0
 28 29  2  0
 28 58  1  0
 29 30  1  0
 29 59  1  0
 30 31  2  0
 30 60  1  0
 31 61  1  0
M  CHG  1  23   1
M  END
>  <DOCK_score>  (1) 
-53.876431

>  <SMILES>  (1) 
Nc1ccc(N[C@@H]2C=CCC2)c(CNC(NC2CC=CC2)=[NH+]Cc2ccccc2)n1

$$$$
