N[C@@H](C[NH2+][C@H]1CC=CCC1)C(=O)Nc1cc(SCc2ccc(F)cc2F)ccc1Cl
     RDKit          3D

 55 57  0  0  1  0  0  0  0  0999 V2000
  130.7045  137.3797  159.5139 N   0  0  0  0  0  0  0  0  0  0  0  0
  131.4592  136.8256  160.6457 C   0  0  1  0  0  0  0  0  0  0  0  0
  130.8203  136.7948  161.5283 H   0  0  0  0  0  0  0  0  0  0  0  0
  131.9249  135.4089  160.3035 C   0  0  0  0  0  0  0  0  0  0  0  0
  130.8565  134.7027  159.5838 N   0  0  0  0  0  0  0  0  0  0  0  0
  130.0336  134.6550  160.1657 H   0  0  0  0  0  0  0  0  0  0  0  0
  130.6384  135.2000  158.7332 H   0  0  0  0  0  0  0  0  0  0  0  0
  131.3036  133.3427  159.2550 C   0  0  1  0  0  0  0  0  0  0  0  0
  132.3486  133.3653  158.9456 H   0  0  0  0  0  0  0  0  0  0  0  0
  131.1496  132.4402  160.4811 C   0  0  0  0  0  0  0  0  0  0  0  0
  131.3477  131.0038  160.0938 C   0  0  0  0  0  0  0  0  0  0  0  0
  131.2937  130.5668  158.8765 C   0  0  0  0  0  0  0  0  0  0  0  0
  131.0352  131.4370  157.6815 C   0  0  0  0  0  0  0  0  0  0  0  0
  130.4383  132.7749  158.1229 C   0  0  0  0  0  0  0  0  0  0  0  0
  132.6583  137.6951  160.9238 C   0  0  0  0  0  0  0  0  0  0  0  0
  133.0943  137.7839  162.0521 O   0  0  0  0  0  0  0  0  0  0  0  0
  133.2462  138.3739  159.9188 N   0  0  0  0  0  0  0  0  0  0  0  0
  134.3598  139.1815  160.1772 C   0  0  0  0  0  0  0  0  0  0  0  0
  134.5031  139.7914  161.4149 C   0  0  0  0  0  0  0  0  0  0  0  0
  135.6061  140.5963  161.6654 C   0  0  0  0  0  0  0  0  0  0  0  0
  135.7890  141.3788  163.2334 S   0  0  0  0  0  0  0  0  0  0  0  0
  134.3152  140.8303  164.1377 C   0  0  0  0  0  0  0  0  0  0  0  0
  134.3249  141.4251  165.5222 C   0  0  0  0  0  0  0  0  0  0  0  0
  135.4855  141.4093  166.2729 C   0  0  0  0  0  0  0  0  0  0  0  0
  135.4973  141.9597  167.5405 C   0  0  0  0  0  0  0  0  0  0  0  0
  134.3429  142.5172  168.0646 C   0  0  0  0  0  0  0  0  0  0  0  0
  134.3536  143.0507  169.3058 F   0  0  0  0  0  0  0  0  0  0  0  0
  133.1789  142.5286  167.3161 C   0  0  0  0  0  0  0  0  0  0  0  0
  133.1698  141.9822  166.0442 C   0  0  0  0  0  0  0  0  0  0  0  0
  132.0340  141.9921  165.3126 F   0  0  0  0  0  0  0  0  0  0  0  0
  136.5686  140.7807  160.6793 C   0  0  0  0  0  0  0  0  0  0  0  0
  136.4233  140.1717  159.4480 C   0  0  0  0  0  0  0  0  0  0  0  0
  135.3231  139.3737  159.1936 C   0  0  0  0  0  0  0  0  0  0  0  0
  135.1444  138.6114  157.6442 Cl  0  0  0  0  0  0  0  0  0  0  0  0
  130.3310  138.2897  159.7391 H   0  0  0  0  0  0  0  0  0  0  0  0
  131.2753  137.4188  158.6829 H   0  0  0  0  0  0  0  0  0  0  0  0
  132.8138  135.4606  159.6748 H   0  0  0  0  0  0  0  0  0  0  0  0
  132.1604  134.8720  161.2223 H   0  0  0  0  0  0  0  0  0  0  0  0
  131.8914  132.7180  161.2298 H   0  0  0  0  0  0  0  0  0  0  0  0
  130.1513  132.5670  160.9001 H   0  0  0  0  0  0  0  0  0  0  0  0
  131.5482  130.2906  160.8795 H   0  0  0  0  0  0  0  0  0  0  0  0
  131.4439  129.5103  158.7107 H   0  0  0  0  0  0  0  0  0  0  0  0
  131.9727  131.6159  157.1552 H   0  0  0  0  0  0  0  0  0  0  0  0
  130.3358  130.9343  157.0133 H   0  0  0  0  0  0  0  0  0  0  0  0
  129.4204  132.6213  158.4813 H   0  0  0  0  0  0  0  0  0  0  0  0
  130.4331  133.4689  157.2824 H   0  0  0  0  0  0  0  0  0  0  0  0
  132.8975  138.3028  159.0165 H   0  0  0  0  0  0  0  0  0  0  0  0
  133.7558  139.6438  162.1805 H   0  0  0  0  0  0  0  0  0  0  0  0
  133.4208  141.1579  163.6077 H   0  0  0  0  0  0  0  0  0  0  0  0
  134.3170  139.7425  164.2095 H   0  0  0  0  0  0  0  0  0  0  0  0
  136.3848  140.9703  165.8668 H   0  0  0  0  0  0  0  0  0  0  0  0
  136.4058  141.9505  168.1245 H   0  0  0  0  0  0  0  0  0  0  0  0
  132.2785  142.9637  167.7239 H   0  0  0  0  0  0  0  0  0  0  0  0
  137.4286  141.4040  160.8746 H   0  0  0  0  0  0  0  0  0  0  0  0
  137.1704  140.3195  158.6822 H   0  0  0  0  0  0  0  0  0  0  0  0
  1  2  1  0
  1 35  1  0
  1 36  1  0
  2  3  1  1
  2  4  1  0
  2 15  1  0
  4  5  1  0
  4 37  1  0
  4 38  1  0
  5  6  1  0
  5  7  1  0
  5  8  1  0
  8  9  1  6
  8 14  1  0
  8 10  1  0
 10 11  1  0
 10 39  1  0
 10 40  1  0
 11 12  2  0
 11 41  1  0
 12 13  1  0
 12 42  1  0
 13 14  1  0
 13 43  1  0
 13 44  1  0
 14 45  1  0
 14 46  1  0
 15 16  2  0
 15 17  1  0
 17 18  1  0
 17 47  1  0
 18 33  1  0
 18 19  2  0
 19 20  1  0
 19 48  1  0
 20 21  1  0
 20 31  2  0
 21 22  1  0
 22 23  1  0
 22 49  1  0
 22 50  1  0
 23 29  1  0
 23 24  2  0
 24 25  1  0
 24 51  1  0
 25 26  2  0
 25 52  1  0
 26 27  1  0
 26 28  1  0
 28 29  2  0
 28 53  1  0
 29 30  1  0
 31 32  1  0
 31 54  1  0
 32 33  2  0
 32 55  1  0
 33 34  1  0
M  CHG  1   5   1
M  END
>  <DOCK_score>  (1) 
-56.779659

>  <SMILES>  (1) 
N[C@@H](C[NH2+][C@H]1CC=CCC1)C(=O)Nc1cc(SCc2ccc(F)cc2F)ccc1Cl

$$$$
