CN(C[C@H]1CCCC[N@@H+]1Cc1ccccc1)S(=O)(=O)c1ccccc1
     RDKit          3D

 52 54  0  0  1  0  0  0  0  0999 V2000
  127.3506  134.9105  158.6858 C   0  0  0  0  0  0  0  0  0  0  0  0
  128.1838  135.7388  159.5610 N   0  0  0  0  0  0  0  0  0  0  0  0
  129.4767  136.2369  159.0850 C   0  0  0  0  0  0  0  0  0  0  0  0
  130.5909  135.7125  159.9930 C   0  0  1  0  0  0  0  0  0  0  0  0
  130.2576  135.7417  161.0303 H   0  0  0  0  0  0  0  0  0  0  0  0
  130.9250  134.2698  159.6072 C   0  0  0  0  0  0  0  0  0  0  0  0
  132.0418  133.7496  160.5169 C   0  0  0  0  0  0  0  0  0  0  0  0
  133.2546  134.6779  160.4044 C   0  0  0  0  0  0  0  0  0  0  0  0
  132.8328  136.1047  160.7618 C   0  0  0  0  0  0  0  0  0  0  0  0
  131.7834  136.5543  159.8392 N   0  0  2  0  0  0  0  0  0  0  0  0
  132.1204  136.4883  158.8904 H   0  0  0  0  0  0  0  0  0  0  0  0
  131.4359  137.9500  160.1379 C   0  0  0  0  0  0  0  0  0  0  0  0
  132.6891  138.7210  160.4638 C   0  0  0  0  0  0  0  0  0  0  0  0
  133.1318  138.7997  161.7710 C   0  0  0  0  0  0  0  0  0  0  0  0
  134.2840  139.5029  162.0692 C   0  0  0  0  0  0  0  0  0  0  0  0
  134.9875  140.1362  161.0619 C   0  0  0  0  0  0  0  0  0  0  0  0
  134.5419  140.0619  159.7555 C   0  0  0  0  0  0  0  0  0  0  0  0
  133.3926  139.3543  159.4565 C   0  0  0  0  0  0  0  0  0  0  0  0
  127.6642  136.1122  161.0884 S   0  0  0  0  0  0  0  0  0  0  0  0
  128.3423  137.3034  161.4629 O   0  0  0  0  0  0  0  0  0  0  0  0
  126.2480  135.9970  161.0698 O   0  0  0  0  0  0  0  0  0  0  0  0
  128.2522  134.8459  162.1633 C   0  0  0  0  0  0  0  0  0  0  0  0
  127.7132  133.5748  162.0941 C   0  0  0  0  0  0  0  0  0  0  0  0
  128.1779  132.5803  162.9342 C   0  0  0  0  0  0  0  0  0  0  0  0
  129.1743  132.8595  163.8508 C   0  0  0  0  0  0  0  0  0  0  0  0
  129.7096  134.1319  163.9238 C   0  0  0  0  0  0  0  0  0  0  0  0
  129.2487  135.1251  163.0800 C   0  0  0  0  0  0  0  0  0  0  0  0
  127.6031  133.8602  158.8314 H   0  0  0  0  0  0  0  0  0  0  0  0
  126.2999  135.0687  158.9282 H   0  0  0  0  0  0  0  0  0  0  0  0
  127.5293  135.1864  157.6465 H   0  0  0  0  0  0  0  0  0  0  0  0
  129.4754  137.3267  159.1037 H   0  0  0  0  0  0  0  0  0  0  0  0
  129.6461  135.8911  158.0652 H   0  0  0  0  0  0  0  0  0  0  0  0
  131.2570  134.2393  158.5695 H   0  0  0  0  0  0  0  0  0  0  0  0
  130.0392  133.6457  159.7252 H   0  0  0  0  0  0  0  0  0  0  0  0
  132.3236  132.7428  160.2088 H   0  0  0  0  0  0  0  0  0  0  0  0
  131.6920  133.7305  161.5491 H   0  0  0  0  0  0  0  0  0  0  0  0
  134.0325  134.3453  161.0917 H   0  0  0  0  0  0  0  0  0  0  0  0
  133.6362  134.6561  159.3836 H   0  0  0  0  0  0  0  0  0  0  0  0
  132.4516  136.1255  161.7827 H   0  0  0  0  0  0  0  0  0  0  0  0
  133.6941  136.7682  160.6829 H   0  0  0  0  0  0  0  0  0  0  0  0
  130.9496  138.3968  159.2707 H   0  0  0  0  0  0  0  0  0  0  0  0
  130.7580  137.9810  160.9908 H   0  0  0  0  0  0  0  0  0  0  0  0
  132.5798  138.3086  162.5586 H   0  0  0  0  0  0  0  0  0  0  0  0
  134.6320  139.5612  163.0900 H   0  0  0  0  0  0  0  0  0  0  0  0
  135.8852  140.6893  161.2955 H   0  0  0  0  0  0  0  0  0  0  0  0
  135.0913  140.5570  158.9685 H   0  0  0  0  0  0  0  0  0  0  0  0
  133.0442  139.2966  158.4358 H   0  0  0  0  0  0  0  0  0  0  0  0
  126.9316  133.3580  161.3810 H   0  0  0  0  0  0  0  0  0  0  0  0
  127.7594  131.5863  162.8774 H   0  0  0  0  0  0  0  0  0  0  0  0
  129.5342  132.0836  164.5102 H   0  0  0  0  0  0  0  0  0  0  0  0
  130.4879  134.3500  164.6400 H   0  0  0  0  0  0  0  0  0  0  0  0
  129.6668  136.1193  163.1373 H   0  0  0  0  0  0  0  0  0  0  0  0
  1  2  1  0
  1 28  1  0
  1 29  1  0
  1 30  1  0
  2  3  1  0
  2 19  1  0
  3  4  1  0
  3 31  1  0
  3 32  1  0
  4  5  1  1
  4 10  1  0
  4  6  1  0
  6  7  1  0
  6 33  1  0
  6 34  1  0
  7  8  1  0
  7 35  1  0
  7 36  1  0
  8  9  1  0
  8 37  1  0
  8 38  1  0
  9 10  1  0
  9 39  1  0
  9 40  1  0
 10 11  1  6
 10 12  1  0
 12 13  1  0
 12 41  1  0
 12 42  1  0
 13 18  1  0
 13 14  2  0
 14 15  1  0
 14 43  1  0
 15 16  2  0
 15 44  1  0
 16 17  1  0
 16 45  1  0
 17 18  2  0
 17 46  1  0
 18 47  1  0
 19 20  2  0
 19 21  2  0
 19 22  1  0
 22 27  1  0
 22 23  2  0
 23 24  1  0
 23 48  1  0
 24 25  2  0
 24 49  1  0
 25 26  1  0
 25 50  1  0
 26 27  2  0
 26 51  1  0
 27 52  1  0
M  CHG  1  10   1
M  END
>  <DOCK_score>  (1) 
-42.087933

>  <SMILES>  (1) 
CN(C[C@H]1CCCC[N@@H+]1Cc1ccccc1)S(=O)(=O)c1ccccc1

$$$$
