Cc1cccc(N2CC[NH+](C(c3ccccc3)c3ccccc3)CC2)c1C=C1C=C(c2ccccc2)C1
     RDKit          3D

 72 77  0  0  1  0  0  0  0  0999 V2000
  136.0887  141.1036  162.4922 C   0  0  0  0  0  0  0  0  0  0  0  0
  135.4408  140.3637  161.3503 C   0  0  0  0  0  0  0  0  0  0  0  0
  135.8236  140.6258  160.0520 C   0  0  0  0  0  0  0  0  0  0  0  0
  135.2280  139.9535  158.9979 C   0  0  0  0  0  0  0  0  0  0  0  0
  134.2481  139.0081  159.2347 C   0  0  0  0  0  0  0  0  0  0  0  0
  133.8531  138.7265  160.5337 C   0  0  0  0  0  0  0  0  0  0  0  0
  132.8654  137.7738  160.7742 N   0  0  0  0  0  0  0  0  0  0  0  0
  133.3034  136.4399  160.3396 C   0  0  0  0  0  0  0  0  0  0  0  0
  132.2172  135.4153  160.6747 C   0  0  0  0  0  0  0  0  0  0  0  0
  130.9686  135.7852  159.9951 N   0  0  0  0  0  0  0  0  0  0  0  0
  131.1235  135.8116  158.9985 H   0  0  0  0  0  0  0  0  0  0  0  0
  129.9313  134.7915  160.3027 C   0  0  0  0  0  0  0  0  0  0  0  0
  128.6501  135.1707  159.6056 C   0  0  0  0  0  0  0  0  0  0  0  0
  127.4325  134.8241  160.1606 C   0  0  0  0  0  0  0  0  0  0  0  0
  126.2572  135.1760  159.5235 C   0  0  0  0  0  0  0  0  0  0  0  0
  126.2998  135.8655  158.3262 C   0  0  0  0  0  0  0  0  0  0  0  0
  127.5176  136.2077  157.7686 C   0  0  0  0  0  0  0  0  0  0  0  0
  128.6927  135.8602  158.4083 C   0  0  0  0  0  0  0  0  0  0  0  0
  130.3793  133.4337  159.8267 C   0  0  0  0  0  0  0  0  0  0  0  0
  129.9591  132.2956  160.4895 C   0  0  0  0  0  0  0  0  0  0  0  0
  130.3661  131.0499  160.0498 C   0  0  0  0  0  0  0  0  0  0  0  0
  131.2018  130.9426  158.9538 C   0  0  0  0  0  0  0  0  0  0  0  0
  131.6260  132.0810  158.2942 C   0  0  0  0  0  0  0  0  0  0  0  0
  131.2148  133.3266  158.7306 C   0  0  0  0  0  0  0  0  0  0  0  0
  130.5309  137.1087  160.4577 C   0  0  0  0  0  0  0  0  0  0  0  0
  131.6030  138.1474  160.1207 C   0  0  0  0  0  0  0  0  0  0  0  0
  134.4544  139.4067  161.6064 C   0  0  0  0  0  0  0  0  0  0  0  0
  134.0446  139.1180  162.9883 C   0  0  0  0  0  0  0  0  0  0  0  0
  134.9511  138.6642  163.8808 C   0  0  0  0  0  0  0  0  0  0  0  0
  136.3287  138.3619  163.8177 C   0  0  0  0  0  0  0  0  0  0  0  0
  136.3527  138.0031  165.1142 C   0  0  0  0  0  0  0  0  0  0  0  0
  137.4227  137.5141  165.9981 C   0  0  0  0  0  0  0  0  0  0  0  0
  137.7730  138.2360  167.1437 C   0  0  0  0  0  0  0  0  0  0  0  0
  138.7738  137.7688  167.9692 C   0  0  0  0  0  0  0  0  0  0  0  0
  139.4377  136.5940  167.6616 C   0  0  0  0  0  0  0  0  0  0  0  0
  139.1006  135.8768  166.5270 C   0  0  0  0  0  0  0  0  0  0  0  0
  138.0987  136.3280  165.6939 C   0  0  0  0  0  0  0  0  0  0  0  0
  134.8930  138.2878  165.3355 C   0  0  0  0  0  0  0  0  0  0  0  0
  136.9675  140.5538  162.8292 H   0  0  0  0  0  0  0  0  0  0  0  0
  136.3876  142.0971  162.1582 H   0  0  0  0  0  0  0  0  0  0  0  0
  135.3796  141.1949  163.3150 H   0  0  0  0  0  0  0  0  0  0  0  0
  136.5886  141.3625  159.8557 H   0  0  0  0  0  0  0  0  0  0  0  0
  135.5316  140.1692  157.9840 H   0  0  0  0  0  0  0  0  0  0  0  0
  133.7891  138.4882  158.4066 H   0  0  0  0  0  0  0  0  0  0  0  0
  133.4772  136.4468  159.2636 H   0  0  0  0  0  0  0  0  0  0  0  0
  134.2259  136.1739  160.8557 H   0  0  0  0  0  0  0  0  0  0  0  0
  132.0532  135.3990  161.7523 H   0  0  0  0  0  0  0  0  0  0  0  0
  132.5340  134.4274  160.3404 H   0  0  0  0  0  0  0  0  0  0  0  0
  129.7641  134.7621  161.3794 H   0  0  0  0  0  0  0  0  0  0  0  0
  127.3993  134.2814  161.0938 H   0  0  0  0  0  0  0  0  0  0  0  0
  125.3059  134.9085  159.9591 H   0  0  0  0  0  0  0  0  0  0  0  0
  125.3817  136.1366  157.8262 H   0  0  0  0  0  0  0  0  0  0  0  0
  127.5509  136.7460  156.8329 H   0  0  0  0  0  0  0  0  0  0  0  0
  129.6441  136.1272  157.9724 H   0  0  0  0  0  0  0  0  0  0  0  0
  129.3100  132.3796  161.3484 H   0  0  0  0  0  0  0  0  0  0  0  0
  130.0350  130.1605  160.5653 H   0  0  0  0  0  0  0  0  0  0  0  0
  131.5234  129.9697  158.6129 H   0  0  0  0  0  0  0  0  0  0  0  0
  132.2792  131.9974  157.4381 H   0  0  0  0  0  0  0  0  0  0  0  0
  131.5466  134.2159  158.2155 H   0  0  0  0  0  0  0  0  0  0  0  0
  130.3756  137.0838  161.5362 H   0  0  0  0  0  0  0  0  0  0  0  0
  129.5975  137.3763  159.9624 H   0  0  0  0  0  0  0  0  0  0  0  0
  131.2850  139.1271  160.4771 H   0  0  0  0  0  0  0  0  0  0  0  0
  131.7488  138.1824  159.0410 H   0  0  0  0  0  0  0  0  0  0  0  0
  133.0195  139.2732  163.2912 H   0  0  0  0  0  0  0  0  0  0  0  0
  137.0720  138.4028  163.0352 H   0  0  0  0  0  0  0  0  0  0  0  0
  137.2586  139.1549  167.3829 H   0  0  0  0  0  0  0  0  0  0  0  0
  139.0430  138.3232  168.8562 H   0  0  0  0  0  0  0  0  0  0  0  0
  140.2234  136.2354  168.3102 H   0  0  0  0  0  0  0  0  0  0  0  0
  139.6238  134.9613  166.2933 H   0  0  0  0  0  0  0  0  0  0  0  0
  137.8370  135.7673  164.8088 H   0  0  0  0  0  0  0  0  0  0  0  0
  134.6945  139.1219  166.0087 H   0  0  0  0  0  0  0  0  0  0  0  0
  134.2891  137.4057  165.5484 H   0  0  0  0  0  0  0  0  0  0  0  0
  1  2  1  0
  1 39  1  0
  1 40  1  0
  1 41  1  0
  2 27  2  0
  2  3  1  0
  3  4  2  0
  3 42  1  0
  4  5  1  0
  4 43  1  0
  5  6  2  0
  5 44  1  0
  6  7  1  0
  6 27  1  0
  7 26  1  0
  7  8  1  0
  8  9  1  0
  8 45  1  0
  8 46  1  0
  9 10  1  0
  9 47  1  0
  9 48  1  0
 10 11  1  0
 10 12  1  0
 10 25  1  0
 12 13  1  0
 12 19  1  0
 12 49  1  0
 13 18  1  0
 13 14  2  0
 14 15  1  0
 14 50  1  0
 15 16  2  0
 15 51  1  0
 16 17  1  0
 16 52  1  0
 17 18  2  0
 17 53  1  0
 18 54  1  0
 19 24  1  0
 19 20  2  0
 20 21  1  0
 20 55  1  0
 21 22  2  0
 21 56  1  0
 22 23  1  0
 22 57  1  0
 23 24  2  0
 23 58  1  0
 24 59  1  0
 25 26  1  0
 25 60  1  0
 25 61  1  0
 26 62  1  0
 26 63  1  0
 27 28  1  0
 28 29  2  0
 28 64  1  0
 29 38  1  0
 29 30  1  0
 30 31  2  0
 30 65  1  0
 31 32  1  0
 31 38  1  0
 32 37  1  0
 32 33  2  0
 33 34  1  0
 33 66  1  0
 34 35  2  0
 34 67  1  0
 35 36  1  0
 35 68  1  0
 36 37  2  0
 36 69  1  0
 37 70  1  0
 38 71  1  0
 38 72  1  0
M  CHG  1  10   1
M  END
>  <DOCK_score>  (1) 
-62.014832

>  <SMILES>  (1) 
Cc1cccc(N2CC[NH+](C(c3ccccc3)c3ccccc3)CC2)c1C=C1C=C(c2ccccc2)C1

$$$$
