O=C(NC1C=C(c2ccc(C=C3C=C(c4ccccc4)C3)cc2)CC1)[C@@H]1CCCC2CCC[NH+]21
     RDKit          3D

 69 74  0  0  1  0  0  0  0  0999 V2000
  130.8490  136.9987  162.0522 O   0  0  0  0  0  0  0  0  0  0  0  0
  131.3342  136.6181  161.0079 C   0  0  0  0  0  0  0  0  0  0  0  0
  132.3040  137.3403  160.4127 N   0  0  0  0  0  0  0  0  0  0  0  0
  132.7719  138.5852  161.0272 C   0  0  1  0  0  0  0  0  0  0  0  0
  133.3820  138.3064  162.3813 C   0  0  0  0  0  0  0  0  0  0  0  0
  134.7036  138.3252  162.3142 C   0  0  0  0  0  0  0  0  0  0  0  0
  135.6044  138.0910  163.4601 C   0  0  0  0  0  0  0  0  0  0  0  0
  136.8611  137.5150  163.2540 C   0  0  0  0  0  0  0  0  0  0  0  0
  137.6972  137.3024  164.3126 C   0  0  0  0  0  0  0  0  0  0  0  0
  137.2912  137.6524  165.6061 C   0  0  0  0  0  0  0  0  0  0  0  0
  138.1881  137.4198  166.7469 C   0  0  0  0  0  0  0  0  0  0  0  0
  137.7999  136.6119  167.7578 C   0  0  0  0  0  0  0  0  0  0  0  0
  136.7229  135.7190  167.9460 C   0  0  0  0  0  0  0  0  0  0  0  0
  137.1496  135.3977  169.1813 C   0  0  0  0  0  0  0  0  0  0  0  0
  136.6336  134.4840  170.2129 C   0  0  0  0  0  0  0  0  0  0  0  0
  137.5139  133.8569  171.1006 C   0  0  0  0  0  0  0  0  0  0  0  0
  137.0220  133.0062  172.0677 C   0  0  0  0  0  0  0  0  0  0  0  0
  135.6622  132.7636  172.1546 C   0  0  0  0  0  0  0  0  0  0  0  0
  134.7851  133.3763  171.2765 C   0  0  0  0  0  0  0  0  0  0  0  0
  135.2608  134.2337  170.3071 C   0  0  0  0  0  0  0  0  0  0  0  0
  138.3480  136.3042  169.1239 C   0  0  0  0  0  0  0  0  0  0  0  0
  136.0297  138.2245  165.8118 C   0  0  0  0  0  0  0  0  0  0  0  0
  135.1975  138.4406  164.7509 C   0  0  0  0  0  0  0  0  0  0  0  0
  135.1655  138.6190  160.9057 C   0  0  0  0  0  0  0  0  0  0  0  0
  133.9212  139.1976  160.1941 C   0  0  0  0  0  0  0  0  0  0  0  0
  130.8529  135.3375  160.3758 C   0  0  2  0  0  0  0  0  0  0  0  0
  130.0719  134.8917  160.9919 H   0  0  0  0  0  0  0  0  0  0  0  0
  132.0256  134.3558  160.2315 C   0  0  0  0  0  0  0  0  0  0  0  0
  131.5752  133.0712  159.5368 C   0  0  0  0  0  0  0  0  0  0  0  0
  130.8713  133.3938  158.2089 C   0  0  0  0  0  0  0  0  0  0  0  0
  129.7329  134.3548  158.5177 C   0  0  2  0  0  0  0  0  0  0  0  0
  128.9525  134.8138  157.2822 C   0  0  0  0  0  0  0  0  0  0  0  0
  128.5695  136.2818  157.6018 C   0  0  0  0  0  0  0  0  0  0  0  0
  129.2272  136.5784  158.9848 C   0  0  0  0  0  0  0  0  0  0  0  0
  130.3339  135.6103  159.0422 N   0  0  1  0  0  0  0  0  0  0  0  0
  131.0833  135.9104  158.4370 H   0  0  0  0  0  0  0  0  0  0  0  0
  132.6921  137.0359  159.5775 H   0  0  0  0  0  0  0  0  0  0  0  0
  131.9492  139.2941  161.1203 H   0  0  0  0  0  0  0  0  0  0  0  0
  132.8163  138.1179  163.2817 H   0  0  0  0  0  0  0  0  0  0  0  0
  137.1726  137.2417  162.2567 H   0  0  0  0  0  0  0  0  0  0  0  0
  138.6700  136.8614  164.1526 H   0  0  0  0  0  0  0  0  0  0  0  0
  139.1575  137.8946  166.7771 H   0  0  0  0  0  0  0  0  0  0  0  0
  135.8849  135.4134  167.3372 H   0  0  0  0  0  0  0  0  0  0  0  0
  138.5758  134.0417  171.0312 H   0  0  0  0  0  0  0  0  0  0  0  0
  137.7001  132.5244  172.7566 H   0  0  0  0  0  0  0  0  0  0  0  0
  135.2835  132.0925  172.9113 H   0  0  0  0  0  0  0  0  0  0  0  0
  133.7253  133.1819  171.3506 H   0  0  0  0  0  0  0  0  0  0  0  0
  134.5752  134.7104  169.6222 H   0  0  0  0  0  0  0  0  0  0  0  0
  139.3057  135.7837  169.1179 H   0  0  0  0  0  0  0  0  0  0  0  0
  138.3137  137.1409  169.8215 H   0  0  0  0  0  0  0  0  0  0  0  0
  135.7153  138.4952  166.8089 H   0  0  0  0  0  0  0  0  0  0  0  0
  134.2244  138.8817  164.9092 H   0  0  0  0  0  0  0  0  0  0  0  0
  135.9718  139.3523  160.9162 H   0  0  0  0  0  0  0  0  0  0  0  0
  135.4934  137.7026  160.4151 H   0  0  0  0  0  0  0  0  0  0  0  0
  133.8733  138.8632  159.1578 H   0  0  0  0  0  0  0  0  0  0  0  0
  133.9088  140.2860  160.2526 H   0  0  0  0  0  0  0  0  0  0  0  0
  132.8150  134.8238  159.6434 H   0  0  0  0  0  0  0  0  0  0  0  0
  132.4124  134.1112  161.2207 H   0  0  0  0  0  0  0  0  0  0  0  0
  132.4453  132.4451  159.3397 H   0  0  0  0  0  0  0  0  0  0  0  0
  130.8859  132.5332  160.1876 H   0  0  0  0  0  0  0  0  0  0  0  0
  131.5751  133.8624  157.5210 H   0  0  0  0  0  0  0  0  0  0  0  0
  130.4758  132.4790  157.7676 H   0  0  0  0  0  0  0  0  0  0  0  0
  129.0639  133.9213  159.2610 H   0  0  0  0  0  0  0  0  0  0  0  0
  129.5825  134.7683  156.3939 H   0  0  0  0  0  0  0  0  0  0  0  0
  128.0575  134.2062  157.1483 H   0  0  0  0  0  0  0  0  0  0  0  0
  128.9703  136.9523  156.8415 H   0  0  0  0  0  0  0  0  0  0  0  0
  127.4864  136.3859  157.6653 H   0  0  0  0  0  0  0  0  0  0  0  0
  128.5182  136.3996  159.7931 H   0  0  0  0  0  0  0  0  0  0  0  0
  129.6075  137.5992  159.0252 H   0  0  0  0  0  0  0  0  0  0  0  0
  1  2  2  0
  2  3  1  0
  2 26  1  0
  3  4  1  0
  3 37  1  0
  4 25  1  0
  4  5  1  0
  4 38  1  1
  5  6  2  0
  5 39  1  0
  6  7  1  0
  6 24  1  0
  7 23  1  0
  7  8  2  0
  8  9  1  0
  8 40  1  0
  9 10  2  0
  9 41  1  0
 10 11  1  0
 10 22  1  0
 11 12  2  0
 11 42  1  0
 12 21  1  0
 12 13  1  0
 13 14  2  0
 13 43  1  0
 14 15  1  0
 14 21  1  0
 15 20  1  0
 15 16  2  0
 16 17  1  0
 16 44  1  0
 17 18  2  0
 17 45  1  0
 18 19  1  0
 18 46  1  0
 19 20  2  0
 19 47  1  0
 20 48  1  0
 21 49  1  0
 21 50  1  0
 22 23  2  0
 22 51  1  0
 23 52  1  0
 24 25  1  0
 24 53  1  0
 24 54  1  0
 25 55  1  0
 25 56  1  0
 26 27  1  1
 26 35  1  0
 26 28  1  0
 28 29  1  0
 28 57  1  0
 28 58  1  0
 29 30  1  0
 29 59  1  0
 29 60  1  0
 30 31  1  0
 30 61  1  0
 30 62  1  0
 31 35  1  0
 31 32  1  0
 31 63  1  1
 32 33  1  0
 32 64  1  0
 32 65  1  0
 33 34  1  0
 33 66  1  0
 33 67  1  0
 34 35  1  0
 34 68  1  0
 34 69  1  0
 35 36  1  6
M  CHG  1  35   1
M  END
>  <DOCK_score>  (1) 
-60.175339

>  <SMILES>  (1) 
O=C(NC1C=C(c2ccc(C=C3C=C(c4ccccc4)C3)cc2)CC1)[C@@H]1CCCC2CCC[NH+]21

$$$$
