CCn1cc(C[C@@H](Cc2cnn(C(C)(C)C)c2)Nc2[nH]cc(-c3ccc(Br)cc3)[nH+]2)cn1
     RDKit          3D

 63 66  0  0  1  0  0  0  0  0999 V2000
  131.3932  129.4215  158.5495 C   0  0  0  0  0  0  0  0  0  0  0  0
  130.4579  130.6126  158.7675 C   0  0  0  0  0  0  0  0  0  0  0  0
  131.0181  131.4910  159.7975 N   0  0  0  0  0  0  0  0  0  0  0  0
  131.8520  132.5307  159.5865 C   0  0  0  0  0  0  0  0  0  0  0  0
  132.1394  133.0796  160.7895 C   0  0  0  0  0  0  0  0  0  0  0  0
  133.0376  134.2652  161.0313 C   0  0  0  0  0  0  0  0  0  0  0  0
  132.2114  135.5515  160.9722 C   0  0  1  0  0  0  0  0  0  0  0  0
  131.4362  135.5210  161.7378 H   0  0  0  0  0  0  0  0  0  0  0  0
  133.1233  136.7553  161.2175 C   0  0  0  0  0  0  0  0  0  0  0  0
  132.3095  138.0224  161.1592 C   0  0  0  0  0  0  0  0  0  0  0  0
  132.0634  138.7904  160.0164 C   0  0  0  0  0  0  0  0  0  0  0  0
  131.3172  139.8084  160.3610 N   0  0  0  0  0  0  0  0  0  0  0  0
  131.0729  139.7256  161.7379 N   0  0  0  0  0  0  0  0  0  0  0  0
  130.2838  140.6709  162.5315 C   0  0  0  0  0  0  0  0  0  0  0  0
  129.7548  141.7825  161.6228 C   0  0  0  0  0  0  0  0  0  0  0  0
  129.1068  139.9367  163.1772 C   0  0  0  0  0  0  0  0  0  0  0  0
  131.1653  141.2808  163.6232 C   0  0  0  0  0  0  0  0  0  0  0  0
  131.6924  138.6211  162.2040 C   0  0  0  0  0  0  0  0  0  0  0  0
  131.5888  135.6718  159.6514 N   0  0  0  0  0  0  0  0  0  0  0  0
  130.3349  135.1303  159.4254 C   0  0  0  0  0  0  0  0  0  0  0  0
  129.6525  135.1749  158.2489 N   0  0  0  0  0  0  0  0  0  0  0  0
  129.9547  135.5877  157.4247 H   0  0  0  0  0  0  0  0  0  0  0  0
  128.4570  134.5266  158.4435 C   0  0  0  0  0  0  0  0  0  0  0  0
  128.4433  134.1051  159.7323 C   0  0  0  0  0  0  0  0  0  0  0  0
  127.3476  133.3554  160.3939 C   0  0  0  0  0  0  0  0  0  0  0  0
  126.7102  133.8902  161.5123 C   0  0  0  0  0  0  0  0  0  0  0  0
  125.6876  133.1913  162.1204 C   0  0  0  0  0  0  0  0  0  0  0  0
  125.3025  131.9558  161.6291 C   0  0  0  0  0  0  0  0  0  0  0  0
  123.9059  130.9996  162.4726 Br  0  0  0  0  0  0  0  0  0  0  0  0
  125.9356  131.4180  160.5222 C   0  0  0  0  0  0  0  0  0  0  0  0
  126.9556  132.1112  159.9031 C   0  0  0  0  0  0  0  0  0  0  0  0
  129.6091  134.4902  160.3095 N   0  0  0  0  0  0  0  0  0  0  0  0
  129.8645  134.3195  161.2296 H   0  0  0  0  0  0  0  0  0  0  0  0
  131.4506  132.3559  161.7685 C   0  0  0  0  0  0  0  0  0  0  0  0
  130.7781  131.4033  161.1749 N   0  0  0  0  0  0  0  0  0  0  0  0
  130.9764  128.7679  157.7830 H   0  0  0  0  0  0  0  0  0  0  0  0
  132.3707  129.7809  158.2280 H   0  0  0  0  0  0  0  0  0  0  0  0
  131.4987  128.8668  159.4818 H   0  0  0  0  0  0  0  0  0  0  0  0
  129.4806  130.2530  159.0890 H   0  0  0  0  0  0  0  0  0  0  0  0
  130.3525  131.1672  157.8351 H   0  0  0  0  0  0  0  0  0  0  0  0
  132.2253  132.8636  158.6294 H   0  0  0  0  0  0  0  0  0  0  0  0
  133.8129  134.2959  160.2657 H   0  0  0  0  0  0  0  0  0  0  0  0
  133.5009  134.1757  162.0139 H   0  0  0  0  0  0  0  0  0  0  0  0
  133.5864  136.6659  162.2003 H   0  0  0  0  0  0  0  0  0  0  0  0
  133.8987  136.7858  160.4520 H   0  0  0  0  0  0  0  0  0  0  0  0
  132.4243  138.5780  159.0208 H   0  0  0  0  0  0  0  0  0  0  0  0
  129.1267  141.3480  160.8452 H   0  0  0  0  0  0  0  0  0  0  0  0
  129.1676  142.4858  162.2133 H   0  0  0  0  0  0  0  0  0  0  0  0
  130.5932  142.3055  161.1628 H   0  0  0  0  0  0  0  0  0  0  0  0
  129.4837  139.1448  163.8245 H   0  0  0  0  0  0  0  0  0  0  0  0
  128.5197  140.6401  163.7676 H   0  0  0  0  0  0  0  0  0  0  0  0
  128.4789  139.5023  162.3994 H   0  0  0  0  0  0  0  0  0  0  0  0
  132.0036  141.8038  163.1633 H   0  0  0  0  0  0  0  0  0  0  0  0
  130.5781  141.9842  164.2137 H   0  0  0  0  0  0  0  0  0  0  0  0
  131.5421  140.4889  164.2706 H   0  0  0  0  0  0  0  0  0  0  0  0
  131.6951  138.2766  163.2276 H   0  0  0  0  0  0  0  0  0  0  0  0
  132.0551  136.1308  158.9354 H   0  0  0  0  0  0  0  0  0  0  0  0
  127.6757  134.3841  157.7117 H   0  0  0  0  0  0  0  0  0  0  0  0
  127.0131  134.8519  161.8993 H   0  0  0  0  0  0  0  0  0  0  0  0
  125.1903  133.6066  162.9847 H   0  0  0  0  0  0  0  0  0  0  0  0
  125.6312  130.4538  160.1425 H   0  0  0  0  0  0  0  0  0  0  0  0
  127.4491  131.6906  159.0392 H   0  0  0  0  0  0  0  0  0  0  0  0
  131.4703  132.5501  162.8306 H   0  0  0  0  0  0  0  0  0  0  0  0
  1  2  1  0
  1 36  1  0
  1 37  1  0
  1 38  1  0
  2  3  1  0
  2 39  1  0
  2 40  1  0
  3 35  1  0
  3  4  1  0
  4  5  2  0
  4 41  1  0
  5  6  1  0
  5 34  1  0
  6  7  1  0
  6 42  1  0
  6 43  1  0
  7  8  1  1
  7  9  1  0
  7 19  1  0
  9 10  1  0
  9 44  1  0
  9 45  1  0
 10 18  2  0
 10 11  1  0
 11 12  2  0
 11 46  1  0
 12 13  1  0
 13 14  1  0
 13 18  1  0
 14 15  1  0
 14 16  1  0
 14 17  1  0
 15 47  1  0
 15 48  1  0
 15 49  1  0
 16 50  1  0
 16 51  1  0
 16 52  1  0
 17 53  1  0
 17 54  1  0
 17 55  1  0
 18 56  1  0
 19 57  1  0
 20 19  1  0
 20 32  2  0
 20 21  1  0
 21 22  1  0
 21 23  1  0
 23 24  2  0
 23 58  1  0
 24 25  1  0
 24 32  1  0
 25 31  1  0
 25 26  2  0
 26 27  1  0
 26 59  1  0
 27 28  2  0
 27 60  1  0
 28 29  1  0
 28 30  1  0
 30 31  2  0
 30 61  1  0
 31 62  1  0
 32 33  1  0
 34 35  2  0
 34 63  1  0
M  CHG  1  32   1
M  END
>  <DOCK_score>  (1) 
-56.718262

>  <SMILES>  (1) 
CCn1cc(C[C@@H](Cc2cnn(C(C)(C)C)c2)Nc2[nH]cc(-c3ccc(Br)cc3)[nH+]2)cn1

$$$$
