Cc1c[nH]c(Nc2cccc(Nc3ccccc3)c2)[nH+]1
     RDKit          3D

 37 39  0  0  1  0  0  0  0  0999 V2000
  130.0406  130.9272  156.6954 C   0  0  0  0  0  0  0  0  0  0  0  0
  129.9867  131.9927  157.7597 C   0  0  0  0  0  0  0  0  0  0  0  0
  129.7351  131.7899  159.0644 C   0  0  0  0  0  0  0  0  0  0  0  0
  129.7803  133.0210  159.6777 N   0  0  0  0  0  0  0  0  0  0  0  0
  129.6389  133.2015  160.6202 H   0  0  0  0  0  0  0  0  0  0  0  0
  130.0611  133.9370  158.7117 C   0  0  0  0  0  0  0  0  0  0  0  0
  130.1954  135.3029  158.9042 N   0  0  0  0  0  0  0  0  0  0  0  0
  129.4777  135.9392  159.9208 C   0  0  0  0  0  0  0  0  0  0  0  0
  130.0003  137.0691  160.5391 C   0  0  0  0  0  0  0  0  0  0  0  0
  129.2895  137.7014  161.5405 C   0  0  0  0  0  0  0  0  0  0  0  0
  128.0621  137.2072  161.9387 C   0  0  0  0  0  0  0  0  0  0  0  0
  127.5338  136.0780  161.3248 C   0  0  0  0  0  0  0  0  0  0  0  0
  126.2904  135.5817  161.7245 N   0  0  0  0  0  0  0  0  0  0  0  0
  126.0200  134.2144  161.6273 C   0  0  0  0  0  0  0  0  0  0  0  0
  124.9649  133.7675  160.8418 C   0  0  0  0  0  0  0  0  0  0  0  0
  124.7037  132.4150  160.7439 C   0  0  0  0  0  0  0  0  0  0  0  0
  125.4842  131.5066  161.4353 C   0  0  0  0  0  0  0  0  0  0  0  0
  126.5316  131.9484  162.2227 C   0  0  0  0  0  0  0  0  0  0  0  0
  126.8020  133.2991  162.3206 C   0  0  0  0  0  0  0  0  0  0  0  0
  128.2431  135.4432  160.3144 C   0  0  0  0  0  0  0  0  0  0  0  0
  130.1776  133.3084  157.5659 N   0  0  0  0  0  0  0  0  0  0  0  0
  130.3725  133.7276  156.7131 H   0  0  0  0  0  0  0  0  0  0  0  0
  129.0486  130.7941  156.2639 H   0  0  0  0  0  0  0  0  0  0  0  0
  130.7391  131.2284  155.9147 H   0  0  0  0  0  0  0  0  0  0  0  0
  130.3733  129.9882  157.1380 H   0  0  0  0  0  0  0  0  0  0  0  0
  129.5357  130.8414  159.5406 H   0  0  0  0  0  0  0  0  0  0  0  0
  130.7875  135.8172  158.3334 H   0  0  0  0  0  0  0  0  0  0  0  0
  130.9611  137.4557  160.2330 H   0  0  0  0  0  0  0  0  0  0  0  0
  129.6958  138.5818  162.0162 H   0  0  0  0  0  0  0  0  0  0  0  0
  127.5106  137.7018  162.7246 H   0  0  0  0  0  0  0  0  0  0  0  0
  125.6149  136.1864  162.0694 H   0  0  0  0  0  0  0  0  0  0  0  0
  124.3522  134.4766  160.3051 H   0  0  0  0  0  0  0  0  0  0  0  0
  123.8866  132.0664  160.1295 H   0  0  0  0  0  0  0  0  0  0  0  0
  125.2749  130.4496  161.3605 H   0  0  0  0  0  0  0  0  0  0  0  0
  127.1393  131.2362  162.7613 H   0  0  0  0  0  0  0  0  0  0  0  0
  127.6202  133.6435  162.9357 H   0  0  0  0  0  0  0  0  0  0  0  0
  127.8349  134.5653  159.8360 H   0  0  0  0  0  0  0  0  0  0  0  0
  1  2  1  0
  1 23  1  0
  1 24  1  0
  1 25  1  0
  2 21  1  0
  2  3  2  0
  3  4  1  0
  3 26  1  0
  4  5  1  0
  4  6  1  0
  6  7  1  0
  6 21  2  0
  7  8  1  0
  7 27  1  0
  8 20  1  0
  8  9  2  0
  9 10  1  0
  9 28  1  0
 10 11  2  0
 10 29  1  0
 11 12  1  0
 11 30  1  0
 12 13  1  0
 12 20  2  0
 13 14  1  0
 13 31  1  0
 14 19  1  0
 14 15  2  0
 15 16  1  0
 15 32  1  0
 16 17  2  0
 16 33  1  0
 17 18  1  0
 17 34  1  0
 18 19  2  0
 18 35  1  0
 19 36  1  0
 20 37  1  0
 21 22  1  0
M  CHG  1  21   1
M  END
>  <DOCK_score>  (1) 
-45.190502

>  <SMILES>  (1) 
Cc1c[nH]c(Nc2cccc(Nc3ccccc3)c2)[nH+]1

$$$$
