O=C1CC[C@H](NC(NC2CC2)=[NH+][C@H]2COc3cc(-c4ccc(Cl)cc4)ccc3C2)CN1
     RDKit          3D

 59 63  0  0  1  0  0  0  0  0999 V2000
  123.8616  134.1013  161.8601 O   0  0  0  0  0  0  0  0  0  0  0  0
  125.0233  134.2884  161.5664 C   0  0  0  0  0  0  0  0  0  0  0  0
  125.8576  133.1026  161.1754 C   0  0  0  0  0  0  0  0  0  0  0  0
  127.3436  133.4572  161.2696 C   0  0  0  0  0  0  0  0  0  0  0  0
  127.5714  134.7874  160.5417 C   0  0  2  0  0  0  0  0  0  0  0  0
  127.1557  134.7298  159.5357 H   0  0  0  0  0  0  0  0  0  0  0  0
  129.0076  135.0659  160.4646 N   0  0  0  0  0  0  0  0  0  0  0  0
  129.7379  134.6182  159.3892 C   0  0  0  0  0  0  0  0  0  0  0  0
  129.1205  133.9091  158.3862 N   0  0  0  0  0  0  0  0  0  0  0  0
  129.8987  133.4321  157.2403 C   0  0  0  0  0  0  0  0  0  0  0  0
  129.3256  132.2651  156.4339 C   0  0  0  0  0  0  0  0  0  0  0  0
  130.5337  132.0442  157.3463 C   0  0  0  0  0  0  0  0  0  0  0  0
  131.0158  134.8660  159.3207 N   0  0  0  0  0  0  0  0  0  0  0  0
  131.4453  134.9631  158.4564 H   0  0  0  0  0  0  0  0  0  0  0  0
  131.8022  135.0036  160.5491 C   0  0  1  0  0  0  0  0  0  0  0  0
  131.1557  134.8684  161.4163 H   0  0  0  0  0  0  0  0  0  0  0  0
  132.9201  133.9531  160.5679 C   0  0  0  0  0  0  0  0  0  0  0  0
  133.6013  134.0434  161.8198 O   0  0  0  0  0  0  0  0  0  0  0  0
  134.0022  135.2728  162.2376 C   0  0  0  0  0  0  0  0  0  0  0  0
  134.9578  135.3493  163.2433 C   0  0  0  0  0  0  0  0  0  0  0  0
  135.3875  136.5890  163.7048 C   0  0  0  0  0  0  0  0  0  0  0  0
  136.4070  136.6716  164.7798 C   0  0  0  0  0  0  0  0  0  0  0  0
  136.4098  137.7527  165.6589 C   0  0  0  0  0  0  0  0  0  0  0  0
  137.3565  137.8220  166.6606 C   0  0  0  0  0  0  0  0  0  0  0  0
  138.3094  136.8257  166.7858 C   0  0  0  0  0  0  0  0  0  0  0  0
  139.5026  136.9224  168.0431 Cl  0  0  0  0  0  0  0  0  0  0  0  0
  138.3143  135.7524  165.9112 C   0  0  0  0  0  0  0  0  0  0  0  0
  137.3682  135.6711  164.9099 C   0  0  0  0  0  0  0  0  0  0  0  0
  134.8555  137.7532  163.1533 C   0  0  0  0  0  0  0  0  0  0  0  0
  133.9093  137.6695  162.1543 C   0  0  0  0  0  0  0  0  0  0  0  0
  133.4807  136.4344  161.6931 C   0  0  0  0  0  0  0  0  0  0  0  0
  132.4459  136.3915  160.5968 C   0  0  0  0  0  0  0  0  0  0  0  0
  126.8739  135.9024  161.3219 C   0  0  0  0  0  0  0  0  0  0  0  0
  125.4914  135.5365  161.6074 N   0  0  0  0  0  0  0  0  0  0  0  0
  125.6186  132.8132  160.1520 H   0  0  0  0  0  0  0  0  0  0  0  0
  125.6407  132.2705  161.8455 H   0  0  0  0  0  0  0  0  0  0  0  0
  127.9383  132.6746  160.7987 H   0  0  0  0  0  0  0  0  0  0  0  0
  127.6312  133.5577  162.3162 H   0  0  0  0  0  0  0  0  0  0  0  0
  129.4433  135.5662  161.1723 H   0  0  0  0  0  0  0  0  0  0  0  0
  128.1696  133.7248  158.4372 H   0  0  0  0  0  0  0  0  0  0  0  0
  130.4507  134.1979  156.6953 H   0  0  0  0  0  0  0  0  0  0  0  0
  128.3696  131.8522  156.7558 H   0  0  0  0  0  0  0  0  0  0  0  0
  129.5004  132.2629  155.3579 H   0  0  0  0  0  0  0  0  0  0  0  0
  131.5034  131.8968  156.8705 H   0  0  0  0  0  0  0  0  0  0  0  0
  130.3726  131.4861  158.2686 H   0  0  0  0  0  0  0  0  0  0  0  0
  132.4905  132.9578  160.4544 H   0  0  0  0  0  0  0  0  0  0  0  0
  133.6194  134.1467  159.7544 H   0  0  0  0  0  0  0  0  0  0  0  0
  135.3673  134.4446  163.6678 H   0  0  0  0  0  0  0  0  0  0  0  0
  135.6698  138.5329  165.5591 H   0  0  0  0  0  0  0  0  0  0  0  0
  137.3570  138.6576  167.3450 H   0  0  0  0  0  0  0  0  0  0  0  0
  139.0595  134.9772  166.0131 H   0  0  0  0  0  0  0  0  0  0  0  0
  137.3725  134.8334  164.2283 H   0  0  0  0  0  0  0  0  0  0  0  0
  135.1837  138.7191  163.5082 H   0  0  0  0  0  0  0  0  0  0  0  0
  133.4986  138.5728  161.7279 H   0  0  0  0  0  0  0  0  0  0  0  0
  132.9227  136.6032  159.6397 H   0  0  0  0  0  0  0  0  0  0  0  0
  131.6789  137.1403  160.7934 H   0  0  0  0  0  0  0  0  0  0  0  0
  127.4013  136.0694  162.2610 H   0  0  0  0  0  0  0  0  0  0  0  0
  126.8925  136.8198  160.7337 H   0  0  0  0  0  0  0  0  0  0  0  0
  124.8729  136.2467  161.8396 H   0  0  0  0  0  0  0  0  0  0  0  0
  1  2  2  0
  2 34  1  0
  2  3  1  0
  3  4  1  0
  3 35  1  0
  3 36  1  0
  4  5  1  0
  4 37  1  0
  4 38  1  0
  5  6  1  6
  5  7  1  0
  5 33  1  0
  7 39  1  0
  8  7  1  0
  8  9  1  0
  8 13  2  0
  9 10  1  0
  9 40  1  0
 10 12  1  0
 10 11  1  0
 10 41  1  0
 11 12  1  0
 11 42  1  0
 11 43  1  0
 12 44  1  0
 12 45  1  0
 13 14  1  0
 13 15  1  0
 15 16  1  1
 15 32  1  0
 15 17  1  0
 17 18  1  0
 17 46  1  0
 17 47  1  0
 18 19  1  0
 19 31  2  0
 19 20  1  0
 20 21  2  0
 20 48  1  0
 21 22  1  0
 21 29  1  0
 22 28  1  0
 22 23  2  0
 23 24  1  0
 23 49  1  0
 24 25  2  0
 24 50  1  0
 25 26  1  0
 25 27  1  0
 27 28  2  0
 27 51  1  0
 28 52  1  0
 29 30  2  0
 29 53  1  0
 30 31  1  0
 30 54  1  0
 31 32  1  0
 32 55  1  0
 32 56  1  0
 33 34  1  0
 33 57  1  0
 33 58  1  0
 34 59  1  0
M  CHG  1  13   1
M  END
>  <DOCK_score>  (1) 
-53.813309

>  <SMILES>  (1) 
O=C1CC[C@H](NC(NC2CC2)=[NH+][C@H]2COc3cc(-c4ccc(Cl)cc4)ccc3C2)CN1

$$$$
