Clc1ccc(-c2c[nH]c(N[C@@H](Cc3ccccc3)c3ccccc3)[nH+]2)cc1
     RDKit          3D

 48 51  0  0  1  0  0  0  0  0999 V2000
  131.8036  129.6835  151.9502 Cl  0  0  0  0  0  0  0  0  0  0  0  0
  131.4201  130.4758  153.4466 C   0  0  0  0  0  0  0  0  0  0  0  0
  130.9449  131.7760  153.4366 C   0  0  0  0  0  0  0  0  0  0  0  0
  130.6387  132.4103  154.6234 C   0  0  0  0  0  0  0  0  0  0  0  0
  130.8084  131.7395  155.8332 C   0  0  0  0  0  0  0  0  0  0  0  0
  130.4807  132.4165  157.1118 C   0  0  0  0  0  0  0  0  0  0  0  0
  130.0404  131.8141  158.2439 C   0  0  0  0  0  0  0  0  0  0  0  0
  129.8625  132.8046  159.1793 N   0  0  0  0  0  0  0  0  0  0  0  0
  129.5541  132.6849  160.0912 H   0  0  0  0  0  0  0  0  0  0  0  0
  130.1997  133.9843  158.5906 C   0  0  0  0  0  0  0  0  0  0  0  0
  130.1597  135.2283  159.1967 N   0  0  0  0  0  0  0  0  0  0  0  0
  129.7256  135.3505  160.5906 C   0  0  1  0  0  0  0  0  0  0  0  0
  130.1338  134.5238  161.1720 H   0  0  0  0  0  0  0  0  0  0  0  0
  130.2273  136.6760  161.1667 C   0  0  0  0  0  0  0  0  0  0  0  0
  131.6750  136.5363  161.5613 C   0  0  0  0  0  0  0  0  0  0  0  0
  132.0065  136.1220  162.8379 C   0  0  0  0  0  0  0  0  0  0  0  0
  133.3344  135.9942  163.2000 C   0  0  0  0  0  0  0  0  0  0  0  0
  134.3308  136.2796  162.2854 C   0  0  0  0  0  0  0  0  0  0  0  0
  133.9994  136.6984  161.0104 C   0  0  0  0  0  0  0  0  0  0  0  0
  132.6715  136.8224  160.6470 C   0  0  0  0  0  0  0  0  0  0  0  0
  128.2203  135.3134  160.6529 C   0  0  0  0  0  0  0  0  0  0  0  0
  127.5871  134.7962  161.7676 C   0  0  0  0  0  0  0  0  0  0  0  0
  126.2065  134.7658  161.8265 C   0  0  0  0  0  0  0  0  0  0  0  0
  125.4587  135.2449  160.7670 C   0  0  0  0  0  0  0  0  0  0  0  0
  126.0919  135.7573  159.6501 C   0  0  0  0  0  0  0  0  0  0  0  0
  127.4726  135.7912  159.5928 C   0  0  0  0  0  0  0  0  0  0  0  0
  130.5632  133.7491  157.3535 N   0  0  0  0  0  0  0  0  0  0  0  0
  130.8482  134.4202  156.7137 H   0  0  0  0  0  0  0  0  0  0  0  0
  131.2922  130.4324  155.8382 C   0  0  0  0  0  0  0  0  0  0  0  0
  131.5897  129.8049  154.6456 C   0  0  0  0  0  0  0  0  0  0  0  0
  130.8140  132.2950  152.4986 H   0  0  0  0  0  0  0  0  0  0  0  0
  130.2679  133.4245  154.6145 H   0  0  0  0  0  0  0  0  0  0  0  0
  129.8634  130.7579  158.3836 H   0  0  0  0  0  0  0  0  0  0  0  0
  130.4192  136.0191  158.6984 H   0  0  0  0  0  0  0  0  0  0  0  0
  129.6354  136.9382  162.0436 H   0  0  0  0  0  0  0  0  0  0  0  0
  130.1295  137.4591  160.4149 H   0  0  0  0  0  0  0  0  0  0  0  0
  131.2279  135.8988  163.5524 H   0  0  0  0  0  0  0  0  0  0  0  0
  133.5934  135.6711  164.1975 H   0  0  0  0  0  0  0  0  0  0  0  0
  135.3683  136.1797  162.5684 H   0  0  0  0  0  0  0  0  0  0  0  0
  134.7780  136.9256  160.2971 H   0  0  0  0  0  0  0  0  0  0  0  0
  132.4124  137.1463  159.6498 H   0  0  0  0  0  0  0  0  0  0  0  0
  128.1713  134.4188  162.5938 H   0  0  0  0  0  0  0  0  0  0  0  0
  125.7118  134.3651  162.6989 H   0  0  0  0  0  0  0  0  0  0  0  0
  124.3801  135.2187  160.8118 H   0  0  0  0  0  0  0  0  0  0  0  0
  125.5078  136.1313  158.8223 H   0  0  0  0  0  0  0  0  0  0  0  0
  127.9672  136.1914  158.7202 H   0  0  0  0  0  0  0  0  0  0  0  0
  131.4296  129.9099  156.7733 H   0  0  0  0  0  0  0  0  0  0  0  0
  131.9602  128.7904  154.6480 H   0  0  0  0  0  0  0  0  0  0  0  0
  1  2  1  0
  2 30  2  0
  2  3  1  0
  3  4  2  0
  3 31  1  0
  4  5  1  0
  4 32  1  0
  5  6  1  0
  5 29  2  0
  6 27  1  0
  6  7  2  0
  7  8  1  0
  7 33  1  0
  8  9  1  0
  8 10  1  0
 10 11  1  0
 10 27  2  0
 11 12  1  0
 11 34  1  0
 12 13  1  1
 12 14  1  0
 12 21  1  0
 14 15  1  0
 14 35  1  0
 14 36  1  0
 15 20  1  0
 15 16  2  0
 16 17  1  0
 16 37  1  0
 17 18  2  0
 17 38  1  0
 18 19  1  0
 18 39  1  0
 19 20  2  0
 19 40  1  0
 20 41  1  0
 21 26  1  0
 21 22  2  0
 22 23  1  0
 22 42  1  0
 23 24  2  0
 23 43  1  0
 24 25  1  0
 24 44  1  0
 25 26  2  0
 25 45  1  0
 26 46  1  0
 27 28  1  0
 29 30  1  0
 29 47  1  0
 30 48  1  0
M  CHG  1  27   1
M  END
>  <DOCK_score>  (1) 
-56.132378

>  <SMILES>  (1) 
Clc1ccc(-c2c[nH]c(N[C@@H](Cc3ccccc3)c3ccccc3)[nH+]2)cc1

$$$$
