O=C1CC[C@H](NC(NC2CC=CC2)=[NH+]CCCF)CN1
     RDKit          3D

 44 45  0  0  1  0  0  0  0  0999 V2000
  123.9245  133.7460  161.4215 O   0  0  0  0  0  0  0  0  0  0  0  0
  125.1007  134.0176  161.3038 C   0  0  0  0  0  0  0  0  0  0  0  0
  126.0400  132.9322  160.8623 C   0  0  0  0  0  0  0  0  0  0  0  0
  127.4823  133.3265  161.1898 C   0  0  0  0  0  0  0  0  0  0  0  0
  127.7209  134.7546  160.6851 C   0  0  2  0  0  0  0  0  0  0  0  0
  127.4287  134.8259  159.6374 H   0  0  0  0  0  0  0  0  0  0  0  0
  129.1392  135.0945  160.8239 N   0  0  0  0  0  0  0  0  0  0  0  0
  130.0127  134.8326  159.7951 C   0  0  0  0  0  0  0  0  0  0  0  0
  129.5554  134.2518  158.6360 N   0  0  0  0  0  0  0  0  0  0  0  0
  130.4428  133.3938  157.8469 C   0  0  0  0  0  0  0  0  0  0  0  0
  129.6687  132.6960  156.7045 C   0  0  0  0  0  0  0  0  0  0  0  0
  130.2746  131.3136  156.6193 C   0  0  0  0  0  0  0  0  0  0  0  0
  130.9597  131.0334  157.6944 C   0  0  0  0  0  0  0  0  0  0  0  0
  130.9246  132.1811  158.6766 C   0  0  0  0  0  0  0  0  0  0  0  0
  131.2746  135.1351  159.9187 N   0  0  0  0  0  0  0  0  0  0  0  0
  131.8909  134.9503  159.1930 H   0  0  0  0  0  0  0  0  0  0  0  0
  131.7619  135.7538  161.1539 C   0  0  0  0  0  0  0  0  0  0  0  0
  133.2670  136.0040  161.0397 C   0  0  0  0  0  0  0  0  0  0  0  0
  133.7760  136.6502  162.3297 C   0  0  0  0  0  0  0  0  0  0  0  0
  135.1521  136.8790  162.2253 F   0  0  0  0  0  0  0  0  0  0  0  0
  126.8750  135.7169  161.5201 C   0  0  0  0  0  0  0  0  0  0  0  0
  125.4907  135.2639  161.5740 N   0  0  0  0  0  0  0  0  0  0  0  0
  125.9407  132.7829  159.7871 H   0  0  0  0  0  0  0  0  0  0  0  0
  125.7915  132.0056  161.3797 H   0  0  0  0  0  0  0  0  0  0  0  0
  128.1712  132.6423  160.6944 H   0  0  0  0  0  0  0  0  0  0  0  0
  127.6376  133.2876  162.2680 H   0  0  0  0  0  0  0  0  0  0  0  0
  129.4618  135.5044  161.6417 H   0  0  0  0  0  0  0  0  0  0  0  0
  128.6451  134.4099  158.3407 H   0  0  0  0  0  0  0  0  0  0  0  0
  131.2876  133.9618  157.4572 H   0  0  0  0  0  0  0  0  0  0  0  0
  128.6083  132.6313  156.9486 H   0  0  0  0  0  0  0  0  0  0  0  0
  129.8113  133.2324  155.7663 H   0  0  0  0  0  0  0  0  0  0  0  0
  130.1564  130.6458  155.7788 H   0  0  0  0  0  0  0  0  0  0  0  0
  131.4826  130.1031  157.8604 H   0  0  0  0  0  0  0  0  0  0  0  0
  131.9205  132.3676  159.0785 H   0  0  0  0  0  0  0  0  0  0  0  0
  130.2233  131.9709  159.4841 H   0  0  0  0  0  0  0  0  0  0  0  0
  131.2471  136.7014  161.3133 H   0  0  0  0  0  0  0  0  0  0  0  0
  131.5670  135.0885  161.9951 H   0  0  0  0  0  0  0  0  0  0  0  0
  133.7817  135.0565  160.8803 H   0  0  0  0  0  0  0  0  0  0  0  0
  133.4620  136.6694  160.1986 H   0  0  0  0  0  0  0  0  0  0  0  0
  133.2613  137.5976  162.4892 H   0  0  0  0  0  0  0  0  0  0  0  0
  133.5812  135.9848  163.1709 H   0  0  0  0  0  0  0  0  0  0  0  0
  127.2778  135.7655  162.5318 H   0  0  0  0  0  0  0  0  0  0  0  0
  126.9090  136.7093  161.0707 H   0  0  0  0  0  0  0  0  0  0  0  0
  124.8105  135.9095  161.8217 H   0  0  0  0  0  0  0  0  0  0  0  0
  1  2  2  0
  2 22  1  0
  2  3  1  0
  3  4  1  0
  3 23  1  0
  3 24  1  0
  4  5  1  0
  4 25  1  0
  4 26  1  0
  5  6  1  6
  5  7  1  0
  5 21  1  0
  7 27  1  0
  8  7  1  0
  8  9  1  0
  8 15  2  0
  9 10  1  0
  9 28  1  0
 10 14  1  0
 10 11  1  0
 10 29  1  0
 11 12  1  0
 11 30  1  0
 11 31  1  0
 12 13  2  0
 12 32  1  0
 13 14  1  0
 13 33  1  0
 14 34  1  0
 14 35  1  0
 15 16  1  0
 15 17  1  0
 17 18  1  0
 17 36  1  0
 17 37  1  0
 18 19  1  0
 18 38  1  0
 18 39  1  0
 19 20  1  0
 19 40  1  0
 19 41  1  0
 21 22  1  0
 21 42  1  0
 21 43  1  0
 22 44  1  0
M  CHG  1  15   1
M  END
>  <DOCK_score>  (1) 
-41.529366

>  <SMILES>  (1) 
O=C1CC[C@H](NC(NC2CC=CC2)=[NH+]CCCF)CN1

$$$$
