CCc1ccc(-c2c[nH]c(N[C@@H](C3=CCOCC3)c3c[nH]c4ccccc34)[nH+]2)cc1
     RDKit          3D

 57 61  0  0  1  0  0  0  0  0999 V2000
  130.2460  128.5758  151.6466 C   0  0  0  0  0  0  0  0  0  0  0  0
  131.3815  129.5498  151.9700 C   0  0  0  0  0  0  0  0  0  0  0  0
  131.0353  130.3298  153.2120 C   0  0  0  0  0  0  0  0  0  0  0  0
  131.4063  129.8462  154.4542 C   0  0  0  0  0  0  0  0  0  0  0  0
  131.0921  130.5555  155.5956 C   0  0  0  0  0  0  0  0  0  0  0  0
  130.4000  131.7612  155.4952 C   0  0  0  0  0  0  0  0  0  0  0  0
  130.0595  132.5281  156.7183 C   0  0  0  0  0  0  0  0  0  0  0  0
  129.2901  132.0912  157.7459 C   0  0  0  0  0  0  0  0  0  0  0  0
  129.2335  133.1118  158.6636 N   0  0  0  0  0  0  0  0  0  0  0  0
  128.7567  133.0992  159.5082 H   0  0  0  0  0  0  0  0  0  0  0  0
  129.9708  134.1434  158.1696 C   0  0  0  0  0  0  0  0  0  0  0  0
  130.1680  135.3643  158.7919 N   0  0  0  0  0  0  0  0  0  0  0  0
  129.5562  135.6287  160.0966 C   0  0  1  0  0  0  0  0  0  0  0  0
  128.4725  135.5479  160.0127 H   0  0  0  0  0  0  0  0  0  0  0  0
  130.0589  134.6230  161.1001 C   0  0  0  0  0  0  0  0  0  0  0  0
  129.2820  134.2800  162.0842 C   0  0  0  0  0  0  0  0  0  0  0  0
  129.6916  133.2936  163.1406 C   0  0  0  0  0  0  0  0  0  0  0  0
  130.8390  132.5591  162.7093 O   0  0  0  0  0  0  0  0  0  0  0  0
  131.8961  133.4006  162.2319 C   0  0  0  0  0  0  0  0  0  0  0  0
  131.4377  134.0502  160.9213 C   0  0  0  0  0  0  0  0  0  0  0  0
  129.9226  137.0181  160.5508 C   0  0  0  0  0  0  0  0  0  0  0  0
  131.0496  137.6841  160.2540 C   0  0  0  0  0  0  0  0  0  0  0  0
  131.0311  138.9186  160.8437 N   0  0  0  0  0  0  0  0  0  0  0  0
  131.7362  139.5807  160.7726 H   0  0  0  0  0  0  0  0  0  0  0  0
  129.8621  139.0811  161.5528 C   0  0  0  0  0  0  0  0  0  0  0  0
  129.3439  140.1192  162.3204 C   0  0  0  0  0  0  0  0  0  0  0  0
  128.1119  139.9776  162.9201 C   0  0  0  0  0  0  0  0  0  0  0  0
  127.3800  138.8080  162.7668 C   0  0  0  0  0  0  0  0  0  0  0  0
  127.8697  137.7759  162.0173 C   0  0  0  0  0  0  0  0  0  0  0  0
  129.1136  137.9004  161.3953 C   0  0  0  0  0  0  0  0  0  0  0  0
  130.4587  133.7928  157.0047 N   0  0  0  0  0  0  0  0  0  0  0  0
  131.0175  134.3481  156.4387 H   0  0  0  0  0  0  0  0  0  0  0  0
  130.0240  132.2405  154.2416 C   0  0  0  0  0  0  0  0  0  0  0  0
  130.3486  131.5255  153.1066 C   0  0  0  0  0  0  0  0  0  0  0  0
  130.4960  128.0121  150.7478 H   0  0  0  0  0  0  0  0  0  0  0  0
  130.1094  127.8878  152.4808 H   0  0  0  0  0  0  0  0  0  0  0  0
  129.3244  129.1338  151.4810 H   0  0  0  0  0  0  0  0  0  0  0  0
  131.5175  130.2381  151.1355 H   0  0  0  0  0  0  0  0  0  0  0  0
  132.3025  128.9921  152.1352 H   0  0  0  0  0  0  0  0  0  0  0  0
  131.9426  128.9119  154.5307 H   0  0  0  0  0  0  0  0  0  0  0  0
  131.3822  130.1773  156.5646 H   0  0  0  0  0  0  0  0  0  0  0  0
  128.8126  131.1259  157.8269 H   0  0  0  0  0  0  0  0  0  0  0  0
  130.7145  136.0431  158.3661 H   0  0  0  0  0  0  0  0  0  0  0  0
  128.2993  134.7239  162.1452 H   0  0  0  0  0  0  0  0  0  0  0  0
  129.9292  133.8274  164.0608 H   0  0  0  0  0  0  0  0  0  0  0  0
  128.8705  132.6011  163.3262 H   0  0  0  0  0  0  0  0  0  0  0  0
  132.1141  134.1713  162.9712 H   0  0  0  0  0  0  0  0  0  0  0  0
  132.7890  132.8018  162.0516 H   0  0  0  0  0  0  0  0  0  0  0  0
  131.4201  133.3023  160.1285 H   0  0  0  0  0  0  0  0  0  0  0  0
  132.1301  134.8477  160.6521 H   0  0  0  0  0  0  0  0  0  0  0  0
  131.8520  137.3022  159.6403 H   0  0  0  0  0  0  0  0  0  0  0  0
  129.9059  141.0329  162.4460 H   0  0  0  0  0  0  0  0  0  0  0  0
  127.7115  140.7845  163.5159 H   0  0  0  0  0  0  0  0  0  0  0  0
  126.4157  138.7131  163.2439 H   0  0  0  0  0  0  0  0  0  0  0  0
  127.2945  136.8692  161.9021 H   0  0  0  0  0  0  0  0  0  0  0  0
  129.4833  133.1717  154.1584 H   0  0  0  0  0  0  0  0  0  0  0  0
  130.0617  131.8984  152.1344 H   0  0  0  0  0  0  0  0  0  0  0  0
  1  2  1  0
  1 35  1  0
  1 36  1  0
  1 37  1  0
  2  3  1  0
  2 38  1  0
  2 39  1  0
  3 34  2  0
  3  4  1  0
  4  5  2  0
  4 40  1  0
  5  6  1  0
  5 41  1  0
  6  7  1  0
  6 33  2  0
  7 31  1  0
  7  8  2  0
  8  9  1  0
  8 42  1  0
  9 10  1  0
  9 11  1  0
 11 12  1  0
 11 31  2  0
 12 13  1  0
 12 43  1  0
 13 14  1  6
 13 15  1  0
 13 21  1  0
 15 20  1  0
 15 16  2  0
 16 17  1  0
 16 44  1  0
 17 18  1  0
 17 45  1  0
 17 46  1  0
 18 19  1  0
 19 20  1  0
 19 47  1  0
 19 48  1  0
 20 49  1  0
 20 50  1  0
 21 30  1  0
 21 22  2  0
 22 23  1  0
 22 51  1  0
 23 24  1  0
 23 25  1  0
 25 30  2  0
 25 26  1  0
 26 27  2  0
 26 52  1  0
 27 28  1  0
 27 53  1  0
 28 29  2  0
 28 54  1  0
 29 30  1  0
 29 55  1  0
 31 32  1  0
 33 34  1  0
 33 56  1  0
 34 57  1  0
M  CHG  1  31   1
M  END
>  <DOCK_score>  (1) 
-59.848808

>  <SMILES>  (1) 
CCc1ccc(-c2c[nH]c(N[C@@H](C3=CCOCC3)c3c[nH]c4ccccc34)[nH+]2)cc1

$$$$
