Nc1ccc(-c2c[nH]c(Nc3ccc(Nc4ccc(-c5ccccc5)cc4)cc3)[nH+]2)cc1
     RDKit          3D

 56 60  0  0  1  0  0  0  0  0999 V2000
  131.2862  129.1619  151.4366 N   0  0  0  0  0  0  0  0  0  0  0  0
  131.0240  129.8826  152.6042 C   0  0  0  0  0  0  0  0  0  0  0  0
  130.1270  130.9440  152.5780 C   0  0  0  0  0  0  0  0  0  0  0  0
  129.8672  131.6569  153.7294 C   0  0  0  0  0  0  0  0  0  0  0  0
  130.5047  131.3121  154.9203 C   0  0  0  0  0  0  0  0  0  0  0  0
  130.2267  132.0776  156.1603 C   0  0  0  0  0  0  0  0  0  0  0  0
  129.7158  131.5740  157.3112 C   0  0  0  0  0  0  0  0  0  0  0  0
  129.6261  132.6198  158.1986 N   0  0  0  0  0  0  0  0  0  0  0  0
  129.2992  132.5731  159.1107 H   0  0  0  0  0  0  0  0  0  0  0  0
  130.0778  133.7336  157.5600 C   0  0  0  0  0  0  0  0  0  0  0  0
  130.1501  135.0039  158.1071 N   0  0  0  0  0  0  0  0  0  0  0  0
  129.2349  135.3951  159.0923 C   0  0  0  0  0  0  0  0  0  0  0  0
  129.6083  136.3199  160.0589 C   0  0  0  0  0  0  0  0  0  0  0  0
  128.7081  136.7014  161.0335 C   0  0  0  0  0  0  0  0  0  0  0  0
  127.4252  136.1689  161.0406 C   0  0  0  0  0  0  0  0  0  0  0  0
  126.5103  136.5603  162.0248 N   0  0  0  0  0  0  0  0  0  0  0  0
  126.9645  136.9369  163.2895 C   0  0  0  0  0  0  0  0  0  0  0  0
  126.2545  137.8743  164.0316 C   0  0  0  0  0  0  0  0  0  0  0  0
  126.6985  138.2433  165.2833 C   0  0  0  0  0  0  0  0  0  0  0  0
  127.8665  137.6846  165.8003 C   0  0  0  0  0  0  0  0  0  0  0  0
  128.3498  138.0851  167.1444 C   0  0  0  0  0  0  0  0  0  0  0  0
  129.7133  138.0670  167.4316 C   0  0  0  0  0  0  0  0  0  0  0  0
  130.1576  138.4459  168.6821 C   0  0  0  0  0  0  0  0  0  0  0  0
  129.2518  138.8325  169.6529 C   0  0  0  0  0  0  0  0  0  0  0  0
  127.8964  138.8481  169.3750 C   0  0  0  0  0  0  0  0  0  0  0  0
  127.4411  138.4763  168.1263 C   0  0  0  0  0  0  0  0  0  0  0  0
  128.5801  136.7493  165.0523 C   0  0  0  0  0  0  0  0  0  0  0  0
  128.1298  136.3787  163.8034 C   0  0  0  0  0  0  0  0  0  0  0  0
  127.0516  135.2445  160.0734 C   0  0  0  0  0  0  0  0  0  0  0  0
  127.9539  134.8587  159.1022 C   0  0  0  0  0  0  0  0  0  0  0  0
  130.4384  133.4046  156.3433 N   0  0  0  0  0  0  0  0  0  0  0  0
  130.7996  134.0130  155.6798 H   0  0  0  0  0  0  0  0  0  0  0  0
  131.4079  130.2506  154.9429 C   0  0  0  0  0  0  0  0  0  0  0  0
  131.6603  129.5368  153.7903 C   0  0  0  0  0  0  0  0  0  0  0  0
  130.8421  129.4026  150.6081 H   0  0  0  0  0  0  0  0  0  0  0  0
  131.9119  128.4212  151.4538 H   0  0  0  0  0  0  0  0  0  0  0  0
  129.6334  131.2107  151.6552 H   0  0  0  0  0  0  0  0  0  0  0  0
  129.1701  132.4815  153.7086 H   0  0  0  0  0  0  0  0  0  0  0  0
  129.4372  130.5472  157.4966 H   0  0  0  0  0  0  0  0  0  0  0  0
  130.8346  135.6226  157.8079 H   0  0  0  0  0  0  0  0  0  0  0  0
  130.6044  136.7372  160.0508 H   0  0  0  0  0  0  0  0  0  0  0  0
  128.9998  137.4171  161.7879 H   0  0  0  0  0  0  0  0  0  0  0  0
  125.5604  136.5698  161.8278 H   0  0  0  0  0  0  0  0  0  0  0  0
  125.3523  138.3102  163.6287 H   0  0  0  0  0  0  0  0  0  0  0  0
  126.1443  138.9681  165.8612 H   0  0  0  0  0  0  0  0  0  0  0  0
  130.4213  137.7602  166.6759 H   0  0  0  0  0  0  0  0  0  0  0  0
  131.2144  138.4358  168.9046 H   0  0  0  0  0  0  0  0  0  0  0  0
  129.6032  139.1251  170.6313 H   0  0  0  0  0  0  0  0  0  0  0  0
  127.1933  139.1511  170.1368 H   0  0  0  0  0  0  0  0  0  0  0  0
  126.3830  138.4879  167.9106 H   0  0  0  0  0  0  0  0  0  0  0  0
  129.4849  136.3153  165.4512 H   0  0  0  0  0  0  0  0  0  0  0  0
  128.6824  135.6544  163.2235 H   0  0  0  0  0  0  0  0  0  0  0  0
  126.0554  134.8276  160.0810 H   0  0  0  0  0  0  0  0  0  0  0  0
  127.6637  134.1397  158.3506 H   0  0  0  0  0  0  0  0  0  0  0  0
  131.9062  129.9845  155.8634 H   0  0  0  0  0  0  0  0  0  0  0  0
  132.3565  128.7113  153.8085 H   0  0  0  0  0  0  0  0  0  0  0  0
  1  2  1  0
  1 35  1  0
  1 36  1  0
  2 34  2  0
  2  3  1  0
  3  4  2  0
  3 37  1  0
  4  5  1  0
  4 38  1  0
  5  6  1  0
  5 33  2  0
  6 31  1  0
  6  7  2  0
  7  8  1  0
  7 39  1  0
  8  9  1  0
  8 10  1  0
 10 11  1  0
 10 31  2  0
 11 12  1  0
 11 40  1  0
 12 30  1  0
 12 13  2  0
 13 14  1  0
 13 41  1  0
 14 15  2  0
 14 42  1  0
 15 16  1  0
 15 29  1  0
 16 17  1  0
 16 43  1  0
 17 28  1  0
 17 18  2  0
 18 19  1  0
 18 44  1  0
 19 20  2  0
 19 45  1  0
 20 21  1  0
 20 27  1  0
 21 26  1  0
 21 22  2  0
 22 23  1  0
 22 46  1  0
 23 24  2  0
 23 47  1  0
 24 25  1  0
 24 48  1  0
 25 26  2  0
 25 49  1  0
 26 50  1  0
 27 28  2  0
 27 51  1  0
 28 52  1  0
 29 30  2  0
 29 53  1  0
 30 54  1  0
 31 32  1  0
 33 34  1  0
 33 55  1  0
 34 56  1  0
M  CHG  1  31   1
M  END
>  <DOCK_score>  (1) 
-57.787788

>  <SMILES>  (1) 
Nc1ccc(-c2c[nH]c(Nc3ccc(Nc4ccc(-c5ccccc5)cc4)cc3)[nH+]2)cc1

$$$$
