Nc1ccc(-c2c[nH]c(N[C@H](c3ccccc3)c3cccc(Cl)c3Cl)[nH+]2)cc1
     RDKit          3D

 47 50  0  0  1  0  0  0  0  0999 V2000
  131.1911  129.2845  151.3474 N   0  0  0  0  0  0  0  0  0  0  0  0
  130.9866  129.9325  152.5680 C   0  0  0  0  0  0  0  0  0  0  0  0
  130.1304  131.0248  152.6388 C   0  0  0  0  0  0  0  0  0  0  0  0
  129.9270  131.6659  153.8425 C   0  0  0  0  0  0  0  0  0  0  0  0
  130.5810  131.2177  154.9891 C   0  0  0  0  0  0  0  0  0  0  0  0
  130.3637  131.9058  156.2852 C   0  0  0  0  0  0  0  0  0  0  0  0
  129.8591  131.3446  157.4118 C   0  0  0  0  0  0  0  0  0  0  0  0
  129.8295  132.3306  158.3695 N   0  0  0  0  0  0  0  0  0  0  0  0
  129.5186  132.2347  159.2832 H   0  0  0  0  0  0  0  0  0  0  0  0
  130.3172  133.4653  157.7986 C   0  0  0  0  0  0  0  0  0  0  0  0
  130.4549  134.6901  158.4291 N   0  0  0  0  0  0  0  0  0  0  0  0
  130.0587  134.8408  159.8314 C   0  0  2  0  0  0  0  0  0  0  0  0
  130.3573  133.9541  160.3906 H   0  0  0  0  0  0  0  0  0  0  0  0
  128.5634  135.0080  159.9158 C   0  0  0  0  0  0  0  0  0  0  0  0
  127.8793  134.5585  161.0297 C   0  0  0  0  0  0  0  0  0  0  0  0
  126.5082  134.7153  161.1088 C   0  0  0  0  0  0  0  0  0  0  0  0
  125.8200  135.3138  160.0699 C   0  0  0  0  0  0  0  0  0  0  0  0
  126.5034  135.7589  158.9538 C   0  0  0  0  0  0  0  0  0  0  0  0
  127.8750  135.6056  158.8765 C   0  0  0  0  0  0  0  0  0  0  0  0
  130.7336  136.0546  160.4165 C   0  0  0  0  0  0  0  0  0  0  0  0
  129.9727  137.0931  160.9202 C   0  0  0  0  0  0  0  0  0  0  0  0
  130.5909  138.2091  161.4522 C   0  0  0  0  0  0  0  0  0  0  0  0
  131.9709  138.2831  161.4916 C   0  0  0  0  0  0  0  0  0  0  0  0
  132.7336  137.2450  160.9881 C   0  0  0  0  0  0  0  0  0  0  0  0
  134.4665  137.3407  161.0303 Cl  0  0  0  0  0  0  0  0  0  0  0  0
  132.1142  136.1294  160.4498 C   0  0  0  0  0  0  0  0  0  0  0  0
  133.0702  134.8254  159.8181 Cl  0  0  0  0  0  0  0  0  0  0  0  0
  130.6300  133.2090  156.5518 N   0  0  0  0  0  0  0  0  0  0  0  0
  130.9958  133.8486  155.9209 H   0  0  0  0  0  0  0  0  0  0  0  0
  131.4439  130.1254  154.9147 C   0  0  0  0  0  0  0  0  0  0  0  0
  131.6394  129.4834  153.7100 C   0  0  0  0  0  0  0  0  0  0  0  0
  130.7358  129.5968  150.5502 H   0  0  0  0  0  0  0  0  0  0  0  0
  131.7887  128.5218  151.2975 H   0  0  0  0  0  0  0  0  0  0  0  0
  129.6242  131.3720  151.7502 H   0  0  0  0  0  0  0  0  0  0  0  0
  129.2612  132.5146  153.8969 H   0  0  0  0  0  0  0  0  0  0  0  0
  129.5412  130.3196  157.5332 H   0  0  0  0  0  0  0  0  0  0  0  0
  130.8137  135.4486  157.9423 H   0  0  0  0  0  0  0  0  0  0  0  0
  128.4166  134.0875  161.8397 H   0  0  0  0  0  0  0  0  0  0  0  0
  125.9742  134.3673  161.9806 H   0  0  0  0  0  0  0  0  0  0  0  0
  124.7484  135.4333  160.1303 H   0  0  0  0  0  0  0  0  0  0  0  0
  125.9657  136.2262  158.1421 H   0  0  0  0  0  0  0  0  0  0  0  0
  128.4089  135.9529  158.0044 H   0  0  0  0  0  0  0  0  0  0  0  0
  128.8946  137.0344  160.8939 H   0  0  0  0  0  0  0  0  0  0  0  0
  129.9955  139.0219  161.8413 H   0  0  0  0  0  0  0  0  0  0  0  0
  132.4532  139.1535  161.9111 H   0  0  0  0  0  0  0  0  0  0  0  0
  131.9549  129.7792  155.8008 H   0  0  0  0  0  0  0  0  0  0  0  0
  132.3038  128.6339  153.6530 H   0  0  0  0  0  0  0  0  0  0  0  0
  1  2  1  0
  1 32  1  0
  1 33  1  0
  2 31  2  0
  2  3  1  0
  3  4  2  0
  3 34  1  0
  4  5  1  0
  4 35  1  0
  5  6  1  0
  5 30  2  0
  6 28  1  0
  6  7  2  0
  7  8  1  0
  7 36  1  0
  8  9  1  0
  8 10  1  0
 10 11  1  0
 10 28  2  0
 11 12  1  0
 11 37  1  0
 12 13  1  1
 12 14  1  0
 12 20  1  0
 14 19  1  0
 14 15  2  0
 15 16  1  0
 15 38  1  0
 16 17  2  0
 16 39  1  0
 17 18  1  0
 17 40  1  0
 18 19  2  0
 18 41  1  0
 19 42  1  0
 20 26  1  0
 20 21  2  0
 21 22  1  0
 21 43  1  0
 22 23  2  0
 22 44  1  0
 23 24  1  0
 23 45  1  0
 24 25  1  0
 24 26  2  0
 26 27  1  0
 28 29  1  0
 30 31  1  0
 30 46  1  0
 31 47  1  0
M  CHG  1  28   1
M  END
>  <DOCK_score>  (1) 
-58.247089

>  <SMILES>  (1) 
Nc1ccc(-c2c[nH]c(N[C@H](c3ccccc3)c3cccc(Cl)c3Cl)[nH+]2)cc1

$$$$
