Fc1ccc(C[C@H](Nc2[nH]cc(-c3ccc(Cl)cc3)[nH+]2)c2ccccc2)cc1
     RDKit          3D

 48 51  0  0  1  0  0  0  0  0999 V2000
  135.3190  138.4687  160.0543 F   0  0  0  0  0  0  0  0  0  0  0  0
  134.0085  138.1669  160.1846 C   0  0  0  0  0  0  0  0  0  0  0  0
  133.0475  139.1341  159.9439 C   0  0  0  0  0  0  0  0  0  0  0  0
  131.7075  138.8245  160.0780 C   0  0  0  0  0  0  0  0  0  0  0  0
  131.3262  137.5497  160.4529 C   0  0  0  0  0  0  0  0  0  0  0  0
  129.8646  137.2132  160.5992 C   0  0  0  0  0  0  0  0  0  0  0  0
  129.6479  135.7320  160.2829 C   0  0  2  0  0  0  0  0  0  0  0  0
  130.2316  135.1238  160.9738 H   0  0  0  0  0  0  0  0  0  0  0  0
  130.0769  135.4583  158.9091 N   0  0  0  0  0  0  0  0  0  0  0  0
  129.9753  134.1771  158.3945 C   0  0  0  0  0  0  0  0  0  0  0  0
  129.4963  133.0911  159.0604 N   0  0  0  0  0  0  0  0  0  0  0  0
  129.1642  133.0764  159.9716 H   0  0  0  0  0  0  0  0  0  0  0  0
  129.5644  132.0209  158.2015 C   0  0  0  0  0  0  0  0  0  0  0  0
  130.0826  132.4833  157.0369 C   0  0  0  0  0  0  0  0  0  0  0  0
  130.3393  131.6807  155.8160 C   0  0  0  0  0  0  0  0  0  0  0  0
  129.7024  132.0051  154.6194 C   0  0  0  0  0  0  0  0  0  0  0  0
  129.9491  131.2589  153.4852 C   0  0  0  0  0  0  0  0  0  0  0  0
  130.8186  130.1825  153.5373 C   0  0  0  0  0  0  0  0  0  0  0  0
  131.1197  129.2437  152.1085 Cl  0  0  0  0  0  0  0  0  0  0  0  0
  131.4493  129.8531  154.7246 C   0  0  0  0  0  0  0  0  0  0  0  0
  131.2138  130.5965  155.8630 C   0  0  0  0  0  0  0  0  0  0  0  0
  130.3247  133.8100  157.1858 N   0  0  0  0  0  0  0  0  0  0  0  0
  130.6962  134.3936  156.5060 H   0  0  0  0  0  0  0  0  0  0  0  0
  128.1862  135.3958  160.4292 C   0  0  0  0  0  0  0  0  0  0  0  0
  127.6948  134.9641  161.6470 C   0  0  0  0  0  0  0  0  0  0  0  0
  126.3533  134.6593  161.7823 C   0  0  0  0  0  0  0  0  0  0  0  0
  125.5047  134.7784  160.6976 C   0  0  0  0  0  0  0  0  0  0  0  0
  125.9970  135.2051  159.4785 C   0  0  0  0  0  0  0  0  0  0  0  0
  127.3378  135.5135  159.3442 C   0  0  0  0  0  0  0  0  0  0  0  0
  132.2850  136.5845  160.6990 C   0  0  0  0  0  0  0  0  0  0  0  0
  133.6255  136.8903  160.5596 C   0  0  0  0  0  0  0  0  0  0  0  0
  133.3452  140.1304  159.6518 H   0  0  0  0  0  0  0  0  0  0  0  0
  130.9576  139.5788  159.8902 H   0  0  0  0  0  0  0  0  0  0  0  0
  129.2808  137.8214  159.9083 H   0  0  0  0  0  0  0  0  0  0  0  0
  129.5453  137.4170  161.6214 H   0  0  0  0  0  0  0  0  0  0  0  0
  130.4320  136.1747  158.3600 H   0  0  0  0  0  0  0  0  0  0  0  0
  129.2626  131.0058  158.4133 H   0  0  0  0  0  0  0  0  0  0  0  0
  129.0204  132.8415  154.5790 H   0  0  0  0  0  0  0  0  0  0  0  0
  129.4592  131.5117  152.5564 H   0  0  0  0  0  0  0  0  0  0  0  0
  132.1265  129.0127  154.7600 H   0  0  0  0  0  0  0  0  0  0  0  0
  131.7066  130.3389  156.7889 H   0  0  0  0  0  0  0  0  0  0  0  0
  128.3585  134.8677  162.4937 H   0  0  0  0  0  0  0  0  0  0  0  0
  125.9686  134.3255  162.7348 H   0  0  0  0  0  0  0  0  0  0  0  0
  124.4570  134.5378  160.8025 H   0  0  0  0  0  0  0  0  0  0  0  0
  125.3341  135.2978  158.6309 H   0  0  0  0  0  0  0  0  0  0  0  0
  127.7225  135.8470  158.3916 H   0  0  0  0  0  0  0  0  0  0  0  0
  131.9862  135.5902  160.9966 H   0  0  0  0  0  0  0  0  0  0  0  0
  134.3743  136.1351  160.7481 H   0  0  0  0  0  0  0  0  0  0  0  0
  1  2  1  0
  2 31  2  0
  2  3  1  0
  3  4  2  0
  3 32  1  0
  4  5  1  0
  4 33  1  0
  5  6  1  0
  5 30  2  0
  6  7  1  0
  6 34  1  0
  6 35  1  0
  7  8  1  1
  7  9  1  0
  7 24  1  0
  9 36  1  0
 10  9  1  0
 10 22  2  0
 10 11  1  0
 11 12  1  0
 11 13  1  0
 13 14  2  0
 13 37  1  0
 14 15  1  0
 14 22  1  0
 15 21  1  0
 15 16  2  0
 16 17  1  0
 16 38  1  0
 17 18  2  0
 17 39  1  0
 18 19  1  0
 18 20  1  0
 20 21  2  0
 20 40  1  0
 21 41  1  0
 22 23  1  0
 24 29  1  0
 24 25  2  0
 25 26  1  0
 25 42  1  0
 26 27  2  0
 26 43  1  0
 27 28  1  0
 27 44  1  0
 28 29  2  0
 28 45  1  0
 29 46  1  0
 30 31  1  0
 30 47  1  0
 31 48  1  0
M  CHG  1  22   1
M  END
>  <DOCK_score>  (1) 
-55.944862

>  <SMILES>  (1) 
Fc1ccc(C[C@H](Nc2[nH]cc(-c3ccc(Cl)cc3)[nH+]2)c2ccccc2)cc1

$$$$
