CCCNc1cc(C)cc(CNC(NC2CC=CC2)=[NH+]Cc2cc(C)cc(O)c2)c1
     RDKit          3D

 65 67  0  0  1  0  0  0  0  0999 V2000
  138.1602  133.7632  164.1240 C   0  0  0  0  0  0  0  0  0  0  0  0
  138.1582  135.2900  164.0255 C   0  0  0  0  0  0  0  0  0  0  0  0
  136.9368  135.7477  163.2256 C   0  0  0  0  0  0  0  0  0  0  0  0
  136.9346  137.2096  163.1311 N   0  0  0  0  0  0  0  0  0  0  0  0
  135.9101  137.8635  162.4429 C   0  0  0  0  0  0  0  0  0  0  0  0
  135.9097  139.2495  162.3476 C   0  0  0  0  0  0  0  0  0  0  0  0
  134.8955  139.8928  161.6661 C   0  0  0  0  0  0  0  0  0  0  0  0
  134.8942  141.3962  161.5621 C   0  0  0  0  0  0  0  0  0  0  0  0
  133.8808  139.1589  161.0791 C   0  0  0  0  0  0  0  0  0  0  0  0
  133.8781  137.7795  161.1722 C   0  0  0  0  0  0  0  0  0  0  0  0
  132.7703  136.9840  160.5311 C   0  0  0  0  0  0  0  0  0  0  0  0
  131.6779  136.8064  161.4909 N   0  0  0  0  0  0  0  0  0  0  0  0
  130.5509  136.1074  161.1282 C   0  0  0  0  0  0  0  0  0  0  0  0
  130.4491  135.5752  159.8647 N   0  0  0  0  0  0  0  0  0  0  0  0
  129.2482  134.8304  159.4781 C   0  0  0  0  0  0  0  0  0  0  0  0
  129.1472  133.4975  160.2556 C   0  0  0  0  0  0  0  0  0  0  0  0
  128.5896  132.5111  159.2560 C   0  0  0  0  0  0  0  0  0  0  0  0
  128.7016  132.9633  158.0367 C   0  0  0  0  0  0  0  0  0  0  0  0
  129.3528  134.3267  158.0199 C   0  0  0  0  0  0  0  0  0  0  0  0
  129.5790  135.9493  161.9822 N   0  0  0  0  0  0  0  0  0  0  0  0
  128.7838  135.4563  161.7263 H   0  0  0  0  0  0  0  0  0  0  0  0
  129.6875  136.5164  163.3286 C   0  0  0  0  0  0  0  0  0  0  0  0
  128.4407  136.1944  164.1113 C   0  0  0  0  0  0  0  0  0  0  0  0
  128.5402  135.7462  165.4158 C   0  0  0  0  0  0  0  0  0  0  0  0
  127.3985  135.4499  166.1365 C   0  0  0  0  0  0  0  0  0  0  0  0
  127.5108  134.9612  167.5576 C   0  0  0  0  0  0  0  0  0  0  0  0
  126.1543  135.6011  165.5548 C   0  0  0  0  0  0  0  0  0  0  0  0
  126.0516  136.0509  164.2466 C   0  0  0  0  0  0  0  0  0  0  0  0
  124.8290  136.2008  163.6724 O   0  0  0  0  0  0  0  0  0  0  0  0
  127.1991  136.3527  163.5272 C   0  0  0  0  0  0  0  0  0  0  0  0
  134.8925  137.1293  161.8475 C   0  0  0  0  0  0  0  0  0  0  0  0
  138.2003  133.3344  163.1227 H   0  0  0  0  0  0  0  0  0  0  0  0
  139.0304  133.4371  164.6939 H   0  0  0  0  0  0  0  0  0  0  0  0
  137.2518  133.4303  164.6257 H   0  0  0  0  0  0  0  0  0  0  0  0
  138.1181  135.7187  165.0268 H   0  0  0  0  0  0  0  0  0  0  0  0
  139.0667  135.6230  163.5236 H   0  0  0  0  0  0  0  0  0  0  0  0
  136.9768  135.3189  162.2242 H   0  0  0  0  0  0  0  0  0  0  0  0
  136.0283  135.4147  163.7272 H   0  0  0  0  0  0  0  0  0  0  0  0
  137.6447  137.7235  163.5465 H   0  0  0  0  0  0  0  0  0  0  0  0
  136.7014  139.8233  162.8063 H   0  0  0  0  0  0  0  0  0  0  0  0
  135.4398  141.6991  160.6684 H   0  0  0  0  0  0  0  0  0  0  0  0
  133.8669  141.7552  161.4999 H   0  0  0  0  0  0  0  0  0  0  0  0
  135.3750  141.8217  162.4431 H   0  0  0  0  0  0  0  0  0  0  0  0
  133.0883  139.6646  160.5473 H   0  0  0  0  0  0  0  0  0  0  0  0
  132.4008  137.5164  159.6546 H   0  0  0  0  0  0  0  0  0  0  0  0
  133.1512  136.0083  160.2295 H   0  0  0  0  0  0  0  0  0  0  0  0
  131.7498  137.1819  162.3824 H   0  0  0  0  0  0  0  0  0  0  0  0
  131.1723  135.6928  159.2291 H   0  0  0  0  0  0  0  0  0  0  0  0
  128.3526  135.4355  159.6197 H   0  0  0  0  0  0  0  0  0  0  0  0
  130.1335  133.1793  160.5933 H   0  0  0  0  0  0  0  0  0  0  0  0
  128.4703  133.6029  161.1035 H   0  0  0  0  0  0  0  0  0  0  0  0
  128.1549  131.5573  159.5164 H   0  0  0  0  0  0  0  0  0  0  0  0
  128.3720  132.4328  157.1557 H   0  0  0  0  0  0  0  0  0  0  0  0
  128.8156  134.9957  157.3475 H   0  0  0  0  0  0  0  0  0  0  0  0
  130.3977  134.2466  157.7198 H   0  0  0  0  0  0  0  0  0  0  0  0
  130.5540  136.0898  163.8338 H   0  0  0  0  0  0  0  0  0  0  0  0
  129.8036  137.5981  163.2590 H   0  0  0  0  0  0  0  0  0  0  0  0
  129.5119  135.6271  165.8721 H   0  0  0  0  0  0  0  0  0  0  0  0
  127.4986  135.8135  168.2369 H   0  0  0  0  0  0  0  0  0  0  0  0
  126.6706  134.3046  167.7835 H   0  0  0  0  0  0  0  0  0  0  0  0
  128.4443  134.4121  167.6803 H   0  0  0  0  0  0  0  0  0  0  0  0
  125.2625  135.3688  166.1180 H   0  0  0  0  0  0  0  0  0  0  0  0
  124.8596  136.5188  162.7596 H   0  0  0  0  0  0  0  0  0  0  0  0
  127.1216  136.7069  162.5099 H   0  0  0  0  0  0  0  0  0  0  0  0
  134.8923  136.0514  161.9160 H   0  0  0  0  0  0  0  0  0  0  0  0
  1  2  1  0
  1 32  1  0
  1 33  1  0
  1 34  1  0
  2  3  1  0
  2 35  1  0
  2 36  1  0
  3  4  1  0
  3 37  1  0
  3 38  1  0
  4  5  1  0
  4 39  1  0
  5 31  2  0
  5  6  1  0
  6  7  2  0
  6 40  1  0
  7  8  1  0
  7  9  1  0
  8 41  1  0
  8 42  1  0
  8 43  1  0
  9 10  2  0
  9 44  1  0
 10 11  1  0
 10 31  1  0
 11 12  1  0
 11 45  1  0
 11 46  1  0
 12 47  1  0
 13 12  1  0
 13 14  1  0
 13 20  2  0
 14 15  1  0
 14 48  1  0
 15 19  1  0
 15 16  1  0
 15 49  1  0
 16 17  1  0
 16 50  1  0
 16 51  1  0
 17 18  2  0
 17 52  1  0
 18 19  1  0
 18 53  1  0
 19 54  1  0
 19 55  1  0
 20 21  1  0
 20 22  1  0
 22 23  1  0
 22 56  1  0
 22 57  1  0
 23 30  1  0
 23 24  2  0
 24 25  1  0
 24 58  1  0
 25 26  1  0
 25 27  2  0
 26 59  1  0
 26 60  1  0
 26 61  1  0
 27 28  1  0
 27 62  1  0
 28 29  1  0
 28 30  2  0
 29 63  1  0
 30 64  1  0
 31 65  1  0
M  CHG  1  20   1
M  END
>  <DOCK_score>  (1) 
-45.759415

>  <SMILES>  (1) 
CCCNc1cc(C)cc(CNC(NC2CC=CC2)=[NH+]Cc2cc(C)cc(O)c2)c1

$$$$
