C1=CCC(Nc2ccc(-c3n[nH]cc3C[NH2+]CC3CC(C4CC4)C3)o2)C1
     RDKit          3D

 55 59  0  0  1  0  0  0  0  0999 V2000
  128.3803  138.1945  164.6771 C   0  0  0  0  0  0  0  0  0  0  0  0
  127.3679  139.0080  164.5470 C   0  0  0  0  0  0  0  0  0  0  0  0
  126.4756  138.5874  163.4023 C   0  0  0  0  0  0  0  0  0  0  0  0
  127.3359  137.6054  162.5737 C   0  0  0  0  0  0  0  0  0  0  0  0
  126.5211  136.5074  162.0477 N   0  0  0  0  0  0  0  0  0  0  0  0
  127.1096  135.5144  161.2732 C   0  0  0  0  0  0  0  0  0  0  0  0
  126.4689  134.4496  160.7296 C   0  0  0  0  0  0  0  0  0  0  0  0
  127.4356  133.7027  160.0276 C   0  0  0  0  0  0  0  0  0  0  0  0
  128.6203  134.3512  160.1789 C   0  0  0  0  0  0  0  0  0  0  0  0
  129.9173  133.9278  159.6120 C   0  0  0  0  0  0  0  0  0  0  0  0
  130.1278  132.8602  158.8673 N   0  0  0  0  0  0  0  0  0  0  0  0
  131.4884  132.8221  158.5370 N   0  0  0  0  0  0  0  0  0  0  0  0
  131.9238  132.1443  157.9964 H   0  0  0  0  0  0  0  0  0  0  0  0
  132.0895  133.8921  159.1010 C   0  0  0  0  0  0  0  0  0  0  0  0
  131.1496  134.5974  159.7661 C   0  0  0  0  0  0  0  0  0  0  0  0
  131.3770  135.8713  160.5383 C   0  0  0  0  0  0  0  0  0  0  0  0
  131.1926  137.0240  159.6465 N   0  0  0  0  0  0  0  0  0  0  0  0
  131.8527  136.9696  158.8854 H   0  0  0  0  0  0  0  0  0  0  0  0
  130.2532  137.0171  159.2780 H   0  0  0  0  0  0  0  0  0  0  0  0
  131.4142  138.2658  160.3993 C   0  0  0  0  0  0  0  0  0  0  0  0
  132.8384  138.2762  160.9582 C   0  0  2  0  0  0  0  0  0  0  0  0
  133.3664  139.6858  161.2731 C   0  0  0  0  0  0  0  0  0  0  0  0
  134.7173  139.2216  160.7035 C   0  0  2  0  0  0  0  0  0  0  0  0
  135.4237  140.2815  159.8559 C   0  0  0  0  0  0  0  0  0  0  0  0
  136.9538  140.2803  159.8545 C   0  0  0  0  0  0  0  0  0  0  0  0
  136.1902  141.3808  160.5941 C   0  0  0  0  0  0  0  0  0  0  0  0
  133.9260  138.1964  159.8740 C   0  0  0  0  0  0  0  0  0  0  0  0
  128.4089  135.4482  160.9362 O   0  0  0  0  0  0  0  0  0  0  0  0
  128.3328  137.0955  163.6402 C   0  0  0  0  0  0  0  0  0  0  0  0
  129.1514  138.2938  165.4267 H   0  0  0  0  0  0  0  0  0  0  0  0
  127.1914  139.8689  165.1746 H   0  0  0  0  0  0  0  0  0  0  0  0
  126.1989  139.4520  162.7991 H   0  0  0  0  0  0  0  0  0  0  0  0
  125.5835  138.0866  163.7784 H   0  0  0  0  0  0  0  0  0  0  0  0
  127.8558  138.1244  161.7683 H   0  0  0  0  0  0  0  0  0  0  0  0
  125.5710  136.4732  162.2401 H   0  0  0  0  0  0  0  0  0  0  0  0
  125.4169  134.2204  160.8146 H   0  0  0  0  0  0  0  0  0  0  0  0
  127.2673  132.7901  159.4751 H   0  0  0  0  0  0  0  0  0  0  0  0
  133.1376  134.1423  159.0287 H   0  0  0  0  0  0  0  0  0  0  0  0
  130.6639  135.9301  161.3605 H   0  0  0  0  0  0  0  0  0  0  0  0
  132.3919  135.8785  160.9362 H   0  0  0  0  0  0  0  0  0  0  0  0
  131.2773  139.1212  159.7377 H   0  0  0  0  0  0  0  0  0  0  0  0
  130.7009  138.3245  161.2214 H   0  0  0  0  0  0  0  0  0  0  0  0
  132.9792  137.5640  161.7713 H   0  0  0  0  0  0  0  0  0  0  0  0
  132.8914  140.4713  160.6854 H   0  0  0  0  0  0  0  0  0  0  0  0
  133.3966  139.9127  162.3388 H   0  0  0  0  0  0  0  0  0  0  0  0
  135.3726  138.7689  161.4476 H   0  0  0  0  0  0  0  0  0  0  0  0
  134.9196  140.5550  158.9290 H   0  0  0  0  0  0  0  0  0  0  0  0
  137.4570  139.5244  160.4574 H   0  0  0  0  0  0  0  0  0  0  0  0
  137.4563  140.5530  158.9266 H   0  0  0  0  0  0  0  0  0  0  0  0
  136.1907  142.3774  160.1528 H   0  0  0  0  0  0  0  0  0  0  0  0
  136.1912  141.3488  161.6836 H   0  0  0  0  0  0  0  0  0  0  0  0
  134.4083  137.2210  159.8103 H   0  0  0  0  0  0  0  0  0  0  0  0
  133.6036  138.5735  158.9035 H   0  0  0  0  0  0  0  0  0  0  0  0
  127.9712  136.1688  164.0856 H   0  0  0  0  0  0  0  0  0  0  0  0
  129.3181  136.9464  163.1985 H   0  0  0  0  0  0  0  0  0  0  0  0
  1 29  1  0
  1  2  2  0
  1 30  1  0
  2  3  1  0
  2 31  1  0
  3  4  1  0
  3 32  1  0
  3 33  1  0
  4  5  1  0
  4 29  1  0
  4 34  1  0
  5  6  1  0
  5 35  1  0
  6 28  1  0
  6  7  2  0
  7  8  1  0
  7 36  1  0
  8  9  2  0
  8 37  1  0
  9 10  1  0
  9 28  1  0
 10 15  1  0
 10 11  2  0
 11 12  1  0
 12 13  1  0
 12 14  1  0
 14 15  2  0
 14 38  1  0
 15 16  1  0
 16 17  1  0
 16 39  1  0
 16 40  1  0
 17 18  1  0
 17 19  1  0
 17 20  1  0
 20 21  1  0
 20 41  1  0
 20 42  1  0
 21 27  1  0
 21 22  1  0
 21 43  1  1
 22 23  1  0
 22 44  1  0
 22 45  1  0
 23 24  1  0
 23 27  1  0
 23 46  1  1
 24 26  1  0
 24 25  1  0
 24 47  1  0
 25 26  1  0
 25 48  1  0
 25 49  1  0
 26 50  1  0
 26 51  1  0
 27 52  1  0
 27 53  1  0
 29 54  1  0
 29 55  1  0
M  CHG  1  17   1
M  END
>  <DOCK_score>  (1) 
-44.75639

>  <SMILES>  (1) 
C1=CCC(Nc2ccc(-c3n[nH]cc3C[NH2+]CC3CC(C4CC4)C3)o2)C1

$$$$
