O[C@@H](CNC1CC[NH2+]C2CC12)c1ccc(-c2ccccc2)cc1
     RDKit          3D

 48 51  0  0  1  0  0  0  0  0999 V2000
  124.9938  135.2413  161.4931 O   0  0  0  0  0  0  0  0  0  0  0  0
  126.3804  134.9870  161.7270 C   0  0  1  0  0  0  0  0  0  0  0  0
  126.6373  133.9977  161.3487 H   0  0  0  0  0  0  0  0  0  0  0  0
  127.2211  136.0428  161.0061 C   0  0  0  0  0  0  0  0  0  0  0  0
  128.5915  135.5428  160.8326 N   0  0  0  0  0  0  0  0  0  0  0  0
  128.6758  134.6241  159.6895 C   0  0  1  0  0  0  0  0  0  0  0  0
  128.7462  135.4318  158.3906 C   0  0  0  0  0  0  0  0  0  0  0  0
  129.0260  134.4613  157.2374 C   0  0  0  0  0  0  0  0  0  0  0  0
  130.4310  134.0489  157.2925 N   0  0  0  0  0  0  0  0  0  0  0  0
  130.6080  133.3770  156.5610 H   0  0  0  0  0  0  0  0  0  0  0  0
  131.0190  134.8564  157.1498 H   0  0  0  0  0  0  0  0  0  0  0  0
  130.7513  133.4455  158.5869 C   0  0  1  0  0  0  0  0  0  0  0  0
  131.2983  134.3973  159.6616 C   0  0  0  0  0  0  0  0  0  0  0  0
  129.9238  133.7602  159.8242 C   0  0  1  0  0  0  0  0  0  0  0  0
  126.6596  135.0472  163.2067 C   0  0  0  0  0  0  0  0  0  0  0  0
  125.6313  135.3179  164.0914 C   0  0  0  0  0  0  0  0  0  0  0  0
  125.8804  135.3693  165.4481 C   0  0  0  0  0  0  0  0  0  0  0  0
  127.1724  135.1585  165.9250 C   0  0  0  0  0  0  0  0  0  0  0  0
  127.4475  135.2186  167.3820 C   0  0  0  0  0  0  0  0  0  0  0  0
  128.6989  135.6243  167.8411 C   0  0  0  0  0  0  0  0  0  0  0  0
  128.9477  135.6830  169.1975 C   0  0  0  0  0  0  0  0  0  0  0  0
  127.9608  135.3299  170.1001 C   0  0  0  0  0  0  0  0  0  0  0  0
  126.7184  134.9214  169.6497 C   0  0  0  0  0  0  0  0  0  0  0  0
  126.4572  134.8639  168.2956 C   0  0  0  0  0  0  0  0  0  0  0  0
  128.2054  134.8914  165.0287 C   0  0  0  0  0  0  0  0  0  0  0  0
  127.9441  134.8371  163.6748 C   0  0  0  0  0  0  0  0  0  0  0  0
  124.6944  136.1063  161.8051 H   0  0  0  0  0  0  0  0  0  0  0  0
  126.7839  136.2508  160.0297 H   0  0  0  0  0  0  0  0  0  0  0  0
  127.2405  136.9580  161.5980 H   0  0  0  0  0  0  0  0  0  0  0  0
  129.2446  136.3054  160.7327 H   0  0  0  0  0  0  0  0  0  0  0  0
  127.7931  133.9850  159.6719 H   0  0  0  0  0  0  0  0  0  0  0  0
  127.7967  135.9398  158.2216 H   0  0  0  0  0  0  0  0  0  0  0  0
  129.5496  136.1654  158.4569 H   0  0  0  0  0  0  0  0  0  0  0  0
  128.3845  133.5853  157.3339 H   0  0  0  0  0  0  0  0  0  0  0  0
  128.8265  134.9566  156.2871 H   0  0  0  0  0  0  0  0  0  0  0  0
  131.1947  132.4510  158.5386 H   0  0  0  0  0  0  0  0  0  0  0  0
  132.1028  134.0293  160.2983 H   0  0  0  0  0  0  0  0  0  0  0  0
  131.3371  135.4598  159.4212 H   0  0  0  0  0  0  0  0  0  0  0  0
  129.8543  132.9695  160.5711 H   0  0  0  0  0  0  0  0  0  0  0  0
  124.6309  135.4852  163.7203 H   0  0  0  0  0  0  0  0  0  0  0  0
  125.0759  135.5763  166.1383 H   0  0  0  0  0  0  0  0  0  0  0  0
  129.4713  135.8964  167.1371 H   0  0  0  0  0  0  0  0  0  0  0  0
  129.9159  136.0014  169.5546 H   0  0  0  0  0  0  0  0  0  0  0  0
  128.1612  135.3730  171.1604 H   0  0  0  0  0  0  0  0  0  0  0  0
  125.9516  134.6463  170.3588 H   0  0  0  0  0  0  0  0  0  0  0  0
  125.4868  134.5446  167.9450 H   0  0  0  0  0  0  0  0  0  0  0  0
  129.2089  134.7275  165.3931 H   0  0  0  0  0  0  0  0  0  0  0  0
  128.7440  134.6299  162.9792 H   0  0  0  0  0  0  0  0  0  0  0  0
  1  2  1  0
  1 27  1  0
  2  3  1  6
  2  4  1  0
  2 15  1  0
  4  5  1  0
  4 28  1  0
  4 29  1  0
  5  6  1  0
  5 30  1  0
  6 14  1  0
  6  7  1  0
  6 31  1  6
  7  8  1  0
  7 32  1  0
  7 33  1  0
  8  9  1  0
  8 34  1  0
  8 35  1  0
  9 10  1  0
  9 11  1  0
  9 12  1  0
 12 14  1  0
 12 13  1  0
 12 36  1  6
 13 14  1  0
 13 37  1  0
 13 38  1  0
 14 39  1  1
 15 26  1  0
 15 16  2  0
 16 17  1  0
 16 40  1  0
 17 18  2  0
 17 41  1  0
 18 19  1  0
 18 25  1  0
 19 24  1  0
 19 20  2  0
 20 21  1  0
 20 42  1  0
 21 22  2  0
 21 43  1  0
 22 23  1  0
 22 44  1  0
 23 24  2  0
 23 45  1  0
 24 46  1  0
 25 26  2  0
 25 47  1  0
 26 48  1  0
M  CHG  1   9   1
M  END
>  <DOCK_score>  (1) 
-41.074669

>  <SMILES>  (1) 
O[C@@H](CNC1CC[NH2+]C2CC12)c1ccc(-c2ccccc2)cc1

$$$$
