CC(C)CSc1csc(Nc2ccc([C@H](C)[NH+]3CCCC3)cc2)n1
     RDKit          3D

 52 54  0  0  1  0  0  0  0  0999 V2000
  130.9477  130.6584  157.7038 C   0  0  0  0  0  0  0  0  0  0  0  0
  130.4033  132.0841  157.5952 C   0  0  0  0  0  0  0  0  0  0  0  0
  129.5317  132.2032  156.3436 C   0  0  0  0  0  0  0  0  0  0  0  0
  129.5639  132.4051  158.8336 C   0  0  0  0  0  0  0  0  0  0  0  0
  128.1809  131.2367  158.9462 S   0  0  0  0  0  0  0  0  0  0  0  0
  126.9278  132.1816  159.7471 C   0  0  0  0  0  0  0  0  0  0  0  0
  125.7159  131.6870  160.0305 C   0  0  0  0  0  0  0  0  0  0  0  0
  124.7810  132.9516  160.8240 S   0  0  0  0  0  0  0  0  0  0  0  0
  126.1053  134.0255  160.7007 C   0  0  0  0  0  0  0  0  0  0  0  0
  126.1098  135.3347  161.1574 N   0  0  0  0  0  0  0  0  0  0  0  0
  127.2527  136.1241  161.0043 C   0  0  0  0  0  0  0  0  0  0  0  0
  127.8851  136.6573  162.1205 C   0  0  0  0  0  0  0  0  0  0  0  0
  129.0177  137.4322  161.9661 C   0  0  0  0  0  0  0  0  0  0  0  0
  129.5158  137.6873  160.7015 C   0  0  0  0  0  0  0  0  0  0  0  0
  130.7487  138.5381  160.5365 C   0  0  2  0  0  0  0  0  0  0  0  0
  131.1028  138.8586  161.5165 H   0  0  0  0  0  0  0  0  0  0  0  0
  130.4109  139.7666  159.6895 C   0  0  0  0  0  0  0  0  0  0  0  0
  131.7975  137.7561  159.8685 N   0  0  0  0  0  0  0  0  0  0  0  0
  131.6335  137.7319  158.8733 H   0  0  0  0  0  0  0  0  0  0  0  0
  133.1328  138.3403  160.1549 C   0  0  0  0  0  0  0  0  0  0  0  0
  134.0999  137.1577  159.8968 C   0  0  0  0  0  0  0  0  0  0  0  0
  133.3094  135.9416  160.4316 C   0  0  0  0  0  0  0  0  0  0  0  0
  131.8338  136.3814  160.4131 C   0  0  0  0  0  0  0  0  0  0  0  0
  128.8854  137.1630  159.5879 C   0  0  0  0  0  0  0  0  0  0  0  0
  127.7557  136.3824  159.7354 C   0  0  0  0  0  0  0  0  0  0  0  0
  127.1060  133.4388  160.1193 N   0  0  0  0  0  0  0  0  0  0  0  0
  131.5456  130.4297  156.8216 H   0  0  0  0  0  0  0  0  0  0  0  0
  131.5686  130.5735  158.5956 H   0  0  0  0  0  0  0  0  0  0  0  0
  130.1167  129.9563  157.7714 H   0  0  0  0  0  0  0  0  0  0  0  0
  131.2343  132.7862  157.5277 H   0  0  0  0  0  0  0  0  0  0  0  0
  129.1438  133.2191  156.2662 H   0  0  0  0  0  0  0  0  0  0  0  0
  130.1295  131.9748  155.4613 H   0  0  0  0  0  0  0  0  0  0  0  0
  128.7005  131.5013  156.4111 H   0  0  0  0  0  0  0  0  0  0  0  0
  129.1761  133.4208  158.7563 H   0  0  0  0  0  0  0  0  0  0  0  0
  130.1849  132.3202  159.7253 H   0  0  0  0  0  0  0  0  0  0  0  0
  125.3717  130.6872  159.8104 H   0  0  0  0  0  0  0  0  0  0  0  0
  125.3197  135.7026  161.5831 H   0  0  0  0  0  0  0  0  0  0  0  0
  127.4941  136.4624  163.1082 H   0  0  0  0  0  0  0  0  0  0  0  0
  129.5127  137.8429  162.8338 H   0  0  0  0  0  0  0  0  0  0  0  0
  130.1561  139.4516  158.6777 H   0  0  0  0  0  0  0  0  0  0  0  0
  129.5632  140.2906  160.1313 H   0  0  0  0  0  0  0  0  0  0  0  0
  131.2728  140.4332  159.6564 H   0  0  0  0  0  0  0  0  0  0  0  0
  133.3451  139.1661  159.4758 H   0  0  0  0  0  0  0  0  0  0  0  0
  133.1948  138.6685  161.1925 H   0  0  0  0  0  0  0  0  0  0  0  0
  135.0278  137.2898  160.4534 H   0  0  0  0  0  0  0  0  0  0  0  0
  134.3005  137.0491  158.8310 H   0  0  0  0  0  0  0  0  0  0  0  0
  133.6211  135.7055  161.4490 H   0  0  0  0  0  0  0  0  0  0  0  0
  133.4550  135.0785  159.7819 H   0  0  0  0  0  0  0  0  0  0  0  0
  131.4309  136.3725  161.4259 H   0  0  0  0  0  0  0  0  0  0  0  0
  131.2553  135.7139  159.7747 H   0  0  0  0  0  0  0  0  0  0  0  0
  129.2772  137.3637  158.6016 H   0  0  0  0  0  0  0  0  0  0  0  0
  127.2637  135.9735  158.8654 H   0  0  0  0  0  0  0  0  0  0  0  0
  1  2  1  0
  1 27  1  0
  1 28  1  0
  1 29  1  0
  2  3  1  0
  2  4  1  0
  2 30  1  0
  3 31  1  0
  3 32  1  0
  3 33  1  0
  4  5  1  0
  4 34  1  0
  4 35  1  0
  5  6  1  0
  6 26  1  0
  6  7  2  0
  7  8  1  0
  7 36  1  0
  8  9  1  0
  9 10  1  0
  9 26  2  0
 10 11  1  0
 10 37  1  0
 11 25  1  0
 11 12  2  0
 12 13  1  0
 12 38  1  0
 13 14  2  0
 13 39  1  0
 14 15  1  0
 14 24  1  0
 15 16  1  1
 15 17  1  0
 15 18  1  0
 17 40  1  0
 17 41  1  0
 17 42  1  0
 18 19  1  0
 18 23  1  0
 18 20  1  0
 20 21  1  0
 20 43  1  0
 20 44  1  0
 21 22  1  0
 21 45  1  0
 21 46  1  0
 22 23  1  0
 22 47  1  0
 22 48  1  0
 23 49  1  0
 23 50  1  0
 24 25  2  0
 24 51  1  0
 25 52  1  0
M  CHG  1  18   1
M  END
>  <DOCK_score>  (1) 
-42.823074

>  <SMILES>  (1) 
CC(C)CSc1csc(Nc2ccc([C@H](C)[NH+]3CCCC3)cc2)n1

$$$$
