C[C@H]1CC1Nc1ccc(-c2n[nH]cc2C[NH2+]C2CC23CCCCCC3)o1
     RDKit          3D

 57 61  0  0  1  0  0  0  0  0999 V2000
  125.4479  137.1085  164.7098 C   0  0  0  0  0  0  0  0  0  0  0  0
  126.6567  137.7743  164.0492 C   0  0  1  0  0  0  0  0  0  0  0  0
  126.7435  138.8500  164.2030 H   0  0  0  0  0  0  0  0  0  0  0  0
  127.9534  136.9648  163.9685 C   0  0  0  0  0  0  0  0  0  0  0  0
  127.1261  137.2126  162.7056 C   0  0  1  0  0  0  0  0  0  0  0  0
  126.3835  136.0786  162.1501 N   0  0  0  0  0  0  0  0  0  0  0  0
  127.0335  135.1481  161.3476 C   0  0  0  0  0  0  0  0  0  0  0  0
  126.4624  134.0592  160.7751 C   0  0  0  0  0  0  0  0  0  0  0  0
  127.4741  133.3965  160.0524 C   0  0  0  0  0  0  0  0  0  0  0  0
  128.6145  134.1166  160.2211 C   0  0  0  0  0  0  0  0  0  0  0  0
  129.9349  133.7948  159.6415 C   0  0  0  0  0  0  0  0  0  0  0  0
  130.2152  132.7584  158.8763 N   0  0  0  0  0  0  0  0  0  0  0  0
  131.5731  132.8217  158.5390 N   0  0  0  0  0  0  0  0  0  0  0  0
  132.0512  132.1873  157.9823 H   0  0  0  0  0  0  0  0  0  0  0  0
  132.1029  133.9164  159.1267 C   0  0  0  0  0  0  0  0  0  0  0  0
  131.1213  134.5388  159.8135 C   0  0  0  0  0  0  0  0  0  0  0  0
  131.2668  135.8032  160.6205 C   0  0  0  0  0  0  0  0  0  0  0  0
  131.0057  136.9655  159.7610 N   0  0  0  0  0  0  0  0  0  0  0  0
  131.6663  136.9752  158.9985 H   0  0  0  0  0  0  0  0  0  0  0  0
  130.0680  136.9075  159.3929 H   0  0  0  0  0  0  0  0  0  0  0  0
  131.1474  138.1980  160.5477 C   0  0  2  0  0  0  0  0  0  0  0  0
  131.6386  139.4484  159.8178 C   0  0  0  0  0  0  0  0  0  0  0  0
  132.5704  138.7195  160.7979 C   0  0  0  0  0  0  0  0  0  0  0  0
  133.7054  137.8963  160.1510 C   0  0  0  0  0  0  0  0  0  0  0  0
  135.0726  138.5936  160.2826 C   0  0  0  0  0  0  0  0  0  0  0  0
  134.9339  140.0769  160.0529 C   0  0  0  0  0  0  0  0  0  0  0  0
  134.7698  140.7693  161.4061 C   0  0  0  0  0  0  0  0  0  0  0  0
  133.3885  140.8156  161.8915 C   0  0  0  0  0  0  0  0  0  0  0  0
  132.8460  139.3875  162.1255 C   0  0  0  0  0  0  0  0  0  0  0  0
  128.3336  135.1761  161.0085 O   0  0  0  0  0  0  0  0  0  0  0  0
  125.6695  136.0582  164.8984 H   0  0  0  0  0  0  0  0  0  0  0  0
  125.2281  137.6086  165.6531 H   0  0  0  0  0  0  0  0  0  0  0  0
  124.5847  137.1848  164.0485 H   0  0  0  0  0  0  0  0  0  0  0  0
  127.9453  135.9579  164.3861 H   0  0  0  0  0  0  0  0  0  0  0  0
  128.8930  137.5081  164.0693 H   0  0  0  0  0  0  0  0  0  0  0  0
  127.5214  137.9187  161.9755 H   0  0  0  0  0  0  0  0  0  0  0  0
  125.4382  135.9769  162.3423 H   0  0  0  0  0  0  0  0  0  0  0  0
  125.4285  133.7579  160.8570 H   0  0  0  0  0  0  0  0  0  0  0  0
  127.3646  132.4902  159.4755 H   0  0  0  0  0  0  0  0  0  0  0  0
  133.1318  134.2378  159.0587 H   0  0  0  0  0  0  0  0  0  0  0  0
  130.5533  135.7927  161.4443 H   0  0  0  0  0  0  0  0  0  0  0  0
  132.2798  135.8658  161.0182 H   0  0  0  0  0  0  0  0  0  0  0  0
  130.4144  138.3349  161.3427 H   0  0  0  0  0  0  0  0  0  0  0  0
  131.8567  139.3566  158.7538 H   0  0  0  0  0  0  0  0  0  0  0  0
  131.2289  140.4082  160.1325 H   0  0  0  0  0  0  0  0  0  0  0  0
  133.7567  136.9215  160.6359 H   0  0  0  0  0  0  0  0  0  0  0  0
  133.4811  137.7532  159.0939 H   0  0  0  0  0  0  0  0  0  0  0  0
  135.7604  138.1783  159.5461 H   0  0  0  0  0  0  0  0  0  0  0  0
  135.4693  138.4201  161.2829 H   0  0  0  0  0  0  0  0  0  0  0  0
  134.0577  140.2706  159.4343 H   0  0  0  0  0  0  0  0  0  0  0  0
  135.8269  140.4547  159.5547 H   0  0  0  0  0  0  0  0  0  0  0  0
  135.1416  141.7903  161.3205 H   0  0  0  0  0  0  0  0  0  0  0  0
  135.3777  140.2403  162.1400 H   0  0  0  0  0  0  0  0  0  0  0  0
  132.7651  141.3204  161.1535 H   0  0  0  0  0  0  0  0  0  0  0  0
  133.3562  141.3703  162.8290 H   0  0  0  0  0  0  0  0  0  0  0  0
  131.9230  139.4408  162.7027 H   0  0  0  0  0  0  0  0  0  0  0  0
  133.5841  138.8056  162.6774 H   0  0  0  0  0  0  0  0  0  0  0  0
  1  2  1  0
  1 31  1  0
  1 32  1  0
  1 33  1  0
  2  3  1  6
  2  5  1  0
  2  4  1  0
  4  5  1  0
  4 34  1  0
  4 35  1  0
  5  6  1  0
  5 36  1  6
  6  7  1  0
  6 37  1  0
  7 30  1  0
  7  8  2  0
  8  9  1  0
  8 38  1  0
  9 10  2  0
  9 39  1  0
 10 11  1  0
 10 30  1  0
 11 16  1  0
 11 12  2  0
 12 13  1  0
 13 14  1  0
 13 15  1  0
 15 16  2  0
 15 40  1  0
 16 17  1  0
 17 18  1  0
 17 41  1  0
 17 42  1  0
 18 19  1  0
 18 20  1  0
 18 21  1  0
 21 23  1  0
 21 22  1  0
 21 43  1  1
 22 23  1  0
 22 44  1  0
 22 45  1  0
 23 29  1  0
 23 24  1  0
 24 25  1  0
 24 46  1  0
 24 47  1  0
 25 26  1  0
 25 48  1  0
 25 49  1  0
 26 27  1  0
 26 50  1  0
 26 51  1  0
 27 28  1  0
 27 52  1  0
 27 53  1  0
 28 29  1  0
 28 54  1  0
 28 55  1  0
 29 56  1  0
 29 57  1  0
M  CHG  1  18   1
M  END
>  <DOCK_score>  (1) 
-43.734306

>  <SMILES>  (1) 
C[C@H]1CC1Nc1ccc(-c2n[nH]cc2C[NH2+]C2CC23CCCCCC3)o1

$$$$
