CCc1cc(O)cc(Nc2[nH]cc(-c3ccc(O)cc3)[nH+]2)c1
     RDKit          3D

 40 42  0  0  1  0  0  0  0  0999 V2000
  128.8938  139.6534  162.7343 C   0  0  0  0  0  0  0  0  0  0  0  0
  128.9020  138.1874  163.1721 C   0  0  0  0  0  0  0  0  0  0  0  0
  128.5267  137.3122  162.0042 C   0  0  0  0  0  0  0  0  0  0  0  0
  127.2004  136.9969  161.7767 C   0  0  0  0  0  0  0  0  0  0  0  0
  126.8510  136.1911  160.7021 C   0  0  0  0  0  0  0  0  0  0  0  0
  125.5464  135.8821  160.4799 O   0  0  0  0  0  0  0  0  0  0  0  0
  127.8330  135.7057  159.8528 C   0  0  0  0  0  0  0  0  0  0  0  0
  129.1651  136.0186  160.0859 C   0  0  0  0  0  0  0  0  0  0  0  0
  130.1587  135.5267  159.2350 N   0  0  0  0  0  0  0  0  0  0  0  0
  129.9807  134.3132  158.5908 C   0  0  0  0  0  0  0  0  0  0  0  0
  129.2623  133.2603  159.0679 N   0  0  0  0  0  0  0  0  0  0  0  0
  128.7868  133.2247  159.9126 H   0  0  0  0  0  0  0  0  0  0  0  0
  129.3348  132.2571  158.1317 C   0  0  0  0  0  0  0  0  0  0  0  0
  130.0946  132.7259  157.1108 C   0  0  0  0  0  0  0  0  0  0  0  0
  130.4460  131.9868  155.8733 C   0  0  0  0  0  0  0  0  0  0  0  0
  130.0686  132.4890  154.6290 C   0  0  0  0  0  0  0  0  0  0  0  0
  130.3972  131.7997  153.4804 C   0  0  0  0  0  0  0  0  0  0  0  0
  131.0984  130.6046  153.5629 C   0  0  0  0  0  0  0  0  0  0  0  0
  131.4157  129.9249  152.4295 O   0  0  0  0  0  0  0  0  0  0  0  0
  131.4801  130.1046  154.8003 C   0  0  0  0  0  0  0  0  0  0  0  0
  131.1545  130.7891  155.9525 C   0  0  0  0  0  0  0  0  0  0  0  0
  130.4811  133.9876  157.4238 N   0  0  0  0  0  0  0  0  0  0  0  0
  131.0369  134.5588  156.8710 H   0  0  0  0  0  0  0  0  0  0  0  0
  129.5087  136.8263  161.1634 C   0  0  0  0  0  0  0  0  0  0  0  0
  129.6131  139.7957  161.9276 H   0  0  0  0  0  0  0  0  0  0  0  0
  127.8973  139.9224  162.3840 H   0  0  0  0  0  0  0  0  0  0  0  0
  129.1653  140.2865  163.5789 H   0  0  0  0  0  0  0  0  0  0  0  0
  128.1829  138.0451  163.9787 H   0  0  0  0  0  0  0  0  0  0  0  0
  129.8986  137.9184  163.5222 H   0  0  0  0  0  0  0  0  0  0  0  0
  126.4347  137.3778  162.4364 H   0  0  0  0  0  0  0  0  0  0  0  0
  124.9357  136.2691  161.1220 H   0  0  0  0  0  0  0  0  0  0  0  0
  127.5627  135.0819  159.0137 H   0  0  0  0  0  0  0  0  0  0  0  0
  130.9730  136.0351  159.0955 H   0  0  0  0  0  0  0  0  0  0  0  0
  128.8746  131.2822  158.1962 H   0  0  0  0  0  0  0  0  0  0  0  0
  129.5192  133.4166  154.5644 H   0  0  0  0  0  0  0  0  0  0  0  0
  130.1048  132.1882  152.5159 H   0  0  0  0  0  0  0  0  0  0  0  0
  131.1114  130.3516  151.6168 H   0  0  0  0  0  0  0  0  0  0  0  0
  132.0290  129.1765  154.8610 H   0  0  0  0  0  0  0  0  0  0  0  0
  131.4485  130.3976  156.9153 H   0  0  0  0  0  0  0  0  0  0  0  0
  130.5445  137.0739  161.3437 H   0  0  0  0  0  0  0  0  0  0  0  0
  1  2  1  0
  1 25  1  0
  1 26  1  0
  1 27  1  0
  2  3  1  0
  2 28  1  0
  2 29  1  0
  3 24  2  0
  3  4  1  0
  4  5  2  0
  4 30  1  0
  5  6  1  0
  5  7  1  0
  6 31  1  0
  7  8  2  0
  7 32  1  0
  8  9  1  0
  8 24  1  0
  9 33  1  0
 10  9  1  0
 10 22  2  0
 10 11  1  0
 11 12  1  0
 11 13  1  0
 13 14  2  0
 13 34  1  0
 14 15  1  0
 14 22  1  0
 15 21  1  0
 15 16  2  0
 16 17  1  0
 16 35  1  0
 17 18  2  0
 17 36  1  0
 18 19  1  0
 18 20  1  0
 19 37  1  0
 20 21  2  0
 20 38  1  0
 21 39  1  0
 22 23  1  0
 24 40  1  0
M  CHG  1  22   1
M  END
>  <DOCK_score>  (1) 
-48.102421

>  <SMILES>  (1) 
CCc1cc(O)cc(Nc2[nH]cc(-c3ccc(O)cc3)[nH+]2)c1

$$$$
