O=C1CC[C@H](NC(NC2CC=CC2)=[NH+]CCCCl)CN1
     RDKit          3D

 44 45  0  0  1  0  0  0  0  0999 V2000
  123.9199  133.6659  161.5368 O   0  0  0  0  0  0  0  0  0  0  0  0
  125.0929  133.9335  161.3841 C   0  0  0  0  0  0  0  0  0  0  0  0
  126.0034  132.8623  160.8561 C   0  0  0  0  0  0  0  0  0  0  0  0
  127.4613  133.2300  161.1427 C   0  0  0  0  0  0  0  0  0  0  0  0
  127.6932  134.6779  160.6943 C   0  0  2  0  0  0  0  0  0  0  0  0
  127.3600  134.7994  159.6635 H   0  0  0  0  0  0  0  0  0  0  0  0
  129.1191  135.0001  160.7910 N   0  0  0  0  0  0  0  0  0  0  0  0
  129.9482  134.7789  159.7169 C   0  0  0  0  0  0  0  0  0  0  0  0
  129.4393  134.2554  158.5519 N   0  0  0  0  0  0  0  0  0  0  0  0
  130.2863  133.4277  157.6894 C   0  0  0  0  0  0  0  0  0  0  0  0
  129.4605  132.7891  156.5487 C   0  0  0  0  0  0  0  0  0  0  0  0
  130.0492  131.4075  156.3762 C   0  0  0  0  0  0  0  0  0  0  0  0
  130.7740  131.0729  157.4089 C   0  0  0  0  0  0  0  0  0  0  0  0
  130.7892  132.1746  158.4429 C   0  0  0  0  0  0  0  0  0  0  0  0
  131.2169  135.0656  159.8031 N   0  0  0  0  0  0  0  0  0  0  0  0
  131.8019  134.9096  159.0453 H   0  0  0  0  0  0  0  0  0  0  0  0
  131.7591  135.6233  161.0444 C   0  0  0  0  0  0  0  0  0  0  0  0
  133.2607  135.8668  160.8810 C   0  0  0  0  0  0  0  0  0  0  0  0
  133.8271  136.4491  162.1775 C   0  0  0  0  0  0  0  0  0  0  0  0
  133.5501  135.2885  163.5292 Cl  0  0  0  0  0  0  0  0  0  0  0  0
  126.8907  135.6073  161.6057 C   0  0  0  0  0  0  0  0  0  0  0  0
  125.5053  135.1630  161.6948 N   0  0  0  0  0  0  0  0  0  0  0  0
  125.8597  132.7633  159.7801 H   0  0  0  0  0  0  0  0  0  0  0  0
  125.7669  131.9149  161.3403 H   0  0  0  0  0  0  0  0  0  0  0  0
  128.1234  132.5640  160.5892 H   0  0  0  0  0  0  0  0  0  0  0  0
  127.6593  133.1405  162.2108 H   0  0  0  0  0  0  0  0  0  0  0  0
  129.4781  135.3695  161.6129 H   0  0  0  0  0  0  0  0  0  0  0  0
  128.5195  134.4339  158.3012 H   0  0  0  0  0  0  0  0  0  0  0  0
  131.1202  134.0065  157.2921 H   0  0  0  0  0  0  0  0  0  0  0  0
  128.4101  132.7215  156.8322 H   0  0  0  0  0  0  0  0  0  0  0  0
  129.5705  133.3668  155.6308 H   0  0  0  0  0  0  0  0  0  0  0  0
  129.8911  130.7798  155.5116 H   0  0  0  0  0  0  0  0  0  0  0  0
  131.2942  130.1319  157.5110 H   0  0  0  0  0  0  0  0  0  0  0  0
  131.8022  132.3347  158.8123 H   0  0  0  0  0  0  0  0  0  0  0  0
  130.1188  131.9330  159.2677 H   0  0  0  0  0  0  0  0  0  0  0  0
  131.2602  136.5664  161.2675 H   0  0  0  0  0  0  0  0  0  0  0  0
  131.5916  134.9216  161.8616 H   0  0  0  0  0  0  0  0  0  0  0  0
  133.7596  134.9237  160.6580 H   0  0  0  0  0  0  0  0  0  0  0  0
  133.4283  136.5686  160.0639 H   0  0  0  0  0  0  0  0  0  0  0  0
  134.8968  136.6227  162.0611 H   0  0  0  0  0  0  0  0  0  0  0  0
  133.3281  137.3923  162.4006 H   0  0  0  0  0  0  0  0  0  0  0  0
  127.3340  135.6064  162.6014 H   0  0  0  0  0  0  0  0  0  0  0  0
  126.9161  136.6190  161.2010 H   0  0  0  0  0  0  0  0  0  0  0  0
  124.8417  135.8018  161.9989 H   0  0  0  0  0  0  0  0  0  0  0  0
  1  2  2  0
  2 22  1  0
  2  3  1  0
  3  4  1  0
  3 23  1  0
  3 24  1  0
  4  5  1  0
  4 25  1  0
  4 26  1  0
  5  6  1  6
  5  7  1  0
  5 21  1  0
  7 27  1  0
  8  7  1  0
  8  9  1  0
  8 15  2  0
  9 10  1  0
  9 28  1  0
 10 14  1  0
 10 11  1  0
 10 29  1  0
 11 12  1  0
 11 30  1  0
 11 31  1  0
 12 13  2  0
 12 32  1  0
 13 14  1  0
 13 33  1  0
 14 34  1  0
 14 35  1  0
 15 16  1  0
 15 17  1  0
 17 18  1  0
 17 36  1  0
 17 37  1  0
 18 19  1  0
 18 38  1  0
 18 39  1  0
 19 20  1  0
 19 40  1  0
 19 41  1  0
 21 22  1  0
 21 42  1  0
 21 43  1  0
 22 44  1  0
M  CHG  1  15   1
M  END
>  <DOCK_score>  (1) 
-41.409515

>  <SMILES>  (1) 
O=C1CC[C@H](NC(NC2CC=CC2)=[NH+]CCCCl)CN1

$$$$
