Nc1ccc(-c2ccc(-c3c[nH]c(NC4c5cc(O)ccc5-c5ccc(O)cc54)[nH+]3)cc2)cc1
     RDKit          3D

 57 62  0  0  1  0  0  0  0  0999 V2000
  137.8339  142.8854  166.2620 N   0  0  0  0  0  0  0  0  0  0  0  0
  136.9639  142.0482  165.5617 C   0  0  0  0  0  0  0  0  0  0  0  0
  136.5392  142.3999  164.2855 C   0  0  0  0  0  0  0  0  0  0  0  0
  135.6761  141.5771  163.5940 C   0  0  0  0  0  0  0  0  0  0  0  0
  135.2375  140.3858  164.1713 C   0  0  0  0  0  0  0  0  0  0  0  0
  134.3137  139.4963  163.4272 C   0  0  0  0  0  0  0  0  0  0  0  0
  133.4077  138.6944  164.1212 C   0  0  0  0  0  0  0  0  0  0  0  0
  132.5461  137.8717  163.4299 C   0  0  0  0  0  0  0  0  0  0  0  0
  132.5873  137.8322  162.0361 C   0  0  0  0  0  0  0  0  0  0  0  0
  131.6639  136.9423  161.2922 C   0  0  0  0  0  0  0  0  0  0  0  0
  131.1651  137.1674  160.0508 C   0  0  0  0  0  0  0  0  0  0  0  0
  130.3594  136.0977  159.7451 N   0  0  0  0  0  0  0  0  0  0  0  0
  129.8623  135.9695  158.9220 H   0  0  0  0  0  0  0  0  0  0  0  0
  130.3828  135.2534  160.8123 C   0  0  0  0  0  0  0  0  0  0  0  0
  129.6959  134.0553  160.9077 N   0  0  0  0  0  0  0  0  0  0  0  0
  128.8547  133.6028  159.7969 C   0  0  0  0  0  0  0  0  0  0  0  0
  127.4422  133.3717  160.2755 C   0  0  0  0  0  0  0  0  0  0  0  0
  126.5070  134.2110  160.8383 C   0  0  0  0  0  0  0  0  0  0  0  0
  125.2565  133.7212  161.1913 C   0  0  0  0  0  0  0  0  0  0  0  0
  124.3337  134.5503  161.7460 O   0  0  0  0  0  0  0  0  0  0  0  0
  124.9496  132.3841  160.9777 C   0  0  0  0  0  0  0  0  0  0  0  0
  125.8828  131.5397  160.4162 C   0  0  0  0  0  0  0  0  0  0  0  0
  127.1420  132.0277  160.0591 C   0  0  0  0  0  0  0  0  0  0  0  0
  128.3129  131.3517  159.4477 C   0  0  0  0  0  0  0  0  0  0  0  0
  128.5034  130.0267  159.0486 C   0  0  0  0  0  0  0  0  0  0  0  0
  129.7052  129.6385  158.4969 C   0  0  0  0  0  0  0  0  0  0  0  0
  130.7300  130.5612  158.3353 C   0  0  0  0  0  0  0  0  0  0  0  0
  131.9132  130.1743  157.7904 O   0  0  0  0  0  0  0  0  0  0  0  0
  130.5452  131.8795  158.7299 C   0  0  0  0  0  0  0  0  0  0  0  0
  129.3452  132.2716  159.2824 C   0  0  0  0  0  0  0  0  0  0  0  0
  131.1632  135.7613  161.7347 N   0  0  0  0  0  0  0  0  0  0  0  0
  131.3531  135.3571  162.5959 H   0  0  0  0  0  0  0  0  0  0  0  0
  133.4971  138.6301  161.3424 C   0  0  0  0  0  0  0  0  0  0  0  0
  134.3546  139.4572  162.0336 C   0  0  0  0  0  0  0  0  0  0  0  0
  135.6649  140.0350  165.4514 C   0  0  0  0  0  0  0  0  0  0  0  0
  136.5238  140.8636  166.1413 C   0  0  0  0  0  0  0  0  0  0  0  0
  138.1417  143.7119  165.8582 H   0  0  0  0  0  0  0  0  0  0  0  0
  138.1307  142.6407  167.1524 H   0  0  0  0  0  0  0  0  0  0  0  0
  136.8819  143.3208  163.8375 H   0  0  0  0  0  0  0  0  0  0  0  0
  135.3431  141.8526  162.6044 H   0  0  0  0  0  0  0  0  0  0  0  0
  133.3788  138.7217  165.2006 H   0  0  0  0  0  0  0  0  0  0  0  0
  131.8421  137.2536  163.9671 H   0  0  0  0  0  0  0  0  0  0  0  0
  131.3648  138.0228  159.4225 H   0  0  0  0  0  0  0  0  0  0  0  0
  129.7716  133.5153  161.7099 H   0  0  0  0  0  0  0  0  0  0  0  0
  128.8632  134.3413  158.9952 H   0  0  0  0  0  0  0  0  0  0  0  0
  126.7461  135.2510  161.0042 H   0  0  0  0  0  0  0  0  0  0  0  0
  124.6388  135.4613  161.8555 H   0  0  0  0  0  0  0  0  0  0  0  0
  123.9767  132.0046  161.2527 H   0  0  0  0  0  0  0  0  0  0  0  0
  125.6404  130.5002  160.2521 H   0  0  0  0  0  0  0  0  0  0  0  0
  127.7087  129.3061  159.1728 H   0  0  0  0  0  0  0  0  0  0  0  0
  129.8501  128.6135  158.1892 H   0  0  0  0  0  0  0  0  0  0  0  0
  132.5644  130.8854  157.7185 H   0  0  0  0  0  0  0  0  0  0  0  0
  131.3422  132.5975  158.6046 H   0  0  0  0  0  0  0  0  0  0  0  0
  133.5292  138.5993  160.2633 H   0  0  0  0  0  0  0  0  0  0  0  0
  135.0590  140.0750  161.4964 H   0  0  0  0  0  0  0  0  0  0  0  0
  135.3231  139.1151  165.9022 H   0  0  0  0  0  0  0  0  0  0  0  0
  136.8548  140.5927  167.1330 H   0  0  0  0  0  0  0  0  0  0  0  0
  1  2  1  0
  1 37  1  0
  1 38  1  0
  2 36  2  0
  2  3  1  0
  3  4  2  0
  3 39  1  0
  4  5  1  0
  4 40  1  0
  5  6  1  0
  5 35  2  0
  6 34  1  0
  6  7  2  0
  7  8  1  0
  7 41  1  0
  8  9  2  0
  8 42  1  0
  9 10  1  0
  9 33  1  0
 10 31  1  0
 10 11  2  0
 11 12  1  0
 11 43  1  0
 12 13  1  0
 12 14  1  0
 14 15  1  0
 14 31  2  0
 15 16  1  0
 15 44  1  0
 16 30  1  0
 16 17  1  0
 16 45  1  0
 17 23  1  0
 17 18  2  0
 18 19  1  0
 18 46  1  0
 19 20  1  0
 19 21  2  0
 20 47  1  0
 21 22  1  0
 21 48  1  0
 22 23  2  0
 22 49  1  0
 23 24  1  0
 24 30  2  0
 24 25  1  0
 25 26  2  0
 25 50  1  0
 26 27  1  0
 26 51  1  0
 27 28  1  0
 27 29  2  0
 28 52  1  0
 29 30  1  0
 29 53  1  0
 31 32  1  0
 33 34  2  0
 33 54  1  0
 34 55  1  0
 35 36  1  0
 35 56  1  0
 36 57  1  0
M  CHG  1  31   1
M  END
>  <DOCK_score>  (1) 
-42.174126

>  <SMILES>  (1) 
Nc1ccc(-c2ccc(-c3c[nH]c(NC4c5cc(O)ccc5-c5ccc(O)cc54)[nH+]3)cc2)cc1

$$$$
