CC[C@H](Nc1cncc(-c2ccc(C[NH2+]Cc3cccc4ccccc34)cc2)n1)c1ccc(F)cc1
     RDKit          3D

 66 70  0  0  1  0  0  0  0  0999 V2000
  137.5663  135.0918  163.5235 C   0  0  0  0  0  0  0  0  0  0  0  0
  137.5931  136.6048  163.2979 C   0  0  0  0  0  0  0  0  0  0  0  0
  136.8183  137.3013  164.4183 C   0  0  2  0  0  0  0  0  0  0  0  0
  135.7856  136.9520  164.4175 H   0  0  0  0  0  0  0  0  0  0  0  0
  136.8440  138.7501  164.2023 N   0  0  0  0  0  0  0  0  0  0  0  0
  135.8458  139.3583  163.4503 C   0  0  0  0  0  0  0  0  0  0  0  0
  135.8668  140.7374  163.2483 C   0  0  0  0  0  0  0  0  0  0  0  0
  134.9195  141.3166  162.5348 N   0  0  0  0  0  0  0  0  0  0  0  0
  133.9478  140.5928  162.0085 C   0  0  0  0  0  0  0  0  0  0  0  0
  133.9200  139.2142  162.2048 C   0  0  0  0  0  0  0  0  0  0  0  0
  132.8293  138.4014  161.6133 C   0  0  0  0  0  0  0  0  0  0  0  0
  132.4069  137.2327  162.2443 C   0  0  0  0  0  0  0  0  0  0  0  0
  131.3919  136.4800  161.6892 C   0  0  0  0  0  0  0  0  0  0  0  0
  130.7944  136.8835  160.5088 C   0  0  0  0  0  0  0  0  0  0  0  0
  129.6868  136.0572  159.9073 C   0  0  0  0  0  0  0  0  0  0  0  0
  130.2604  135.0624  158.9912 N   0  0  0  0  0  0  0  0  0  0  0  0
  130.8907  134.4607  159.4999 H   0  0  0  0  0  0  0  0  0  0  0  0
  130.7656  135.5339  158.2560 H   0  0  0  0  0  0  0  0  0  0  0  0
  129.1809  134.2569  158.4048 C   0  0  0  0  0  0  0  0  0  0  0  0
  129.7694  133.2363  157.4650 C   0  0  0  0  0  0  0  0  0  0  0  0
  129.9418  133.5375  156.1488 C   0  0  0  0  0  0  0  0  0  0  0  0
  130.4884  132.6085  155.2657 C   0  0  0  0  0  0  0  0  0  0  0  0
  130.8571  131.3693  155.6918 C   0  0  0  0  0  0  0  0  0  0  0  0
  130.6893  131.0202  157.0424 C   0  0  0  0  0  0  0  0  0  0  0  0
  131.0585  129.7507  157.5192 C   0  0  0  0  0  0  0  0  0  0  0  0
  130.8818  129.4479  158.8342 C   0  0  0  0  0  0  0  0  0  0  0  0
  130.3387  130.3784  159.7183 C   0  0  0  0  0  0  0  0  0  0  0  0
  129.9702  131.6174  159.2926 C   0  0  0  0  0  0  0  0  0  0  0  0
  130.1374  131.9668  157.9416 C   0  0  0  0  0  0  0  0  0  0  0  0
  131.2133  138.0395  159.8752 C   0  0  0  0  0  0  0  0  0  0  0  0
  132.2233  138.8032  160.4243 C   0  0  0  0  0  0  0  0  0  0  0  0
  134.8705  138.6281  162.9282 N   0  0  0  0  0  0  0  0  0  0  0  0
  137.4562  136.9798  165.7452 C   0  0  0  0  0  0  0  0  0  0  0  0
  136.6835  136.9369  166.8908 C   0  0  0  0  0  0  0  0  0  0  0  0
  137.2666  136.6374  168.1074 C   0  0  0  0  0  0  0  0  0  0  0  0
  138.6270  136.3904  168.1803 C   0  0  0  0  0  0  0  0  0  0  0  0
  139.1989  136.1021  169.3698 F   0  0  0  0  0  0  0  0  0  0  0  0
  139.4008  136.4389  167.0332 C   0  0  0  0  0  0  0  0  0  0  0  0
  138.8146  136.7335  165.8169 C   0  0  0  0  0  0  0  0  0  0  0  0
  138.0999  134.8521  164.4434 H   0  0  0  0  0  0  0  0  0  0  0  0
  136.5329  134.7547  163.6044 H   0  0  0  0  0  0  0  0  0  0  0  0
  138.0472  134.5906  162.6835 H   0  0  0  0  0  0  0  0  0  0  0  0
  137.1317  136.8372  162.3381 H   0  0  0  0  0  0  0  0  0  0  0  0
  138.6256  136.9541  163.2988 H   0  0  0  0  0  0  0  0  0  0  0  0
  137.5575  139.2848  164.5842 H   0  0  0  0  0  0  0  0  0  0  0  0
  136.6593  141.3329  163.6768 H   0  0  0  0  0  0  0  0  0  0  0  0
  133.1744  141.0703  161.4252 H   0  0  0  0  0  0  0  0  0  0  0  0
  132.8728  136.9167  163.1660 H   0  0  0  0  0  0  0  0  0  0  0  0
  131.0638  135.5742  162.1773 H   0  0  0  0  0  0  0  0  0  0  0  0
  129.0061  136.7072  159.3577 H   0  0  0  0  0  0  0  0  0  0  0  0
  129.1411  135.5477  160.7014 H   0  0  0  0  0  0  0  0  0  0  0  0
  128.5001  134.9068  157.8553 H   0  0  0  0  0  0  0  0  0  0  0  0
  128.6352  133.7473  159.1991 H   0  0  0  0  0  0  0  0  0  0  0  0
  129.6539  134.5125  155.7841 H   0  0  0  0  0  0  0  0  0  0  0  0
  130.6181  132.8743  154.2270 H   0  0  0  0  0  0  0  0  0  0  0  0
  131.2759  130.6581  154.9952 H   0  0  0  0  0  0  0  0  0  0  0  0
  131.4798  129.0193  156.8455 H   0  0  0  0  0  0  0  0  0  0  0  0
  131.1664  128.4716  159.1980 H   0  0  0  0  0  0  0  0  0  0  0  0
  130.2088  130.1125  160.7569 H   0  0  0  0  0  0  0  0  0  0  0  0
  129.5513  132.3284  159.9893 H   0  0  0  0  0  0  0  0  0  0  0  0
  130.7466  138.3472  158.9512 H   0  0  0  0  0  0  0  0  0  0  0  0
  132.5466  139.7080  159.9311 H   0  0  0  0  0  0  0  0  0  0  0  0
  135.6231  137.1335  166.8342 H   0  0  0  0  0  0  0  0  0  0  0  0
  136.6621  136.5997  169.0015 H   0  0  0  0  0  0  0  0  0  0  0  0
  140.4622  136.2469  167.0889 H   0  0  0  0  0  0  0  0  0  0  0  0
  139.4180  136.7710  164.9219 H   0  0  0  0  0  0  0  0  0  0  0  0
  1  2  1  0
  1 40  1  0
  1 41  1  0
  1 42  1  0
  2  3  1  0
  2 43  1  0
  2 44  1  0
  3  4  1  1
  3  5  1  0
  3 33  1  0
  5  6  1  0
  5 45  1  0
  6 32  1  0
  6  7  2  0
  7  8  1  0
  7 46  1  0
  8  9  2  0
  9 10  1  0
  9 47  1  0
 10 11  1  0
 10 32  2  0
 11 31  1  0
 11 12  2  0
 12 13  1  0
 12 48  1  0
 13 14  2  0
 13 49  1  0
 14 15  1  0
 14 30  1  0
 15 16  1  0
 15 50  1  0
 15 51  1  0
 16 17  1  0
 16 18  1  0
 16 19  1  0
 19 20  1  0
 19 52  1  0
 19 53  1  0
 20 29  1  0
 20 21  2  0
 21 22  1  0
 21 54  1  0
 22 23  2  0
 22 55  1  0
 23 24  1  0
 23 56  1  0
 24 29  2  0
 24 25  1  0
 25 26  2  0
 25 57  1  0
 26 27  1  0
 26 58  1  0
 27 28  2  0
 27 59  1  0
 28 29  1  0
 28 60  1  0
 30 31  2  0
 30 61  1  0
 31 62  1  0
 33 39  1  0
 33 34  2  0
 34 35  1  0
 34 63  1  0
 35 36  2  0
 35 64  1  0
 36 37  1  0
 36 38  1  0
 38 39  2  0
 38 65  1  0
 39 66  1  0
M  CHG  1  16   1
M  END
>  <DOCK_score>  (1) 
-56.162552

>  <SMILES>  (1) 
CC[C@H](Nc1cncc(-c2ccc(C[NH2+]Cc3cccc4ccccc34)cc2)n1)c1ccc(F)cc1

$$$$
