C1=C(CNc2c[nH]c(N[C@@H](c3ccccc3)c3cccc4ccccc34)[nH+]2)CCCC1
     RDKit          3D

 60 64  0  0  1  0  0  0  0  0999 V2000
  133.1883  138.5952  159.5018 C   0  0  0  0  0  0  0  0  0  0  0  0
  132.4817  139.1248  160.4481 C   0  0  0  0  0  0  0  0  0  0  0  0
  131.2988  139.9723  160.0568 C   0  0  0  0  0  0  0  0  0  0  0  0
  130.0755  139.3915  160.6161 N   0  0  0  0  0  0  0  0  0  0  0  0
  129.6914  138.0882  160.2616 C   0  0  0  0  0  0  0  0  0  0  0  0
  128.5921  137.4406  160.7006 C   0  0  0  0  0  0  0  0  0  0  0  0
  128.6035  136.1893  160.1109 N   0  0  0  0  0  0  0  0  0  0  0  0
  127.9449  135.4879  160.2330 H   0  0  0  0  0  0  0  0  0  0  0  0
  129.7132  136.1294  159.3280 C   0  0  0  0  0  0  0  0  0  0  0  0
  130.1020  135.0455  158.5588 N   0  0  0  0  0  0  0  0  0  0  0  0
  129.2883  133.8274  158.5453 C   0  0  1  0  0  0  0  0  0  0  0  0
  128.2879  134.0627  158.1821 H   0  0  0  0  0  0  0  0  0  0  0  0
  129.9256  132.8076  157.6369 C   0  0  0  0  0  0  0  0  0  0  0  0
  129.5851  132.7662  156.2978 C   0  0  0  0  0  0  0  0  0  0  0  0
  130.1730  131.8336  155.4638 C   0  0  0  0  0  0  0  0  0  0  0  0
  131.0940  130.9361  155.9708 C   0  0  0  0  0  0  0  0  0  0  0  0
  131.4308  130.9744  157.3110 C   0  0  0  0  0  0  0  0  0  0  0  0
  130.8463  131.9099  158.1441 C   0  0  0  0  0  0  0  0  0  0  0  0
  129.1971  133.2686  159.9419 C   0  0  0  0  0  0  0  0  0  0  0  0
  130.2175  133.4585  160.8228 C   0  0  0  0  0  0  0  0  0  0  0  0
  130.1509  132.9498  162.1182 C   0  0  0  0  0  0  0  0  0  0  0  0
  129.0636  132.2482  162.5407 C   0  0  0  0  0  0  0  0  0  0  0  0
  127.9906  132.0320  161.6597 C   0  0  0  0  0  0  0  0  0  0  0  0
  126.8511  131.3129  162.0598 C   0  0  0  0  0  0  0  0  0  0  0  0
  125.8240  131.1375  161.1843 C   0  0  0  0  0  0  0  0  0  0  0  0
  125.8908  131.6461  159.8883 C   0  0  0  0  0  0  0  0  0  0  0  0
  126.9801  132.3427  159.4642 C   0  0  0  0  0  0  0  0  0  0  0  0
  128.0561  132.5540  160.3436 C   0  0  0  0  0  0  0  0  0  0  0  0
  130.3543  137.2709  159.4228 N   0  0  0  0  0  0  0  0  0  0  0  0
  131.1798  137.4898  158.9629 H   0  0  0  0  0  0  0  0  0  0  0  0
  132.7637  138.9425  161.9108 C   0  0  0  0  0  0  0  0  0  0  0  0
  133.6982  137.7494  162.1228 C   0  0  0  0  0  0  0  0  0  0  0  0
  134.8921  137.8930  161.1704 C   0  0  0  0  0  0  0  0  0  0  0  0
  134.3889  137.7255  159.7349 C   0  0  0  0  0  0  0  0  0  0  0  0
  132.8980  138.7943  158.4808 H   0  0  0  0  0  0  0  0  0  0  0  0
  131.2203  140.0074  158.9702 H   0  0  0  0  0  0  0  0  0  0  0  0
  131.4313  140.9825  160.4443 H   0  0  0  0  0  0  0  0  0  0  0  0
  129.5312  139.9071  161.2315 H   0  0  0  0  0  0  0  0  0  0  0  0
  127.8489  137.8235  161.3844 H   0  0  0  0  0  0  0  0  0  0  0  0
  130.9132  135.0929  158.0290 H   0  0  0  0  0  0  0  0  0  0  0  0
  128.8625  133.4647  155.9025 H   0  0  0  0  0  0  0  0  0  0  0  0
  129.9101  131.8040  154.4167 H   0  0  0  0  0  0  0  0  0  0  0  0
  131.5507  130.2054  155.3200 H   0  0  0  0  0  0  0  0  0  0  0  0
  132.1504  130.2733  157.7072 H   0  0  0  0  0  0  0  0  0  0  0  0
  131.1092  131.9397  159.1913 H   0  0  0  0  0  0  0  0  0  0  0  0
  131.0919  134.0115  160.5127 H   0  0  0  0  0  0  0  0  0  0  0  0
  130.9744  133.1143  162.7972 H   0  0  0  0  0  0  0  0  0  0  0  0
  129.0260  131.8596  163.5476 H   0  0  0  0  0  0  0  0  0  0  0  0
  126.7857  130.9124  163.0606 H   0  0  0  0  0  0  0  0  0  0  0  0
  124.9477  130.5884  161.4957 H   0  0  0  0  0  0  0  0  0  0  0  0
  125.0654  131.4851  159.2106 H   0  0  0  0  0  0  0  0  0  0  0  0
  127.0179  132.7309  158.4571 H   0  0  0  0  0  0  0  0  0  0  0  0
  133.2342  139.8441  162.3031 H   0  0  0  0  0  0  0  0  0  0  0  0
  131.8276  138.7641  162.4397 H   0  0  0  0  0  0  0  0  0  0  0  0
  134.0512  137.7391  163.1539 H   0  0  0  0  0  0  0  0  0  0  0  0
  133.1653  136.8237  161.9054 H   0  0  0  0  0  0  0  0  0  0  0  0
  135.3389  138.8800  161.2892 H   0  0  0  0  0  0  0  0  0  0  0  0
  135.6335  137.1258  161.3940 H   0  0  0  0  0  0  0  0  0  0  0  0
  135.1807  138.0048  159.0397 H   0  0  0  0  0  0  0  0  0  0  0  0
  134.1146  136.6839  159.5674 H   0  0  0  0  0  0  0  0  0  0  0  0
  1 34  1  0
  1  2  2  0
  1 35  1  0
  2  3  1  0
  2 31  1  0
  3  4  1  0
  3 36  1  0
  3 37  1  0
  4  5  1  0
  4 38  1  0
  5 29  1  0
  5  6  2  0
  6  7  1  0
  6 39  1  0
  7  8  1  0
  7  9  1  0
  9 10  1  0
  9 29  2  0
 10 11  1  0
 10 40  1  0
 11 12  1  6
 11 13  1  0
 11 19  1  0
 13 18  1  0
 13 14  2  0
 14 15  1  0
 14 41  1  0
 15 16  2  0
 15 42  1  0
 16 17  1  0
 16 43  1  0
 17 18  2  0
 17 44  1  0
 18 45  1  0
 19 28  1  0
 19 20  2  0
 20 21  1  0
 20 46  1  0
 21 22  2  0
 21 47  1  0
 22 23  1  0
 22 48  1  0
 23 28  2  0
 23 24  1  0
 24 25  2  0
 24 49  1  0
 25 26  1  0
 25 50  1  0
 26 27  2  0
 26 51  1  0
 27 28  1  0
 27 52  1  0
 29 30  1  0
 31 32  1  0
 31 53  1  0
 31 54  1  0
 32 33  1  0
 32 55  1  0
 32 56  1  0
 33 34  1  0
 33 57  1  0
 33 58  1  0
 34 59  1  0
 34 60  1  0
M  CHG  1  29   1
M  END
>  <DOCK_score>  (1) 
-57.101162

>  <SMILES>  (1) 
C1=C(CNc2c[nH]c(N[C@@H](c3ccccc3)c3cccc4ccccc34)[nH+]2)CCCC1

$$$$
