BrC=Cc1c[nH]c(NC(c2ccccc2)c2ccccc2)[nH+]1
     RDKit          3D

 39 41  0  0  1  0  0  0  0  0999 V2000
  131.4907  130.9883  153.3238 Br  0  0  0  0  0  0  0  0  0  0  0  0
  130.9270  132.0416  154.7897 C   0  0  0  0  0  0  0  0  0  0  0  0
  130.7643  131.4846  155.9836 C   0  0  0  0  0  0  0  0  0  0  0  0
  130.3239  132.3075  157.1288 C   0  0  0  0  0  0  0  0  0  0  0  0
  129.5912  131.8768  158.1884 C   0  0  0  0  0  0  0  0  0  0  0  0
  129.4137  132.9590  159.0158 N   0  0  0  0  0  0  0  0  0  0  0  0
  128.9328  132.9653  159.8581 H   0  0  0  0  0  0  0  0  0  0  0  0
  130.0345  134.0217  158.4345 C   0  0  0  0  0  0  0  0  0  0  0  0
  130.0862  135.3054  158.9497 N   0  0  0  0  0  0  0  0  0  0  0  0
  128.9908  135.8040  159.7851 C   0  0  0  0  0  0  0  0  0  0  0  0
  129.2897  137.2173  160.2144 C   0  0  0  0  0  0  0  0  0  0  0  0
  128.8050  137.6906  161.4195 C   0  0  0  0  0  0  0  0  0  0  0  0
  129.0831  138.9855  161.8156 C   0  0  0  0  0  0  0  0  0  0  0  0
  129.8373  139.8103  161.0021 C   0  0  0  0  0  0  0  0  0  0  0  0
  130.3176  139.3386  159.7946 C   0  0  0  0  0  0  0  0  0  0  0  0
  130.0438  138.0421  159.4010 C   0  0  0  0  0  0  0  0  0  0  0  0
  127.7067  135.7795  158.9967 C   0  0  0  0  0  0  0  0  0  0  0  0
  126.5012  135.5860  159.6452 C   0  0  0  0  0  0  0  0  0  0  0  0
  125.3228  135.5683  158.9227 C   0  0  0  0  0  0  0  0  0  0  0  0
  125.3508  135.7337  157.5505 C   0  0  0  0  0  0  0  0  0  0  0  0
  126.5568  135.9220  156.9015 C   0  0  0  0  0  0  0  0  0  0  0  0
  127.7346  135.9448  157.6246 C   0  0  0  0  0  0  0  0  0  0  0  0
  130.5800  133.6288  157.3095 N   0  0  0  0  0  0  0  0  0  0  0  0
  131.0864  134.1917  156.7032 H   0  0  0  0  0  0  0  0  0  0  0  0
  130.7373  133.0963  154.6556 H   0  0  0  0  0  0  0  0  0  0  0  0
  130.9539  130.4300  156.1178 H   0  0  0  0  0  0  0  0  0  0  0  0
  129.2225  130.8749  158.3514 H   0  0  0  0  0  0  0  0  0  0  0  0
  130.8457  135.8763  158.7544 H   0  0  0  0  0  0  0  0  0  0  0  0
  128.8883  135.1705  160.6661 H   0  0  0  0  0  0  0  0  0  0  0  0
  128.2122  137.0477  162.0531 H   0  0  0  0  0  0  0  0  0  0  0  0
  128.7076  139.3541  162.7587 H   0  0  0  0  0  0  0  0  0  0  0  0
  130.0509  140.8233  161.3094 H   0  0  0  0  0  0  0  0  0  0  0  0
  130.9063  139.9830  159.1588 H   0  0  0  0  0  0  0  0  0  0  0  0
  130.4188  137.6736  158.4575 H   0  0  0  0  0  0  0  0  0  0  0  0
  126.4798  135.4524  160.7166 H   0  0  0  0  0  0  0  0  0  0  0  0
  124.3808  135.4208  159.4297 H   0  0  0  0  0  0  0  0  0  0  0  0
  124.4306  135.7155  156.9855 H   0  0  0  0  0  0  0  0  0  0  0  0
  126.5785  136.0509  155.8295 H   0  0  0  0  0  0  0  0  0  0  0  0
  128.6767  136.0917  157.1175 H   0  0  0  0  0  0  0  0  0  0  0  0
  1  2  1  0
  2  3  2  0
  2 25  1  0
  3  4  1  0
  3 26  1  0
  4 23  1  0
  4  5  2  0
  5  6  1  0
  5 27  1  0
  6  7  1  0
  6  8  1  0
  8  9  1  0
  8 23  2  0
  9 10  1  0
  9 28  1  0
 10 11  1  0
 10 17  1  0
 10 29  1  0
 11 16  1  0
 11 12  2  0
 12 13  1  0
 12 30  1  0
 13 14  2  0
 13 31  1  0
 14 15  1  0
 14 32  1  0
 15 16  2  0
 15 33  1  0
 16 34  1  0
 17 22  1  0
 17 18  2  0
 18 19  1  0
 18 35  1  0
 19 20  2  0
 19 36  1  0
 20 21  1  0
 20 37  1  0
 21 22  2  0
 21 38  1  0
 22 39  1  0
 23 24  1  0
M  CHG  1  23   1
M  END
>  <DOCK_score>  (1) 
-56.857876

>  <SMILES>  (1) 
BrC=Cc1c[nH]c(NC(c2ccccc2)c2ccccc2)[nH+]1

$$$$
