CCc1ccc(-c2c[nH]c(N[C@@H](c3ccc(C4=CCCC4)cc3)C3CC3)[nH+]2)cc1
     RDKit          3D

 59 63  0  0  1  0  0  0  0  0999 V2000
  129.8749  128.9881  150.6795 C   0  0  0  0  0  0  0  0  0  0  0  0
  131.1759  129.5546  151.2514 C   0  0  0  0  0  0  0  0  0  0  0  0
  130.8862  130.2699  152.5459 C   0  0  0  0  0  0  0  0  0  0  0  0
  130.9328  129.5760  153.7417 C   0  0  0  0  0  0  0  0  0  0  0  0
  130.6739  130.2272  154.9307 C   0  0  0  0  0  0  0  0  0  0  0  0
  130.3540  131.5837  154.9240 C   0  0  0  0  0  0  0  0  0  0  0  0
  130.0693  132.2878  156.1981 C   0  0  0  0  0  0  0  0  0  0  0  0
  129.5257  131.7354  157.3109 C   0  0  0  0  0  0  0  0  0  0  0  0
  129.4399  132.7339  158.2504 N   0  0  0  0  0  0  0  0  0  0  0  0
  129.0934  132.6460  159.1522 H   0  0  0  0  0  0  0  0  0  0  0  0
  129.9262  133.8703  157.6809 C   0  0  0  0  0  0  0  0  0  0  0  0
  130.0113  135.1077  158.2958 N   0  0  0  0  0  0  0  0  0  0  0  0
  129.0404  135.4814  159.3273 C   0  0  1  0  0  0  0  0  0  0  0  0
  128.8360  134.6201  159.9631 H   0  0  0  0  0  0  0  0  0  0  0  0
  129.6026  136.6014  160.1640 C   0  0  0  0  0  0  0  0  0  0  0  0
  129.9399  137.8038  159.5686 C   0  0  0  0  0  0  0  0  0  0  0  0
  130.4505  138.8349  160.3300 C   0  0  0  0  0  0  0  0  0  0  0  0
  130.6365  138.6593  161.7017 C   0  0  0  0  0  0  0  0  0  0  0  0
  131.1889  139.7577  162.5224 C   0  0  0  0  0  0  0  0  0  0  0  0
  132.3731  140.3130  162.3330 C   0  0  0  0  0  0  0  0  0  0  0  0
  132.6232  141.4044  163.3480 C   0  0  0  0  0  0  0  0  0  0  0  0
  131.5814  141.1542  164.4623 C   0  0  0  0  0  0  0  0  0  0  0  0
  130.4732  140.4016  163.6872 C   0  0  0  0  0  0  0  0  0  0  0  0
  130.2992  137.4425  162.2953 C   0  0  0  0  0  0  0  0  0  0  0  0
  129.7845  136.4210  161.5236 C   0  0  0  0  0  0  0  0  0  0  0  0
  127.7422  135.9437  158.6621 C   0  0  0  0  0  0  0  0  0  0  0  0
  126.4333  135.6833  159.4104 C   0  0  0  0  0  0  0  0  0  0  0  0
  126.7792  134.8634  158.1658 C   0  0  0  0  0  0  0  0  0  0  0  0
  130.3014  133.5998  156.4546 N   0  0  0  0  0  0  0  0  0  0  0  0
  130.6835  134.2359  155.8300 H   0  0  0  0  0  0  0  0  0  0  0  0
  130.3031  132.2763  153.7155 C   0  0  0  0  0  0  0  0  0  0  0  0
  130.5692  131.6163  152.5332 C   0  0  0  0  0  0  0  0  0  0  0  0
  129.4394  128.2875  151.3921 H   0  0  0  0  0  0  0  0  0  0  0  0
  129.1739  129.8021  150.4958 H   0  0  0  0  0  0  0  0  0  0  0  0
  130.0845  128.4707  149.7432 H   0  0  0  0  0  0  0  0  0  0  0  0
  131.8771  128.7405  151.4351 H   0  0  0  0  0  0  0  0  0  0  0  0
  131.6115  130.2552  150.5388 H   0  0  0  0  0  0  0  0  0  0  0  0
  131.1764  128.5238  153.7452 H   0  0  0  0  0  0  0  0  0  0  0  0
  130.7147  129.6855  155.8641 H   0  0  0  0  0  0  0  0  0  0  0  0
  129.2208  130.7068  157.4354 H   0  0  0  0  0  0  0  0  0  0  0  0
  130.7138  135.7273  158.0437 H   0  0  0  0  0  0  0  0  0  0  0  0
  129.7991  137.9370  158.5061 H   0  0  0  0  0  0  0  0  0  0  0  0
  130.7095  139.7744  159.8646 H   0  0  0  0  0  0  0  0  0  0  0  0
  133.0682  140.0256  161.5581 H   0  0  0  0  0  0  0  0  0  0  0  0
  133.6338  141.3253  163.7487 H   0  0  0  0  0  0  0  0  0  0  0  0
  132.4685  142.3845  162.8969 H   0  0  0  0  0  0  0  0  0  0  0  0
  131.9991  140.5340  165.2554 H   0  0  0  0  0  0  0  0  0  0  0  0
  131.2045  142.0952  164.8629 H   0  0  0  0  0  0  0  0  0  0  0  0
  129.7164  141.0992  163.3287 H   0  0  0  0  0  0  0  0  0  0  0  0
  130.0188  139.6402  164.3210 H   0  0  0  0  0  0  0  0  0  0  0  0
  130.4411  137.3002  163.3564 H   0  0  0  0  0  0  0  0  0  0  0  0
  129.5234  135.4786  161.9818 H   0  0  0  0  0  0  0  0  0  0  0  0
  127.8143  136.8608  158.0776 H   0  0  0  0  0  0  0  0  0  0  0  0
  126.4971  135.1826  160.3767 H   0  0  0  0  0  0  0  0  0  0  0  0
  125.6440  136.4293  159.3184 H   0  0  0  0  0  0  0  0  0  0  0  0
  126.2172  135.0701  157.2549 H   0  0  0  0  0  0  0  0  0  0  0  0
  127.0705  133.8234  158.3128 H   0  0  0  0  0  0  0  0  0  0  0  0
  130.0553  133.3275  153.7044 H   0  0  0  0  0  0  0  0  0  0  0  0
  130.5305  132.1520  151.5963 H   0  0  0  0  0  0  0  0  0  0  0  0
  1  2  1  0
  1 33  1  0
  1 34  1  0
  1 35  1  0
  2  3  1  0
  2 36  1  0
  2 37  1  0
  3 32  2  0
  3  4  1  0
  4  5  2  0
  4 38  1  0
  5  6  1  0
  5 39  1  0
  6  7  1  0
  6 31  2  0
  7 29  1  0
  7  8  2  0
  8  9  1  0
  8 40  1  0
  9 10  1  0
  9 11  1  0
 11 12  1  0
 11 29  2  0
 12 13  1  0
 12 41  1  0
 13 14  1  1
 13 15  1  0
 13 26  1  0
 15 25  1  0
 15 16  2  0
 16 17  1  0
 16 42  1  0
 17 18  2  0
 17 43  1  0
 18 19  1  0
 18 24  1  0
 19 23  1  0
 19 20  2  0
 20 21  1  0
 20 44  1  0
 21 22  1  0
 21 45  1  0
 21 46  1  0
 22 23  1  0
 22 47  1  0
 22 48  1  0
 23 49  1  0
 23 50  1  0
 24 25  2  0
 24 51  1  0
 25 52  1  0
 26 28  1  0
 26 27  1  0
 26 53  1  0
 27 28  1  0
 27 54  1  0
 27 55  1  0
 28 56  1  0
 28 57  1  0
 29 30  1  0
 31 32  1  0
 31 58  1  0
 32 59  1  0
M  CHG  1  29   1
M  END
>  <DOCK_score>  (1) 
-57.748512

>  <SMILES>  (1) 
CCc1ccc(-c2c[nH]c(N[C@@H](c3ccc(C4=CCCC4)cc3)C3CC3)[nH+]2)cc1

$$$$
