CCc1ccc(-c2c[nH]c(Nc3ccc(O)c(NC4CCCCCC4)c3)[nH+]2)cc1
     RDKit          3D

 60 63  0  0  1  0  0  0  0  0999 V2000
  130.2696  128.4261  151.6698 C   0  0  0  0  0  0  0  0  0  0  0  0
  131.2579  129.5843  151.8197 C   0  0  0  0  0  0  0  0  0  0  0  0
  130.9867  130.3122  153.1111 C   0  0  0  0  0  0  0  0  0  0  0  0
  131.6283  129.9193  154.2712 C   0  0  0  0  0  0  0  0  0  0  0  0
  131.3874  130.5851  155.4558 C   0  0  0  0  0  0  0  0  0  0  0  0
  130.4880  131.6494  155.4833 C   0  0  0  0  0  0  0  0  0  0  0  0
  130.2215  132.3661  156.7544 C   0  0  0  0  0  0  0  0  0  0  0  0
  129.7275  131.8170  157.8920 C   0  0  0  0  0  0  0  0  0  0  0  0
  129.6387  132.8282  158.8169 N   0  0  0  0  0  0  0  0  0  0  0  0
  129.3194  132.7459  159.7292 H   0  0  0  0  0  0  0  0  0  0  0  0
  130.0813  133.9672  158.2172 C   0  0  0  0  0  0  0  0  0  0  0  0
  130.1535  135.2162  158.8114 N   0  0  0  0  0  0  0  0  0  0  0  0
  129.2452  135.5663  159.8176 C   0  0  0  0  0  0  0  0  0  0  0  0
  127.9681  135.0207  159.8205 C   0  0  0  0  0  0  0  0  0  0  0  0
  127.0695  135.3644  160.8131 C   0  0  0  0  0  0  0  0  0  0  0  0
  127.4403  136.2542  161.8075 C   0  0  0  0  0  0  0  0  0  0  0  0
  126.5541  136.5918  162.7836 O   0  0  0  0  0  0  0  0  0  0  0  0
  128.7203  136.8039  161.8082 C   0  0  0  0  0  0  0  0  0  0  0  0
  129.0964  137.7035  162.8121 N   0  0  0  0  0  0  0  0  0  0  0  0
  130.0815  138.7495  162.5270 C   0  0  0  0  0  0  0  0  0  0  0  0
  130.3559  139.5433  163.8207 C   0  0  0  0  0  0  0  0  0  0  0  0
  131.6831  140.2401  163.6808 C   0  0  0  0  0  0  0  0  0  0  0  0
  131.5368  141.6851  163.1671 C   0  0  0  0  0  0  0  0  0  0  0  0
  130.4963  141.8154  162.0383 C   0  0  0  0  0  0  0  0  0  0  0  0
  130.5810  140.6888  161.0443 C   0  0  0  0  0  0  0  0  0  0  0  0
  129.5744  139.5952  161.4565 C   0  0  0  0  0  0  0  0  0  0  0  0
  129.6231  136.4545  160.8152 C   0  0  0  0  0  0  0  0  0  0  0  0
  130.4341  133.6855  156.9865 N   0  0  0  0  0  0  0  0  0  0  0  0
  130.7881  134.3198  156.3437 H   0  0  0  0  0  0  0  0  0  0  0  0
  129.8401  132.0382  154.3121 C   0  0  0  0  0  0  0  0  0  0  0  0
  130.0923  131.3681  153.1323 C   0  0  0  0  0  0  0  0  0  0  0  0
  130.4656  127.8998  150.7355 H   0  0  0  0  0  0  0  0  0  0  0  0
  130.3880  127.7377  152.5064 H   0  0  0  0  0  0  0  0  0  0  0  0
  129.2516  128.8155  151.6609 H   0  0  0  0  0  0  0  0  0  0  0  0
  132.2755  129.1957  151.8281 H   0  0  0  0  0  0  0  0  0  0  0  0
  131.1390  130.2735  150.9824 H   0  0  0  0  0  0  0  0  0  0  0  0
  132.3222  129.0921  154.2492 H   0  0  0  0  0  0  0  0  0  0  0  0
  131.8922  130.2798  156.3602 H   0  0  0  0  0  0  0  0  0  0  0  0
  129.4557  130.7825  158.0415 H   0  0  0  0  0  0  0  0  0  0  0  0
  130.8335  135.8484  158.5305 H   0  0  0  0  0  0  0  0  0  0  0  0
  127.6766  134.3263  159.0463 H   0  0  0  0  0  0  0  0  0  0  0  0
  126.0770  134.9389  160.8128 H   0  0  0  0  0  0  0  0  0  0  0  0
  125.6927  136.1605  162.6991 H   0  0  0  0  0  0  0  0  0  0  0  0
  128.7046  137.6343  163.6968 H   0  0  0  0  0  0  0  0  0  0  0  0
  131.0085  138.2805  162.1974 H   0  0  0  0  0  0  0  0  0  0  0  0
  129.5675  140.2807  163.9721 H   0  0  0  0  0  0  0  0  0  0  0  0
  130.3896  138.8601  164.6693 H   0  0  0  0  0  0  0  0  0  0  0  0
  132.3049  139.6790  162.9833 H   0  0  0  0  0  0  0  0  0  0  0  0
  132.1761  140.2595  164.6528 H   0  0  0  0  0  0  0  0  0  0  0  0
  132.5033  142.0256  162.7953 H   0  0  0  0  0  0  0  0  0  0  0  0
  131.2358  142.3232  163.9980 H   0  0  0  0  0  0  0  0  0  0  0  0
  130.6581  142.7589  161.5167 H   0  0  0  0  0  0  0  0  0  0  0  0
  129.4988  141.8241  162.4774 H   0  0  0  0  0  0  0  0  0  0  0  0
  131.5900  140.2764  161.0435 H   0  0  0  0  0  0  0  0  0  0  0  0
  130.3329  141.0588  160.0496 H   0  0  0  0  0  0  0  0  0  0  0  0
  129.3546  138.9729  160.5890 H   0  0  0  0  0  0  0  0  0  0  0  0
  128.6533  140.0730  161.7902 H   0  0  0  0  0  0  0  0  0  0  0  0
  130.6175  136.8760  160.8158 H   0  0  0  0  0  0  0  0  0  0  0  0
  129.1419  132.8620  154.3279 H   0  0  0  0  0  0  0  0  0  0  0  0
  129.5910  131.6684  152.2241 H   0  0  0  0  0  0  0  0  0  0  0  0
  1  2  1  0
  1 32  1  0
  1 33  1  0
  1 34  1  0
  2  3  1  0
  2 35  1  0
  2 36  1  0
  3 31  2  0
  3  4  1  0
  4  5  2  0
  4 37  1  0
  5  6  1  0
  5 38  1  0
  6  7  1  0
  6 30  2  0
  7 28  1  0
  7  8  2  0
  8  9  1  0
  8 39  1  0
  9 10  1  0
  9 11  1  0
 11 12  1  0
 11 28  2  0
 12 13  1  0
 12 40  1  0
 13 27  1  0
 13 14  2  0
 14 15  1  0
 14 41  1  0
 15 16  2  0
 15 42  1  0
 16 17  1  0
 16 18  1  0
 17 43  1  0
 18 19  1  0
 18 27  2  0
 19 20  1  0
 19 44  1  0
 20 26  1  0
 20 21  1  0
 20 45  1  0
 21 22  1  0
 21 46  1  0
 21 47  1  0
 22 23  1  0
 22 48  1  0
 22 49  1  0
 23 24  1  0
 23 50  1  0
 23 51  1  0
 24 25  1  0
 24 52  1  0
 24 53  1  0
 25 26  1  0
 25 54  1  0
 25 55  1  0
 26 56  1  0
 26 57  1  0
 27 58  1  0
 28 29  1  0
 30 31  1  0
 30 59  1  0
 31 60  1  0
M  CHG  1  28   1
M  END
>  <DOCK_score>  (1) 
-57.900246

>  <SMILES>  (1) 
CCc1ccc(-c2c[nH]c(Nc3ccc(O)c(NC4CCCCCC4)c3)[nH+]2)cc1

$$$$
