CCc1ccc(-c2c[nH]c(N[C@H](Cc3ccc4c(c3)CCC4)c3ccc4c(c3)CCCC4)[nH+]2)cc1
     RDKit          3D

 71 76  0  0  1  0  0  0  0  0999 V2000
  132.1780  129.6180  152.6003 C   0  0  0  0  0  0  0  0  0  0  0  0
  130.7686  129.6037  153.1959 C   0  0  0  0  0  0  0  0  0  0  0  0
  130.7383  130.4604  154.4352 C   0  0  0  0  0  0  0  0  0  0  0  0
  130.4332  131.8060  154.3354 C   0  0  0  0  0  0  0  0  0  0  0  0
  130.4039  132.5954  155.4670 C   0  0  0  0  0  0  0  0  0  0  0  0
  130.6821  132.0343  156.7122 C   0  0  0  0  0  0  0  0  0  0  0  0
  130.6522  132.8776  157.9321 C   0  0  0  0  0  0  0  0  0  0  0  0
  130.3290  132.4620  159.1819 C   0  0  0  0  0  0  0  0  0  0  0  0
  130.4292  133.5575  160.0046 N   0  0  0  0  0  0  0  0  0  0  0  0
  130.2592  133.5764  160.9594 H   0  0  0  0  0  0  0  0  0  0  0  0
  130.8110  134.6115  159.2329 C   0  0  0  0  0  0  0  0  0  0  0  0
  131.0244  135.9037  159.6813 N   0  0  0  0  0  0  0  0  0  0  0  0
  130.2706  136.4147  160.8290 C   0  0  2  0  0  0  0  0  0  0  0  0
  130.1812  135.6323  161.5824 H   0  0  0  0  0  0  0  0  0  0  0  0
  128.8751  136.8445  160.3720 C   0  0  0  0  0  0  0  0  0  0  0  0
  127.9909  135.6305  160.2485 C   0  0  0  0  0  0  0  0  0  0  0  0
  127.9194  134.9454  159.0497 C   0  0  0  0  0  0  0  0  0  0  0  0
  127.1088  133.8330  158.9389 C   0  0  0  0  0  0  0  0  0  0  0  0
  126.3668  133.4003  160.0254 C   0  0  0  0  0  0  0  0  0  0  0  0
  126.4379  134.0851  161.2238 C   0  0  0  0  0  0  0  0  0  0  0  0
  127.2516  135.2006  161.3329 C   0  0  0  0  0  0  0  0  0  0  0  0
  125.5419  133.4207  162.2469 C   0  0  0  0  0  0  0  0  0  0  0  0
  124.5878  132.5258  161.4277 C   0  0  0  0  0  0  0  0  0  0  0  0
  125.4137  132.2278  160.1582 C   0  0  0  0  0  0  0  0  0  0  0  0
  130.9934  137.5989  161.4175 C   0  0  0  0  0  0  0  0  0  0  0  0
  131.2272  138.7224  160.6464 C   0  0  0  0  0  0  0  0  0  0  0  0
  131.8916  139.8012  161.1915 C   0  0  0  0  0  0  0  0  0  0  0  0
  132.3290  139.7684  162.5097 C   0  0  0  0  0  0  0  0  0  0  0  0
  132.0918  138.6517  163.2790 C   0  0  0  0  0  0  0  0  0  0  0  0
  131.4188  137.5678  162.7292 C   0  0  0  0  0  0  0  0  0  0  0  0
  132.5277  138.5504  164.7173 C   0  0  0  0  0  0  0  0  0  0  0  0
  133.5975  139.5950  165.0286 C   0  0  0  0  0  0  0  0  0  0  0  0
  133.0867  140.9637  164.5631 C   0  0  0  0  0  0  0  0  0  0  0  0
  133.0609  140.9750  163.0361 C   0  0  0  0  0  0  0  0  0  0  0  0
  130.9376  134.2025  157.9941 N   0  0  0  0  0  0  0  0  0  0  0  0
  131.1967  134.7579  157.2422 H   0  0  0  0  0  0  0  0  0  0  0  0
  130.9941  130.6792  156.8062 C   0  0  0  0  0  0  0  0  0  0  0  0
  131.0152  129.8983  155.6684 C   0  0  0  0  0  0  0  0  0  0  0  0
  132.4528  130.6406  152.3419 H   0  0  0  0  0  0  0  0  0  0  0  0
  132.8851  129.2252  153.3310 H   0  0  0  0  0  0  0  0  0  0  0  0
  132.2000  128.9983  151.7039 H   0  0  0  0  0  0  0  0  0  0  0  0
  130.4938  128.5811  153.4542 H   0  0  0  0  0  0  0  0  0  0  0  0
  130.0616  129.9965  152.4652 H   0  0  0  0  0  0  0  0  0  0  0  0
  130.2178  132.2397  153.3700 H   0  0  0  0  0  0  0  0  0  0  0  0
  130.1656  133.6458  155.3879 H   0  0  0  0  0  0  0  0  0  0  0  0
  130.0465  131.4615  159.4743 H   0  0  0  0  0  0  0  0  0  0  0  0
  131.6730  136.4708  159.2356 H   0  0  0  0  0  0  0  0  0  0  0  0
  128.9466  137.3418  159.4046 H   0  0  0  0  0  0  0  0  0  0  0  0
  128.4491  137.5316  161.1031 H   0  0  0  0  0  0  0  0  0  0  0  0
  128.4976  135.2798  158.2009 H   0  0  0  0  0  0  0  0  0  0  0  0
  127.0536  133.2983  158.0022 H   0  0  0  0  0  0  0  0  0  0  0  0
  127.3074  135.7366  162.2689 H   0  0  0  0  0  0  0  0  0  0  0  0
  124.9760  134.1713  162.7984 H   0  0  0  0  0  0  0  0  0  0  0  0
  126.1347  132.8142  162.9317 H   0  0  0  0  0  0  0  0  0  0  0  0
  124.3607  131.6060  161.9669 H   0  0  0  0  0  0  0  0  0  0  0  0
  123.6726  133.0623  161.1775 H   0  0  0  0  0  0  0  0  0  0  0  0
  125.9719  131.2995  160.2794 H   0  0  0  0  0  0  0  0  0  0  0  0
  124.7604  132.1665  159.2879 H   0  0  0  0  0  0  0  0  0  0  0  0
  130.8904  138.7552  159.6208 H   0  0  0  0  0  0  0  0  0  0  0  0
  132.0737  140.6785  160.5886 H   0  0  0  0  0  0  0  0  0  0  0  0
  131.2313  136.6918  163.3325 H   0  0  0  0  0  0  0  0  0  0  0  0
  131.6671  138.7128  165.3660 H   0  0  0  0  0  0  0  0  0  0  0  0
  132.9328  137.5552  164.9008 H   0  0  0  0  0  0  0  0  0  0  0  0
  133.7858  139.6190  166.1019 H   0  0  0  0  0  0  0  0  0  0  0  0
  134.5177  139.3473  164.4995 H   0  0  0  0  0  0  0  0  0  0  0  0
  132.0809  141.1306  164.9486 H   0  0  0  0  0  0  0  0  0  0  0  0
  133.7531  141.7467  164.9254 H   0  0  0  0  0  0  0  0  0  0  0  0
  134.0838  140.9675  162.6593 H   0  0  0  0  0  0  0  0  0  0  0  0
  132.5583  141.8788  162.6918 H   0  0  0  0  0  0  0  0  0  0  0  0
  131.2153  130.2403  157.7678 H   0  0  0  0  0  0  0  0  0  0  0  0
  131.2529  128.8472  155.7405 H   0  0  0  0  0  0  0  0  0  0  0  0
  1  2  1  0
  1 39  1  0
  1 40  1  0
  1 41  1  0
  2  3  1  0
  2 42  1  0
  2 43  1  0
  3 38  2  0
  3  4  1  0
  4  5  2  0
  4 44  1  0
  5  6  1  0
  5 45  1  0
  6  7  1  0
  6 37  2  0
  7 35  1  0
  7  8  2  0
  8  9  1  0
  8 46  1  0
  9 10  1  0
  9 11  1  0
 11 12  1  0
 11 35  2  0
 12 13  1  0
 12 47  1  0
 13 14  1  1
 13 15  1  0
 13 25  1  0
 15 16  1  0
 15 48  1  0
 15 49  1  0
 16 21  1  0
 16 17  2  0
 17 18  1  0
 17 50  1  0
 18 19  2  0
 18 51  1  0
 19 24  1  0
 19 20  1  0
 20 21  2  0
 20 22  1  0
 21 52  1  0
 22 23  1  0
 22 53  1  0
 22 54  1  0
 23 24  1  0
 23 55  1  0
 23 56  1  0
 24 57  1  0
 24 58  1  0
 25 30  1  0
 25 26  2  0
 26 27  1  0
 26 59  1  0
 27 28  2  0
 27 60  1  0
 28 34  1  0
 28 29  1  0
 29 30  2  0
 29 31  1  0
 30 61  1  0
 31 32  1  0
 31 62  1  0
 31 63  1  0
 32 33  1  0
 32 64  1  0
 32 65  1  0
 33 34  1  0
 33 66  1  0
 33 67  1  0
 34 68  1  0
 34 69  1  0
 35 36  1  0
 37 38  1  0
 37 70  1  0
 38 71  1  0
M  CHG  1  35   1
M  END
>  <DOCK_score>  (1) 
-59.118107

>  <SMILES>  (1) 
CCc1ccc(-c2c[nH]c(N[C@H](Cc3ccc4c(c3)CCC4)c3ccc4c(c3)CCCC4)[nH+]2)cc1

$$$$
