Nc1ccc(-c2c[nH]c(Nc3ccc(C4(O)C=CC(=O)C=C4)cc3)[nH+]2)cc1
     RDKit          3D

 46 49  0  0  1  0  0  0  0  0999 V2000
  131.5576  129.3867  151.5821 N   0  0  0  0  0  0  0  0  0  0  0  0
  131.2020  130.1002  152.7293 C   0  0  0  0  0  0  0  0  0  0  0  0
  130.4726  131.2780  152.6157 C   0  0  0  0  0  0  0  0  0  0  0  0
  130.1209  131.9840  153.7467 C   0  0  0  0  0  0  0  0  0  0  0  0
  130.4971  131.5156  155.0046 C   0  0  0  0  0  0  0  0  0  0  0  0
  130.1198  132.2734  156.2230 C   0  0  0  0  0  0  0  0  0  0  0  0
  129.3596  131.8114  157.2466 C   0  0  0  0  0  0  0  0  0  0  0  0
  129.2628  132.8310  158.1631 N   0  0  0  0  0  0  0  0  0  0  0  0
  128.7838  132.8024  159.0060 H   0  0  0  0  0  0  0  0  0  0  0  0
  129.9607  133.8892  157.6678 C   0  0  0  0  0  0  0  0  0  0  0  0
  130.1095  135.1191  158.2877 N   0  0  0  0  0  0  0  0  0  0  0  0
  129.5141  135.3517  159.5307 C   0  0  0  0  0  0  0  0  0  0  0  0
  128.5799  136.3696  159.6756 C   0  0  0  0  0  0  0  0  0  0  0  0
  127.9932  136.5963  160.9050 C   0  0  0  0  0  0  0  0  0  0  0  0
  128.3349  135.8117  161.9912 C   0  0  0  0  0  0  0  0  0  0  0  0
  127.6932  136.0632  163.3314 C   0  0  0  0  0  0  0  0  0  0  0  0
  126.2839  135.8594  163.2106 O   0  0  0  0  0  0  0  0  0  0  0  0
  127.9420  137.4845  163.7266 C   0  0  0  0  0  0  0  0  0  0  0  0
  128.8338  137.8373  164.6395 C   0  0  0  0  0  0  0  0  0  0  0  0
  129.6215  136.7939  165.3223 C   0  0  0  0  0  0  0  0  0  0  0  0
  130.6369  137.0708  165.9329 O   0  0  0  0  0  0  0  0  0  0  0  0
  129.1358  135.4037  165.2406 C   0  0  0  0  0  0  0  0  0  0  0  0
  128.2392  135.0801  164.3182 C   0  0  0  0  0  0  0  0  0  0  0  0
  129.2683  134.8009  161.8518 C   0  0  0  0  0  0  0  0  0  0  0  0
  129.8548  134.5651  160.6238 C   0  0  0  0  0  0  0  0  0  0  0  0
  130.4737  133.5508  156.5097 N   0  0  0  0  0  0  0  0  0  0  0  0
  131.0196  134.1228  155.9478 H   0  0  0  0  0  0  0  0  0  0  0  0
  131.2333  130.3370  155.1156 C   0  0  0  0  0  0  0  0  0  0  0  0
  131.5778  129.6313  153.9822 C   0  0  0  0  0  0  0  0  0  0  0  0
  131.2954  129.7137  150.7069 H   0  0  0  0  0  0  0  0  0  0  0  0
  132.0667  128.5652  151.6602 H   0  0  0  0  0  0  0  0  0  0  0  0
  130.1813  131.6405  151.6410 H   0  0  0  0  0  0  0  0  0  0  0  0
  129.5541  132.8991  153.6581 H   0  0  0  0  0  0  0  0  0  0  0  0
  128.9185  130.8290  157.3281 H   0  0  0  0  0  0  0  0  0  0  0  0
  130.6270  135.8187  157.8593 H   0  0  0  0  0  0  0  0  0  0  0  0
  128.3126  136.9828  158.8277 H   0  0  0  0  0  0  0  0  0  0  0  0
  127.2668  137.3875  161.0183 H   0  0  0  0  0  0  0  0  0  0  0  0
  125.8559  136.4422  162.5684 H   0  0  0  0  0  0  0  0  0  0  0  0
  127.3679  138.2614  163.2438 H   0  0  0  0  0  0  0  0  0  0  0  0
  128.9830  138.8790  164.8824 H   0  0  0  0  0  0  0  0  0  0  0  0
  129.5077  134.6555  165.9250 H   0  0  0  0  0  0  0  0  0  0  0  0
  127.8867  134.0600  164.2779 H   0  0  0  0  0  0  0  0  0  0  0  0
  129.5360  134.1927  162.7030 H   0  0  0  0  0  0  0  0  0  0  0  0
  130.5809  133.7731  160.5148 H   0  0  0  0  0  0  0  0  0  0  0  0
  131.5300  129.9749  156.0889 H   0  0  0  0  0  0  0  0  0  0  0  0
  132.1444  128.7159  154.0681 H   0  0  0  0  0  0  0  0  0  0  0  0
  1  2  1  0
  1 30  1  0
  1 31  1  0
  2 29  2  0
  2  3  1  0
  3  4  2  0
  3 32  1  0
  4  5  1  0
  4 33  1  0
  5  6  1  0
  5 28  2  0
  6 26  1  0
  6  7  2  0
  7  8  1  0
  7 34  1  0
  8  9  1  0
  8 10  1  0
 10 11  1  0
 10 26  2  0
 11 12  1  0
 11 35  1  0
 12 25  1  0
 12 13  2  0
 13 14  1  0
 13 36  1  0
 14 15  2  0
 14 37  1  0
 15 16  1  0
 15 24  1  0
 16 23  1  0
 16 17  1  0
 16 18  1  0
 17 38  1  0
 18 19  2  0
 18 39  1  0
 19 20  1  0
 19 40  1  0
 20 21  2  0
 20 22  1  0
 22 23  2  0
 22 41  1  0
 23 42  1  0
 24 25  2  0
 24 43  1  0
 25 44  1  0
 26 27  1  0
 28 29  1  0
 28 45  1  0
 29 46  1  0
M  CHG  1  26   1
M  END
>  <DOCK_score>  (1) 
-50.339142

>  <SMILES>  (1) 
Nc1ccc(-c2c[nH]c(Nc3ccc(C4(O)C=CC(=O)C=C4)cc3)[nH+]2)cc1

$$$$
