CCc1ccc(-c2c[nH]c(Nc3ccc(NCCBr)cc3)[nH+]2)cc1
     RDKit          3D

 46 48  0  0  1  0  0  0  0  0999 V2000
  130.2494  128.0716  151.7800 C   0  0  0  0  0  0  0  0  0  0  0  0
  131.2533  129.2227  151.8618 C   0  0  0  0  0  0  0  0  0  0  0  0
  130.9738  130.0466  153.0924 C   0  0  0  0  0  0  0  0  0  0  0  0
  131.5911  129.7298  154.2885 C   0  0  0  0  0  0  0  0  0  0  0  0
  131.3426  130.4838  155.4173 C   0  0  0  0  0  0  0  0  0  0  0  0
  130.4599  131.5605  155.3526 C   0  0  0  0  0  0  0  0  0  0  0  0
  130.1848  132.3715  156.5638 C   0  0  0  0  0  0  0  0  0  0  0  0
  129.6641  131.9137  157.7294 C   0  0  0  0  0  0  0  0  0  0  0  0
  129.5774  132.9903  158.5775 N   0  0  0  0  0  0  0  0  0  0  0  0
  129.2421  132.9794  159.4876 H   0  0  0  0  0  0  0  0  0  0  0  0
  130.0481  134.0762  157.9048 C   0  0  0  0  0  0  0  0  0  0  0  0
  130.1315  135.3636  158.4084 N   0  0  0  0  0  0  0  0  0  0  0  0
  129.2128  135.7997  159.3714 C   0  0  0  0  0  0  0  0  0  0  0  0
  129.5911  136.7482  160.3126 C   0  0  0  0  0  0  0  0  0  0  0  0
  128.6836  137.1824  161.2584 C   0  0  0  0  0  0  0  0  0  0  0  0
  127.3960  136.6620  161.2756 C   0  0  0  0  0  0  0  0  0  0  0  0
  126.4781  137.0975  162.2381 N   0  0  0  0  0  0  0  0  0  0  0  0
  126.9536  137.7400  163.4659 C   0  0  0  0  0  0  0  0  0  0  0  0
  127.0510  139.2510  163.2461 C   0  0  0  0  0  0  0  0  0  0  0  0
  127.6890  140.1132  164.8938 Br  0  0  0  0  0  0  0  0  0  0  0  0
  127.0196  135.7094  160.3379 C   0  0  0  0  0  0  0  0  0  0  0  0
  127.9253  135.2795  159.3885 C   0  0  0  0  0  0  0  0  0  0  0  0
  130.4148  133.7009  156.7034 N   0  0  0  0  0  0  0  0  0  0  0  0
  130.7887  134.2816  156.0223 H   0  0  0  0  0  0  0  0  0  0  0  0
  129.8369  131.8725  154.1456 C   0  0  0  0  0  0  0  0  0  0  0  0
  130.0968  131.1147  153.0217 C   0  0  0  0  0  0  0  0  0  0  0  0
  130.3434  127.4442  152.6663 H   0  0  0  0  0  0  0  0  0  0  0  0
  129.2380  128.4744  151.7255 H   0  0  0  0  0  0  0  0  0  0  0  0
  130.4516  127.4757  150.8899 H   0  0  0  0  0  0  0  0  0  0  0  0
  132.2647  128.8206  151.9158 H   0  0  0  0  0  0  0  0  0  0  0  0
  131.1592  129.8506  150.9750 H   0  0  0  0  0  0  0  0  0  0  0  0
  132.2714  128.8925  154.3386 H   0  0  0  0  0  0  0  0  0  0  0  0
  131.8283  130.2378  156.3501 H   0  0  0  0  0  0  0  0  0  0  0  0
  129.3733  130.8969  157.9488 H   0  0  0  0  0  0  0  0  0  0  0  0
  130.8261  135.9633  158.0940 H   0  0  0  0  0  0  0  0  0  0  0  0
  130.5937  137.1493  160.3022 H   0  0  0  0  0  0  0  0  0  0  0  0
  128.9764  137.9232  161.9877 H   0  0  0  0  0  0  0  0  0  0  0  0
  125.5272  136.9739  162.0923 H   0  0  0  0  0  0  0  0  0  0  0  0
  126.2549  137.5352  164.2771 H   0  0  0  0  0  0  0  0  0  0  0  0
  127.9364  137.3464  163.7249 H   0  0  0  0  0  0  0  0  0  0  0  0
  127.7497  139.4558  162.4349 H   0  0  0  0  0  0  0  0  0  0  0  0
  126.0681  139.6447  162.9872 H   0  0  0  0  0  0  0  0  0  0  0  0
  126.0182  135.3050  160.3510 H   0  0  0  0  0  0  0  0  0  0  0  0
  127.6325  134.5383  158.6596 H   0  0  0  0  0  0  0  0  0  0  0  0
  129.1518  132.7055  154.0898 H   0  0  0  0  0  0  0  0  0  0  0  0
  129.6151  131.3559  152.0857 H   0  0  0  0  0  0  0  0  0  0  0  0
  1  2  1  0
  1 27  1  0
  1 28  1  0
  1 29  1  0
  2  3  1  0
  2 30  1  0
  2 31  1  0
  3 26  2  0
  3  4  1  0
  4  5  2  0
  4 32  1  0
  5  6  1  0
  5 33  1  0
  6  7  1  0
  6 25  2  0
  7 23  1  0
  7  8  2  0
  8  9  1  0
  8 34  1  0
  9 10  1  0
  9 11  1  0
 11 12  1  0
 11 23  2  0
 12 13  1  0
 12 35  1  0
 13 22  1  0
 13 14  2  0
 14 15  1  0
 14 36  1  0
 15 16  2  0
 15 37  1  0
 16 17  1  0
 16 21  1  0
 17 18  1  0
 17 38  1  0
 18 19  1  0
 18 39  1  0
 18 40  1  0
 19 20  1  0
 19 41  1  0
 19 42  1  0
 21 22  2  0
 21 43  1  0
 22 44  1  0
 23 24  1  0
 25 26  1  0
 25 45  1  0
 26 46  1  0
M  CHG  1  23   1
M  END
>  <DOCK_score>  (1) 
-55.200027

>  <SMILES>  (1) 
CCc1ccc(-c2c[nH]c(Nc3ccc(NCCBr)cc3)[nH+]2)cc1

$$$$
