O=C1CCC(NC(N[C@H]2CC=C(c3ccc(F)cc3)CC2)=[NH+]C2CCC2)CN1
     RDKit          3D

 58 61  0  0  1  0  0  0  0  0999 V2000
  125.0424  135.6390  163.8818 O   0  0  0  0  0  0  0  0  0  0  0  0
  126.1967  135.6511  163.5097 C   0  0  0  0  0  0  0  0  0  0  0  0
  127.2581  135.1997  164.4713 C   0  0  0  0  0  0  0  0  0  0  0  0
  128.6300  135.6877  163.9993 C   0  0  0  0  0  0  0  0  0  0  0  0
  128.7856  135.3351  162.5152 C   0  0  2  0  0  0  0  0  0  0  0  0
  130.1525  135.6327  162.0800 N   0  0  0  0  0  0  0  0  0  0  0  0
  130.5265  135.3956  160.7784 C   0  0  0  0  0  0  0  0  0  0  0  0
  131.4950  136.1732  160.1890 N   0  0  0  0  0  0  0  0  0  0  0  0
  132.1285  137.2544  160.9478 C   0  0  1  0  0  0  0  0  0  0  0  0
  131.4245  137.6490  161.6803 H   0  0  0  0  0  0  0  0  0  0  0  0
  133.3706  136.7205  161.6642 C   0  0  0  0  0  0  0  0  0  0  0  0
  134.1699  137.8580  162.2299 C   0  0  0  0  0  0  0  0  0  0  0  0
  134.0290  139.1066  161.8558 C   0  0  0  0  0  0  0  0  0  0  0  0
  134.8916  140.1246  162.4912 C   0  0  0  0  0  0  0  0  0  0  0  0
  135.7611  140.8902  161.7132 C   0  0  0  0  0  0  0  0  0  0  0  0
  136.5604  141.8423  162.3108 C   0  0  0  0  0  0  0  0  0  0  0  0
  136.5085  142.0322  163.6824 C   0  0  0  0  0  0  0  0  0  0  0  0
  137.2974  142.9625  164.2634 F   0  0  0  0  0  0  0  0  0  0  0  0
  135.6508  141.2711  164.4603 C   0  0  0  0  0  0  0  0  0  0  0  0
  134.8436  140.3197  163.8723 C   0  0  0  0  0  0  0  0  0  0  0  0
  133.0434  139.5629  160.8199 C   0  0  0  0  0  0  0  0  0  0  0  0
  132.5618  138.3711  159.9899 C   0  0  0  0  0  0  0  0  0  0  0  0
  129.9630  134.4335  160.1033 N   0  0  0  0  0  0  0  0  0  0  0  0
  129.6388  133.6435  160.5632 H   0  0  0  0  0  0  0  0  0  0  0  0
  129.8193  134.5454  158.6496 C   0  0  0  0  0  0  0  0  0  0  0  0
  128.4984  133.9674  158.1148 C   0  0  0  0  0  0  0  0  0  0  0  0
  129.3145  133.4056  156.9365 C   0  0  0  0  0  0  0  0  0  0  0  0
  130.5347  133.4282  157.8721 C   0  0  0  0  0  0  0  0  0  0  0  0
  127.7955  136.1740  161.7062 C   0  0  0  0  0  0  0  0  0  0  0  0
  126.4553  136.0643  162.2685 N   0  0  0  0  0  0  0  0  0  0  0  0
  127.2594  134.1109  164.5240 H   0  0  0  0  0  0  0  0  0  0  0  0
  127.0480  135.6096  165.4591 H   0  0  0  0  0  0  0  0  0  0  0  0
  129.4128  135.1965  164.5772 H   0  0  0  0  0  0  0  0  0  0  0  0
  128.7006  136.7675  164.1294 H   0  0  0  0  0  0  0  0  0  0  0  0
  128.5773  134.2755  162.3672 H   0  0  0  0  0  0  0  0  0  0  0  0
  130.7937  135.9969  162.7102 H   0  0  0  0  0  0  0  0  0  0  0  0
  131.7590  136.0059  159.2706 H   0  0  0  0  0  0  0  0  0  0  0  0
  133.9848  136.1640  160.9564 H   0  0  0  0  0  0  0  0  0  0  0  0
  133.0621  136.0583  162.4733 H   0  0  0  0  0  0  0  0  0  0  0  0
  134.9042  137.6347  162.9898 H   0  0  0  0  0  0  0  0  0  0  0  0
  135.8052  140.7401  160.6447 H   0  0  0  0  0  0  0  0  0  0  0  0
  137.2309  142.4379  161.7091 H   0  0  0  0  0  0  0  0  0  0  0  0
  135.6145  141.4229  165.5290 H   0  0  0  0  0  0  0  0  0  0  0  0
  134.1755  139.7271  164.4795 H   0  0  0  0  0  0  0  0  0  0  0  0
  132.1899  140.0280  161.3132 H   0  0  0  0  0  0  0  0  0  0  0  0
  133.5201  140.2912  160.1638 H   0  0  0  0  0  0  0  0  0  0  0  0
  131.7158  138.6727  159.3725 H   0  0  0  0  0  0  0  0  0  0  0  0
  133.3735  138.0149  159.3554 H   0  0  0  0  0  0  0  0  0  0  0  0
  130.0400  135.5462  158.2782 H   0  0  0  0  0  0  0  0  0  0  0  0
  128.0682  133.1968  158.7547 H   0  0  0  0  0  0  0  0  0  0  0  0
  127.7751  134.7287  157.8226 H   0  0  0  0  0  0  0  0  0  0  0  0
  129.3961  134.0947  156.0958 H   0  0  0  0  0  0  0  0  0  0  0  0
  129.0148  132.4024  156.6337 H   0  0  0  0  0  0  0  0  0  0  0  0
  131.4530  133.7548  157.3841 H   0  0  0  0  0  0  0  0  0  0  0  0
  130.6637  132.5104  158.4458 H   0  0  0  0  0  0  0  0  0  0  0  0
  128.1092  137.2178  161.7236 H   0  0  0  0  0  0  0  0  0  0  0  0
  127.7834  135.8218  160.6747 H   0  0  0  0  0  0  0  0  0  0  0  0
  125.7043  136.3071  161.7043 H   0  0  0  0  0  0  0  0  0  0  0  0
  1  2  2  0
  2 30  1  0
  2  3  1  0
  3  4  1  0
  3 31  1  0
  3 32  1  0
  4  5  1  0
  4 33  1  0
  4 34  1  0
  5  6  1  0
  5 29  1  0
  5 35  1  1
  6 36  1  0
  7  6  1  0
  7  8  1  0
  7 23  2  0
  8  9  1  0
  8 37  1  0
  9 10  1  1
  9 22  1  0
  9 11  1  0
 11 12  1  0
 11 38  1  0
 11 39  1  0
 12 13  2  0
 12 40  1  0
 13 14  1  0
 13 21  1  0
 14 20  1  0
 14 15  2  0
 15 16  1  0
 15 41  1  0
 16 17  2  0
 16 42  1  0
 17 18  1  0
 17 19  1  0
 19 20  2  0
 19 43  1  0
 20 44  1  0
 21 22  1  0
 21 45  1  0
 21 46  1  0
 22 47  1  0
 22 48  1  0
 23 24  1  0
 23 25  1  0
 25 28  1  0
 25 26  1  0
 25 49  1  0
 26 27  1  0
 26 50  1  0
 26 51  1  0
 27 28  1  0
 27 52  1  0
 27 53  1  0
 28 54  1  0
 28 55  1  0
 29 30  1  0
 29 56  1  0
 29 57  1  0
 30 58  1  0
M  CHG  1  23   1
M  END
>  <DOCK_score>  (1) 
-45.729694

>  <SMILES>  (1) 
O=C1CCC(NC(N[C@H]2CC=C(c3ccc(F)cc3)CC2)=[NH+]C2CCC2)CN1

$$$$
