OC(C[C@H]1C=CCC1)c1c(N2CC[NH+](C(c3ccccc3)c3ccccc3)CC2)ccc2c1CCC2
     RDKit          3D

 75 80  0  0  1  0  0  0  0  0999 V2000
  133.7926  136.6803  163.6190 O   0  0  0  0  0  0  0  0  0  0  0  0
  133.5284  138.0825  163.5424 C   0  0  2  0  0  0  0  0  0  0  0  0
  132.0165  138.3157  163.5104 C   0  0  0  0  0  0  0  0  0  0  0  0
  131.7337  139.8170  163.4284 C   0  0  1  0  0  0  0  0  0  0  0  0
  132.4416  140.2998  162.7546 H   0  0  0  0  0  0  0  0  0  0  0  0
  130.3153  140.0611  162.9685 C   0  0  0  0  0  0  0  0  0  0  0  0
  129.7400  140.9850  163.6890 C   0  0  0  0  0  0  0  0  0  0  0  0
  130.6789  141.5111  164.7497 C   0  0  0  0  0  0  0  0  0  0  0  0
  131.8066  140.4565  164.8344 C   0  0  0  0  0  0  0  0  0  0  0  0
  134.1496  138.6430  162.2889 C   0  0  0  0  0  0  0  0  0  0  0  0
  133.7609  138.1591  161.0472 C   0  0  0  0  0  0  0  0  0  0  0  0
  132.7950  137.1541  160.9580 N   0  0  0  0  0  0  0  0  0  0  0  0
  131.5942  137.6378  160.2621 C   0  0  0  0  0  0  0  0  0  0  0  0
  130.5405  136.5283  160.2381 C   0  0  0  0  0  0  0  0  0  0  0  0
  131.0852  135.3505  159.5498 N   0  0  0  0  0  0  0  0  0  0  0  0
  131.3447  135.6019  158.6077 H   0  0  0  0  0  0  0  0  0  0  0  0
  130.0671  134.2921  159.5110 C   0  0  0  0  0  0  0  0  0  0  0  0
  128.8529  134.7901  158.7705 C   0  0  0  0  0  0  0  0  0  0  0  0
  127.5988  134.3082  159.0961 C   0  0  0  0  0  0  0  0  0  0  0  0
  126.4848  134.7657  158.4174 C   0  0  0  0  0  0  0  0  0  0  0  0
  126.6248  135.7054  157.4133 C   0  0  0  0  0  0  0  0  0  0  0  0
  127.8793  136.1833  157.0840 C   0  0  0  0  0  0  0  0  0  0  0  0
  128.9928  135.7292  157.7657 C   0  0  0  0  0  0  0  0  0  0  0  0
  130.6256  133.0836  158.8049 C   0  0  0  0  0  0  0  0  0  0  0  0
  130.4750  132.9512  157.4372 C   0  0  0  0  0  0  0  0  0  0  0  0
  130.9915  131.8450  156.7889 C   0  0  0  0  0  0  0  0  0  0  0  0
  131.6494  130.8660  157.5097 C   0  0  0  0  0  0  0  0  0  0  0  0
  131.7954  130.9958  158.8782 C   0  0  0  0  0  0  0  0  0  0  0  0
  131.2835  132.1046  159.5258 C   0  0  0  0  0  0  0  0  0  0  0  0
  132.2691  134.8644  160.2705 C   0  0  0  0  0  0  0  0  0  0  0  0
  133.3373  135.9599  160.2946 C   0  0  0  0  0  0  0  0  0  0  0  0
  134.3395  138.6738  159.8944 C   0  0  0  0  0  0  0  0  0  0  0  0
  135.2894  139.6704  159.9884 C   0  0  0  0  0  0  0  0  0  0  0  0
  135.6767  140.1525  161.2280 C   0  0  0  0  0  0  0  0  0  0  0  0
  135.1063  139.6380  162.3784 C   0  0  0  0  0  0  0  0  0  0  0  0
  135.6941  140.3256  163.5923 C   0  0  0  0  0  0  0  0  0  0  0  0
  136.3561  141.6095  163.0484 C   0  0  0  0  0  0  0  0  0  0  0  0
  136.6862  141.2206  161.5917 C   0  0  0  0  0  0  0  0  0  0  0  0
  133.4903  136.1804  162.8485 H   0  0  0  0  0  0  0  0  0  0  0  0
  133.9546  138.5807  164.4132 H   0  0  0  0  0  0  0  0  0  0  0  0
  131.5905  137.8174  162.6396 H   0  0  0  0  0  0  0  0  0  0  0  0
  131.5672  137.9103  164.4171 H   0  0  0  0  0  0  0  0  0  0  0  0
  129.8400  139.5399  162.1506 H   0  0  0  0  0  0  0  0  0  0  0  0
  128.7260  141.3280  163.5462 H   0  0  0  0  0  0  0  0  0  0  0  0
  130.1631  141.5932  165.7064 H   0  0  0  0  0  0  0  0  0  0  0  0
  131.0846  142.4778  164.4518 H   0  0  0  0  0  0  0  0  0  0  0  0
  131.5964  139.7204  165.6104 H   0  0  0  0  0  0  0  0  0  0  0  0
  132.7742  140.9307  164.9990 H   0  0  0  0  0  0  0  0  0  0  0  0
  131.8531  137.9157  159.2405 H   0  0  0  0  0  0  0  0  0  0  0  0
  131.1955  138.5069  160.7856 H   0  0  0  0  0  0  0  0  0  0  0  0
  129.6544  136.8802  159.7100 H   0  0  0  0  0  0  0  0  0  0  0  0
  130.2719  136.2600  161.2598 H   0  0  0  0  0  0  0  0  0  0  0  0
  129.7861  134.0208  160.5286 H   0  0  0  0  0  0  0  0  0  0  0  0
  127.4893  133.5745  159.8811 H   0  0  0  0  0  0  0  0  0  0  0  0
  125.5052  134.3891  158.6719 H   0  0  0  0  0  0  0  0  0  0  0  0
  125.7544  136.0627  156.8830 H   0  0  0  0  0  0  0  0  0  0  0  0
  127.9892  136.9142  156.2965 H   0  0  0  0  0  0  0  0  0  0  0  0
  129.9726  136.1059  157.5115 H   0  0  0  0  0  0  0  0  0  0  0  0
  129.9572  133.7139  156.8746 H   0  0  0  0  0  0  0  0  0  0  0  0
  130.8772  131.7434  155.7197 H   0  0  0  0  0  0  0  0  0  0  0  0
  132.0491  129.9995  157.0038 H   0  0  0  0  0  0  0  0  0  0  0  0
  132.3091  130.2308  159.4415 H   0  0  0  0  0  0  0  0  0  0  0  0
  131.3972  132.2059  160.5950 H   0  0  0  0  0  0  0  0  0  0  0  0
  131.9915  134.6049  161.2921 H   0  0  0  0  0  0  0  0  0  0  0  0
  132.6647  133.9826  159.7664 H   0  0  0  0  0  0  0  0  0  0  0  0
  133.6249  136.2102  159.2733 H   0  0  0  0  0  0  0  0  0  0  0  0
  134.2106  135.6049  160.8417 H   0  0  0  0  0  0  0  0  0  0  0  0
  134.0437  138.2977  158.9261 H   0  0  0  0  0  0  0  0  0  0  0  0
  135.7359  140.0737  159.0915 H   0  0  0  0  0  0  0  0  0  0  0  0
  134.9065  140.5780  164.3023 H   0  0  0  0  0  0  0  0  0  0  0  0
  136.4387  139.6859  164.0658 H   0  0  0  0  0  0  0  0  0  0  0  0
  135.6590  142.4469  163.0773 H   0  0  0  0  0  0  0  0  0  0  0  0
  137.2653  141.8415  163.6029 H   0  0  0  0  0  0  0  0  0  0  0  0
  136.5762  142.0840  160.9355 H   0  0  0  0  0  0  0  0  0  0  0  0
  137.6992  140.8236  161.5265 H   0  0  0  0  0  0  0  0  0  0  0  0
  1  2  1  0
  1 39  1  0
  2  3  1  0
  2 10  1  0
  2 40  1  1
  3  4  1  0
  3 41  1  0
  3 42  1  0
  4  5  1  6
  4  9  1  0
  4  6  1  0
  6  7  2  0
  6 43  1  0
  7  8  1  0
  7 44  1  0
  8  9  1  0
  8 45  1  0
  8 46  1  0
  9 47  1  0
  9 48  1  0
 10 35  2  0
 10 11  1  0
 11 12  1  0
 11 32  2  0
 12 31  1  0
 12 13  1  0
 13 14  1  0
 13 49  1  0
 13 50  1  0
 14 15  1  0
 14 51  1  0
 14 52  1  0
 15 16  1  0
 15 17  1  0
 15 30  1  0
 17 18  1  0
 17 24  1  0
 17 53  1  0
 18 23  1  0
 18 19  2  0
 19 20  1  0
 19 54  1  0
 20 21  2  0
 20 55  1  0
 21 22  1  0
 21 56  1  0
 22 23  2  0
 22 57  1  0
 23 58  1  0
 24 29  1  0
 24 25  2  0
 25 26  1  0
 25 59  1  0
 26 27  2  0
 26 60  1  0
 27 28  1  0
 27 61  1  0
 28 29  2  0
 28 62  1  0
 29 63  1  0
 30 31  1  0
 30 64  1  0
 30 65  1  0
 31 66  1  0
 31 67  1  0
 32 33  1  0
 32 68  1  0
 33 34  2  0
 33 69  1  0
 34 38  1  0
 34 35  1  0
 35 36  1  0
 36 37  1  0
 36 70  1  0
 36 71  1  0
 37 38  1  0
 37 72  1  0
 37 73  1  0
 38 74  1  0
 38 75  1  0
M  CHG  1  15   1
M  END
>  <DOCK_score>  (1) 
-59.09116

>  <SMILES>  (1) 
OC(C[C@H]1C=CCC1)c1c(N2CC[NH+](C(c3ccccc3)c3ccccc3)CC2)ccc2c1CCC2

$$$$
