O=C1CC[C@H](Nc2ccc(-c3n[nH]cc3C[NH2+]C3CC=CC3)o2)CN1
     RDKit          3D

 49 52  0  0  1  0  0  0  0  0999 V2000
  127.6175  137.6482  162.5269 O   0  0  0  0  0  0  0  0  0  0  0  0
  127.3148  136.4745  162.4882 C   0  0  0  0  0  0  0  0  0  0  0  0
  128.0821  135.5138  163.3504 C   0  0  0  0  0  0  0  0  0  0  0  0
  127.8667  134.0820  162.8539 C   0  0  0  0  0  0  0  0  0  0  0  0
  126.3620  133.8565  162.6628 C   0  0  2  0  0  0  0  0  0  0  0  0
  125.8321  134.1321  163.5745 H   0  0  0  0  0  0  0  0  0  0  0  0
  126.1113  132.4461  162.3559 N   0  0  0  0  0  0  0  0  0  0  0  0
  126.6814  131.8683  161.2274 C   0  0  0  0  0  0  0  0  0  0  0  0
  126.5283  130.5794  160.8338 C   0  0  0  0  0  0  0  0  0  0  0  0
  127.2722  130.4204  159.6481 C   0  0  0  0  0  0  0  0  0  0  0  0
  127.8434  131.6235  159.3774 C   0  0  0  0  0  0  0  0  0  0  0  0
  128.7162  131.9275  158.2246 C   0  0  0  0  0  0  0  0  0  0  0  0
  129.0744  131.0826  157.2778 N   0  0  0  0  0  0  0  0  0  0  0  0
  129.9065  131.7632  156.3799 N   0  0  0  0  0  0  0  0  0  0  0  0
  130.3192  131.3845  155.5880 H   0  0  0  0  0  0  0  0  0  0  0  0
  130.0345  133.0381  156.8071 C   0  0  0  0  0  0  0  0  0  0  0  0
  129.3113  133.1745  157.9391 C   0  0  0  0  0  0  0  0  0  0  0  0
  129.1702  134.4330  158.7560 C   0  0  0  0  0  0  0  0  0  0  0  0
  130.4875  135.0628  158.9167 N   0  0  0  0  0  0  0  0  0  0  0  0
  130.8640  135.2915  158.0088 H   0  0  0  0  0  0  0  0  0  0  0  0
  130.3932  135.9054  159.4636 H   0  0  0  0  0  0  0  0  0  0  0  0
  131.3944  134.1328  159.6027 C   0  0  0  0  0  0  0  0  0  0  0  0
  130.9576  133.9118  161.0695 C   0  0  0  0  0  0  0  0  0  0  0  0
  132.2517  133.8147  161.8447 C   0  0  0  0  0  0  0  0  0  0  0  0
  133.2535  134.2772  161.1472 C   0  0  0  0  0  0  0  0  0  0  0  0
  132.7951  134.7608  159.7911 C   0  0  0  0  0  0  0  0  0  0  0  0
  127.4813  132.4916  160.3454 O   0  0  0  0  0  0  0  0  0  0  0  0
  125.8799  134.7276  161.5021 C   0  0  0  0  0  0  0  0  0  0  0  0
  126.3180  136.1061  161.6824 N   0  0  0  0  0  0  0  0  0  0  0  0
  127.7357  135.5957  164.3807 H   0  0  0  0  0  0  0  0  0  0  0  0
  129.1437  135.7568  163.3050 H   0  0  0  0  0  0  0  0  0  0  0  0
  128.2527  133.3763  163.5896 H   0  0  0  0  0  0  0  0  0  0  0  0
  128.3824  133.9408  161.9041 H   0  0  0  0  0  0  0  0  0  0  0  0
  125.5475  131.9155  162.9401 H   0  0  0  0  0  0  0  0  0  0  0  0
  125.9468  129.8194  161.3346 H   0  0  0  0  0  0  0  0  0  0  0  0
  127.3701  129.5160  159.0659 H   0  0  0  0  0  0  0  0  0  0  0  0
  130.6143  133.8128  156.3275 H   0  0  0  0  0  0  0  0  0  0  0  0
  128.4972  135.1230  158.2470 H   0  0  0  0  0  0  0  0  0  0  0  0
  128.7636  134.1860  159.7368 H   0  0  0  0  0  0  0  0  0  0  0  0
  131.4591  133.1859  159.0667 H   0  0  0  0  0  0  0  0  0  0  0  0
  130.3669  134.7577  161.4213 H   0  0  0  0  0  0  0  0  0  0  0  0
  130.3890  132.9863  161.1610 H   0  0  0  0  0  0  0  0  0  0  0  0
  132.3362  133.4149  162.8443 H   0  0  0  0  0  0  0  0  0  0  0  0
  134.2757  134.3098  161.4940 H   0  0  0  0  0  0  0  0  0  0  0  0
  133.4751  134.4121  159.0138 H   0  0  0  0  0  0  0  0  0  0  0  0
  132.7283  135.8486  159.7784 H   0  0  0  0  0  0  0  0  0  0  0  0
  126.2860  134.3400  160.5678 H   0  0  0  0  0  0  0  0  0  0  0  0
  124.7912  134.6985  161.4577 H   0  0  0  0  0  0  0  0  0  0  0  0
  125.8556  136.7988  161.1854 H   0  0  0  0  0  0  0  0  0  0  0  0
  1  2  2  0
  2 29  1  0
  2  3  1  0
  3  4  1  0
  3 30  1  0
  3 31  1  0
  4  5  1  0
  4 32  1  0
  4 33  1  0
  5  6  1  1
  5  7  1  0
  5 28  1  0
  7  8  1  0
  7 34  1  0
  8 27  1  0
  8  9  2  0
  9 10  1  0
  9 35  1  0
 10 11  2  0
 10 36  1  0
 11 12  1  0
 11 27  1  0
 12 17  1  0
 12 13  2  0
 13 14  1  0
 14 15  1  0
 14 16  1  0
 16 17  2  0
 16 37  1  0
 17 18  1  0
 18 19  1  0
 18 38  1  0
 18 39  1  0
 19 20  1  0
 19 21  1  0
 19 22  1  0
 22 26  1  0
 22 23  1  0
 22 40  1  0
 23 24  1  0
 23 41  1  0
 23 42  1  0
 24 25  2  0
 24 43  1  0
 25 26  1  0
 25 44  1  0
 26 45  1  0
 26 46  1  0
 28 29  1  0
 28 47  1  0
 28 48  1  0
 29 49  1  0
M  CHG  1  19   1
M  END
>  <DOCK_score>  (1) 
-43.5289

>  <SMILES>  (1) 
O=C1CC[C@H](Nc2ccc(-c3n[nH]cc3C[NH2+]C3CC=CC3)o2)CN1

$$$$
