O[C@H](c1ccccc1)C(Cc1ccccc1)Nc1[nH]cc(-c2ccc(Br)cc2)[nH+]1
     RDKit          3D

 52 55  0  0  1  0  0  0  0  0999 V2000
  128.4667  137.6160  161.2672 O   0  0  0  0  0  0  0  0  0  0  0  0
  129.1917  137.0957  160.1512 C   0  0  2  0  0  0  0  0  0  0  0  0
  129.8272  137.8770  159.7345 H   0  0  0  0  0  0  0  0  0  0  0  0
  128.2222  136.6224  159.0989 C   0  0  0  0  0  0  0  0  0  0  0  0
  128.5748  136.6692  157.7632 C   0  0  0  0  0  0  0  0  0  0  0  0
  127.6871  136.2311  156.7982 C   0  0  0  0  0  0  0  0  0  0  0  0
  126.4433  135.7547  157.1684 C   0  0  0  0  0  0  0  0  0  0  0  0
  126.0888  135.7128  158.5039 C   0  0  0  0  0  0  0  0  0  0  0  0
  126.9781  136.1469  159.4691 C   0  0  0  0  0  0  0  0  0  0  0  0
  130.0599  135.9221  160.6094 C   0  0  2  0  0  0  0  0  0  0  0  0
  131.0442  136.4027  161.6776 C   0  0  0  0  0  0  0  0  0  0  0  0
  131.9230  137.4828  161.1014 C   0  0  0  0  0  0  0  0  0  0  0  0
  133.1167  137.1494  160.4893 C   0  0  0  0  0  0  0  0  0  0  0  0
  133.9205  138.1399  159.9565 C   0  0  0  0  0  0  0  0  0  0  0  0
  133.5356  139.4646  160.0452 C   0  0  0  0  0  0  0  0  0  0  0  0
  132.3444  139.7985  160.6619 C   0  0  0  0  0  0  0  0  0  0  0  0
  131.5381  138.8076  161.1901 C   0  0  0  0  0  0  0  0  0  0  0  0
  130.8031  135.3885  159.4652 N   0  0  0  0  0  0  0  0  0  0  0  0
  130.2537  134.3796  158.6927 C   0  0  0  0  0  0  0  0  0  0  0  0
  129.0404  133.7976  158.8951 N   0  0  0  0  0  0  0  0  0  0  0  0
  128.4101  134.0134  159.6003 H   0  0  0  0  0  0  0  0  0  0  0  0
  128.8713  132.8504  157.9144 C   0  0  0  0  0  0  0  0  0  0  0  0
  129.9890  132.8749  157.1469 C   0  0  0  0  0  0  0  0  0  0  0  0
  130.2567  132.0166  155.9670 C   0  0  0  0  0  0  0  0  0  0  0  0
  130.8978  130.7894  156.1261 C   0  0  0  0  0  0  0  0  0  0  0  0
  131.1397  129.9923  155.0260 C   0  0  0  0  0  0  0  0  0  0  0  0
  130.7560  130.4148  153.7646 C   0  0  0  0  0  0  0  0  0  0  0  0
  131.0973  129.3206  152.2605 Br  0  0  0  0  0  0  0  0  0  0  0  0
  130.1245  131.6351  153.6006 C   0  0  0  0  0  0  0  0  0  0  0  0
  129.8731  132.4373  154.6948 C   0  0  0  0  0  0  0  0  0  0  0  0
  130.8190  133.8234  157.6491 N   0  0  0  0  0  0  0  0  0  0  0  0
  131.6916  134.0530  157.2929 H   0  0  0  0  0  0  0  0  0  0  0  0
  129.0283  137.9397  161.9847 H   0  0  0  0  0  0  0  0  0  0  0  0
  129.5450  137.0449  157.4735 H   0  0  0  0  0  0  0  0  0  0  0  0
  127.9643  136.2635  155.7549 H   0  0  0  0  0  0  0  0  0  0  0  0
  125.7488  135.4149  156.4144 H   0  0  0  0  0  0  0  0  0  0  0  0
  125.1171  135.3406  158.7932 H   0  0  0  0  0  0  0  0  0  0  0  0
  126.7010  136.1141  160.5125 H   0  0  0  0  0  0  0  0  0  0  0  0
  129.4243  135.1409  161.0260 H   0  0  0  0  0  0  0  0  0  0  0  0
  130.4912  136.7998  162.5289 H   0  0  0  0  0  0  0  0  0  0  0  0
  131.6628  135.5668  162.0042 H   0  0  0  0  0  0  0  0  0  0  0  0
  133.4196  136.1149  160.4240 H   0  0  0  0  0  0  0  0  0  0  0  0
  134.8514  137.8790  159.4750 H   0  0  0  0  0  0  0  0  0  0  0  0
  134.1658  140.2388  159.6329 H   0  0  0  0  0  0  0  0  0  0  0  0
  132.0438  140.8334  160.7315 H   0  0  0  0  0  0  0  0  0  0  0  0
  130.6076  139.0685  161.6723 H   0  0  0  0  0  0  0  0  0  0  0  0
  131.6784  135.7450  159.2465 H   0  0  0  0  0  0  0  0  0  0  0  0
  128.0143  132.2066  157.7827 H   0  0  0  0  0  0  0  0  0  0  0  0
  131.2010  130.4609  157.1093 H   0  0  0  0  0  0  0  0  0  0  0  0
  131.6327  129.0393  155.1486 H   0  0  0  0  0  0  0  0  0  0  0  0
  129.8276  131.9601  152.6143 H   0  0  0  0  0  0  0  0  0  0  0  0
  129.3797  133.3893  154.5657 H   0  0  0  0  0  0  0  0  0  0  0  0
  1  2  1  0
  1 33  1  0
  2  3  1  6
  2  4  1  0
  2 10  1  0
  4  9  1  0
  4  5  2  0
  5  6  1  0
  5 34  1  0
  6  7  2  0
  6 35  1  0
  7  8  1  0
  7 36  1  0
  8  9  2  0
  8 37  1  0
  9 38  1  0
 10 11  1  0
 10 18  1  0
 10 39  1  1
 11 12  1  0
 11 40  1  0
 11 41  1  0
 12 17  1  0
 12 13  2  0
 13 14  1  0
 13 42  1  0
 14 15  2  0
 14 43  1  0
 15 16  1  0
 15 44  1  0
 16 17  2  0
 16 45  1  0
 17 46  1  0
 18 47  1  0
 19 18  1  0
 19 31  2  0
 19 20  1  0
 20 21  1  0
 20 22  1  0
 22 23  2  0
 22 48  1  0
 23 24  1  0
 23 31  1  0
 24 30  1  0
 24 25  2  0
 25 26  1  0
 25 49  1  0
 26 27  2  0
 26 50  1  0
 27 28  1  0
 27 29  1  0
 29 30  2  0
 29 51  1  0
 30 52  1  0
 31 32  1  0
M  CHG  1  31   1
M  END
>  <DOCK_score>  (1) 
-64.46151

>  <SMILES>  (1) 
O[C@H](c1ccccc1)C(Cc1ccccc1)Nc1[nH]cc(-c2ccc(Br)cc2)[nH+]1

$$$$
