O=C1CC[C@H](NC(NC2CCC2)=[NH+]CCCc2cccc3ccccc23)CN1
     RDKit          3D

 59 62  0  0  1  0  0  0  0  0999 V2000
  124.0178  134.1216  161.6444 O   0  0  0  0  0  0  0  0  0  0  0  0
  125.2047  134.3195  161.4921 C   0  0  0  0  0  0  0  0  0  0  0  0
  126.0548  133.1892  160.9872 C   0  0  0  0  0  0  0  0  0  0  0  0
  127.5309  133.4779  161.2691 C   0  0  0  0  0  0  0  0  0  0  0  0
  127.8447  134.9033  160.7987 C   0  0  2  0  0  0  0  0  0  0  0  0
  127.5239  135.0259  159.7642 H   0  0  0  0  0  0  0  0  0  0  0  0
  129.2857  135.1478  160.8988 N   0  0  0  0  0  0  0  0  0  0  0  0
  130.1068  134.8634  159.8333 C   0  0  0  0  0  0  0  0  0  0  0  0
  129.5754  134.3497  158.6740 N   0  0  0  0  0  0  0  0  0  0  0  0
  130.3795  133.4625  157.8300 C   0  0  0  0  0  0  0  0  0  0  0  0
  129.5404  132.5559  156.9141 C   0  0  0  0  0  0  0  0  0  0  0  0
  130.5455  131.4365  157.2327 C   0  0  0  0  0  0  0  0  0  0  0  0
  130.8390  132.1811  158.5457 C   0  0  0  0  0  0  0  0  0  0  0  0
  131.3888  135.0810  159.9222 N   0  0  0  0  0  0  0  0  0  0  0  0
  131.9681  134.8804  159.1705 H   0  0  0  0  0  0  0  0  0  0  0  0
  131.9540  135.6342  161.1554 C   0  0  0  0  0  0  0  0  0  0  0  0
  133.4678  135.7903  160.9973 C   0  0  0  0  0  0  0  0  0  0  0  0
  134.0583  136.3680  162.2851 C   0  0  0  0  0  0  0  0  0  0  0  0
  133.4406  137.7146  162.5612 C   0  0  0  0  0  0  0  0  0  0  0  0
  132.3046  137.8066  163.3055 C   0  0  0  0  0  0  0  0  0  0  0  0
  131.7229  139.0433  163.5769 C   0  0  0  0  0  0  0  0  0  0  0  0
  132.2666  140.1944  163.0949 C   0  0  0  0  0  0  0  0  0  0  0  0
  133.4356  140.1388  162.3174 C   0  0  0  0  0  0  0  0  0  0  0  0
  134.0258  141.3056  161.8025 C   0  0  0  0  0  0  0  0  0  0  0  0
  135.1578  141.2132  161.0527 C   0  0  0  0  0  0  0  0  0  0  0  0
  135.7432  139.9766  160.7863 C   0  0  0  0  0  0  0  0  0  0  0  0
  135.1999  138.8257  161.2685 C   0  0  0  0  0  0  0  0  0  0  0  0
  134.0311  138.8811  162.0468 C   0  0  0  0  0  0  0  0  0  0  0  0
  127.0933  135.8932  161.6897 C   0  0  0  0  0  0  0  0  0  0  0  0
  125.6848  135.5295  161.7816 N   0  0  0  0  0  0  0  0  0  0  0  0
  125.7637  132.2657  161.4877 H   0  0  0  0  0  0  0  0  0  0  0  0
  125.9090  133.0786  159.9126 H   0  0  0  0  0  0  0  0  0  0  0  0
  128.1557  132.7671  160.7285 H   0  0  0  0  0  0  0  0  0  0  0  0
  127.7209  133.3945  162.3392 H   0  0  0  0  0  0  0  0  0  0  0  0
  129.6605  135.5102  161.7167 H   0  0  0  0  0  0  0  0  0  0  0  0
  128.6682  134.5748  158.4149 H   0  0  0  0  0  0  0  0  0  0  0  0
  131.1833  133.9851  157.3116 H   0  0  0  0  0  0  0  0  0  0  0  0
  128.5367  132.3621  157.2925 H   0  0  0  0  0  0  0  0  0  0  0  0
  129.5474  132.8648  155.8689 H   0  0  0  0  0  0  0  0  0  0  0  0
  131.3943  131.4045  156.5497 H   0  0  0  0  0  0  0  0  0  0  0  0
  130.0811  130.4612  157.3782 H   0  0  0  0  0  0  0  0  0  0  0  0
  131.8945  132.1875  158.8175 H   0  0  0  0  0  0  0  0  0  0  0  0
  130.1903  131.8849  159.3701 H   0  0  0  0  0  0  0  0  0  0  0  0
  131.5072  136.6082  161.3550 H   0  0  0  0  0  0  0  0  0  0  0  0
  131.7431  134.9606  161.9860 H   0  0  0  0  0  0  0  0  0  0  0  0
  133.9147  134.8164  160.7978 H   0  0  0  0  0  0  0  0  0  0  0  0
  133.6788  136.4639  160.1667 H   0  0  0  0  0  0  0  0  0  0  0  0
  133.8472  135.6944  163.1158 H   0  0  0  0  0  0  0  0  0  0  0  0
  135.1367  136.4791  162.1726 H   0  0  0  0  0  0  0  0  0  0  0  0
  131.8504  136.9079  163.6959 H   0  0  0  0  0  0  0  0  0  0  0  0
  130.8243  139.0888  164.1743 H   0  0  0  0  0  0  0  0  0  0  0  0
  131.8021  141.1455  163.3093 H   0  0  0  0  0  0  0  0  0  0  0  0
  133.5837  142.2708  162.0010 H   0  0  0  0  0  0  0  0  0  0  0  0
  135.6096  142.1114  160.6587 H   0  0  0  0  0  0  0  0  0  0  0  0
  136.6415  139.9311  160.1886 H   0  0  0  0  0  0  0  0  0  0  0  0
  135.6649  137.8747  161.0546 H   0  0  0  0  0  0  0  0  0  0  0  0
  127.5330  135.8860  162.6870 H   0  0  0  0  0  0  0  0  0  0  0  0
  127.1799  136.8948  161.2683 H   0  0  0  0  0  0  0  0  0  0  0  0
  125.0575  136.2102  162.0711 H   0  0  0  0  0  0  0  0  0  0  0  0
  1  2  2  0
  2 30  1  0
  2  3  1  0
  3  4  1  0
  3 31  1  0
  3 32  1  0
  4  5  1  0
  4 33  1  0
  4 34  1  0
  5  6  1  6
  5  7  1  0
  5 29  1  0
  7 35  1  0
  8  7  1  0
  8  9  1  0
  8 14  2  0
  9 10  1  0
  9 36  1  0
 10 13  1  0
 10 11  1  0
 10 37  1  0
 11 12  1  0
 11 38  1  0
 11 39  1  0
 12 13  1  0
 12 40  1  0
 12 41  1  0
 13 42  1  0
 13 43  1  0
 14 15  1  0
 14 16  1  0
 16 17  1  0
 16 44  1  0
 16 45  1  0
 17 18  1  0
 17 46  1  0
 17 47  1  0
 18 19  1  0
 18 48  1  0
 18 49  1  0
 19 28  1  0
 19 20  2  0
 20 21  1  0
 20 50  1  0
 21 22  2  0
 21 51  1  0
 22 23  1  0
 22 52  1  0
 23 28  2  0
 23 24  1  0
 24 25  2  0
 24 53  1  0
 25 26  1  0
 25 54  1  0
 26 27  2  0
 26 55  1  0
 27 28  1  0
 27 56  1  0
 29 30  1  0
 29 57  1  0
 29 58  1  0
 30 59  1  0
M  CHG  1  14   1
M  END
>  <DOCK_score>  (1) 
-47.223022

>  <SMILES>  (1) 
O=C1CC[C@H](NC(NC2CCC2)=[NH+]CCCc2cccc3ccccc23)CN1

$$$$
