CC(C)(C=Cc1ccccc1)Nc1cc(N)ccc1C1=CCN[NH2+]C1
     RDKit          3D

 52 54  0  0  0  0  0  0  0  0999 V2000
  131.3661  134.2310  161.4160 C   0  0  0  0  0  0  0  0  0  0  0  0
  131.7810  135.4586  160.6026 C   0  0  0  0  0  0  0  0  0  0  0  0
  133.1193  135.1853  159.9135 C   0  0  0  0  0  0  0  0  0  0  0  0
  131.9220  136.6454  161.5207 C   0  0  0  0  0  0  0  0  0  0  0  0
  132.2762  137.8248  161.0298 C   0  0  0  0  0  0  0  0  0  0  0  0
  132.3064  139.0125  161.9092 C   0  0  0  0  0  0  0  0  0  0  0  0
  131.5901  139.0159  163.1066 C   0  0  0  0  0  0  0  0  0  0  0  0
  131.6272  140.1257  163.9259 C   0  0  0  0  0  0  0  0  0  0  0  0
  132.3634  141.2373  163.5569 C   0  0  0  0  0  0  0  0  0  0  0  0
  133.0707  141.2424  162.3679 C   0  0  0  0  0  0  0  0  0  0  0  0
  133.0466  140.1371  161.5425 C   0  0  0  0  0  0  0  0  0  0  0  0
  130.7598  135.7422  159.5912 N   0  0  0  0  0  0  0  0  0  0  0  0
  129.4088  135.6126  159.9093 C   0  0  0  0  0  0  0  0  0  0  0  0
  128.8580  136.3745  160.9273 C   0  0  0  0  0  0  0  0  0  0  0  0
  127.5139  136.2383  161.2466 C   0  0  0  0  0  0  0  0  0  0  0  0
  126.9627  137.0022  162.2757 N   0  0  0  0  0  0  0  0  0  0  0  0
  126.7138  135.3432  160.5425 C   0  0  0  0  0  0  0  0  0  0  0  0
  127.2507  134.5854  159.5248 C   0  0  0  0  0  0  0  0  0  0  0  0
  128.6012  134.7143  159.1964 C   0  0  0  0  0  0  0  0  0  0  0  0
  129.1789  133.9035  158.1064 C   0  0  0  0  0  0  0  0  0  0  0  0
  129.6856  132.7212  158.3929 C   0  0  0  0  0  0  0  0  0  0  0  0
  130.2976  131.8368  157.3416 C   0  0  0  0  0  0  0  0  0  0  0  0
  129.8888  132.2982  156.0078 N   0  0  0  0  0  0  0  0  0  0  0  0
  130.1319  133.7280  155.8729 N   0  0  0  0  0  0  0  0  0  0  0  0
  131.0703  133.9413  156.1762 H   0  0  0  0  0  0  0  0  0  0  0  0
  130.0185  134.0003  154.9080 H   0  0  0  0  0  0  0  0  0  0  0  0
  129.1676  134.4553  156.7082 C   0  0  0  0  0  0  0  0  0  0  0  0
  131.1460  133.4047  160.7401 H   0  0  0  0  0  0  0  0  0  0  0  0
  132.1784  133.9469  162.0850 H   0  0  0  0  0  0  0  0  0  0  0  0
  130.4781  134.4670  162.0025 H   0  0  0  0  0  0  0  0  0  0  0  0
  133.4429  136.0793  159.3802 H   0  0  0  0  0  0  0  0  0  0  0  0
  133.8656  134.9185  160.6618 H   0  0  0  0  0  0  0  0  0  0  0  0
  133.0031  134.3632  159.2072 H   0  0  0  0  0  0  0  0  0  0  0  0
  131.7343  136.5351  162.5785 H   0  0  0  0  0  0  0  0  0  0  0  0
  132.5428  137.9178  159.9874 H   0  0  0  0  0  0  0  0  0  0  0  0
  131.0113  138.1505  163.3936 H   0  0  0  0  0  0  0  0  0  0  0  0
  131.0768  140.1281  164.8551 H   0  0  0  0  0  0  0  0  0  0  0  0
  132.3857  142.1050  164.1996 H   0  0  0  0  0  0  0  0  0  0  0  0
  133.6434  142.1134  162.0855 H   0  0  0  0  0  0  0  0  0  0  0  0
  133.5993  140.1422  160.6148 H   0  0  0  0  0  0  0  0  0  0  0  0
  131.0238  136.0203  158.7001 H   0  0  0  0  0  0  0  0  0  0  0  0
  129.4754  137.0707  161.4754 H   0  0  0  0  0  0  0  0  0  0  0  0
  126.0237  136.9084  162.5000 H   0  0  0  0  0  0  0  0  0  0  0  0
  127.5187  137.6269  162.7673 H   0  0  0  0  0  0  0  0  0  0  0  0
  125.6687  135.2417  160.7952 H   0  0  0  0  0  0  0  0  0  0  0  0
  126.6267  133.8919  158.9809 H   0  0  0  0  0  0  0  0  0  0  0  0
  129.6610  132.3769  159.4162 H   0  0  0  0  0  0  0  0  0  0  0  0
  129.9603  130.8109  157.4895 H   0  0  0  0  0  0  0  0  0  0  0  0
  131.3839  131.8764  157.4219 H   0  0  0  0  0  0  0  0  0  0  0  0
  128.9204  132.0778  155.8300 H   0  0  0  0  0  0  0  0  0  0  0  0
  129.4358  135.5114  156.7340 H   0  0  0  0  0  0  0  0  0  0  0  0
  128.1687  134.3459  156.2861 H   0  0  0  0  0  0  0  0  0  0  0  0
  1  2  1  0
  1 28  1  0
  1 29  1  0
  1 30  1  0
  2  3  1  0
  2  4  1  0
  2 12  1  0
  3 31  1  0
  3 32  1  0
  3 33  1  0
  4  5  2  0
  4 34  1  0
  5  6  1  0
  5 35  1  0
  6 11  1  0
  6  7  2  0
  7  8  1  0
  7 36  1  0
  8  9  2  0
  8 37  1  0
  9 10  1  0
  9 38  1  0
 10 11  2  0
 10 39  1  0
 11 40  1  0
 12 13  1  0
 12 41  1  0
 13 19  1  0
 13 14  2  0
 14 15  1  0
 14 42  1  0
 15 16  1  0
 15 17  2  0
 16 43  1  0
 16 44  1  0
 17 18  1  0
 17 45  1  0
 18 19  2  0
 18 46  1  0
 19 20  1  0
 20 27  1  0
 20 21  2  0
 21 22  1  0
 21 47  1  0
 22 23  1  0
 22 48  1  0
 22 49  1  0
 23 24  1  0
 23 50  1  0
 24 25  1  0
 24 26  1  0
 24 27  1  0
 27 51  1  0
 27 52  1  0
M  CHG  1  24   1
M  END
>  <DOCK_score>  (1) 
-44.183372

>  <SMILES>  (1) 
CC(C)(C=Cc1ccccc1)Nc1cc(N)ccc1C1=CCN[NH2+]C1

$$$$
