Cc1[nH]c(C(=O)NCc2cnn(C)c2)c(C[NH+]2CCC(O)CC2)c1C
     RDKit          3D

 53 55  0  0  1  0  0  0  0  0999 V2000
  129.7976  131.7402  156.4622 C   0  0  0  0  0  0  0  0  0  0  0  0
  130.0950  132.3081  157.8261 C   0  0  0  0  0  0  0  0  0  0  0  0
  131.1023  133.1657  158.1204 N   0  0  0  0  0  0  0  0  0  0  0  0
  131.7505  133.5149  157.4890 H   0  0  0  0  0  0  0  0  0  0  0  0
  131.0487  133.4632  159.4633 C   0  0  0  0  0  0  0  0  0  0  0  0
  131.9552  134.3587  160.1898 C   0  0  0  0  0  0  0  0  0  0  0  0
  132.1931  134.1599  161.3666 O   0  0  0  0  0  0  0  0  0  0  0  0
  132.5247  135.4017  159.5540 N   0  0  0  0  0  0  0  0  0  0  0  0
  133.4300  136.2962  160.2796 C   0  0  0  0  0  0  0  0  0  0  0  0
  132.6390  137.4245  160.8896 C   0  0  0  0  0  0  0  0  0  0  0  0
  131.6437  138.1713  160.2507 C   0  0  0  0  0  0  0  0  0  0  0  0
  131.1869  139.0549  161.1005 N   0  0  0  0  0  0  0  0  0  0  0  0
  131.8851  138.9050  162.3057 N   0  0  0  0  0  0  0  0  0  0  0  0
  131.6894  139.7008  163.5200 C   0  0  0  0  0  0  0  0  0  0  0  0
  132.7702  137.8984  162.1503 C   0  0  0  0  0  0  0  0  0  0  0  0
  129.9895  132.7639  160.0018 C   0  0  0  0  0  0  0  0  0  0  0  0
  129.5478  132.7767  161.4425 C   0  0  0  0  0  0  0  0  0  0  0  0
  128.5636  133.8485  161.6434 N   0  0  1  0  0  0  0  0  0  0  0  0
  127.9416  133.8844  160.8498 H   0  0  0  0  0  0  0  0  0  0  0  0
  127.7878  133.5767  162.8595 C   0  0  0  0  0  0  0  0  0  0  0  0
  126.7074  134.6468  163.0295 C   0  0  0  0  0  0  0  0  0  0  0  0
  127.3719  136.0218  163.1429 C   0  0  2  0  0  0  0  0  0  0  0  0
  126.3659  137.0332  163.2276 O   0  0  0  0  0  0  0  0  0  0  0  0
  128.2377  136.2632  161.9030 C   0  0  0  0  0  0  0  0  0  0  0  0
  129.2614  135.1333  161.7746 C   0  0  0  0  0  0  0  0  0  0  0  0
  129.3985  132.0454  158.9577 C   0  0  0  0  0  0  0  0  0  0  0  0
  128.1998  131.1391  159.0716 C   0  0  0  0  0  0  0  0  0  0  0  0
  129.1064  132.3994  155.9370 H   0  0  0  0  0  0  0  0  0  0  0  0
  130.7237  131.6573  155.8934 H   0  0  0  0  0  0  0  0  0  0  0  0
  129.3477  130.7533  156.5698 H   0  0  0  0  0  0  0  0  0  0  0  0
  132.3351  135.5602  158.6159 H   0  0  0  0  0  0  0  0  0  0  0  0
  133.9362  135.7394  161.0682 H   0  0  0  0  0  0  0  0  0  0  0  0
  134.1696  136.7023  159.5896 H   0  0  0  0  0  0  0  0  0  0  0  0
  131.3080  138.0390  159.2327 H   0  0  0  0  0  0  0  0  0  0  0  0
  132.3472  140.5696  163.4949 H   0  0  0  0  0  0  0  0  0  0  0  0
  130.6523  140.0318  163.5742 H   0  0  0  0  0  0  0  0  0  0  0  0
  131.9230  139.0932  164.3942 H   0  0  0  0  0  0  0  0  0  0  0  0
  133.4600  137.5358  162.8982 H   0  0  0  0  0  0  0  0  0  0  0  0
  130.4106  132.9503  162.0855 H   0  0  0  0  0  0  0  0  0  0  0  0
  129.0959  131.8168  161.6925 H   0  0  0  0  0  0  0  0  0  0  0  0
  128.4515  133.5904  163.7240 H   0  0  0  0  0  0  0  0  0  0  0  0
  127.3179  132.5965  162.7782 H   0  0  0  0  0  0  0  0  0  0  0  0
  126.1336  134.4443  163.9340 H   0  0  0  0  0  0  0  0  0  0  0  0
  126.0423  134.6340  162.1661 H   0  0  0  0  0  0  0  0  0  0  0  0
  127.9958  136.0526  164.0362 H   0  0  0  0  0  0  0  0  0  0  0  0
  125.7746  137.0649  162.4632 H   0  0  0  0  0  0  0  0  0  0  0  0
  127.6050  136.2838  161.0156 H   0  0  0  0  0  0  0  0  0  0  0  0
  128.7577  137.2160  162.0021 H   0  0  0  0  0  0  0  0  0  0  0  0
  129.8936  135.1138  162.6623 H   0  0  0  0  0  0  0  0  0  0  0  0
  129.8793  135.3023  160.8927 H   0  0  0  0  0  0  0  0  0  0  0  0
  127.2907  131.7161  158.9026 H   0  0  0  0  0  0  0  0  0  0  0  0
  128.2712  130.3469  158.3265 H   0  0  0  0  0  0  0  0  0  0  0  0
  128.1707  130.6987  160.0684 H   0  0  0  0  0  0  0  0  0  0  0  0
  1  2  1  0
  1 28  1  0
  1 29  1  0
  1 30  1  0
  2 26  2  0
  2  3  1  0
  3  4  1  0
  3  5  1  0
  5  6  1  0
  5 16  2  0
  6  7  2  0
  6  8  1  0
  8  9  1  0
  8 31  1  0
  9 10  1  0
  9 32  1  0
  9 33  1  0
 10 15  2  0
 10 11  1  0
 11 12  2  0
 11 34  1  0
 12 13  1  0
 13 14  1  0
 13 15  1  0
 14 35  1  0
 14 36  1  0
 14 37  1  0
 15 38  1  0
 16 17  1  0
 16 26  1  0
 17 18  1  0
 17 39  1  0
 17 40  1  0
 18 19  1  6
 18 25  1  0
 18 20  1  0
 20 21  1  0
 20 41  1  0
 20 42  1  0
 21 22  1  0
 21 43  1  0
 21 44  1  0
 22 23  1  0
 22 24  1  0
 22 45  1  1
 23 46  1  0
 24 25  1  0
 24 47  1  0
 24 48  1  0
 25 49  1  0
 25 50  1  0
 26 27  1  0
 27 51  1  0
 27 52  1  0
 27 53  1  0
M  CHG  1  18   1
M  END
>  <DOCK_score>  (1) 
-41.560917

>  <SMILES>  (1) 
Cc1[nH]c(C(=O)NCc2cnn(C)c2)c(C[NH+]2CCC(O)CC2)c1C

$$$$
