[NH3+][C@@H](C(=O)Nc1cccc(O)c1)c1cccc(O[C@H]2C=CCCC2)c1
     RDKit          3D

 48 50  0  0  1  0  0  0  0  0999 V2000
  130.6044  134.2240  157.5274 N   0  0  0  0  0  0  0  0  0  0  0  0
  131.5046  134.6464  157.3559 H   0  0  0  0  0  0  0  0  0  0  0  0
  130.7167  133.2278  157.6416 H   0  0  0  0  0  0  0  0  0  0  0  0
  129.9933  134.4061  156.7454 H   0  0  0  0  0  0  0  0  0  0  0  0
  130.0203  134.7945  158.7485 C   0  0  1  0  0  0  0  0  0  0  0  0
  129.8991  135.8705  158.6249 H   0  0  0  0  0  0  0  0  0  0  0  0
  128.6758  134.1635  159.0043 C   0  0  0  0  0  0  0  0  0  0  0  0
  128.2465  133.3216  158.2441 O   0  0  0  0  0  0  0  0  0  0  0  0
  127.9505  134.5348  160.0778 N   0  0  0  0  0  0  0  0  0  0  0  0
  126.7022  133.9489  160.3154 C   0  0  0  0  0  0  0  0  0  0  0  0
  126.4547  132.6465  159.8997 C   0  0  0  0  0  0  0  0  0  0  0  0
  125.2243  132.0663  160.1390 C   0  0  0  0  0  0  0  0  0  0  0  0
  124.2330  132.7827  160.7828 C   0  0  0  0  0  0  0  0  0  0  0  0
  124.4728  134.0860  161.1951 C   0  0  0  0  0  0  0  0  0  0  0  0
  123.4968  134.7895  161.8271 O   0  0  0  0  0  0  0  0  0  0  0  0
  125.7081  134.6699  160.9614 C   0  0  0  0  0  0  0  0  0  0  0  0
  130.9331  134.5224  159.9164 C   0  0  0  0  0  0  0  0  0  0  0  0
  130.7787  133.3665  160.6595 C   0  0  0  0  0  0  0  0  0  0  0  0
  131.6147  133.1139  161.7310 C   0  0  0  0  0  0  0  0  0  0  0  0
  132.6103  134.0141  162.0593 C   0  0  0  0  0  0  0  0  0  0  0  0
  132.7639  135.1770  161.3186 C   0  0  0  0  0  0  0  0  0  0  0  0
  133.7392  136.0662  161.6424 O   0  0  0  0  0  0  0  0  0  0  0  0
  134.1178  136.1415  163.0182 C   0  0  1  0  0  0  0  0  0  0  0  0
  133.2602  135.8928  163.6431 H   0  0  0  0  0  0  0  0  0  0  0  0
  135.2262  135.1652  163.2833 C   0  0  0  0  0  0  0  0  0  0  0  0
  136.2697  135.4301  164.0018 C   0  0  0  0  0  0  0  0  0  0  0  0
  136.5218  136.7539  164.6625 C   0  0  0  0  0  0  0  0  0  0  0  0
  135.2259  137.5649  164.7288 C   0  0  0  0  0  0  0  0  0  0  0  0
  134.5838  137.5634  163.3391 C   0  0  0  0  0  0  0  0  0  0  0  0
  131.9237  135.4279  160.2434 C   0  0  0  0  0  0  0  0  0  0  0  0
  128.2938  135.2081  160.6857 H   0  0  0  0  0  0  0  0  0  0  0  0
  127.2263  132.0860  159.3928 H   0  0  0  0  0  0  0  0  0  0  0  0
  125.0351  131.0525  159.8188 H   0  0  0  0  0  0  0  0  0  0  0  0
  123.2706  132.3280  160.9648 H   0  0  0  0  0  0  0  0  0  0  0  0
  123.7570  135.6869  162.0758 H   0  0  0  0  0  0  0  0  0  0  0  0
  125.8964  135.6841  161.2813 H   0  0  0  0  0  0  0  0  0  0  0  0
  130.0037  132.6597  160.4019 H   0  0  0  0  0  0  0  0  0  0  0  0
  131.4923  132.2103  162.3096 H   0  0  0  0  0  0  0  0  0  0  0  0
  133.2658  133.8144  162.8939 H   0  0  0  0  0  0  0  0  0  0  0  0
  135.1486  134.1803  162.8470 H   0  0  0  0  0  0  0  0  0  0  0  0
  137.0050  134.6502  164.1340 H   0  0  0  0  0  0  0  0  0  0  0  0
  136.8963  136.5881  165.6725 H   0  0  0  0  0  0  0  0  0  0  0  0
  137.2638  137.3087  164.0885 H   0  0  0  0  0  0  0  0  0  0  0  0
  134.5449  137.1095  165.4480 H   0  0  0  0  0  0  0  0  0  0  0  0
  135.4489  138.5878  165.0324 H   0  0  0  0  0  0  0  0  0  0  0  0
  135.3148  137.8854  162.5973 H   0  0  0  0  0  0  0  0  0  0  0  0
  133.7287  138.2394  163.3328 H   0  0  0  0  0  0  0  0  0  0  0  0
  132.0439  136.3305  159.6627 H   0  0  0  0  0  0  0  0  0  0  0  0
  1  2  1  0
  1  3  1  0
  1  4  1  0
  1  5  1  0
  5  6  1  6
  5  7  1  0
  5 17  1  0
  7  8  2  0
  7  9  1  0
  9 10  1  0
  9 31  1  0
 10 16  1  0
 10 11  2  0
 11 12  1  0
 11 32  1  0
 12 13  2  0
 12 33  1  0
 13 14  1  0
 13 34  1  0
 14 15  1  0
 14 16  2  0
 15 35  1  0
 16 36  1  0
 17 30  1  0
 17 18  2  0
 18 19  1  0
 18 37  1  0
 19 20  2  0
 19 38  1  0
 20 21  1  0
 20 39  1  0
 21 22  1  0
 21 30  2  0
 22 23  1  0
 23 24  1  1
 23 29  1  0
 23 25  1  0
 25 26  2  0
 25 40  1  0
 26 27  1  0
 26 41  1  0
 27 28  1  0
 27 42  1  0
 27 43  1  0
 28 29  1  0
 28 44  1  0
 28 45  1  0
 29 46  1  0
 29 47  1  0
 30 48  1  0
M  CHG  1   1   1
M  END
>  <DOCK_score>  (1) 
-43.862633

>  <SMILES>  (1) 
[NH3+][C@@H](C(=O)Nc1cccc(O)c1)c1cccc(O[C@H]2C=CCCC2)c1

$$$$
