CCc1ccc(-c2c[nH]c(N[C@H](Cc3cncc4ccccc34)c3ccccn3)[nH+]2)cc1
     RDKit          3D

 58 62  0  0  1  0  0  0  0  0999 V2000
  129.6433  129.3459  151.4996 C   0  0  0  0  0  0  0  0  0  0  0  0
  130.8956  130.1374  151.8811 C   0  0  0  0  0  0  0  0  0  0  0  0
  130.6937  130.7775  153.2304 C   0  0  0  0  0  0  0  0  0  0  0  0
  131.0564  130.0958  154.3775 C   0  0  0  0  0  0  0  0  0  0  0  0
  130.8783  130.6789  155.6156 C   0  0  0  0  0  0  0  0  0  0  0  0
  130.3218  131.9534  155.7092 C   0  0  0  0  0  0  0  0  0  0  0  0
  130.1231  132.5833  157.0372 C   0  0  0  0  0  0  0  0  0  0  0  0
  129.3639  132.0922  158.0479 C   0  0  0  0  0  0  0  0  0  0  0  0
  129.4594  132.9844  159.0880 N   0  0  0  0  0  0  0  0  0  0  0  0
  129.0253  132.9080  159.9521 H   0  0  0  0  0  0  0  0  0  0  0  0
  130.2749  133.9956  158.6822 C   0  0  0  0  0  0  0  0  0  0  0  0
  130.6287  135.0993  159.4392 N   0  0  0  0  0  0  0  0  0  0  0  0
  130.1128  135.2486  160.8023 C   0  0  2  0  0  0  0  0  0  0  0  0
  130.4970  136.1711  161.2372 H   0  0  0  0  0  0  0  0  0  0  0  0
  130.5635  134.0581  161.6512 C   0  0  0  0  0  0  0  0  0  0  0  0
  131.9875  134.2696  162.0970 C   0  0  0  0  0  0  0  0  0  0  0  0
  133.0268  133.8286  161.3348 C   0  0  0  0  0  0  0  0  0  0  0  0
  134.2884  134.0025  161.7034 N   0  0  0  0  0  0  0  0  0  0  0  0
  134.6261  134.6060  162.8192 C   0  0  0  0  0  0  0  0  0  0  0  0
  133.6299  135.0981  163.6773 C   0  0  0  0  0  0  0  0  0  0  0  0
  133.9388  135.7506  164.8815 C   0  0  0  0  0  0  0  0  0  0  0  0
  132.9309  136.2213  165.6669 C   0  0  0  0  0  0  0  0  0  0  0  0
  131.5961  136.0528  165.3029 C   0  0  0  0  0  0  0  0  0  0  0  0
  131.2587  135.4202  164.1447 C   0  0  0  0  0  0  0  0  0  0  0  0
  132.2703  134.9313  163.3055 C   0  0  0  0  0  0  0  0  0  0  0  0
  128.6071  135.2988  160.7669 C   0  0  0  0  0  0  0  0  0  0  0  0
  127.9003  135.4371  161.9467 C   0  0  0  0  0  0  0  0  0  0  0  0
  126.5154  135.4829  161.9031 C   0  0  0  0  0  0  0  0  0  0  0  0
  125.8904  135.3870  160.6689 C   0  0  0  0  0  0  0  0  0  0  0  0
  126.6632  135.2501  159.5315 C   0  0  0  0  0  0  0  0  0  0  0  0
  127.9793  135.2155  159.6104 N   0  0  0  0  0  0  0  0  0  0  0  0
  130.6735  133.7498  157.4581 N   0  0  0  0  0  0  0  0  0  0  0  0
  131.2660  134.3129  156.9358 H   0  0  0  0  0  0  0  0  0  0  0  0
  129.9533  132.6339  154.5500 C   0  0  0  0  0  0  0  0  0  0  0  0
  130.1409  132.0431  153.3170 C   0  0  0  0  0  0  0  0  0  0  0  0
  128.7866  130.0184  151.4582 H   0  0  0  0  0  0  0  0  0  0  0  0
  129.7895  128.8829  150.5236 H   0  0  0  0  0  0  0  0  0  0  0  0
  129.4619  128.5719  152.2453 H   0  0  0  0  0  0  0  0  0  0  0  0
  131.7524  129.4654  151.9223 H   0  0  0  0  0  0  0  0  0  0  0  0
  131.0770  130.9120  151.1351 H   0  0  0  0  0  0  0  0  0  0  0  0
  131.4835  129.1064  154.3042 H   0  0  0  0  0  0  0  0  0  0  0  0
  131.1661  130.1472  156.5106 H   0  0  0  0  0  0  0  0  0  0  0  0
  128.7932  131.1754  158.0370 H   0  0  0  0  0  0  0  0  0  0  0  0
  131.2180  135.7739  159.0672 H   0  0  0  0  0  0  0  0  0  0  0  0
  129.9185  133.9703  162.5254 H   0  0  0  0  0  0  0  0  0  0  0  0
  130.4999  133.1450  161.0595 H   0  0  0  0  0  0  0  0  0  0  0  0
  132.8172  133.3234  160.4036 H   0  0  0  0  0  0  0  0  0  0  0  0
  135.6684  134.7240  163.0763 H   0  0  0  0  0  0  0  0  0  0  0  0
  134.9684  135.8893  165.1764 H   0  0  0  0  0  0  0  0  0  0  0  0
  133.1697  136.7264  166.5913 H   0  0  0  0  0  0  0  0  0  0  0  0
  130.8172  136.4294  165.9493 H   0  0  0  0  0  0  0  0  0  0  0  0
  130.2204  135.2965  163.8747 H   0  0  0  0  0  0  0  0  0  0  0  0
  128.4204  135.5093  162.8905 H   0  0  0  0  0  0  0  0  0  0  0  0
  125.9371  135.5908  162.8088 H   0  0  0  0  0  0  0  0  0  0  0  0
  124.8132  135.4193  160.5974 H   0  0  0  0  0  0  0  0  0  0  0  0
  126.1842  135.1749  158.5666 H   0  0  0  0  0  0  0  0  0  0  0  0
  129.5213  133.6215  154.6165 H   0  0  0  0  0  0  0  0  0  0  0  0
  129.8553  132.5693  152.4181 H   0  0  0  0  0  0  0  0  0  0  0  0
  1  2  1  0
  1 36  1  0
  1 37  1  0
  1 38  1  0
  2  3  1  0
  2 39  1  0
  2 40  1  0
  3 35  2  0
  3  4  1  0
  4  5  2  0
  4 41  1  0
  5  6  1  0
  5 42  1  0
  6  7  1  0
  6 34  2  0
  7 32  1  0
  7  8  2  0
  8  9  1  0
  8 43  1  0
  9 10  1  0
  9 11  1  0
 11 12  1  0
 11 32  2  0
 12 13  1  0
 12 44  1  0
 13 14  1  1
 13 15  1  0
 13 26  1  0
 15 16  1  0
 15 45  1  0
 15 46  1  0
 16 25  1  0
 16 17  2  0
 17 18  1  0
 17 47  1  0
 18 19  2  0
 19 20  1  0
 19 48  1  0
 20 25  2  0
 20 21  1  0
 21 22  2  0
 21 49  1  0
 22 23  1  0
 22 50  1  0
 23 24  2  0
 23 51  1  0
 24 25  1  0
 24 52  1  0
 26 31  1  0
 26 27  2  0
 27 28  1  0
 27 53  1  0
 28 29  2  0
 28 54  1  0
 29 30  1  0
 29 55  1  0
 30 31  2  0
 30 56  1  0
 32 33  1  0
 34 35  1  0
 34 57  1  0
 35 58  1  0
M  CHG  1  32   1
M  END
>  <DOCK_score>  (1) 
-60.933121

>  <SMILES>  (1) 
CCc1ccc(-c2c[nH]c(N[C@H](Cc3cncc4ccccc34)c3ccccn3)[nH+]2)cc1

$$$$
