CCc1ccc(-c2c[nH]c(N[C@H](c3ccccc3N)C3CCCC3)[nH+]2)cc1
     RDKit          3D

 56 59  0  0  1  0  0  0  0  0999 V2000
  130.3829  128.2256  151.8918 C   0  0  0  0  0  0  0  0  0  0  0  0
  131.2937  129.4514  151.9861 C   0  0  0  0  0  0  0  0  0  0  0  0
  131.0021  130.1964  153.2632 C   0  0  0  0  0  0  0  0  0  0  0  0
  131.6952  129.8796  154.4185 C   0  0  0  0  0  0  0  0  0  0  0  0
  131.4371  130.5623  155.5899 C   0  0  0  0  0  0  0  0  0  0  0  0
  130.4686  131.5645  155.6103 C   0  0  0  0  0  0  0  0  0  0  0  0
  130.1828  132.2979  156.8676 C   0  0  0  0  0  0  0  0  0  0  0  0
  129.2696  131.9462  157.8064 C   0  0  0  0  0  0  0  0  0  0  0  0
  129.3320  132.8948  158.7980 N   0  0  0  0  0  0  0  0  0  0  0  0
  128.7972  132.9163  159.6070 H   0  0  0  0  0  0  0  0  0  0  0  0
  130.2823  133.7991  158.4358 C   0  0  0  0  0  0  0  0  0  0  0  0
  130.6532  134.9153  159.1660 N   0  0  0  0  0  0  0  0  0  0  0  0
  130.0032  135.2017  160.4472 C   0  0  2  0  0  0  0  0  0  0  0  0
  130.1701  134.3710  161.1329 H   0  0  0  0  0  0  0  0  0  0  0  0
  128.5233  135.3844  160.2299 C   0  0  0  0  0  0  0  0  0  0  0  0
  128.0570  135.8831  159.0292 C   0  0  0  0  0  0  0  0  0  0  0  0
  126.6990  136.0466  158.8273 C   0  0  0  0  0  0  0  0  0  0  0  0
  125.8035  135.7214  159.8305 C   0  0  0  0  0  0  0  0  0  0  0  0
  126.2632  135.2271  161.0346 C   0  0  0  0  0  0  0  0  0  0  0  0
  127.6267  135.0567  161.2389 C   0  0  0  0  0  0  0  0  0  0  0  0
  128.0951  134.5575  162.4565 N   0  0  0  0  0  0  0  0  0  0  0  0
  130.5930  136.4815  161.0434 C   0  0  0  0  0  0  0  0  0  0  0  0
  130.4259  137.6519  160.0525 C   0  0  0  0  0  0  0  0  0  0  0  0
  131.7277  138.4763  160.2166 C   0  0  0  0  0  0  0  0  0  0  0  0
  132.8052  137.3804  160.4095 C   0  0  0  0  0  0  0  0  0  0  0  0
  132.1049  136.3090  161.2708 C   0  0  0  0  0  0  0  0  0  0  0  0
  130.7925  133.4358  157.2845 N   0  0  0  0  0  0  0  0  0  0  0  0
  131.4926  133.9067  156.8058 H   0  0  0  0  0  0  0  0  0  0  0  0
  129.7701  131.8752  154.4449 C   0  0  0  0  0  0  0  0  0  0  0  0
  130.0407  131.1898  153.2780 C   0  0  0  0  0  0  0  0  0  0  0  0
  129.3411  128.5459  151.8965 H   0  0  0  0  0  0  0  0  0  0  0  0
  130.5933  127.6870  150.9678 H   0  0  0  0  0  0  0  0  0  0  0  0
  130.5656  127.5708  152.7437 H   0  0  0  0  0  0  0  0  0  0  0  0
  132.3355  129.1312  151.9813 H   0  0  0  0  0  0  0  0  0  0  0  0
  131.1109  130.1062  151.1340 H   0  0  0  0  0  0  0  0  0  0  0  0
  132.4420  129.0996  154.4026 H   0  0  0  0  0  0  0  0  0  0  0  0
  131.9816  130.3176  156.4899 H   0  0  0  0  0  0  0  0  0  0  0  0
  128.6179  131.0855  157.7795 H   0  0  0  0  0  0  0  0  0  0  0  0
  131.3435  135.5078  158.8291 H   0  0  0  0  0  0  0  0  0  0  0  0
  128.7539  136.1422  158.2458 H   0  0  0  0  0  0  0  0  0  0  0  0
  126.3369  136.4331  157.8861 H   0  0  0  0  0  0  0  0  0  0  0  0
  124.7437  135.8537  159.6703 H   0  0  0  0  0  0  0  0  0  0  0  0
  125.5634  134.9730  161.8170 H   0  0  0  0  0  0  0  0  0  0  0  0
  129.0474  134.4393  162.5980 H   0  0  0  0  0  0  0  0  0  0  0  0
  127.4680  134.3291  163.1604 H   0  0  0  0  0  0  0  0  0  0  0  0
  130.0981  136.7165  161.9857 H   0  0  0  0  0  0  0  0  0  0  0  0
  130.3370  137.2784  159.0324 H   0  0  0  0  0  0  0  0  0  0  0  0
  129.5564  138.2540  160.3164 H   0  0  0  0  0  0  0  0  0  0  0  0
  131.6690  139.1192  161.0948 H   0  0  0  0  0  0  0  0  0  0  0  0
  131.9311  139.0648  159.3220 H   0  0  0  0  0  0  0  0  0  0  0  0
  133.6711  137.7849  160.9333 H   0  0  0  0  0  0  0  0  0  0  0  0
  133.1031  136.9621  159.4481 H   0  0  0  0  0  0  0  0  0  0  0  0
  132.3441  136.4613  162.3232 H   0  0  0  0  0  0  0  0  0  0  0  0
  132.4187  135.3136  160.9564 H   0  0  0  0  0  0  0  0  0  0  0  0
  129.0185  132.6506  154.4551 H   0  0  0  0  0  0  0  0  0  0  0  0
  129.4998  131.4296  152.3744 H   0  0  0  0  0  0  0  0  0  0  0  0
  1  2  1  0
  1 31  1  0
  1 32  1  0
  1 33  1  0
  2  3  1  0
  2 34  1  0
  2 35  1  0
  3 30  2  0
  3  4  1  0
  4  5  2  0
  4 36  1  0
  5  6  1  0
  5 37  1  0
  6  7  1  0
  6 29  2  0
  7 27  1  0
  7  8  2  0
  8  9  1  0
  8 38  1  0
  9 10  1  0
  9 11  1  0
 11 12  1  0
 11 27  2  0
 12 13  1  0
 12 39  1  0
 13 14  1  1
 13 15  1  0
 13 22  1  0
 15 20  1  0
 15 16  2  0
 16 17  1  0
 16 40  1  0
 17 18  2  0
 17 41  1  0
 18 19  1  0
 18 42  1  0
 19 20  2  0
 19 43  1  0
 20 21  1  0
 21 44  1  0
 21 45  1  0
 22 26  1  0
 22 23  1  0
 22 46  1  0
 23 24  1  0
 23 47  1  0
 23 48  1  0
 24 25  1  0
 24 49  1  0
 24 50  1  0
 25 26  1  0
 25 51  1  0
 25 52  1  0
 26 53  1  0
 26 54  1  0
 27 28  1  0
 29 30  1  0
 29 55  1  0
 30 56  1  0
M  CHG  1  27   1
M  END
>  <DOCK_score>  (1) 
-59.148479

>  <SMILES>  (1) 
CCc1ccc(-c2c[nH]c(N[C@H](c3ccccc3N)C3CCCC3)[nH+]2)cc1

$$$$
