Cc1ccc(-c2ccc(N)cc2)cc1NC(=O)[C@@H](Cc1cnn(C)c1)Nc1[nH]c2ccccc2[nH+]1
     RDKit          3D

 63 67  0  0  1  0  0  0  0  0999 V2000
  135.0869  138.8602  158.4323 C   0  0  0  0  0  0  0  0  0  0  0  0
  135.2429  139.2425  159.8817 C   0  0  0  0  0  0  0  0  0  0  0  0
  136.3468  139.9683  160.2880 C   0  0  0  0  0  0  0  0  0  0  0  0
  136.4933  140.3258  161.6132 C   0  0  0  0  0  0  0  0  0  0  0  0
  135.5313  139.9466  162.5483 C   0  0  0  0  0  0  0  0  0  0  0  0
  135.6894  140.3260  163.9738 C   0  0  0  0  0  0  0  0  0  0  0  0
  135.1674  139.5091  164.9754 C   0  0  0  0  0  0  0  0  0  0  0  0
  135.3150  139.8637  166.2994 C   0  0  0  0  0  0  0  0  0  0  0  0
  135.9837  141.0351  166.6359 C   0  0  0  0  0  0  0  0  0  0  0  0
  136.1266  141.3953  167.9765 N   0  0  0  0  0  0  0  0  0  0  0  0
  136.5051  141.8511  165.6385 C   0  0  0  0  0  0  0  0  0  0  0  0
  136.3599  141.4999  164.3133 C   0  0  0  0  0  0  0  0  0  0  0  0
  134.4187  139.2159  162.1397 C   0  0  0  0  0  0  0  0  0  0  0  0
  134.2766  138.8649  160.8057 C   0  0  0  0  0  0  0  0  0  0  0  0
  133.1604  138.1300  160.3904 N   0  0  0  0  0  0  0  0  0  0  0  0
  132.5664  137.2689  161.2401 C   0  0  0  0  0  0  0  0  0  0  0  0
  132.9993  137.1305  162.3646 O   0  0  0  0  0  0  0  0  0  0  0  0
  131.3644  136.4776  160.7929 C   0  0  1  0  0  0  0  0  0  0  0  0
  131.0249  135.8401  161.6093 H   0  0  0  0  0  0  0  0  0  0  0  0
  130.2414  137.4374  160.3945 C   0  0  0  0  0  0  0  0  0  0  0  0
  129.0392  136.6461  159.9475 C   0  0  0  0  0  0  0  0  0  0  0  0
  128.7700  136.2261  158.6408 C   0  0  0  0  0  0  0  0  0  0  0  0
  127.6413  135.5646  158.6486 N   0  0  0  0  0  0  0  0  0  0  0  0
  127.1507  135.5514  159.9606 N   0  0  0  0  0  0  0  0  0  0  0  0
  125.9063  134.9216  160.4093 C   0  0  0  0  0  0  0  0  0  0  0  0
  128.0266  136.2215  160.7383 C   0  0  0  0  0  0  0  0  0  0  0  0
  131.7272  135.6462  159.6426 N   0  0  0  0  0  0  0  0  0  0  0  0
  131.6083  134.2784  159.7181 C   0  0  0  0  0  0  0  0  0  0  0  0
  131.9036  133.4321  158.7341 N   0  0  0  0  0  0  0  0  0  0  0  0
  132.2339  133.6769  157.8555 H   0  0  0  0  0  0  0  0  0  0  0  0
  131.6648  132.1564  159.1731 C   0  0  0  0  0  0  0  0  0  0  0  0
  131.7916  130.8982  158.5916 C   0  0  0  0  0  0  0  0  0  0  0  0
  131.4536  129.7734  159.3124 C   0  0  0  0  0  0  0  0  0  0  0  0
  130.9876  129.8857  160.6141 C   0  0  0  0  0  0  0  0  0  0  0  0
  130.8561  131.1237  161.2049 C   0  0  0  0  0  0  0  0  0  0  0  0
  131.1930  132.2701  160.4911 C   0  0  0  0  0  0  0  0  0  0  0  0
  131.1760  133.6084  160.7840 N   0  0  0  0  0  0  0  0  0  0  0  0
  130.8956  134.0013  161.6255 H   0  0  0  0  0  0  0  0  0  0  0  0
  134.5393  139.6427  157.9071 H   0  0  0  0  0  0  0  0  0  0  0  0
  136.0713  138.7396  157.9803 H   0  0  0  0  0  0  0  0  0  0  0  0
  134.5371  137.9217  158.3613 H   0  0  0  0  0  0  0  0  0  0  0  0
  137.0953  140.2595  159.5659 H   0  0  0  0  0  0  0  0  0  0  0  0
  137.3553  140.8962  161.9264 H   0  0  0  0  0  0  0  0  0  0  0  0
  134.6472  138.5993  164.7144 H   0  0  0  0  0  0  0  0  0  0  0  0
  134.9106  139.2311  167.0758 H   0  0  0  0  0  0  0  0  0  0  0  0
  135.7595  140.8284  168.6728 H   0  0  0  0  0  0  0  0  0  0  0  0
  136.5930  142.2127  168.2122 H   0  0  0  0  0  0  0  0  0  0  0  0
  137.0240  142.7609  165.9019 H   0  0  0  0  0  0  0  0  0  0  0  0
  136.7655  142.1340  163.5388 H   0  0  0  0  0  0  0  0  0  0  0  0
  133.6685  138.9237  162.8596 H   0  0  0  0  0  0  0  0  0  0  0  0
  132.8142  138.2406  159.4911 H   0  0  0  0  0  0  0  0  0  0  0  0
  129.9715  138.0559  161.2504 H   0  0  0  0  0  0  0  0  0  0  0  0
  130.5808  138.0749  159.5782 H   0  0  0  0  0  0  0  0  0  0  0  0
  129.3887  136.4129  157.7755 H   0  0  0  0  0  0  0  0  0  0  0  0
  125.0897  135.6401  160.3391 H   0  0  0  0  0  0  0  0  0  0  0  0
  125.6874  134.0599  159.7787 H   0  0  0  0  0  0  0  0  0  0  0  0
  126.0162  134.5964  161.4438 H   0  0  0  0  0  0  0  0  0  0  0  0
  127.9359  136.3886  161.8013 H   0  0  0  0  0  0  0  0  0  0  0  0
  132.0511  136.0606  158.8276 H   0  0  0  0  0  0  0  0  0  0  0  0
  132.1541  130.8038  157.5787 H   0  0  0  0  0  0  0  0  0  0  0  0
  131.5526  128.7973  158.8607 H   0  0  0  0  0  0  0  0  0  0  0  0
  130.7263  128.9965  161.1687 H   0  0  0  0  0  0  0  0  0  0  0  0
  130.4930  131.2041  162.2188 H   0  0  0  0  0  0  0  0  0  0  0  0
  1  2  1  0
  1 39  1  0
  1 40  1  0
  1 41  1  0
  2 14  2  0
  2  3  1  0
  3  4  2  0
  3 42  1  0
  4  5  1  0
  4 43  1  0
  5  6  1  0
  5 13  2  0
  6 12  1  0
  6  7  2  0
  7  8  1  0
  7 44  1  0
  8  9  2  0
  8 45  1  0
  9 10  1  0
  9 11  1  0
 10 46  1  0
 10 47  1  0
 11 12  2  0
 11 48  1  0
 12 49  1  0
 13 14  1  0
 13 50  1  0
 14 15  1  0
 15 16  1  0
 15 51  1  0
 16 17  2  0
 16 18  1  0
 18 19  1  1
 18 20  1  0
 18 27  1  0
 20 21  1  0
 20 52  1  0
 20 53  1  0
 21 26  2  0
 21 22  1  0
 22 23  2  0
 22 54  1  0
 23 24  1  0
 24 25  1  0
 24 26  1  0
 25 55  1  0
 25 56  1  0
 25 57  1  0
 26 58  1  0
 27 28  1  0
 27 59  1  0
 28 37  1  0
 28 29  2  0
 29 30  1  0
 29 31  1  0
 31 36  2  0
 31 32  1  0
 32 33  2  0
 32 60  1  0
 33 34  1  0
 33 61  1  0
 34 35  2  0
 34 62  1  0
 35 36  1  0
 35 63  1  0
 36 37  1  0
 37 38  1  0
M  CHG  1  29   1
M  END
>  <DOCK_score>  (1) 
-65.832733

>  <SMILES>  (1) 
Cc1ccc(-c2ccc(N)cc2)cc1NC(=O)[C@@H](Cc1cnn(C)c1)Nc1[nH]c2ccccc2[nH+]1

$$$$
