O[C@@H]1C=C[C@@H]([NH+]=C(NC2CC=CC2)NC2Cc3ccccc3C2)[C@@H]1Br
     RDKit          3D

 50 53  0  0  1  0  0  0  0  0999 V2000
  125.0682  135.2228  162.0507 O   0  0  0  0  0  0  0  0  0  0  0  0
  126.2558  135.3071  161.2604 C   0  0  2  0  0  0  0  0  0  0  0  0
  126.8164  136.2070  161.5135 H   0  0  0  0  0  0  0  0  0  0  0  0
  125.9110  135.2952  159.7892 C   0  0  0  0  0  0  0  0  0  0  0  0
  126.7003  134.4931  159.1280 C   0  0  0  0  0  0  0  0  0  0  0  0
  127.7039  133.8356  160.0483 C   0  0  1  0  0  0  0  0  0  0  0  0
  127.7823  132.7712  159.8272 H   0  0  0  0  0  0  0  0  0  0  0  0
  129.0125  134.4821  159.9220 N   0  0  0  0  0  0  0  0  0  0  0  0
  129.2385  135.2346  160.4908 H   0  0  0  0  0  0  0  0  0  0  0  0
  129.8730  134.0460  159.0455 C   0  0  0  0  0  0  0  0  0  0  0  0
  129.4323  133.4653  157.8797 N   0  0  0  0  0  0  0  0  0  0  0  0
  130.3995  132.9753  156.8945 C   0  0  0  0  0  0  0  0  0  0  0  0
  129.7608  132.8800  155.4895 C   0  0  0  0  0  0  0  0  0  0  0  0
  130.3594  131.6340  154.8792 C   0  0  0  0  0  0  0  0  0  0  0  0
  130.9078  130.8801  155.7927 C   0  0  0  0  0  0  0  0  0  0  0  0
  130.7666  131.4975  157.1646 C   0  0  0  0  0  0  0  0  0  0  0  0
  131.2210  134.1667  159.2867 N   0  0  0  0  0  0  0  0  0  0  0  0
  131.7241  134.1432  160.6624 C   0  0  0  0  0  0  0  0  0  0  0  0
  131.2513  135.3894  161.4408 C   0  0  0  0  0  0  0  0  0  0  0  0
  132.4061  135.7405  162.3595 C   0  0  0  0  0  0  0  0  0  0  0  0
  132.4422  136.5459  163.4856 C   0  0  0  0  0  0  0  0  0  0  0  0
  133.6245  136.7203  164.1778 C   0  0  0  0  0  0  0  0  0  0  0  0
  134.7763  136.0892  163.7458 C   0  0  0  0  0  0  0  0  0  0  0  0
  134.7423  135.2857  162.6230 C   0  0  0  0  0  0  0  0  0  0  0  0
  133.5575  135.1095  161.9276 C   0  0  0  0  0  0  0  0  0  0  0  0
  133.2599  134.2940  160.6877 C   0  0  0  0  0  0  0  0  0  0  0  0
  127.1319  134.0501  161.4689 C   0  0  2  0  0  0  0  0  0  0  0  0
  127.9291  134.2434  162.1866 H   0  0  0  0  0  0  0  0  0  0  0  0
  126.0403  132.5141  162.0294 Br  0  0  0  0  0  0  0  0  0  0  0  0
  124.4802  135.9852  161.9596 H   0  0  0  0  0  0  0  0  0  0  0  0
  125.1157  135.8743  159.3435 H   0  0  0  0  0  0  0  0  0  0  0  0
  126.6441  134.3215  158.0632 H   0  0  0  0  0  0  0  0  0  0  0  0
  128.4813  133.3802  157.7097 H   0  0  0  0  0  0  0  0  0  0  0  0
  131.2904  133.6031  156.8783 H   0  0  0  0  0  0  0  0  0  0  0  0
  128.6783  132.7808  155.5703 H   0  0  0  0  0  0  0  0  0  0  0  0
  130.0193  133.7561  154.8947 H   0  0  0  0  0  0  0  0  0  0  0  0
  130.3366  131.3984  153.8254 H   0  0  0  0  0  0  0  0  0  0  0  0
  131.3980  129.9385  155.5941 H   0  0  0  0  0  0  0  0  0  0  0  0
  131.7089  131.4338  157.7085 H   0  0  0  0  0  0  0  0  0  0  0  0
  129.9707  131.0046  157.7227 H   0  0  0  0  0  0  0  0  0  0  0  0
  131.8392  134.2676  158.5460 H   0  0  0  0  0  0  0  0  0  0  0  0
  131.4160  133.2293  161.1702 H   0  0  0  0  0  0  0  0  0  0  0  0
  131.0524  136.2117  160.7535 H   0  0  0  0  0  0  0  0  0  0  0  0
  130.3589  135.1566  162.0215 H   0  0  0  0  0  0  0  0  0  0  0  0
  131.5429  137.0392  163.8236 H   0  0  0  0  0  0  0  0  0  0  0  0
  133.6494  137.3493  165.0552 H   0  0  0  0  0  0  0  0  0  0  0  0
  135.7018  136.2248  164.2856 H   0  0  0  0  0  0  0  0  0  0  0  0
  135.6425  134.7933  162.2861 H   0  0  0  0  0  0  0  0  0  0  0  0
  133.7350  133.3152  160.7557 H   0  0  0  0  0  0  0  0  0  0  0  0
  133.6030  134.8207  159.7973 H   0  0  0  0  0  0  0  0  0  0  0  0
  1  2  1  0
  1 30  1  0
  2  3  1  1
  2 27  1  0
  2  4  1  0
  4  5  2  0
  4 31  1  0
  5  6  1  0
  5 32  1  0
  6  7  1  6
  6  8  1  0
  6 27  1  0
  8  9  1  0
 10  8  2  0
 10 11  1  0
 10 17  1  0
 11 12  1  0
 11 33  1  0
 12 16  1  0
 12 13  1  0
 12 34  1  0
 13 14  1  0
 13 35  1  0
 13 36  1  0
 14 15  2  0
 14 37  1  0
 15 16  1  0
 15 38  1  0
 16 39  1  0
 16 40  1  0
 17 18  1  0
 17 41  1  0
 18 26  1  0
 18 19  1  0
 18 42  1  0
 19 20  1  0
 19 43  1  0
 19 44  1  0
 20 25  2  0
 20 21  1  0
 21 22  2  0
 21 45  1  0
 22 23  1  0
 22 46  1  0
 23 24  2  0
 23 47  1  0
 24 25  1  0
 24 48  1  0
 25 26  1  0
 26 49  1  0
 26 50  1  0
 27 28  1  1
 27 29  1  0
M  CHG  1   8   1
M  END
>  <DOCK_score>  (1) 
-45.313648

>  <SMILES>  (1) 
O[C@@H]1C=C[C@@H]([NH+]=C(NC2CC=CC2)NC2Cc3ccccc3C2)[C@@H]1Br

$$$$
