O=C(NC1CC[NH2+]C2(CC2)C1)[C@@H](CCO)NCc1cc(C2=CC3CC[C@H]2C3)no1
     RDKit          3D

 62 66  0  0  1  0  0  0  0  0999 V2000
  126.7248  136.1350  160.6494 O   0  0  0  0  0  0  0  0  0  0  0  0
  127.7903  136.3131  161.2005 C   0  0  0  0  0  0  0  0  0  0  0  0
  128.9135  135.7740  160.6863 N   0  0  0  0  0  0  0  0  0  0  0  0
  128.8472  134.9727  159.4617 C   0  0  1  0  0  0  0  0  0  0  0  0
  129.0379  135.8813  158.2443 C   0  0  0  0  0  0  0  0  0  0  0  0
  128.9767  135.0448  156.9655 C   0  0  0  0  0  0  0  0  0  0  0  0
  130.0828  134.0781  156.9522 N   0  0  0  0  0  0  0  0  0  0  0  0
  130.0352  133.5234  156.1106 H   0  0  0  0  0  0  0  0  0  0  0  0
  130.9621  134.5720  156.9805 H   0  0  0  0  0  0  0  0  0  0  0  0
  129.9750  133.1995  158.1252 C   0  0  0  0  0  0  0  0  0  0  0  0
  130.6566  131.8332  158.0559 C   0  0  0  0  0  0  0  0  0  0  0  0
  129.1311  131.9320  157.9879 C   0  0  0  0  0  0  0  0  0  0  0  0
  129.9599  133.9184  159.4778 C   0  0  0  0  0  0  0  0  0  0  0  0
  127.8585  137.1373  162.4603 C   0  0  1  0  0  0  0  0  0  0  0  0
  127.0700  137.8898  162.4454 H   0  0  0  0  0  0  0  0  0  0  0  0
  127.6723  136.2272  163.6760 C   0  0  0  0  0  0  0  0  0  0  0  0
  126.1834  135.9335  163.8698 C   0  0  0  0  0  0  0  0  0  0  0  0
  125.6706  135.2835  162.7050 O   0  0  0  0  0  0  0  0  0  0  0  0
  129.1667  137.8006  162.5411 N   0  0  0  0  0  0  0  0  0  0  0  0
  129.2016  139.0011  161.6950 C   0  0  0  0  0  0  0  0  0  0  0  0
  130.5558  139.6531  161.8035 C   0  0  0  0  0  0  0  0  0  0  0  0
  131.6369  139.4005  161.0322 C   0  0  0  0  0  0  0  0  0  0  0  0
  132.6363  140.2762  161.5453 C   0  0  0  0  0  0  0  0  0  0  0  0
  134.0274  140.4166  161.0642 C   0  0  0  0  0  0  0  0  0  0  0  0
  134.5780  139.7410  160.0544 C   0  0  0  0  0  0  0  0  0  0  0  0
  136.0326  140.2042  159.9059 C   0  0  2  0  0  0  0  0  0  0  0  0
  136.7463  139.6286  161.1701 C   0  0  0  0  0  0  0  0  0  0  0  0
  136.1073  140.4126  162.3422 C   0  0  0  0  0  0  0  0  0  0  0  0
  135.0853  141.3688  161.6356 C   0  0  1  0  0  0  0  0  0  0  0  0
  134.7130  142.2054  162.2268 H   0  0  0  0  0  0  0  0  0  0  0  0
  135.8795  141.7113  160.3269 C   0  0  0  0  0  0  0  0  0  0  0  0
  132.0747  140.9282  162.5350 N   0  0  0  0  0  0  0  0  0  0  0  0
  130.9233  140.5919  162.6873 O   0  0  0  0  0  0  0  0  0  0  0  0
  129.7657  135.9166  161.1272 H   0  0  0  0  0  0  0  0  0  0  0  0
  127.8770  134.4799  159.4005 H   0  0  0  0  0  0  0  0  0  0  0  0
  128.2483  136.6324  158.2248 H   0  0  0  0  0  0  0  0  0  0  0  0
  130.0072  136.3756  158.3086 H   0  0  0  0  0  0  0  0  0  0  0  0
  128.0275  134.5103  156.9268 H   0  0  0  0  0  0  0  0  0  0  0  0
  129.0590  135.7008  156.0989 H   0  0  0  0  0  0  0  0  0  0  0  0
  131.1861  131.5808  157.1372 H   0  0  0  0  0  0  0  0  0  0  0  0
  131.0953  131.4423  158.9740 H   0  0  0  0  0  0  0  0  0  0  0  0
  128.5662  131.6064  158.8613 H   0  0  0  0  0  0  0  0  0  0  0  0
  128.6566  131.7451  157.0246 H   0  0  0  0  0  0  0  0  0  0  0  0
  130.9214  134.4041  159.6445 H   0  0  0  0  0  0  0  0  0  0  0  0
  129.7691  133.1976  160.2729 H   0  0  0  0  0  0  0  0  0  0  0  0
  128.2093  135.2924  163.5157 H   0  0  0  0  0  0  0  0  0  0  0  0
  128.0634  136.7231  164.5644 H   0  0  0  0  0  0  0  0  0  0  0  0
  126.0506  135.2851  164.7358 H   0  0  0  0  0  0  0  0  0  0  0  0
  125.6464  136.8684  164.0302 H   0  0  0  0  0  0  0  0  0  0  0  0
  125.7558  135.8040  161.8945 H   0  0  0  0  0  0  0  0  0  0  0  0
  129.4001  138.0250  163.4968 H   0  0  0  0  0  0  0  0  0  0  0  0
  128.4339  139.7009  162.0254 H   0  0  0  0  0  0  0  0  0  0  0  0
  129.0155  138.7205  160.6583 H   0  0  0  0  0  0  0  0  0  0  0  0
  131.7224  138.6990  160.2156 H   0  0  0  0  0  0  0  0  0  0  0  0
  134.0851  138.9967  159.4467 H   0  0  0  0  0  0  0  0  0  0  0  0
  136.5094  139.9989  158.9475 H   0  0  0  0  0  0  0  0  0  0  0  0
  136.5475  138.5615  161.2697 H   0  0  0  0  0  0  0  0  0  0  0  0
  137.8190  139.8167  161.1233 H   0  0  0  0  0  0  0  0  0  0  0  0
  135.5923  139.7335  163.0216 H   0  0  0  0  0  0  0  0  0  0  0  0
  136.8637  140.9886  162.8754 H   0  0  0  0  0  0  0  0  0  0  0  0
  136.8389  142.1864  160.5322 H   0  0  0  0  0  0  0  0  0  0  0  0
  135.2814  142.2837  159.6180 H   0  0  0  0  0  0  0  0  0  0  0  0
  1  2  2  0
  2  3  1  0
  2 14  1  0
  3  4  1  0
  3 34  1  0
  4 13  1  0
  4  5  1  0
  4 35  1  6
  5  6  1  0
  5 36  1  0
  5 37  1  0
  6  7  1  0
  6 38  1  0
  6 39  1  0
  7  8  1  0
  7  9  1  0
  7 10  1  0
 10 12  1  0
 10 11  1  0
 10 13  1  0
 11 12  1  0
 11 40  1  0
 11 41  1  0
 12 42  1  0
 12 43  1  0
 13 44  1  0
 13 45  1  0
 14 15  1  6
 14 16  1  0
 14 19  1  0
 16 17  1  0
 16 46  1  0
 16 47  1  0
 17 18  1  0
 17 48  1  0
 17 49  1  0
 18 50  1  0
 19 20  1  0
 19 51  1  0
 20 21  1  0
 20 52  1  0
 20 53  1  0
 21 33  1  0
 21 22  2  0
 22 23  1  0
 22 54  1  0
 23 24  1  0
 23 32  2  0
 24 29  1  0
 24 25  2  0
 25 26  1  0
 25 55  1  0
 26 31  1  0
 26 27  1  0
 26 56  1  6
 27 28  1  0
 27 57  1  0
 27 58  1  0
 28 29  1  0
 28 59  1  0
 28 60  1  0
 29 30  1  1
 29 31  1  0
 31 61  1  0
 31 62  1  0
 32 33  1  0
M  CHG  1   7   1
M  END
>  <DOCK_score>  (1) 
-41.204163

>  <SMILES>  (1) 
O=C(NC1CC[NH2+]C2(CC2)C1)[C@@H](CCO)NCc1cc(C2=CC3CC[C@H]2C3)no1

$$$$
