C[C@@H](CCc1c[nH]c2ccccc12)Nc1[nH]cc(CCC(=O)Nc2ccccc2)[nH+]1
     RDKit          3D

 58 61  0  0  1  0  0  0  0  0999 V2000
  132.9391  133.8175  161.4574 C   0  0  0  0  0  0  0  0  0  0  0  0
  132.1120  135.0945  161.2964 C   0  0  1  0  0  0  0  0  0  0  0  0
  131.3018  135.0970  162.0255 H   0  0  0  0  0  0  0  0  0  0  0  0
  133.0071  136.3143  161.5244 C   0  0  0  0  0  0  0  0  0  0  0  0
  132.1799  137.5911  161.3634 C   0  0  0  0  0  0  0  0  0  0  0  0
  133.0617  138.7925  161.5881 C   0  0  0  0  0  0  0  0  0  0  0  0
  133.2951  139.4037  162.7603 C   0  0  0  0  0  0  0  0  0  0  0  0
  134.1469  140.4583  162.5750 N   0  0  0  0  0  0  0  0  0  0  0  0
  134.4618  141.0501  163.2760 H   0  0  0  0  0  0  0  0  0  0  0  0
  134.4912  140.5538  161.2453 C   0  0  0  0  0  0  0  0  0  0  0  0
  135.3077  141.4218  160.5273 C   0  0  0  0  0  0  0  0  0  0  0  0
  135.4558  141.2547  159.1680 C   0  0  0  0  0  0  0  0  0  0  0  0
  134.7978  140.2276  158.5051 C   0  0  0  0  0  0  0  0  0  0  0  0
  133.9910  139.3639  159.1905 C   0  0  0  0  0  0  0  0  0  0  0  0
  133.8316  139.5109  160.5698 C   0  0  0  0  0  0  0  0  0  0  0  0
  131.5517  135.1461  159.9437 N   0  0  0  0  0  0  0  0  0  0  0  0
  130.3112  134.5867  159.6861 C   0  0  0  0  0  0  0  0  0  0  0  0
  129.6846  134.5626  158.4790 N   0  0  0  0  0  0  0  0  0  0  0  0
  130.0210  134.9308  157.6469 H   0  0  0  0  0  0  0  0  0  0  0  0
  128.4826  133.9168  158.6619 C   0  0  0  0  0  0  0  0  0  0  0  0
  128.4164  133.5726  159.9592 C   0  0  0  0  0  0  0  0  0  0  0  0
  127.2763  132.8428  160.6214 C   0  0  0  0  0  0  0  0  0  0  0  0
  126.2627  133.8572  161.1549 C   0  0  0  0  0  0  0  0  0  0  0  0
  126.9341  134.7574  162.1597 C   0  0  0  0  0  0  0  0  0  0  0  0
  127.8566  134.3395  162.8273 O   0  0  0  0  0  0  0  0  0  0  0  0
  126.5097  136.0268  162.3168 N   0  0  0  0  0  0  0  0  0  0  0  0
  127.1330  136.8626  163.2499 C   0  0  0  0  0  0  0  0  0  0  0  0
  126.4107  137.8734  163.8707 C   0  0  0  0  0  0  0  0  0  0  0  0
  127.0278  138.6939  164.7944 C   0  0  0  0  0  0  0  0  0  0  0  0
  128.3662  138.5163  165.0939 C   0  0  0  0  0  0  0  0  0  0  0  0
  129.0893  137.5140  164.4739 C   0  0  0  0  0  0  0  0  0  0  0  0
  128.4769  136.6870  163.5529 C   0  0  0  0  0  0  0  0  0  0  0  0
  129.5435  133.9853  160.5638 N   0  0  0  0  0  0  0  0  0  0  0  0
  129.7550  133.8606  161.5022 H   0  0  0  0  0  0  0  0  0  0  0  0
  133.3559  133.7791  162.4638 H   0  0  0  0  0  0  0  0  0  0  0  0
  132.3014  132.9487  161.2948 H   0  0  0  0  0  0  0  0  0  0  0  0
  133.7493  133.8151  160.7282 H   0  0  0  0  0  0  0  0  0  0  0  0
  133.4239  136.2758  162.5309 H   0  0  0  0  0  0  0  0  0  0  0  0
  133.8173  136.3117  160.7953 H   0  0  0  0  0  0  0  0  0  0  0  0
  131.7632  137.6297  160.3570 H   0  0  0  0  0  0  0  0  0  0  0  0
  131.3697  137.5937  162.0926 H   0  0  0  0  0  0  0  0  0  0  0  0
  132.8729  139.1069  163.7091 H   0  0  0  0  0  0  0  0  0  0  0  0
  135.8236  142.2241  161.0339 H   0  0  0  0  0  0  0  0  0  0  0  0
  136.0898  141.9298  158.6124 H   0  0  0  0  0  0  0  0  0  0  0  0
  134.9243  140.1107  157.4389 H   0  0  0  0  0  0  0  0  0  0  0  0
  133.4820  138.5674  158.6680 H   0  0  0  0  0  0  0  0  0  0  0  0
  132.0495  135.5722  159.2285 H   0  0  0  0  0  0  0  0  0  0  0  0
  127.7352  133.7238  157.9067 H   0  0  0  0  0  0  0  0  0  0  0  0
  126.7907  132.1917  159.8947 H   0  0  0  0  0  0  0  0  0  0  0  0
  127.6594  132.2435  161.4473 H   0  0  0  0  0  0  0  0  0  0  0  0
  125.8796  134.4567  160.3290 H   0  0  0  0  0  0  0  0  0  0  0  0
  125.4382  133.3292  161.6338 H   0  0  0  0  0  0  0  0  0  0  0  0
  125.7719  136.3611  161.7830 H   0  0  0  0  0  0  0  0  0  0  0  0
  125.3665  138.0150  163.6342 H   0  0  0  0  0  0  0  0  0  0  0  0
  126.4657  139.4776  165.2804 H   0  0  0  0  0  0  0  0  0  0  0  0
  128.8476  139.1622  165.8134 H   0  0  0  0  0  0  0  0  0  0  0  0
  130.1345  137.3780  164.7100 H   0  0  0  0  0  0  0  0  0  0  0  0
  129.0425  135.9048  163.0685 H   0  0  0  0  0  0  0  0  0  0  0  0
  1  2  1  0
  1 35  1  0
  1 36  1  0
  1 37  1  0
  2  3  1  1
  2  4  1  0
  2 16  1  0
  4  5  1  0
  4 38  1  0
  4 39  1  0
  5  6  1  0
  5 40  1  0
  5 41  1  0
  6 15  1  0
  6  7  2  0
  7  8  1  0
  7 42  1  0
  8  9  1  0
  8 10  1  0
 10 15  2  0
 10 11  1  0
 11 12  2  0
 11 43  1  0
 12 13  1  0
 12 44  1  0
 13 14  2  0
 13 45  1  0
 14 15  1  0
 14 46  1  0
 16 47  1  0
 17 16  1  0
 17 33  2  0
 17 18  1  0
 18 19  1  0
 18 20  1  0
 20 21  2  0
 20 48  1  0
 21 22  1  0
 21 33  1  0
 22 23  1  0
 22 49  1  0
 22 50  1  0
 23 24  1  0
 23 51  1  0
 23 52  1  0
 24 25  2  0
 24 26  1  0
 26 27  1  0
 26 53  1  0
 27 32  1  0
 27 28  2  0
 28 29  1  0
 28 54  1  0
 29 30  2  0
 29 55  1  0
 30 31  1  0
 30 56  1  0
 31 32  2  0
 31 57  1  0
 32 58  1  0
 33 34  1  0
M  CHG  1  33   1
M  END
>  <DOCK_score>  (1) 
-49.600639

>  <SMILES>  (1) 
C[C@@H](CCc1c[nH]c2ccccc12)Nc1[nH]cc(CCC(=O)Nc2ccccc2)[nH+]1

$$$$
