Nc1ccc(-c2c[nH]c(N[C@H](C=CCc3ccccc3)Cc3ccccc3)[nH+]2)cc1
     RDKit          3D

 57 60  0  0  1  0  0  0  0  0999 V2000
  130.8437  129.6681  152.5202 N   0  0  0  0  0  0  0  0  0  0  0  0
  130.7025  130.3942  153.7052 C   0  0  0  0  0  0  0  0  0  0  0  0
  129.9750  131.5784  153.7108 C   0  0  0  0  0  0  0  0  0  0  0  0
  129.8343  132.2970  154.8792 C   0  0  0  0  0  0  0  0  0  0  0  0
  130.4223  131.8347  156.0556 C   0  0  0  0  0  0  0  0  0  0  0  0
  130.2724  132.6059  157.3139 C   0  0  0  0  0  0  0  0  0  0  0  0
  129.6967  132.1615  158.4584 C   0  0  0  0  0  0  0  0  0  0  0  0
  129.7702  133.1904  159.3672 N   0  0  0  0  0  0  0  0  0  0  0  0
  129.4418  133.1755  160.2798 H   0  0  0  0  0  0  0  0  0  0  0  0
  130.3891  134.2334  158.7501 C   0  0  0  0  0  0  0  0  0  0  0  0
  130.6590  135.4644  159.3232 N   0  0  0  0  0  0  0  0  0  0  0  0
  130.2691  135.7277  160.7106 C   0  0  2  0  0  0  0  0  0  0  0  0
  130.7668  135.0159  161.3692 H   0  0  0  0  0  0  0  0  0  0  0  0
  128.7757  135.5812  160.8493 C   0  0  0  0  0  0  0  0  0  0  0  0
  127.9942  135.8463  159.8319 C   0  0  0  0  0  0  0  0  0  0  0  0
  126.5008  135.6999  159.9708 C   0  0  0  0  0  0  0  0  0  0  0  0
  126.1666  134.2735  160.3245 C   0  0  0  0  0  0  0  0  0  0  0  0
  125.9322  133.3499  159.3232 C   0  0  0  0  0  0  0  0  0  0  0  0
  125.6262  132.0414  159.6477 C   0  0  0  0  0  0  0  0  0  0  0  0
  125.5533  131.6570  160.9736 C   0  0  0  0  0  0  0  0  0  0  0  0
  125.7883  132.5807  161.9748 C   0  0  0  0  0  0  0  0  0  0  0  0
  126.0951  133.8890  161.6503 C   0  0  0  0  0  0  0  0  0  0  0  0
  130.6798  137.1508  161.0944 C   0  0  0  0  0  0  0  0  0  0  0  0
  132.1480  137.1758  161.4333 C   0  0  0  0  0  0  0  0  0  0  0  0
  132.5606  136.9594  162.7347 C   0  0  0  0  0  0  0  0  0  0  0  0
  133.9077  136.9775  163.0447 C   0  0  0  0  0  0  0  0  0  0  0  0
  134.8414  137.2224  162.0552 C   0  0  0  0  0  0  0  0  0  0  0  0
  134.4283  137.4442  160.7548 C   0  0  0  0  0  0  0  0  0  0  0  0
  133.0817  137.4208  160.4438 C   0  0  0  0  0  0  0  0  0  0  0  0
  130.6824  133.8823  157.5217 N   0  0  0  0  0  0  0  0  0  0  0  0
  131.1244  134.4446  156.8665 H   0  0  0  0  0  0  0  0  0  0  0  0
  131.1563  130.6496  156.0465 C   0  0  0  0  0  0  0  0  0  0  0  0
  131.2892  129.9312  154.8770 C   0  0  0  0  0  0  0  0  0  0  0  0
  130.4341  129.9903  151.7021 H   0  0  0  0  0  0  0  0  0  0  0  0
  131.3512  128.8415  152.5155 H   0  0  0  0  0  0  0  0  0  0  0  0
  129.5199  131.9364  152.7991 H   0  0  0  0  0  0  0  0  0  0  0  0
  129.2686  133.2170  154.8831 H   0  0  0  0  0  0  0  0  0  0  0  0
  129.2632  131.1863  158.6240 H   0  0  0  0  0  0  0  0  0  0  0  0
  131.1061  136.1526  158.8060 H   0  0  0  0  0  0  0  0  0  0  0  0
  128.3497  135.2576  161.7875 H   0  0  0  0  0  0  0  0  0  0  0  0
  128.4202  136.1700  158.8938 H   0  0  0  0  0  0  0  0  0  0  0  0
  126.0207  135.9624  159.0281 H   0  0  0  0  0  0  0  0  0  0  0  0
  126.1424  136.3629  160.7581 H   0  0  0  0  0  0  0  0  0  0  0  0
  125.9837  133.6513  158.2874 H   0  0  0  0  0  0  0  0  0  0  0  0
  125.4427  131.3199  158.8653 H   0  0  0  0  0  0  0  0  0  0  0  0
  125.3141  130.6349  161.2271 H   0  0  0  0  0  0  0  0  0  0  0  0
  125.7324  132.2802  163.0106 H   0  0  0  0  0  0  0  0  0  0  0  0
  126.2786  134.6105  162.4326 H   0  0  0  0  0  0  0  0  0  0  0  0
  130.4887  137.8223  160.2574 H   0  0  0  0  0  0  0  0  0  0  0  0
  130.1017  137.4749  161.9597 H   0  0  0  0  0  0  0  0  0  0  0  0
  131.8309  136.7722  163.5086 H   0  0  0  0  0  0  0  0  0  0  0  0
  134.2304  136.8047  164.0608 H   0  0  0  0  0  0  0  0  0  0  0  0
  135.8935  137.2410  162.2982 H   0  0  0  0  0  0  0  0  0  0  0  0
  135.1578  137.6360  159.9818 H   0  0  0  0  0  0  0  0  0  0  0  0
  132.7588  137.5943  159.4278 H   0  0  0  0  0  0  0  0  0  0  0  0
  131.6165  130.2920  156.9557 H   0  0  0  0  0  0  0  0  0  0  0  0
  131.8541  129.0107  154.8703 H   0  0  0  0  0  0  0  0  0  0  0  0
  1  2  1  0
  1 34  1  0
  1 35  1  0
  2 33  2  0
  2  3  1  0
  3  4  2  0
  3 36  1  0
  4  5  1  0
  4 37  1  0
  5  6  1  0
  5 32  2  0
  6 30  1  0
  6  7  2  0
  7  8  1  0
  7 38  1  0
  8  9  1  0
  8 10  1  0
 10 11  1  0
 10 30  2  0
 11 12  1  0
 11 39  1  0
 12 13  1  1
 12 14  1  0
 12 23  1  0
 14 15  2  0
 14 40  1  0
 15 16  1  0
 15 41  1  0
 16 17  1  0
 16 42  1  0
 16 43  1  0
 17 22  1  0
 17 18  2  0
 18 19  1  0
 18 44  1  0
 19 20  2  0
 19 45  1  0
 20 21  1  0
 20 46  1  0
 21 22  2  0
 21 47  1  0
 22 48  1  0
 23 24  1  0
 23 49  1  0
 23 50  1  0
 24 29  1  0
 24 25  2  0
 25 26  1  0
 25 51  1  0
 26 27  2  0
 26 52  1  0
 27 28  1  0
 27 53  1  0
 28 29  2  0
 28 54  1  0
 29 55  1  0
 30 31  1  0
 32 33  1  0
 32 56  1  0
 33 57  1  0
M  CHG  1  30   1
M  END
>  <DOCK_score>  (1) 
-61.462708

>  <SMILES>  (1) 
Nc1ccc(-c2c[nH]c(N[C@H](C=CCc3ccccc3)Cc3ccccc3)[nH+]2)cc1

$$$$
