C[C@@H](Cc1c[nH]c2ccc(O)cc12)[NH2+]C=CCNc1ccccc1F
     RDKit          3D

 48 50  0  0  1  0  0  0  0  0999 V2000
  129.6338  137.4499  159.5135 C   0  0  0  0  0  0  0  0  0  0  0  0
  129.4891  135.9311  159.6293 C   0  0  1  0  0  0  0  0  0  0  0  0
  129.0747  135.6789  160.6055 H   0  0  0  0  0  0  0  0  0  0  0  0
  128.5528  135.4229  158.5311 C   0  0  0  0  0  0  0  0  0  0  0  0
  128.0201  134.0660  158.9135 C   0  0  0  0  0  0  0  0  0  0  0  0
  128.5711  132.8788  158.6145 C   0  0  0  0  0  0  0  0  0  0  0  0
  127.8084  131.8674  159.1308 N   0  0  0  0  0  0  0  0  0  0  0  0
  128.0057  130.9214  159.0461 H   0  0  0  0  0  0  0  0  0  0  0  0
  126.7138  132.3930  159.7843 C   0  0  0  0  0  0  0  0  0  0  0  0
  125.6436  131.8226  160.4657 C   0  0  0  0  0  0  0  0  0  0  0  0
  124.6783  132.6273  161.0282 C   0  0  0  0  0  0  0  0  0  0  0  0
  124.7604  134.0135  160.9224 C   0  0  0  0  0  0  0  0  0  0  0  0
  123.7978  134.7936  161.4830 O   0  0  0  0  0  0  0  0  0  0  0  0
  125.8146  134.5989  160.2507 C   0  0  0  0  0  0  0  0  0  0  0  0
  126.7997  133.7924  159.6761 C   0  0  0  0  0  0  0  0  0  0  0  0
  130.8075  135.3008  159.4793 N   0  0  0  0  0  0  0  0  0  0  0  0
  131.3269  135.7753  158.7560 H   0  0  0  0  0  0  0  0  0  0  0  0
  130.6898  134.3307  159.2275 H   0  0  0  0  0  0  0  0  0  0  0  0
  131.5055  135.3873  160.6875 C   0  0  0  0  0  0  0  0  0  0  0  0
  132.6523  136.0186  160.7376 C   0  0  0  0  0  0  0  0  0  0  0  0
  133.4046  136.1118  162.0401 C   0  0  0  0  0  0  0  0  0  0  0  0
  134.3090  134.9658  162.1647 N   0  0  0  0  0  0  0  0  0  0  0  0
  135.1176  134.8333  163.2978 C   0  0  0  0  0  0  0  0  0  0  0  0
  134.7960  135.5121  164.4655 C   0  0  0  0  0  0  0  0  0  0  0  0
  135.5971  135.3795  165.5832 C   0  0  0  0  0  0  0  0  0  0  0  0
  136.7187  134.5721  165.5410 C   0  0  0  0  0  0  0  0  0  0  0  0
  137.0437  133.8941  164.3802 C   0  0  0  0  0  0  0  0  0  0  0  0
  136.2465  134.0220  163.2576 C   0  0  0  0  0  0  0  0  0  0  0  0
  136.5638  133.3599  162.1235 F   0  0  0  0  0  0  0  0  0  0  0  0
  128.6556  137.9177  159.6249 H   0  0  0  0  0  0  0  0  0  0  0  0
  130.3009  137.8119  160.2959 H   0  0  0  0  0  0  0  0  0  0  0  0
  130.0482  137.7020  158.5374 H   0  0  0  0  0  0  0  0  0  0  0  0
  127.7224  136.1185  158.4109 H   0  0  0  0  0  0  0  0  0  0  0  0
  129.1016  135.3465  157.5925 H   0  0  0  0  0  0  0  0  0  0  0  0
  129.4830  132.7427  158.0521 H   0  0  0  0  0  0  0  0  0  0  0  0
  125.5698  130.7488  160.5533 H   0  0  0  0  0  0  0  0  0  0  0  0
  123.8495  132.1792  161.5562 H   0  0  0  0  0  0  0  0  0  0  0  0
  123.9384  135.7421  161.3587 H   0  0  0  0  0  0  0  0  0  0  0  0
  125.8775  135.6740  160.1699 H   0  0  0  0  0  0  0  0  0  0  0  0
  131.0994  134.9336  161.5795 H   0  0  0  0  0  0  0  0  0  0  0  0
  133.0583  136.4722  159.8457 H   0  0  0  0  0  0  0  0  0  0  0  0
  132.6973  136.1083  162.8694 H   0  0  0  0  0  0  0  0  0  0  0  0
  133.9835  137.0351  162.0600 H   0  0  0  0  0  0  0  0  0  0  0  0
  134.3466  134.2990  161.4612 H   0  0  0  0  0  0  0  0  0  0  0  0
  133.9178  136.1396  164.5014 H   0  0  0  0  0  0  0  0  0  0  0  0
  135.3470  135.9078  166.4913 H   0  0  0  0  0  0  0  0  0  0  0  0
  137.3428  134.4706  166.4166 H   0  0  0  0  0  0  0  0  0  0  0  0
  137.9203  133.2643  164.3507 H   0  0  0  0  0  0  0  0  0  0  0  0
  1  2  1  0
  1 30  1  0
  1 31  1  0
  1 32  1  0
  2  3  1  1
  2  4  1  0
  2 16  1  0
  4  5  1  0
  4 33  1  0
  4 34  1  0
  5 15  1  0
  5  6  2  0
  6  7  1  0
  6 35  1  0
  7  8  1  0
  7  9  1  0
  9 15  2  0
  9 10  1  0
 10 11  2  0
 10 36  1  0
 11 12  1  0
 11 37  1  0
 12 13  1  0
 12 14  2  0
 13 38  1  0
 14 15  1  0
 14 39  1  0
 16 17  1  0
 16 18  1  0
 16 19  1  0
 19 20  2  0
 19 40  1  0
 20 21  1  0
 20 41  1  0
 21 22  1  0
 21 42  1  0
 21 43  1  0
 22 23  1  0
 22 44  1  0
 23 28  1  0
 23 24  2  0
 24 25  1  0
 24 45  1  0
 25 26  2  0
 25 46  1  0
 26 27  1  0
 26 47  1  0
 27 28  2  0
 27 48  1  0
 28 29  1  0
M  CHG  1  16   1
M  END
>  <DOCK_score>  (1) 
-47.302582

>  <SMILES>  (1) 
C[C@@H](Cc1c[nH]c2ccc(O)cc12)[NH2+]C=CCNc1ccccc1F

$$$$
