CNC(NC)=[NH+]Cc1cc(Cl)cc(NC2CC=CC2)c1
     RDKit          3D

 42 43  0  0  1  0  0  0  0  0999 V2000
  130.5153  132.7224  156.8049 C   0  0  0  0  0  0  0  0  0  0  0  0
  131.1394  133.1802  158.0486 N   0  0  0  0  0  0  0  0  0  0  0  0
  130.4742  133.0404  159.2436 C   0  0  0  0  0  0  0  0  0  0  0  0
  131.0599  133.4700  160.4109 N   0  0  0  0  0  0  0  0  0  0  0  0
  132.3928  134.0770  160.3813 C   0  0  0  0  0  0  0  0  0  0  0  0
  129.2881  132.5005  159.2698 N   0  0  0  0  0  0  0  0  0  0  0  0
  128.6974  132.5901  158.5055 H   0  0  0  0  0  0  0  0  0  0  0  0
  128.8468  131.7587  160.4536 C   0  0  0  0  0  0  0  0  0  0  0  0
  127.6116  132.4084  161.0219 C   0  0  0  0  0  0  0  0  0  0  0  0
  126.5360  131.6289  161.4061 C   0  0  0  0  0  0  0  0  0  0  0  0
  125.3997  132.2215  161.9283 C   0  0  0  0  0  0  0  0  0  0  0  0
  124.0513  131.2390  162.4083 Cl  0  0  0  0  0  0  0  0  0  0  0  0
  125.3376  133.5955  162.0683 C   0  0  0  0  0  0  0  0  0  0  0  0
  126.4166  134.3803  161.6830 C   0  0  0  0  0  0  0  0  0  0  0  0
  126.3594  135.7683  161.8279 N   0  0  0  0  0  0  0  0  0  0  0  0
  127.5868  136.5310  162.0686 C   0  0  0  0  0  0  0  0  0  0  0  0
  127.2730  137.8941  162.7278 C   0  0  0  0  0  0  0  0  0  0  0  0
  128.2561  138.8576  162.1027 C   0  0  0  0  0  0  0  0  0  0  0  0
  128.7801  138.3566  161.0173 C   0  0  0  0  0  0  0  0  0  0  0  0
  128.2340  136.9760  160.7367 C   0  0  0  0  0  0  0  0  0  0  0  0
  127.5554  133.7814  161.1586 C   0  0  0  0  0  0  0  0  0  0  0  0
  131.2101  132.8624  155.9767 H   0  0  0  0  0  0  0  0  0  0  0  0
  130.2628  131.6656  156.8926 H   0  0  0  0  0  0  0  0  0  0  0  0
  129.6086  133.2984  156.6197 H   0  0  0  0  0  0  0  0  0  0  0  0
  132.0220  133.5822  158.0291 H   0  0  0  0  0  0  0  0  0  0  0  0
  130.5904  133.3714  161.2540 H   0  0  0  0  0  0  0  0  0  0  0  0
  132.6652  134.4045  161.3846 H   0  0  0  0  0  0  0  0  0  0  0  0
  133.1182  133.3436  160.0290 H   0  0  0  0  0  0  0  0  0  0  0  0
  132.3869  134.9345  159.7084 H   0  0  0  0  0  0  0  0  0  0  0  0
  129.6385  131.7658  161.2028 H   0  0  0  0  0  0  0  0  0  0  0  0
  128.6203  130.7299  160.1740 H   0  0  0  0  0  0  0  0  0  0  0  0
  126.5826  130.5553  161.2980 H   0  0  0  0  0  0  0  0  0  0  0  0
  124.4511  134.0579  162.4765 H   0  0  0  0  0  0  0  0  0  0  0  0
  125.5068  136.2273  161.7691 H   0  0  0  0  0  0  0  0  0  0  0  0
  128.2894  135.9568  162.6726 H   0  0  0  0  0  0  0  0  0  0  0  0
  126.2500  138.1974  162.5046 H   0  0  0  0  0  0  0  0  0  0  0  0
  127.4270  137.8393  163.8054 H   0  0  0  0  0  0  0  0  0  0  0  0
  128.4939  139.8323  162.5024 H   0  0  0  0  0  0  0  0  0  0  0  0
  129.5087  138.8624  160.4011 H   0  0  0  0  0  0  0  0  0  0  0  0
  129.0412  136.2971  160.4613 H   0  0  0  0  0  0  0  0  0  0  0  0
  127.4855  137.0155  159.9453 H   0  0  0  0  0  0  0  0  0  0  0  0
  128.3962  134.3892  160.8586 H   0  0  0  0  0  0  0  0  0  0  0  0
  1  2  1  0
  1 22  1  0
  1 23  1  0
  1 24  1  0
  2  3  1  0
  2 25  1  0
  3  4  1  0
  3  6  2  0
  4  5  1  0
  4 26  1  0
  5 27  1  0
  5 28  1  0
  5 29  1  0
  6  7  1  0
  6  8  1  0
  8  9  1  0
  8 30  1  0
  8 31  1  0
  9 21  2  0
  9 10  1  0
 10 11  2  0
 10 32  1  0
 11 12  1  0
 11 13  1  0
 13 14  2  0
 13 33  1  0
 14 15  1  0
 14 21  1  0
 15 16  1  0
 15 34  1  0
 16 20  1  0
 16 17  1  0
 16 35  1  0
 17 18  1  0
 17 36  1  0
 17 37  1  0
 18 19  2  0
 18 38  1  0
 19 20  1  0
 19 39  1  0
 20 40  1  0
 20 41  1  0
 21 42  1  0
M  CHG  1   6   1
M  END
>  <DOCK_score>  (1) 
-41.004791

>  <SMILES>  (1) 
CNC(NC)=[NH+]Cc1cc(Cl)cc(NC2CC=CC2)c1

$$$$
