CC[C@@H](O)C=CNc1ccc(NC2=[NH+]CCN2)cc1
     RDKit          3D

 40 41  0  0  1  0  0  0  0  0999 V2000
  127.3049  135.3144  167.7736 C   0  0  0  0  0  0  0  0  0  0  0  0
  126.8810  135.0644  166.3249 C   0  0  0  0  0  0  0  0  0  0  0  0
  127.6370  136.0203  165.4000 C   0  0  1  0  0  0  0  0  0  0  0  0
  127.4056  137.0497  165.6739 H   0  0  0  0  0  0  0  0  0  0  0  0
  129.0424  135.7973  165.5303 O   0  0  0  0  0  0  0  0  0  0  0  0
  127.2195  135.7742  163.9732 C   0  0  0  0  0  0  0  0  0  0  0  0
  126.6670  136.7456  163.2700 C   0  0  0  0  0  0  0  0  0  0  0  0
  126.2820  136.5187  161.9545 N   0  0  0  0  0  0  0  0  0  0  0  0
  127.2336  136.1338  161.0034 C   0  0  0  0  0  0  0  0  0  0  0  0
  126.8612  135.3288  159.9345 C   0  0  0  0  0  0  0  0  0  0  0  0
  127.7991  134.9534  158.9937 C   0  0  0  0  0  0  0  0  0  0  0  0
  129.1171  135.3709  159.1221 C   0  0  0  0  0  0  0  0  0  0  0  0
  130.0704  134.9848  158.1699 N   0  0  0  0  0  0  0  0  0  0  0  0
  129.9360  133.7918  157.5113 C   0  0  0  0  0  0  0  0  0  0  0  0
  129.3540  132.7359  158.0564 N   0  0  0  0  0  0  0  0  0  0  0  0
  128.9764  132.7011  158.9492 H   0  0  0  0  0  0  0  0  0  0  0  0
  129.3674  131.6237  157.0932 C   0  0  0  0  0  0  0  0  0  0  0  0
  130.0831  132.2213  155.8649 C   0  0  0  0  0  0  0  0  0  0  0  0
  130.3825  133.6005  156.2805 N   0  0  0  0  0  0  0  0  0  0  0  0
  129.4909  136.1711  160.1935 C   0  0  0  0  0  0  0  0  0  0  0  0
  128.5521  136.5515  161.1316 C   0  0  0  0  0  0  0  0  0  0  0  0
  128.3770  135.1441  167.8729 H   0  0  0  0  0  0  0  0  0  0  0  0
  126.7663  134.6333  168.4325 H   0  0  0  0  0  0  0  0  0  0  0  0
  127.0737  136.3437  168.0475 H   0  0  0  0  0  0  0  0  0  0  0  0
  127.1122  134.0350  166.0512 H   0  0  0  0  0  0  0  0  0  0  0  0
  125.8089  135.2347  166.2256 H   0  0  0  0  0  0  0  0  0  0  0  0
  129.5850  136.3702  164.9713 H   0  0  0  0  0  0  0  0  0  0  0  0
  127.3720  134.8032  163.5257 H   0  0  0  0  0  0  0  0  0  0  0  0
  126.5145  137.7167  163.7174 H   0  0  0  0  0  0  0  0  0  0  0  0
  125.3537  136.6271  161.6953 H   0  0  0  0  0  0  0  0  0  0  0  0
  125.8370  135.0004  159.8370 H   0  0  0  0  0  0  0  0  0  0  0  0
  127.5087  134.3309  158.1602 H   0  0  0  0  0  0  0  0  0  0  0  0
  130.8253  135.5627  157.9776 H   0  0  0  0  0  0  0  0  0  0  0  0
  128.3522  131.3212  156.8366 H   0  0  0  0  0  0  0  0  0  0  0  0
  129.9308  130.7807  157.4933 H   0  0  0  0  0  0  0  0  0  0  0  0
  129.4242  132.2164  154.9966 H   0  0  0  0  0  0  0  0  0  0  0  0
  131.0027  131.6766  155.6507 H   0  0  0  0  0  0  0  0  0  0  0  0
  130.8361  134.2646  155.7380 H   0  0  0  0  0  0  0  0  0  0  0  0
  130.5162  136.4957  160.2932 H   0  0  0  0  0  0  0  0  0  0  0  0
  128.8429  137.1736  161.9653 H   0  0  0  0  0  0  0  0  0  0  0  0
  1  2  1  0
  1 22  1  0
  1 23  1  0
  1 24  1  0
  2  3  1  0
  2 25  1  0
  2 26  1  0
  3  4  1  1
  3  5  1  0
  3  6  1  0
  5 27  1  0
  6  7  2  0
  6 28  1  0
  7  8  1  0
  7 29  1  0
  8  9  1  0
  8 30  1  0
  9 21  2  0
  9 10  1  0
 10 11  2  0
 10 31  1  0
 11 12  1  0
 11 32  1  0
 12 13  1  0
 12 20  2  0
 13 14  1  0
 13 33  1  0
 14 19  2  0
 14 15  1  0
 15 16  1  0
 15 17  1  0
 17 18  1  0
 17 34  1  0
 17 35  1  0
 18 19  1  0
 18 36  1  0
 18 37  1  0
 19 38  1  0
 20 21  1  0
 20 39  1  0
 21 40  1  0
M  CHG  1  19   1
M  END
>  <DOCK_score>  (1) 
-41.129986

>  <SMILES>  (1) 
CC[C@@H](O)C=CNc1ccc(NC2=[NH+]CCN2)cc1

$$$$
