Cc1c[nH]c(Nc2cc(C3(O)C=CC(=O)C=C3)ccc2C2(O)COC2)[nH+]1
     RDKit          3D

 46 49  0  0  1  0  0  0  0  0999 V2000
  130.6628  131.7554  155.3109 C   0  0  0  0  0  0  0  0  0  0  0  0
  130.5505  132.3534  156.6896 C   0  0  0  0  0  0  0  0  0  0  0  0
  130.1028  131.7209  157.7878 C   0  0  0  0  0  0  0  0  0  0  0  0
  130.1688  132.6227  158.8251 N   0  0  0  0  0  0  0  0  0  0  0  0
  129.9165  132.4604  159.7476 H   0  0  0  0  0  0  0  0  0  0  0  0
  130.6526  133.7858  158.3112 C   0  0  0  0  0  0  0  0  0  0  0  0
  130.8732  134.9557  159.0208 N   0  0  0  0  0  0  0  0  0  0  0  0
  130.0806  135.2595  160.1312 C   0  0  0  0  0  0  0  0  0  0  0  0
  128.7652  134.8161  160.1900 C   0  0  0  0  0  0  0  0  0  0  0  0
  127.9849  135.1183  161.2885 C   0  0  0  0  0  0  0  0  0  0  0  0
  126.5579  134.6384  161.3529 C   0  0  0  0  0  0  0  0  0  0  0  0
  125.8015  135.5521  162.1498 O   0  0  0  0  0  0  0  0  0  0  0  0
  125.9916  134.6243  159.9680 C   0  0  0  0  0  0  0  0  0  0  0  0
  125.8192  133.5135  159.2672 C   0  0  0  0  0  0  0  0  0  0  0  0
  126.1793  132.2158  159.8684 C   0  0  0  0  0  0  0  0  0  0  0  0
  126.3194  131.2214  159.1812 O   0  0  0  0  0  0  0  0  0  0  0  0
  126.3631  132.1639  161.3308 C   0  0  0  0  0  0  0  0  0  0  0  0
  126.5313  133.2929  162.0066 C   0  0  0  0  0  0  0  0  0  0  0  0
  128.5098  135.8660  162.3269 C   0  0  0  0  0  0  0  0  0  0  0  0
  129.8200  136.3043  162.2740 C   0  0  0  0  0  0  0  0  0  0  0  0
  130.6063  136.0055  161.1783 C   0  0  0  0  0  0  0  0  0  0  0  0
  132.0323  136.4890  161.1187 C   0  0  0  0  0  0  0  0  0  0  0  0
  132.1989  137.6341  160.2802 O   0  0  0  0  0  0  0  0  0  0  0  0
  133.0582  135.3697  160.8586 C   0  0  0  0  0  0  0  0  0  0  0  0
  133.8482  136.0118  161.8796 O   0  0  0  0  0  0  0  0  0  0  0  0
  132.7008  136.6266  162.4996 C   0  0  0  0  0  0  0  0  0  0  0  0
  130.8801  133.6104  157.0310 N   0  0  0  0  0  0  0  0  0  0  0  0
  131.2315  134.2824  156.4262 H   0  0  0  0  0  0  0  0  0  0  0  0
  131.6470  131.3027  155.1903 H   0  0  0  0  0  0  0  0  0  0  0  0
  129.8941  130.9935  155.1817 H   0  0  0  0  0  0  0  0  0  0  0  0
  130.5286  132.5374  154.5636 H   0  0  0  0  0  0  0  0  0  0  0  0
  129.7598  130.6984  157.8457 H   0  0  0  0  0  0  0  0  0  0  0  0
  131.5776  135.5637  158.7468 H   0  0  0  0  0  0  0  0  0  0  0  0
  128.3535  134.2355  159.3777 H   0  0  0  0  0  0  0  0  0  0  0  0
  125.7903  136.4565  161.8073 H   0  0  0  0  0  0  0  0  0  0  0  0
  125.7114  135.5647  159.5166 H   0  0  0  0  0  0  0  0  0  0  0  0
  125.4170  133.5572  158.2657 H   0  0  0  0  0  0  0  0  0  0  0  0
  126.3605  131.2154  161.8470 H   0  0  0  0  0  0  0  0  0  0  0  0
  126.6543  133.2384  163.0780 H   0  0  0  0  0  0  0  0  0  0  0  0
  127.8960  136.1045  163.1830 H   0  0  0  0  0  0  0  0  0  0  0  0
  130.2282  136.8844  163.0885 H   0  0  0  0  0  0  0  0  0  0  0  0
  131.9425  137.4877  159.3593 H   0  0  0  0  0  0  0  0  0  0  0  0
  132.7055  134.3757  161.1339 H   0  0  0  0  0  0  0  0  0  0  0  0
  133.5073  135.4050  159.8661 H   0  0  0  0  0  0  0  0  0  0  0  0
  132.8666  137.6587  162.8083 H   0  0  0  0  0  0  0  0  0  0  0  0
  132.2377  136.0180  163.2763 H   0  0  0  0  0  0  0  0  0  0  0  0
  1  2  1  0
  1 29  1  0
  1 30  1  0
  1 31  1  0
  2 27  1  0
  2  3  2  0
  3  4  1  0
  3 32  1  0
  4  5  1  0
  4  6  1  0
  6  7  1  0
  6 27  2  0
  7  8  1  0
  7 33  1  0
  8 21  1  0
  8  9  2  0
  9 10  1  0
  9 34  1  0
 10 11  1  0
 10 19  2  0
 11 18  1  0
 11 12  1  0
 11 13  1  0
 12 35  1  0
 13 14  2  0
 13 36  1  0
 14 15  1  0
 14 37  1  0
 15 16  2  0
 15 17  1  0
 17 18  2  0
 17 38  1  0
 18 39  1  0
 19 20  1  0
 19 40  1  0
 20 21  2  0
 20 41  1  0
 21 22  1  0
 22 26  1  0
 22 23  1  0
 22 24  1  0
 23 42  1  0
 24 25  1  0
 24 43  1  0
 24 44  1  0
 25 26  1  0
 26 45  1  0
 26 46  1  0
 27 28  1  0
M  CHG  1  27   1
M  END
>  <DOCK_score>  (1) 
-52.657276

>  <SMILES>  (1) 
Cc1c[nH]c(Nc2cc(C3(O)C=CC(=O)C=C3)ccc2C2(O)COC2)[nH+]1

$$$$
