Cc1cc(CNc2[nH]c(CCC(=O)Nc3ccccc3)c[nH+]2)c2ncccc2c1
     RDKit          3D

 53 56  0  0  1  0  0  0  0  0999 V2000
  133.3331  139.8981  160.1501 C   0  0  0  0  0  0  0  0  0  0  0  0
  133.6797  138.5938  160.8205 C   0  0  0  0  0  0  0  0  0  0  0  0
  132.7791  137.5318  160.7652 C   0  0  0  0  0  0  0  0  0  0  0  0
  133.0609  136.3403  161.3594 C   0  0  0  0  0  0  0  0  0  0  0  0
  132.0715  135.2061  161.2869 C   0  0  0  0  0  0  0  0  0  0  0  0
  131.5635  135.0881  159.9179 N   0  0  0  0  0  0  0  0  0  0  0  0
  130.2823  134.6122  159.6933 C   0  0  0  0  0  0  0  0  0  0  0  0
  129.3999  134.2203  160.6514 N   0  0  0  0  0  0  0  0  0  0  0  0
  129.5502  134.2224  161.6097 H   0  0  0  0  0  0  0  0  0  0  0  0
  128.2510  133.8257  160.0036 C   0  0  0  0  0  0  0  0  0  0  0  0
  126.9883  133.3147  160.6483 C   0  0  0  0  0  0  0  0  0  0  0  0
  126.0546  134.4904  160.9434 C   0  0  0  0  0  0  0  0  0  0  0  0
  126.7403  135.4546  161.8765 C   0  0  0  0  0  0  0  0  0  0  0  0
  127.8653  135.2244  162.2672 O   0  0  0  0  0  0  0  0  0  0  0  0
  126.1036  136.5730  162.2770 N   0  0  0  0  0  0  0  0  0  0  0  0
  126.7404  137.4684  163.1434 C   0  0  0  0  0  0  0  0  0  0  0  0
  125.9908  138.2339  164.0271 C   0  0  0  0  0  0  0  0  0  0  0  0
  126.6227  139.1135  164.8840 C   0  0  0  0  0  0  0  0  0  0  0  0
  127.9994  139.2399  164.8558 C   0  0  0  0  0  0  0  0  0  0  0  0
  128.7482  138.4827  163.9738 C   0  0  0  0  0  0  0  0  0  0  0  0
  128.1228  137.5978  163.1175 C   0  0  0  0  0  0  0  0  0  0  0  0
  128.4698  133.9833  158.6872 C   0  0  0  0  0  0  0  0  0  0  0  0
  129.7148  134.4607  158.5200 N   0  0  0  0  0  0  0  0  0  0  0  0
  130.1277  134.6647  157.6664 H   0  0  0  0  0  0  0  0  0  0  0  0
  134.2764  136.1738  162.0461 C   0  0  0  0  0  0  0  0  0  0  0  0
  134.5780  135.0168  162.6440 N   0  0  0  0  0  0  0  0  0  0  0  0
  135.7096  134.8560  163.2860 C   0  0  0  0  0  0  0  0  0  0  0  0
  136.6519  135.8782  163.3778 C   0  0  0  0  0  0  0  0  0  0  0  0
  136.4115  137.0825  162.7800 C   0  0  0  0  0  0  0  0  0  0  0  0
  135.1927  137.2532  162.0965 C   0  0  0  0  0  0  0  0  0  0  0  0
  134.8686  138.4683  161.4717 C   0  0  0  0  0  0  0  0  0  0  0  0
  132.8084  140.5416  160.8564 H   0  0  0  0  0  0  0  0  0  0  0  0
  134.2474  140.3910  159.8197 H   0  0  0  0  0  0  0  0  0  0  0  0
  132.6927  139.7054  159.2894 H   0  0  0  0  0  0  0  0  0  0  0  0
  131.8424  137.6560  160.2421 H   0  0  0  0  0  0  0  0  0  0  0  0
  131.2423  135.4033  161.9663 H   0  0  0  0  0  0  0  0  0  0  0  0
  132.5630  134.2763  161.5735 H   0  0  0  0  0  0  0  0  0  0  0  0
  132.1244  135.3430  159.1687 H   0  0  0  0  0  0  0  0  0  0  0  0
  126.4923  132.6174  159.9733 H   0  0  0  0  0  0  0  0  0  0  0  0
  127.2362  132.8051  161.5794 H   0  0  0  0  0  0  0  0  0  0  0  0
  125.8066  134.9999  160.0122 H   0  0  0  0  0  0  0  0  0  0  0  0
  125.1413  134.1208  161.4097 H   0  0  0  0  0  0  0  0  0  0  0  0
  125.2040  136.7572  161.9646 H   0  0  0  0  0  0  0  0  0  0  0  0
  124.9152  138.1384  164.0467 H   0  0  0  0  0  0  0  0  0  0  0  0
  126.0405  139.7062  165.5741 H   0  0  0  0  0  0  0  0  0  0  0  0
  128.4909  139.9318  165.5239 H   0  0  0  0  0  0  0  0  0  0  0  0
  129.8234  138.5838  163.9542 H   0  0  0  0  0  0  0  0  0  0  0  0
  128.7083  137.0072  162.4284 H   0  0  0  0  0  0  0  0  0  0  0  0
  127.7654  133.7638  157.8984 H   0  0  0  0  0  0  0  0  0  0  0  0
  135.9170  133.9060  163.7558 H   0  0  0  0  0  0  0  0  0  0  0  0
  137.5754  135.7154  163.9135 H   0  0  0  0  0  0  0  0  0  0  0  0
  137.1307  137.8859  162.8412 H   0  0  0  0  0  0  0  0  0  0  0  0
  135.5582  139.2987  161.5081 H   0  0  0  0  0  0  0  0  0  0  0  0
  1  2  1  0
  1 32  1  0
  1 33  1  0
  1 34  1  0
  2 31  2  0
  2  3  1  0
  3  4  2  0
  3 35  1  0
  4  5  1  0
  4 25  1  0
  5  6  1  0
  5 36  1  0
  5 37  1  0
  6 38  1  0
  7  6  1  0
  7 23  2  0
  7  8  1  0
  8  9  1  0
  8 10  1  0
 10 11  1  0
 10 22  2  0
 11 12  1  0
 11 39  1  0
 11 40  1  0
 12 13  1  0
 12 41  1  0
 12 42  1  0
 13 14  2  0
 13 15  1  0
 15 16  1  0
 15 43  1  0
 16 21  1  0
 16 17  2  0
 17 18  1  0
 17 44  1  0
 18 19  2  0
 18 45  1  0
 19 20  1  0
 19 46  1  0
 20 21  2  0
 20 47  1  0
 21 48  1  0
 22 23  1  0
 22 49  1  0
 23 24  1  0
 25 30  2  0
 25 26  1  0
 26 27  2  0
 27 28  1  0
 27 50  1  0
 28 29  2  0
 28 51  1  0
 29 30  1  0
 29 52  1  0
 30 31  1  0
 31 53  1  0
M  CHG  1  23   1
M  END
>  <DOCK_score>  (1) 
-43.229752

>  <SMILES>  (1) 
Cc1cc(CNc2[nH]c(CCC(=O)Nc3ccccc3)c[nH+]2)c2ncccc2c1

$$$$
