[NH3+][C@@H](C(=O)Nc1cc(O)cc(O)c1)c1cccc(OCC2CC2(F)F)c1
     RDKit          3D

 45 47  0  0  1  0  0  0  0  0999 V2000
  130.6150  134.3257  157.5335 N   0  0  0  0  0  0  0  0  0  0  0  0
  129.9972  134.4872  156.7521 H   0  0  0  0  0  0  0  0  0  0  0  0
  131.5052  134.7660  157.3552 H   0  0  0  0  0  0  0  0  0  0  0  0
  130.7490  133.3333  157.6568 H   0  0  0  0  0  0  0  0  0  0  0  0
  130.0226  134.8947  158.7514 C   0  0  1  0  0  0  0  0  0  0  0  0
  129.8776  135.9668  158.6184 H   0  0  0  0  0  0  0  0  0  0  0  0
  128.6930  134.2373  159.0178 C   0  0  0  0  0  0  0  0  0  0  0  0
  128.2795  133.3792  158.2669 O   0  0  0  0  0  0  0  0  0  0  0  0
  127.9633  134.6028  160.0904 N   0  0  0  0  0  0  0  0  0  0  0  0
  126.7290  133.9923  160.3379 C   0  0  0  0  0  0  0  0  0  0  0  0
  126.5091  132.6821  159.9354 C   0  0  0  0  0  0  0  0  0  0  0  0
  125.2875  132.0761  160.1857 C   0  0  0  0  0  0  0  0  0  0  0  0
  125.0740  130.7916  159.7966 O   0  0  0  0  0  0  0  0  0  0  0  0
  124.2814  132.7823  160.8280 C   0  0  0  0  0  0  0  0  0  0  0  0
  124.4986  134.0930  161.2258 C   0  0  0  0  0  0  0  0  0  0  0  0
  123.5122  134.7842  161.8551 O   0  0  0  0  0  0  0  0  0  0  0  0
  125.7216  134.6984  160.9811 C   0  0  0  0  0  0  0  0  0  0  0  0
  130.9449  134.6536  159.9186 C   0  0  0  0  0  0  0  0  0  0  0  0
  130.8182  133.5015  160.6728 C   0  0  0  0  0  0  0  0  0  0  0  0
  131.6624  133.2777  161.7444 C   0  0  0  0  0  0  0  0  0  0  0  0
  132.6398  134.2018  162.0601 C   0  0  0  0  0  0  0  0  0  0  0  0
  132.7657  135.3607  161.3083 C   0  0  0  0  0  0  0  0  0  0  0  0
  133.7226  136.2739  161.6203 O   0  0  0  0  0  0  0  0  0  0  0  0
  134.1040  136.3703  162.9941 C   0  0  0  0  0  0  0  0  0  0  0  0
  135.1839  137.4429  163.1495 C   0  0  1  0  0  0  0  0  0  0  0  0
  134.7236  138.8699  163.4541 C   0  0  0  0  0  0  0  0  0  0  0  0
  135.3970  138.0341  164.5445 C   0  0  0  0  0  0  0  0  0  0  0  0
  136.7036  138.3779  164.9076 F   0  0  0  0  0  0  0  0  0  0  0  0
  134.5896  137.5527  165.5806 F   0  0  0  0  0  0  0  0  0  0  0  0
  131.9167  135.5833  160.2336 C   0  0  0  0  0  0  0  0  0  0  0  0
  128.2940  135.2891  160.6909 H   0  0  0  0  0  0  0  0  0  0  0  0
  127.2909  132.1337  159.4308 H   0  0  0  0  0  0  0  0  0  0  0  0
  124.1936  130.4560  160.0142 H   0  0  0  0  0  0  0  0  0  0  0  0
  123.3285  132.3110  161.0188 H   0  0  0  0  0  0  0  0  0  0  0  0
  123.7566  135.6889  162.0936 H   0  0  0  0  0  0  0  0  0  0  0  0
  125.8908  135.7189  161.2913 H   0  0  0  0  0  0  0  0  0  0  0  0
  130.0579  132.7757  160.4247 H   0  0  0  0  0  0  0  0  0  0  0  0
  131.5612  132.3773  162.3322 H   0  0  0  0  0  0  0  0  0  0  0  0
  133.3023  134.0241  162.8944 H   0  0  0  0  0  0  0  0  0  0  0  0
  134.4947  135.4100  163.3309 H   0  0  0  0  0  0  0  0  0  0  0  0
  133.2352  136.6398  163.5944 H   0  0  0  0  0  0  0  0  0  0  0  0
  136.0618  137.3219  162.5147 H   0  0  0  0  0  0  0  0  0  0  0  0
  133.6516  139.0445  163.5439 H   0  0  0  0  0  0  0  0  0  0  0  0
  135.2985  139.6876  163.0197 H   0  0  0  0  0  0  0  0  0  0  0  0
  132.0158  136.4825  159.6437 H   0  0  0  0  0  0  0  0  0  0  0  0
  1  2  1  0
  1  3  1  0
  1  4  1  0
  1  5  1  0
  5  6  1  6
  5  7  1  0
  5 18  1  0
  7  8  2  0
  7  9  1  0
  9 10  1  0
  9 31  1  0
 10 17  1  0
 10 11  2  0
 11 12  1  0
 11 32  1  0
 12 13  1  0
 12 14  2  0
 13 33  1  0
 14 15  1  0
 14 34  1  0
 15 16  1  0
 15 17  2  0
 16 35  1  0
 17 36  1  0
 18 30  1  0
 18 19  2  0
 19 20  1  0
 19 37  1  0
 20 21  2  0
 20 38  1  0
 21 22  1  0
 21 39  1  0
 22 23  1  0
 22 30  2  0
 23 24  1  0
 24 25  1  0
 24 40  1  0
 24 41  1  0
 25 27  1  0
 25 26  1  0
 25 42  1  6
 26 27  1  0
 26 43  1  0
 26 44  1  0
 27 28  1  0
 27 29  1  0
 30 45  1  0
M  CHG  1   1   1
M  END
>  <DOCK_score>  (1) 
-41.142765

>  <SMILES>  (1) 
[NH3+][C@@H](C(=O)Nc1cc(O)cc(O)c1)c1cccc(OCC2CC2(F)F)c1

$$$$
