Cc1nn(C2CC2)cc1N[C@H]1C[C@@H](O)C[C@H]1NC1=[NH+]C[C@@H](C)N1
     RDKit          3D

 50 53  0  0  1  0  0  0  0  0999 V2000
  131.9426  139.1679  158.7135 C   0  0  0  0  0  0  0  0  0  0  0  0
  132.3790  138.2385  159.8166 C   0  0  0  0  0  0  0  0  0  0  0  0
  133.6097  138.0552  160.2215 N   0  0  0  0  0  0  0  0  0  0  0  0
  133.5976  137.1125  161.2574 N   0  0  0  0  0  0  0  0  0  0  0  0
  134.7677  136.6176  161.9871 C   0  0  0  0  0  0  0  0  0  0  0  0
  135.0695  137.2472  163.3486 C   0  0  0  0  0  0  0  0  0  0  0  0
  135.9564  137.5678  162.1438 C   0  0  0  0  0  0  0  0  0  0  0  0
  132.3071  136.7378  161.4653 C   0  0  0  0  0  0  0  0  0  0  0  0
  131.5349  137.4252  160.5861 C   0  0  0  0  0  0  0  0  0  0  0  0
  130.1352  137.3333  160.4642 N   0  0  0  0  0  0  0  0  0  0  0  0
  129.3809  136.4353  161.3423 C   0  0  1  0  0  0  0  0  0  0  0  0
  129.7860  136.4750  162.3534 H   0  0  0  0  0  0  0  0  0  0  0  0
  127.8910  136.8351  161.3528 C   0  0  0  0  0  0  0  0  0  0  0  0
  127.1357  135.4843  161.4170 C   0  0  1  0  0  0  0  0  0  0  0  0
  127.1105  135.1040  162.4380 H   0  0  0  0  0  0  0  0  0  0  0  0
  125.8118  135.6192  160.8962 O   0  0  0  0  0  0  0  0  0  0  0  0
  127.9934  134.5686  160.5074 C   0  0  0  0  0  0  0  0  0  0  0  0
  129.4459  134.9951  160.8046 C   0  0  1  0  0  0  0  0  0  0  0  0
  129.8823  134.3357  161.5548 H   0  0  0  0  0  0  0  0  0  0  0  0
  130.2424  134.9536  159.5758 N   0  0  0  0  0  0  0  0  0  0  0  0
  130.4337  133.7601  158.9206 C   0  0  0  0  0  0  0  0  0  0  0  0
  131.1256  133.6598  157.8329 N   0  0  0  0  0  0  0  0  0  0  0  0
  131.5668  134.3982  157.3847 H   0  0  0  0  0  0  0  0  0  0  0  0
  131.1466  132.2635  157.3751 C   0  0  0  0  0  0  0  0  0  0  0  0
  130.3074  131.5129  158.4282 C   0  0  1  0  0  0  0  0  0  0  0  0
  129.4312  131.0566  157.9677 H   0  0  0  0  0  0  0  0  0  0  0  0
  131.1551  130.4578  159.1418 C   0  0  0  0  0  0  0  0  0  0  0  0
  129.9078  132.5776  159.3634 N   0  0  0  0  0  0  0  0  0  0  0  0
  131.7282  140.1519  159.1309 H   0  0  0  0  0  0  0  0  0  0  0  0
  132.7386  139.2528  157.9737 H   0  0  0  0  0  0  0  0  0  0  0  0
  131.0454  138.7717  158.2381 H   0  0  0  0  0  0  0  0  0  0  0  0
  134.9843  135.5565  161.8638 H   0  0  0  0  0  0  0  0  0  0  0  0
  134.3975  138.0296  163.7013 H   0  0  0  0  0  0  0  0  0  0  0  0
  135.4846  136.6003  164.1213 H   0  0  0  0  0  0  0  0  0  0  0  0
  136.9553  137.1319  162.1241 H   0  0  0  0  0  0  0  0  0  0  0  0
  135.8680  138.5612  161.7039 H   0  0  0  0  0  0  0  0  0  0  0  0
  131.9600  136.0230  162.1966 H   0  0  0  0  0  0  0  0  0  0  0  0
  129.6704  137.8645  159.7989 H   0  0  0  0  0  0  0  0  0  0  0  0
  127.6646  137.4408  162.2304 H   0  0  0  0  0  0  0  0  0  0  0  0
  127.6339  137.3731  160.4403 H   0  0  0  0  0  0  0  0  0  0  0  0
  125.2589  136.2444  161.3843 H   0  0  0  0  0  0  0  0  0  0  0  0
  127.7525  134.7400  159.4581 H   0  0  0  0  0  0  0  0  0  0  0  0
  127.8423  133.5212  160.7682 H   0  0  0  0  0  0  0  0  0  0  0  0
  130.6349  135.7681  159.2245 H   0  0  0  0  0  0  0  0  0  0  0  0
  132.1677  131.8824  157.3577 H   0  0  0  0  0  0  0  0  0  0  0  0
  130.6901  132.1756  156.3892 H   0  0  0  0  0  0  0  0  0  0  0  0
  131.9947  130.9424  159.6401 H   0  0  0  0  0  0  0  0  0  0  0  0
  130.5439  129.9397  159.8807 H   0  0  0  0  0  0  0  0  0  0  0  0
  131.5306  129.7396  158.4129 H   0  0  0  0  0  0  0  0  0  0  0  0
  129.3641  132.4604  160.1582 H   0  0  0  0  0  0  0  0  0  0  0  0
  1  2  1  0
  1 29  1  0
  1 30  1  0
  1 31  1  0
  2  9  1  0
  2  3  2  0
  3  4  1  0
  4  5  1  0
  4  8  1  0
  5  7  1  0
  5  6  1  0
  5 32  1  0
  6  7  1  0
  6 33  1  0
  6 34  1  0
  7 35  1  0
  7 36  1  0
  8  9  2  0
  8 37  1  0
  9 10  1  0
 10 11  1  0
 10 38  1  0
 11 12  1  1
 11 18  1  0
 11 13  1  0
 13 14  1  0
 13 39  1  0
 13 40  1  0
 14 15  1  1
 14 16  1  0
 14 17  1  0
 16 41  1  0
 17 18  1  0
 17 42  1  0
 17 43  1  0
 18 19  1  1
 18 20  1  0
 20 44  1  0
 21 20  1  0
 21 28  1  0
 21 22  2  0
 22 23  1  0
 22 24  1  0
 24 25  1  0
 24 45  1  0
 24 46  1  0
 25 26  1  6
 25 27  1  0
 25 28  1  0
 27 47  1  0
 27 48  1  0
 27 49  1  0
 28 50  1  0
M  CHG  1  22   1
M  END
>  <DOCK_score>  (1) 
-44.066029

>  <SMILES>  (1) 
Cc1nn(C2CC2)cc1N[C@H]1C[C@@H](O)C[C@H]1NC1=[NH+]C[C@@H](C)N1

$$$$
