c1ccc(-c2ccc(-c3c[nH]c(NC[C@H]4CCc5ccccc5C4)[nH+]3)cc2)cc1
     RDKit          3D

 55 59  0  0  1  0  0  0  0  0999 V2000
  130.2915  128.9025  150.3907 C   0  0  0  0  0  0  0  0  0  0  0  0
  130.2406  130.2840  150.4434 C   0  0  0  0  0  0  0  0  0  0  0  0
  130.3464  130.9353  151.6555 C   0  0  0  0  0  0  0  0  0  0  0  0
  130.5047  130.1985  152.8281 C   0  0  0  0  0  0  0  0  0  0  0  0
  130.6190  130.8925  154.1336 C   0  0  0  0  0  0  0  0  0  0  0  0
  129.9819  132.1174  154.3302 C   0  0  0  0  0  0  0  0  0  0  0  0
  130.0835  132.7596  155.5444 C   0  0  0  0  0  0  0  0  0  0  0  0
  130.8283  132.1874  156.5758 C   0  0  0  0  0  0  0  0  0  0  0  0
  130.9382  132.8787  157.8825 C   0  0  0  0  0  0  0  0  0  0  0  0
  130.5427  132.3852  159.0828 C   0  0  0  0  0  0  0  0  0  0  0  0
  130.8261  133.3466  160.0219 N   0  0  0  0  0  0  0  0  0  0  0  0
  130.6573  133.2858  160.9751 H   0  0  0  0  0  0  0  0  0  0  0  0
  131.3869  134.4004  159.3681 C   0  0  0  0  0  0  0  0  0  0  0  0
  131.8174  135.5773  159.9562 N   0  0  0  0  0  0  0  0  0  0  0  0
  131.3130  135.9639  161.2761 C   0  0  0  0  0  0  0  0  0  0  0  0
  132.4831  136.0814  162.2549 C   0  0  1  0  0  0  0  0  0  0  0  0
  132.1136  136.0148  163.2782 H   0  0  0  0  0  0  0  0  0  0  0  0
  133.4897  134.9547  161.9941 C   0  0  0  0  0  0  0  0  0  0  0  0
  134.5128  134.9516  163.1284 C   0  0  0  0  0  0  0  0  0  0  0  0
  135.0836  136.3310  163.3302 C   0  0  0  0  0  0  0  0  0  0  0  0
  136.2696  136.4419  164.0449 C   0  0  0  0  0  0  0  0  0  0  0  0
  136.8394  137.6778  164.2698 C   0  0  0  0  0  0  0  0  0  0  0  0
  136.2263  138.8159  163.7797 C   0  0  0  0  0  0  0  0  0  0  0  0
  135.0501  138.7076  163.0674 C   0  0  0  0  0  0  0  0  0  0  0  0
  134.4752  137.4639  162.8389 C   0  0  0  0  0  0  0  0  0  0  0  0
  133.1926  137.4183  162.0502 C   0  0  0  0  0  0  0  0  0  0  0  0
  131.4578  134.1149  158.0909 N   0  0  0  0  0  0  0  0  0  0  0  0
  131.8214  134.6953  157.4041 H   0  0  0  0  0  0  0  0  0  0  0  0
  131.4698  130.9647  156.3773 C   0  0  0  0  0  0  0  0  0  0  0  0
  131.3679  130.3228  155.1630 C   0  0  0  0  0  0  0  0  0  0  0  0
  130.5611  128.8070  152.7683 C   0  0  0  0  0  0  0  0  0  0  0  0
  130.4489  128.1662  151.5512 C   0  0  0  0  0  0  0  0  0  0  0  0
  130.2083  128.3970  149.4400 H   0  0  0  0  0  0  0  0  0  0  0  0
  130.1176  130.8538  149.5343 H   0  0  0  0  0  0  0  0  0  0  0  0
  130.3070  132.0137  151.6954 H   0  0  0  0  0  0  0  0  0  0  0  0
  129.4050  132.5603  153.5317 H   0  0  0  0  0  0  0  0  0  0  0  0
  129.5865  133.7059  155.6980 H   0  0  0  0  0  0  0  0  0  0  0  0
  130.0916  131.4210  159.2650 H   0  0  0  0  0  0  0  0  0  0  0  0
  132.4532  136.1460  159.4944 H   0  0  0  0  0  0  0  0  0  0  0  0
  130.8026  136.9242  161.2030 H   0  0  0  0  0  0  0  0  0  0  0  0
  130.6145  135.2076  161.6340 H   0  0  0  0  0  0  0  0  0  0  0  0
  132.9698  133.9971  161.9662 H   0  0  0  0  0  0  0  0  0  0  0  0
  133.9951  135.1265  161.0437 H   0  0  0  0  0  0  0  0  0  0  0  0
  135.3197  134.2611  162.8829 H   0  0  0  0  0  0  0  0  0  0  0  0
  134.0280  134.6251  164.0484 H   0  0  0  0  0  0  0  0  0  0  0  0
  136.7490  135.5532  164.4280 H   0  0  0  0  0  0  0  0  0  0  0  0
  137.7617  137.7559  164.8265 H   0  0  0  0  0  0  0  0  0  0  0  0
  136.6669  139.7865  163.9540 H   0  0  0  0  0  0  0  0  0  0  0  0
  134.5717  139.5972  162.6851 H   0  0  0  0  0  0  0  0  0  0  0  0
  133.4169  137.5477  160.9913 H   0  0  0  0  0  0  0  0  0  0  0  0
  132.5395  138.2262  162.3803 H   0  0  0  0  0  0  0  0  0  0  0  0
  132.0466  130.5217  157.1757 H   0  0  0  0  0  0  0  0  0  0  0  0
  131.8643  129.3760  155.0094 H   0  0  0  0  0  0  0  0  0  0  0  0
  130.6884  128.2313  153.6731 H   0  0  0  0  0  0  0  0  0  0  0  0
  130.4882  127.0878  151.5041 H   0  0  0  0  0  0  0  0  0  0  0  0
  1 32  2  0
  1  2  1  0
  1 33  1  0
  2  3  2  0
  2 34  1  0
  3  4  1  0
  3 35  1  0
  4  5  1  0
  4 31  2  0
  5 30  1  0
  5  6  2  0
  6  7  1  0
  6 36  1  0
  7  8  2  0
  7 37  1  0
  8  9  1  0
  8 29  1  0
  9 27  1  0
  9 10  2  0
 10 11  1  0
 10 38  1  0
 11 12  1  0
 11 13  1  0
 13 14  1  0
 13 27  2  0
 14 15  1  0
 14 39  1  0
 15 16  1  0
 15 40  1  0
 15 41  1  0
 16 17  1  1
 16 26  1  0
 16 18  1  0
 18 19  1  0
 18 42  1  0
 18 43  1  0
 19 20  1  0
 19 44  1  0
 19 45  1  0
 20 25  2  0
 20 21  1  0
 21 22  2  0
 21 46  1  0
 22 23  1  0
 22 47  1  0
 23 24  2  0
 23 48  1  0
 24 25  1  0
 24 49  1  0
 25 26  1  0
 26 50  1  0
 26 51  1  0
 27 28  1  0
 29 30  2  0
 29 52  1  0
 30 53  1  0
 31 32  1  0
 31 54  1  0
 32 55  1  0
M  CHG  1  27   1
M  END
>  <DOCK_score>  (1) 
-60.14489

>  <SMILES>  (1) 
c1ccc(-c2ccc(-c3c[nH]c(NC[C@H]4CCc5ccccc5C4)[nH+]3)cc2)cc1

$$$$
