Br/C=C/CNc1cccc([C@@H]2CCCC(NC3=[NH+]CCN3)C2)c1
     RDKit          3D

 49 51  0  0  1  0  0  0  0  0999 V2000
  129.1415  140.2358  161.3998 Br  0  0  0  0  0  0  0  0  0  0  0  0
  128.9897  138.4294  160.8613 C   0  0  0  0  0  0  0  0  0  0  0  0
  128.3684  137.5666  161.6286 C   0  0  0  0  0  0  0  0  0  0  0  0
  128.2475  136.1270  161.1996 C   0  0  0  0  0  0  0  0  0  0  0  0
  126.8314  135.7680  161.0886 N   0  0  0  0  0  0  0  0  0  0  0  0
  126.4667  134.4761  160.7028 C   0  0  0  0  0  0  0  0  0  0  0  0
  125.1934  133.9981  160.9863 C   0  0  0  0  0  0  0  0  0  0  0  0
  124.8363  132.7203  160.6038 C   0  0  0  0  0  0  0  0  0  0  0  0
  125.7448  131.9162  159.9396 C   0  0  0  0  0  0  0  0  0  0  0  0
  127.0109  132.3908  159.6508 C   0  0  0  0  0  0  0  0  0  0  0  0
  127.9954  131.5134  158.9214 C   0  0  2  0  0  0  0  0  0  0  0  0
  127.4567  130.8325  158.2626 H   0  0  0  0  0  0  0  0  0  0  0  0
  128.8077  130.7057  159.9359 C   0  0  0  0  0  0  0  0  0  0  0  0
  129.8073  129.8149  159.1954 C   0  0  0  0  0  0  0  0  0  0  0  0
  130.7508  130.6876  158.3655 C   0  0  0  0  0  0  0  0  0  0  0  0
  129.9386  131.4952  157.3512 C   0  0  2  0  0  0  0  0  0  0  0  0
  130.8422  132.3310  156.5565 N   0  0  0  0  0  0  0  0  0  0  0  0
  130.9012  132.1750  155.1989 C   0  0  0  0  0  0  0  0  0  0  0  0
  131.1858  133.1717  154.3767 N   0  0  0  0  0  0  0  0  0  0  0  0
  131.3747  134.0844  154.6451 H   0  0  0  0  0  0  0  0  0  0  0  0
  131.1735  132.6763  152.9914 C   0  0  0  0  0  0  0  0  0  0  0  0
  130.8147  131.1845  153.1471 C   0  0  0  0  0  0  0  0  0  0  0  0
  130.6732  131.0165  154.6020 N   0  0  0  0  0  0  0  0  0  0  0  0
  128.9391  132.3862  158.0916 C   0  0  0  0  0  0  0  0  0  0  0  0
  127.3765  133.6662  160.0352 C   0  0  0  0  0  0  0  0  0  0  0  0
  129.4147  138.1085  159.9218 H   0  0  0  0  0  0  0  0  0  0  0  0
  127.9434  137.8876  162.5683 H   0  0  0  0  0  0  0  0  0  0  0  0
  128.7279  135.4861  161.9388 H   0  0  0  0  0  0  0  0  0  0  0  0
  128.7329  135.9940  160.2328 H   0  0  0  0  0  0  0  0  0  0  0  0
  126.1471  136.4275  161.2830 H   0  0  0  0  0  0  0  0  0  0  0  0
  124.4836  134.6254  161.5049 H   0  0  0  0  0  0  0  0  0  0  0  0
  123.8467  132.3482  160.8238 H   0  0  0  0  0  0  0  0  0  0  0  0
  125.4631  130.9171  159.6418 H   0  0  0  0  0  0  0  0  0  0  0  0
  129.3464  131.3866  160.5947 H   0  0  0  0  0  0  0  0  0  0  0  0
  128.1354  130.0840  160.5271 H   0  0  0  0  0  0  0  0  0  0  0  0
  130.3858  129.2395  159.9180 H   0  0  0  0  0  0  0  0  0  0  0  0
  129.2684  129.1339  158.5365 H   0  0  0  0  0  0  0  0  0  0  0  0
  131.2896  131.3686  159.0244 H   0  0  0  0  0  0  0  0  0  0  0  0
  131.4629  130.0531  157.8380 H   0  0  0  0  0  0  0  0  0  0  0  0
  129.3999  130.8145  156.6922 H   0  0  0  0  0  0  0  0  0  0  0  0
  131.3986  132.9949  156.9931 H   0  0  0  0  0  0  0  0  0  0  0  0
  132.1550  132.7890  152.5309 H   0  0  0  0  0  0  0  0  0  0  0  0
  130.4142  133.1945  152.4059 H   0  0  0  0  0  0  0  0  0  0  0  0
  131.6176  130.5545  152.7642 H   0  0  0  0  0  0  0  0  0  0  0  0
  129.8761  130.9580  152.6414 H   0  0  0  0  0  0  0  0  0  0  0  0
  130.4484  130.1874  155.0524 H   0  0  0  0  0  0  0  0  0  0  0  0
  128.3605  132.9616  157.3690 H   0  0  0  0  0  0  0  0  0  0  0  0
  129.4779  133.0671  158.7505 H   0  0  0  0  0  0  0  0  0  0  0  0
  128.3670  134.0349  159.8130 H   0  0  0  0  0  0  0  0  0  0  0  0
  1  2  1  0
  2  3  2  0
  2 26  1  0
  3  4  1  0
  3 27  1  0
  4  5  1  0
  4 28  1  0
  4 29  1  0
  5  6  1  0
  5 30  1  0
  6 25  2  0
  6  7  1  0
  7  8  2  0
  7 31  1  0
  8  9  1  0
  8 32  1  0
  9 10  2  0
  9 33  1  0
 10 11  1  0
 10 25  1  0
 11 12  1  6
 11 24  1  0
 11 13  1  0
 13 14  1  0
 13 34  1  0
 13 35  1  0
 14 15  1  0
 14 36  1  0
 14 37  1  0
 15 16  1  0
 15 38  1  0
 15 39  1  0
 16 17  1  0
 16 24  1  0
 16 40  1  6
 17 18  1  0
 17 41  1  0
 18 23  2  0
 18 19  1  0
 19 20  1  0
 19 21  1  0
 21 22  1  0
 21 42  1  0
 21 43  1  0
 22 23  1  0
 22 44  1  0
 22 45  1  0
 23 46  1  0
 24 47  1  0
 24 48  1  0
 25 49  1  0
M  CHG  1  23   1
M  END
>  <DOCK_score>  (1) 
-46.946411

>  <SMILES>  (1) 
Br/C=C/CNc1cccc([C@@H]2CCCC(NC3=[NH+]CCN3)C2)c1

$$$$
