CCc1ccc(C[N@H+]2CC=C(c3cccc(-c4ccc(-c5ccccc5)cc4)c3)CC2)[nH]1
     RDKit          3D

 63 67  0  0  1  0  0  0  0  0999 V2000
  130.2777  130.9663  155.5079 C   0  0  0  0  0  0  0  0  0  0  0  0
  130.9944  132.2482  155.9367 C   0  0  0  0  0  0  0  0  0  0  0  0
  130.4717  132.6911  157.2789 C   0  0  0  0  0  0  0  0  0  0  0  0
  129.9951  131.8829  158.2475 C   0  0  0  0  0  0  0  0  0  0  0  0
  129.6184  132.7003  159.3314 C   0  0  0  0  0  0  0  0  0  0  0  0
  129.8713  133.9777  158.9806 C   0  0  0  0  0  0  0  0  0  0  0  0
  129.6208  135.1943  159.8338 C   0  0  0  0  0  0  0  0  0  0  0  0
  130.7861  136.0864  159.7687 N   0  0  1  0  0  0  0  0  0  0  0  0
  131.1405  136.1105  158.8244 H   0  0  0  0  0  0  0  0  0  0  0  0
  130.3950  137.4394  160.1812 C   0  0  0  0  0  0  0  0  0  0  0  0
  131.6040  138.3214  160.3026 C   0  0  0  0  0  0  0  0  0  0  0  0
  132.8278  137.8487  160.3995 C   0  0  0  0  0  0  0  0  0  0  0  0
  133.9525  138.8010  160.5158 C   0  0  0  0  0  0  0  0  0  0  0  0
  134.5932  139.2708  159.3677 C   0  0  0  0  0  0  0  0  0  0  0  0
  135.6433  140.1602  159.4756 C   0  0  0  0  0  0  0  0  0  0  0  0
  136.0671  140.5901  160.7180 C   0  0  0  0  0  0  0  0  0  0  0  0
  135.4356  140.1278  161.8722 C   0  0  0  0  0  0  0  0  0  0  0  0
  135.8929  140.5905  163.2052 C   0  0  0  0  0  0  0  0  0  0  0  0
  135.7625  139.7566  164.3152 C   0  0  0  0  0  0  0  0  0  0  0  0
  136.1872  140.1863  165.5532 C   0  0  0  0  0  0  0  0  0  0  0  0
  136.7475  141.4552  165.6963 C   0  0  0  0  0  0  0  0  0  0  0  0
  137.2045  141.9184  167.0291 C   0  0  0  0  0  0  0  0  0  0  0  0
  138.2650  142.8162  167.1324 C   0  0  0  0  0  0  0  0  0  0  0  0
  138.6853  143.2438  168.3753 C   0  0  0  0  0  0  0  0  0  0  0  0
  138.0558  142.7821  169.5180 C   0  0  0  0  0  0  0  0  0  0  0  0
  137.0061  141.8872  169.4217 C   0  0  0  0  0  0  0  0  0  0  0  0
  136.5738  141.4568  168.1838 C   0  0  0  0  0  0  0  0  0  0  0  0
  136.8729  142.2911  164.5873 C   0  0  0  0  0  0  0  0  0  0  0  0
  136.4536  141.8593  163.3483 C   0  0  0  0  0  0  0  0  0  0  0  0
  134.3795  139.2272  161.7714 C   0  0  0  0  0  0  0  0  0  0  0  0
  133.1231  136.3740  160.4025 C   0  0  0  0  0  0  0  0  0  0  0  0
  131.8347  135.5937  160.6758 C   0  0  0  0  0  0  0  0  0  0  0  0
  130.3981  133.9781  157.7231 N   0  0  0  0  0  0  0  0  0  0  0  0
  130.6748  134.7640  157.2263 H   0  0  0  0  0  0  0  0  0  0  0  0
  130.6557  130.6460  154.5371 H   0  0  0  0  0  0  0  0  0  0  0  0
  130.4599  130.1842  156.2449 H   0  0  0  0  0  0  0  0  0  0  0  0
  129.2066  131.1555  155.4363 H   0  0  0  0  0  0  0  0  0  0  0  0
  130.8122  133.0303  155.1996 H   0  0  0  0  0  0  0  0  0  0  0  0
  132.0655  132.0590  156.0083 H   0  0  0  0  0  0  0  0  0  0  0  0
  129.9202  130.8065  158.2024 H   0  0  0  0  0  0  0  0  0  0  0  0
  129.2016  132.3658  160.2698 H   0  0  0  0  0  0  0  0  0  0  0  0
  129.4561  134.8865  160.8664 H   0  0  0  0  0  0  0  0  0  0  0  0
  128.7396  135.7203  159.4667 H   0  0  0  0  0  0  0  0  0  0  0  0
  129.7128  137.8586  159.4416 H   0  0  0  0  0  0  0  0  0  0  0  0
  129.8933  137.3907  161.1476 H   0  0  0  0  0  0  0  0  0  0  0  0
  131.4629  139.3922  160.3064 H   0  0  0  0  0  0  0  0  0  0  0  0
  134.2665  138.9380  158.3936 H   0  0  0  0  0  0  0  0  0  0  0  0
  136.1358  140.5214  158.5847 H   0  0  0  0  0  0  0  0  0  0  0  0
  136.8897  141.2856  160.7958 H   0  0  0  0  0  0  0  0  0  0  0  0
  135.3283  138.7739  164.2043 H   0  0  0  0  0  0  0  0  0  0  0  0
  136.0859  139.5405  166.4129 H   0  0  0  0  0  0  0  0  0  0  0  0
  138.7571  143.1766  166.2412 H   0  0  0  0  0  0  0  0  0  0  0  0
  139.5070  143.9400  168.4564 H   0  0  0  0  0  0  0  0  0  0  0  0
  138.3884  143.1191  170.4886 H   0  0  0  0  0  0  0  0  0  0  0  0
  136.5214  141.5271  170.3172 H   0  0  0  0  0  0  0  0  0  0  0  0
  135.7515  140.7604  168.1099 H   0  0  0  0  0  0  0  0  0  0  0  0
  137.3030  143.2756  164.6990 H   0  0  0  0  0  0  0  0  0  0  0  0
  136.5548  142.5049  162.4886 H   0  0  0  0  0  0  0  0  0  0  0  0
  133.8903  138.8634  162.6629 H   0  0  0  0  0  0  0  0  0  0  0  0
  133.5253  136.0824  159.4323 H   0  0  0  0  0  0  0  0  0  0  0  0
  133.8540  136.1517  161.1799 H   0  0  0  0  0  0  0  0  0  0  0  0
  132.0047  134.5322  160.4962 H   0  0  0  0  0  0  0  0  0  0  0  0
  131.5261  135.7476  161.7098 H   0  0  0  0  0  0  0  0  0  0  0  0
  1  2  1  0
  1 35  1  0
  1 36  1  0
  1 37  1  0
  2  3  1  0
  2 38  1  0
  2 39  1  0
  3 33  1  0
  3  4  2  0
  4  5  1  0
  4 40  1  0
  5  6  2  0
  5 41  1  0
  6  7  1  0
  6 33  1  0
  7  8  1  0
  7 42  1  0
  7 43  1  0
  8  9  1  6
  8 32  1  0
  8 10  1  0
 10 11  1  0
 10 44  1  0
 10 45  1  0
 11 12  2  0
 11 46  1  0
 12 13  1  0
 12 31  1  0
 13 30  1  0
 13 14  2  0
 14 15  1  0
 14 47  1  0
 15 16  2  0
 15 48  1  0
 16 17  1  0
 16 49  1  0
 17 18  1  0
 17 30  2  0
 18 29  1  0
 18 19  2  0
 19 20  1  0
 19 50  1  0
 20 21  2  0
 20 51  1  0
 21 22  1  0
 21 28  1  0
 22 27  1  0
 22 23  2  0
 23 24  1  0
 23 52  1  0
 24 25  2  0
 24 53  1  0
 25 26  1  0
 25 54  1  0
 26 27  2  0
 26 55  1  0
 27 56  1  0
 28 29  2  0
 28 57  1  0
 29 58  1  0
 30 59  1  0
 31 32  1  0
 31 60  1  0
 31 61  1  0
 32 62  1  0
 32 63  1  0
 33 34  1  0
M  CHG  1   8   1
M  END
>  <DOCK_score>  (1) 
-60.826317

>  <SMILES>  (1) 
CCc1ccc(C[N@H+]2CC=C(c3cccc(-c4ccc(-c5ccccc5)cc4)c3)CC2)[nH]1

$$$$
