O=C1CC[C@H](NC(NC2CC2)=[NH+][C@H]2COc3ccccc3C2)CN1
     RDKit          3D

 49 52  0  0  1  0  0  0  0  0999 V2000
  123.6931  134.0123  161.6417 O   0  0  0  0  0  0  0  0  0  0  0  0
  124.8589  134.1969  161.3629 C   0  0  0  0  0  0  0  0  0  0  0  0
  125.6593  133.0349  160.8486 C   0  0  0  0  0  0  0  0  0  0  0  0
  127.1547  133.3377  160.9712 C   0  0  0  0  0  0  0  0  0  0  0  0
  127.4176  134.7286  160.3819 C   0  0  2  0  0  0  0  0  0  0  0  0
  126.9982  134.7855  159.3773 H   0  0  0  0  0  0  0  0  0  0  0  0
  128.8608  134.9744  160.3265 N   0  0  0  0  0  0  0  0  0  0  0  0
  129.5761  134.6194  159.2074 C   0  0  0  0  0  0  0  0  0  0  0  0
  128.9372  134.0338  158.1403 N   0  0  0  0  0  0  0  0  0  0  0  0
  129.6996  133.6554  156.9478 C   0  0  0  0  0  0  0  0  0  0  0  0
  129.5373  132.2249  156.4301 C   0  0  0  0  0  0  0  0  0  0  0  0
  130.8338  132.6441  157.1259 C   0  0  0  0  0  0  0  0  0  0  0  0
  130.8602  134.8380  159.1583 N   0  0  0  0  0  0  0  0  0  0  0  0
  131.2904  135.0114  158.3064 H   0  0  0  0  0  0  0  0  0  0  0  0
  131.6536  134.8224  160.3898 C   0  0  1  0  0  0  0  0  0  0  0  0
  131.0067  134.6133  161.2417 H   0  0  0  0  0  0  0  0  0  0  0  0
  132.7415  133.7453  160.2901 C   0  0  0  0  0  0  0  0  0  0  0  0
  133.4304  133.6836  161.5397 O   0  0  0  0  0  0  0  0  0  0  0  0
  133.8664  134.8500  162.0827 C   0  0  0  0  0  0  0  0  0  0  0  0
  134.8293  134.7965  163.0858 C   0  0  0  0  0  0  0  0  0  0  0  0
  135.2897  135.9589  163.6691 C   0  0  0  0  0  0  0  0  0  0  0  0
  134.7942  137.1820  163.2559 C   0  0  0  0  0  0  0  0  0  0  0  0
  133.8401  137.2391  162.2589 C   0  0  0  0  0  0  0  0  0  0  0  0
  133.3748  136.0756  161.6691 C   0  0  0  0  0  0  0  0  0  0  0  0
  132.3364  136.1789  160.5810 C   0  0  0  0  0  0  0  0  0  0  0  0
  126.7526  135.7764  161.2754 C   0  0  0  0  0  0  0  0  0  0  0  0
  125.3613  135.4209  161.5290 N   0  0  0  0  0  0  0  0  0  0  0  0
  125.4102  132.8585  159.8022 H   0  0  0  0  0  0  0  0  0  0  0  0
  125.4211  132.1450  161.4312 H   0  0  0  0  0  0  0  0  0  0  0  0
  127.7266  132.5914  160.4197 H   0  0  0  0  0  0  0  0  0  0  0  0
  127.4473  133.3226  162.0212 H   0  0  0  0  0  0  0  0  0  0  0  0
  129.3115  135.3876  161.0795 H   0  0  0  0  0  0  0  0  0  0  0  0
  127.9817  133.8709  158.1769 H   0  0  0  0  0  0  0  0  0  0  0  0
  129.8406  134.4451  156.2099 H   0  0  0  0  0  0  0  0  0  0  0  0
  128.8633  131.5653  156.9766 H   0  0  0  0  0  0  0  0  0  0  0  0
  129.5714  132.0732  155.3511 H   0  0  0  0  0  0  0  0  0  0  0  0
  131.7209  132.7682  156.5048 H   0  0  0  0  0  0  0  0  0  0  0  0
  131.0127  132.2601  158.1301 H   0  0  0  0  0  0  0  0  0  0  0  0
  132.2837  132.7799  160.0752 H   0  0  0  0  0  0  0  0  0  0  0  0
  133.4424  134.0039  159.4964 H   0  0  0  0  0  0  0  0  0  0  0  0
  135.2172  133.8418  163.4091 H   0  0  0  0  0  0  0  0  0  0  0  0
  136.0334  135.9135  164.4509 H   0  0  0  0  0  0  0  0  0  0  0  0
  135.1529  138.0925  163.7131 H   0  0  0  0  0  0  0  0  0  0  0  0
  133.4551  138.1957  161.9378 H   0  0  0  0  0  0  0  0  0  0  0  0
  131.5914  136.9239  160.8602 H   0  0  0  0  0  0  0  0  0  0  0  0
  132.8162  136.4775  159.6489 H   0  0  0  0  0  0  0  0  0  0  0  0
  127.2865  135.8321  162.2241 H   0  0  0  0  0  0  0  0  0  0  0  0
  126.7953  136.7485  160.7839 H   0  0  0  0  0  0  0  0  0  0  0  0
  124.7630  136.1202  161.8355 H   0  0  0  0  0  0  0  0  0  0  0  0
  1  2  2  0
  2 27  1  0
  2  3  1  0
  3  4  1  0
  3 28  1  0
  3 29  1  0
  4  5  1  0
  4 30  1  0
  4 31  1  0
  5  6  1  6
  5  7  1  0
  5 26  1  0
  7 32  1  0
  8  7  1  0
  8  9  1  0
  8 13  2  0
  9 10  1  0
  9 33  1  0
 10 12  1  0
 10 11  1  0
 10 34  1  0
 11 12  1  0
 11 35  1  0
 11 36  1  0
 12 37  1  0
 12 38  1  0
 13 14  1  0
 13 15  1  0
 15 16  1  1
 15 25  1  0
 15 17  1  0
 17 18  1  0
 17 39  1  0
 17 40  1  0
 18 19  1  0
 19 24  2  0
 19 20  1  0
 20 21  2  0
 20 41  1  0
 21 22  1  0
 21 42  1  0
 22 23  2  0
 22 43  1  0
 23 24  1  0
 23 44  1  0
 24 25  1  0
 25 45  1  0
 25 46  1  0
 26 27  1  0
 26 47  1  0
 26 48  1  0
 27 49  1  0
M  CHG  1  13   1
M  END
>  <DOCK_score>  (1) 
-47.875641

>  <SMILES>  (1) 
O=C1CC[C@H](NC(NC2CC2)=[NH+][C@H]2COc3ccccc3C2)CN1

$$$$
