O=C1CC[C@H](NC(NC2CC(F)C2)=[NH+]Cc2cc([N+](=O)[O-])ccc2Br)CN1
     RDKit          3D

 49 51  0  0  1  0  0  0  0  0999 V2000
  123.7151  133.1819  161.4025 O   0  0  0  0  0  0  0  0  0  0  0  0
  124.8613  133.5439  161.2415 C   0  0  0  0  0  0  0  0  0  0  0  0
  125.8893  132.5105  160.8794 C   0  0  0  0  0  0  0  0  0  0  0  0
  127.2930  133.0565  161.1521 C   0  0  0  0  0  0  0  0  0  0  0  0
  127.4024  134.4495  160.5204 C   0  0  2  0  0  0  0  0  0  0  0  0
  127.0995  134.4016  159.4744 H   0  0  0  0  0  0  0  0  0  0  0  0
  128.7851  134.9245  160.6138 N   0  0  0  0  0  0  0  0  0  0  0  0
  129.6758  134.6502  159.6031 C   0  0  0  0  0  0  0  0  0  0  0  0
  129.2690  133.9302  158.5048 N   0  0  0  0  0  0  0  0  0  0  0  0
  130.2181  133.6379  157.4278 C   0  0  2  0  0  0  0  0  0  0  0  0
  129.5695  132.9872  156.1948 C   0  0  0  0  0  0  0  0  0  0  0  0
  130.8139  132.0875  156.1125 C   0  0  2  0  0  0  0  0  0  0  0  0
  130.5266  130.7598  155.7778 F   0  0  0  0  0  0  0  0  0  0  0  0
  130.9843  132.3189  157.6232 C   0  0  0  0  0  0  0  0  0  0  0  0
  130.9060  135.0728  159.6861 N   0  0  0  0  0  0  0  0  0  0  0  0
  131.4022  135.2828  158.8795 H   0  0  0  0  0  0  0  0  0  0  0  0
  131.5394  135.2308  160.9977 C   0  0  0  0  0  0  0  0  0  0  0  0
  131.2917  136.6261  161.5104 C   0  0  0  0  0  0  0  0  0  0  0  0
  131.4465  137.7101  160.6667 C   0  0  0  0  0  0  0  0  0  0  0  0
  131.2192  138.9899  161.1367 C   0  0  0  0  0  0  0  0  0  0  0  0
  131.3855  140.1504  160.2331 N   0  0  0  0  0  0  0  0  0  0  0  0
  131.7226  139.9774  159.0756 O   0  0  0  0  0  0  0  0  0  0  0  0
  131.1853  141.2782  160.6472 O   0  0  0  0  0  0  0  0  0  0  0  0
  130.8371  139.1865  162.4509 C   0  0  0  0  0  0  0  0  0  0  0  0
  130.6818  138.1033  163.2950 C   0  0  0  0  0  0  0  0  0  0  0  0
  130.9039  136.8218  162.8234 C   0  0  0  0  0  0  0  0  0  0  0  0
  130.6851  135.3387  163.9760 Br  0  0  0  0  0  0  0  0  0  0  0  0
  126.4796  135.4046  161.2785 C   0  0  0  0  0  0  0  0  0  0  0  0
  125.1408  134.8393  161.3901 N   0  0  0  0  0  0  0  0  0  0  0  0
  125.7978  132.2582  159.8230 H   0  0  0  0  0  0  0  0  0  0  0  0
  125.7255  131.6162  161.4807 H   0  0  0  0  0  0  0  0  0  0  0  0
  128.0369  132.3937  160.7099 H   0  0  0  0  0  0  0  0  0  0  0  0
  127.4574  133.1272  162.2273 H   0  0  0  0  0  0  0  0  0  0  0  0
  129.0721  135.4323  161.3889 H   0  0  0  0  0  0  0  0  0  0  0  0
  128.3534  133.6159  158.4431 H   0  0  0  0  0  0  0  0  0  0  0  0
  130.8611  134.4850  157.1889 H   0  0  0  0  0  0  0  0  0  0  0  0
  128.6519  132.4437  156.4198 H   0  0  0  0  0  0  0  0  0  0  0  0
  129.4640  133.6653  155.3478 H   0  0  0  0  0  0  0  0  0  0  0  0
  131.6196  132.5106  155.5125 H   0  0  0  0  0  0  0  0  0  0  0  0
  132.0211  132.4575  157.9295 H   0  0  0  0  0  0  0  0  0  0  0  0
  130.4535  131.5927  158.2388 H   0  0  0  0  0  0  0  0  0  0  0  0
  131.1171  134.5072  161.6946 H   0  0  0  0  0  0  0  0  0  0  0  0
  132.6125  135.0629  160.9054 H   0  0  0  0  0  0  0  0  0  0  0  0
  131.7453  137.5572  159.6402 H   0  0  0  0  0  0  0  0  0  0  0  0
  130.6597  140.1866  162.8177 H   0  0  0  0  0  0  0  0  0  0  0  0
  130.3828  138.2569  164.3213 H   0  0  0  0  0  0  0  0  0  0  0  0
  126.4265  136.3536  160.7450 H   0  0  0  0  0  0  0  0  0  0  0  0
  126.8833  135.5745  162.2766 H   0  0  0  0  0  0  0  0  0  0  0  0
  124.4077  135.4427  161.5888 H   0  0  0  0  0  0  0  0  0  0  0  0
  1  2  2  0
  2 29  1  0
  2  3  1  0
  3  4  1  0
  3 30  1  0
  3 31  1  0
  4  5  1  0
  4 32  1  0
  4 33  1  0
  5  6  1  6
  5  7  1  0
  5 28  1  0
  7 34  1  0
  8  7  1  0
  8  9  1  0
  8 15  2  0
  9 10  1  0
  9 35  1  0
 10 14  1  0
 10 11  1  0
 10 36  1  6
 11 12  1  0
 11 37  1  0
 11 38  1  0
 12 13  1  0
 12 14  1  0
 12 39  1  6
 14 40  1  0
 14 41  1  0
 15 16  1  0
 15 17  1  0
 17 18  1  0
 17 42  1  0
 17 43  1  0
 18 26  1  0
 18 19  2  0
 19 20  1  0
 19 44  1  0
 20 21  1  0
 20 24  2  0
 21 22  2  0
 21 23  1  0
 24 25  1  0
 24 45  1  0
 25 26  2  0
 25 46  1  0
 26 27  1  0
 28 29  1  0
 28 47  1  0
 28 48  1  0
 29 49  1  0
M  CHG  3  15   1  21   1  23  -1
M  END
>  <DOCK_score>  (1) 
-43.036255

>  <SMILES>  (1) 
O=C1CC[C@H](NC(NC2CC(F)C2)=[NH+]Cc2cc([N+](=O)[O-])ccc2Br)CN1

$$$$
