Nc1ccc(-c2c[nH]c(Nc3ccc(Nc4cccc(O)c4)cc3)[nH+]2)cc1
     RDKit          3D

 47 50  0  0  1  0  0  0  0  0999 V2000
  131.2807  129.1240  151.5408 N   0  0  0  0  0  0  0  0  0  0  0  0
  131.0177  129.8568  152.7005 C   0  0  0  0  0  0  0  0  0  0  0  0
  130.1378  130.9317  152.6576 C   0  0  0  0  0  0  0  0  0  0  0  0
  129.8768  131.6564  153.8012 C   0  0  0  0  0  0  0  0  0  0  0  0
  130.4959  131.3102  155.0012 C   0  0  0  0  0  0  0  0  0  0  0  0
  130.2164  132.0884  156.2330 C   0  0  0  0  0  0  0  0  0  0  0  0
  129.6849  131.6009  157.3814 C   0  0  0  0  0  0  0  0  0  0  0  0
  129.6022  132.6538  158.2610 N   0  0  0  0  0  0  0  0  0  0  0  0
  129.2654  132.6184  159.1698 H   0  0  0  0  0  0  0  0  0  0  0  0
  130.0776  133.7562  157.6196 C   0  0  0  0  0  0  0  0  0  0  0  0
  130.1628  135.0293  158.1588 N   0  0  0  0  0  0  0  0  0  0  0  0
  129.2426  135.4410  159.1307 C   0  0  0  0  0  0  0  0  0  0  0  0
  129.6868  135.8220  160.3902 C   0  0  0  0  0  0  0  0  0  0  0  0
  128.7796  136.2270  161.3488 C   0  0  0  0  0  0  0  0  0  0  0  0
  127.4231  136.2543  161.0538 C   0  0  0  0  0  0  0  0  0  0  0  0
  126.5028  136.6643  162.0254 N   0  0  0  0  0  0  0  0  0  0  0  0
  126.9495  137.0464  163.2925 C   0  0  0  0  0  0  0  0  0  0  0  0
  126.5177  136.3573  164.4198 C   0  0  0  0  0  0  0  0  0  0  0  0
  126.9596  136.7353  165.6724 C   0  0  0  0  0  0  0  0  0  0  0  0
  127.8316  137.7992  165.8087 C   0  0  0  0  0  0  0  0  0  0  0  0
  128.2658  138.4913  164.6868 C   0  0  0  0  0  0  0  0  0  0  0  0
  129.1231  139.5369  164.8228 O   0  0  0  0  0  0  0  0  0  0  0  0
  127.8297  138.1112  163.4272 C   0  0  0  0  0  0  0  0  0  0  0  0
  126.9780  135.8683  159.7953 C   0  0  0  0  0  0  0  0  0  0  0  0
  127.8858  135.4680  158.8352 C   0  0  0  0  0  0  0  0  0  0  0  0
  130.4467  133.4132  156.4093 N   0  0  0  0  0  0  0  0  0  0  0  0
  130.8246  134.0114  155.7459 H   0  0  0  0  0  0  0  0  0  0  0  0
  131.3823  130.2351  155.0409 C   0  0  0  0  0  0  0  0  0  0  0  0
  131.6357  129.5093  153.8961 C   0  0  0  0  0  0  0  0  0  0  0  0
  130.8495  129.3653  150.7062 H   0  0  0  0  0  0  0  0  0  0  0  0
  131.8947  128.3734  151.5701 H   0  0  0  0  0  0  0  0  0  0  0  0
  129.6586  131.1998  151.7276 H   0  0  0  0  0  0  0  0  0  0  0  0
  129.1927  132.4915  153.7673 H   0  0  0  0  0  0  0  0  0  0  0  0
  129.3878  130.5798  157.5703 H   0  0  0  0  0  0  0  0  0  0  0  0
  130.8597  135.6355  157.8631 H   0  0  0  0  0  0  0  0  0  0  0  0
  130.7419  135.8010  160.6200 H   0  0  0  0  0  0  0  0  0  0  0  0
  129.1249  136.5226  162.3286 H   0  0  0  0  0  0  0  0  0  0  0  0
  125.5555  136.6869  161.8178 H   0  0  0  0  0  0  0  0  0  0  0  0
  125.8367  135.5255  164.3161 H   0  0  0  0  0  0  0  0  0  0  0  0
  126.6234  136.1987  166.5472 H   0  0  0  0  0  0  0  0  0  0  0  0
  128.1753  138.0924  166.7897 H   0  0  0  0  0  0  0  0  0  0  0  0
  129.3685  139.9557  163.9863 H   0  0  0  0  0  0  0  0  0  0  0  0
  128.1705  138.6455  162.5528 H   0  0  0  0  0  0  0  0  0  0  0  0
  125.9227  135.8851  159.5669 H   0  0  0  0  0  0  0  0  0  0  0  0
  127.5405  135.1720  157.8556 H   0  0  0  0  0  0  0  0  0  0  0  0
  131.8669  129.9681  155.9683 H   0  0  0  0  0  0  0  0  0  0  0  0
  132.3189  128.6734  153.9273 H   0  0  0  0  0  0  0  0  0  0  0  0
  1  2  1  0
  1 30  1  0
  1 31  1  0
  2 29  2  0
  2  3  1  0
  3  4  2  0
  3 32  1  0
  4  5  1  0
  4 33  1  0
  5  6  1  0
  5 28  2  0
  6 26  1  0
  6  7  2  0
  7  8  1  0
  7 34  1  0
  8  9  1  0
  8 10  1  0
 10 11  1  0
 10 26  2  0
 11 12  1  0
 11 35  1  0
 12 25  1  0
 12 13  2  0
 13 14  1  0
 13 36  1  0
 14 15  2  0
 14 37  1  0
 15 16  1  0
 15 24  1  0
 16 17  1  0
 16 38  1  0
 17 23  1  0
 17 18  2  0
 18 19  1  0
 18 39  1  0
 19 20  2  0
 19 40  1  0
 20 21  1  0
 20 41  1  0
 21 22  1  0
 21 23  2  0
 22 42  1  0
 23 43  1  0
 24 25  2  0
 24 44  1  0
 25 45  1  0
 26 27  1  0
 28 29  1  0
 28 46  1  0
 29 47  1  0
M  CHG  1  26   1
M  END
>  <DOCK_score>  (1) 
-55.497681

>  <SMILES>  (1) 
Nc1ccc(-c2c[nH]c(Nc3ccc(Nc4cccc(O)c4)cc3)[nH+]2)cc1

$$$$
