CC(C)[C@@H](C)Nc1ccc(-c2c[nH]c(NC3c4cc(O)ccc4-c4ccc(O)cc43)[nH+]2)cc1
     RDKit          3D

 62 66  0  0  1  0  0  0  0  0999 V2000
  129.0764  128.3397  151.0726 C   0  0  0  0  0  0  0  0  0  0  0  0
  130.5821  128.5340  151.2611 C   0  0  0  0  0  0  0  0  0  0  0  0
  131.0943  129.5622  150.2505 C   0  0  0  0  0  0  0  0  0  0  0  0
  130.8582  129.0331  152.6808 C   0  0  1  0  0  0  0  0  0  0  0  0
  130.4935  128.3006  153.4009 H   0  0  0  0  0  0  0  0  0  0  0  0
  132.3641  129.2273  152.8692 C   0  0  0  0  0  0  0  0  0  0  0  0
  130.1711  130.3096  152.8920 N   0  0  0  0  0  0  0  0  0  0  0  0
  130.2757  130.9640  154.1216 C   0  0  0  0  0  0  0  0  0  0  0  0
  130.4513  130.2273  155.2870 C   0  0  0  0  0  0  0  0  0  0  0  0
  130.5553  130.8714  156.5020 C   0  0  0  0  0  0  0  0  0  0  0  0
  130.4788  132.2619  156.5612 C   0  0  0  0  0  0  0  0  0  0  0  0
  130.5846  132.9567  157.8677 C   0  0  0  0  0  0  0  0  0  0  0  0
  130.1919  132.4631  159.0680 C   0  0  0  0  0  0  0  0  0  0  0  0
  130.4724  133.4276  160.0067 N   0  0  0  0  0  0  0  0  0  0  0  0
  130.3064  133.3668  160.9606 H   0  0  0  0  0  0  0  0  0  0  0  0
  131.0207  134.4857  159.3499 C   0  0  0  0  0  0  0  0  0  0  0  0
  131.4407  135.6681  159.9347 N   0  0  0  0  0  0  0  0  0  0  0  0
  131.3099  135.8566  161.3817 C   0  0  0  0  0  0  0  0  0  0  0  0
  130.0073  136.5493  161.6997 C   0  0  0  0  0  0  0  0  0  0  0  0
  128.6946  136.1996  161.4759 C   0  0  0  0  0  0  0  0  0  0  0  0
  127.6710  137.0450  161.8822 C   0  0  0  0  0  0  0  0  0  0  0  0
  126.3756  136.6990  161.6617 O   0  0  0  0  0  0  0  0  0  0  0  0
  127.9715  138.2446  162.5137 C   0  0  0  0  0  0  0  0  0  0  0  0
  129.2839  138.5999  162.7386 C   0  0  0  0  0  0  0  0  0  0  0  0
  130.3171  137.7525  162.3319 C   0  0  0  0  0  0  0  0  0  0  0  0
  131.7905  137.8852  162.4479 C   0  0  0  0  0  0  0  0  0  0  0  0
  132.5810  138.8971  162.9975 C   0  0  0  0  0  0  0  0  0  0  0  0
  133.9545  138.7844  162.9826 C   0  0  0  0  0  0  0  0  0  0  0  0
  134.5574  137.6662  162.4225 C   0  0  0  0  0  0  0  0  0  0  0  0
  135.9119  137.5588  162.4102 O   0  0  0  0  0  0  0  0  0  0  0  0
  133.7758  136.6573  161.8754 C   0  0  0  0  0  0  0  0  0  0  0  0
  132.4022  136.7665  161.8880 C   0  0  0  0  0  0  0  0  0  0  0  0
  131.0862  134.2005  158.0721 N   0  0  0  0  0  0  0  0  0  0  0  0
  131.4375  134.7854  157.3827 H   0  0  0  0  0  0  0  0  0  0  0  0
  130.3079  132.9990  155.3905 C   0  0  0  0  0  0  0  0  0  0  0  0
  130.2045  132.3509  154.1778 C   0  0  0  0  0  0  0  0  0  0  0  0
  128.7114  127.6072  151.7925 H   0  0  0  0  0  0  0  0  0  0  0  0
  128.5650  129.2896  151.2297 H   0  0  0  0  0  0  0  0  0  0  0  0
  128.8796  127.9841  150.0611 H   0  0  0  0  0  0  0  0  0  0  0  0
  131.0935  127.5842  151.1039 H   0  0  0  0  0  0  0  0  0  0  0  0
  132.1671  129.7005  150.3847 H   0  0  0  0  0  0  0  0  0  0  0  0
  130.8976  129.2066  149.2389 H   0  0  0  0  0  0  0  0  0  0  0  0
  130.5830  130.5118  150.4076 H   0  0  0  0  0  0  0  0  0  0  0  0
  132.5609  129.5828  153.8806 H   0  0  0  0  0  0  0  0  0  0  0  0
  132.8755  128.2775  152.7120 H   0  0  0  0  0  0  0  0  0  0  0  0
  132.7290  129.9598  152.1491 H   0  0  0  0  0  0  0  0  0  0  0  0
  129.6434  130.7001  152.1779 H   0  0  0  0  0  0  0  0  0  0  0  0
  130.5061  129.1497  155.2411 H   0  0  0  0  0  0  0  0  0  0  0  0
  130.6913  130.2984  157.4074 H   0  0  0  0  0  0  0  0  0  0  0  0
  129.7465  131.4966  159.2518 H   0  0  0  0  0  0  0  0  0  0  0  0
  131.8216  136.3718  159.3865 H   0  0  0  0  0  0  0  0  0  0  0  0
  131.3572  134.8941  161.8909 H   0  0  0  0  0  0  0  0  0  0  0  0
  128.4614  135.2665  160.9845 H   0  0  0  0  0  0  0  0  0  0  0  0
  125.7350  137.3500  161.9793 H   0  0  0  0  0  0  0  0  0  0  0  0
  127.1743  138.9013  162.8294 H   0  0  0  0  0  0  0  0  0  0  0  0
  129.5135  139.5339  163.2298 H   0  0  0  0  0  0  0  0  0  0  0  0
  132.1158  139.7686  163.4339 H   0  0  0  0  0  0  0  0  0  0  0  0
  134.5636  139.5682  163.4080 H   0  0  0  0  0  0  0  0  0  0  0  0
  136.3698  138.3092  162.8136 H   0  0  0  0  0  0  0  0  0  0  0  0
  134.2445  135.7875  161.4395 H   0  0  0  0  0  0  0  0  0  0  0  0
  130.2526  134.0768  155.4337 H   0  0  0  0  0  0  0  0  0  0  0  0
  130.0683  132.9214  153.2709 H   0  0  0  0  0  0  0  0  0  0  0  0
  1  2  1  0
  1 37  1  0
  1 38  1  0
  1 39  1  0
  2  3  1  0
  2  4  1  0
  2 40  1  0
  3 41  1  0
  3 42  1  0
  3 43  1  0
  4  5  1  1
  4  6  1  0
  4  7  1  0
  6 44  1  0
  6 45  1  0
  6 46  1  0
  7  8  1  0
  7 47  1  0
  8 36  2  0
  8  9  1  0
  9 10  2  0
  9 48  1  0
 10 11  1  0
 10 49  1  0
 11 12  1  0
 11 35  2  0
 12 33  1  0
 12 13  2  0
 13 14  1  0
 13 50  1  0
 14 15  1  0
 14 16  1  0
 16 17  1  0
 16 33  2  0
 17 18  1  0
 17 51  1  0
 18 32  1  0
 18 19  1  0
 18 52  1  0
 19 25  1  0
 19 20  2  0
 20 21  1  0
 20 53  1  0
 21 22  1  0
 21 23  2  0
 22 54  1  0
 23 24  1  0
 23 55  1  0
 24 25  2  0
 24 56  1  0
 25 26  1  0
 26 32  2  0
 26 27  1  0
 27 28  2  0
 27 57  1  0
 28 29  1  0
 28 58  1  0
 29 30  1  0
 29 31  2  0
 30 59  1  0
 31 32  1  0
 31 60  1  0
 33 34  1  0
 35 36  1  0
 35 61  1  0
 36 62  1  0
M  CHG  1  33   1
M  END
>  <DOCK_score>  (1) 
-51.551556

>  <SMILES>  (1) 
CC(C)[C@@H](C)Nc1ccc(-c2c[nH]c(NC3c4cc(O)ccc4-c4ccc(O)cc43)[nH+]2)cc1

$$$$
