Oc1c(NC/C=C/c2ccc(F)cc2)cccc1N1CC[NH+](C(c2ccccc2)c2ccccc2)CC1
     RDKit          3D

 70 74  0  0  1  0  0  0  0  0999 V2000
  133.9359  138.6940  163.1458 O   0  0  0  0  0  0  0  0  0  0  0  0
  134.2902  139.2112  161.9375 C   0  0  0  0  0  0  0  0  0  0  0  0
  135.1842  140.2747  161.8691 C   0  0  0  0  0  0  0  0  0  0  0  0
  135.7216  140.8155  163.0431 N   0  0  0  0  0  0  0  0  0  0  0  0
  135.3427  140.2615  164.3453 C   0  0  0  0  0  0  0  0  0  0  0  0
  136.0548  141.0156  165.4385 C   0  0  0  0  0  0  0  0  0  0  0  0
  136.8730  140.3745  166.2614 C   0  0  0  0  0  0  0  0  0  0  0  0
  137.5715  141.1140  167.3336 C   0  0  0  0  0  0  0  0  0  0  0  0
  137.7188  142.4990  167.2474 C   0  0  0  0  0  0  0  0  0  0  0  0
  138.3674  143.1850  168.2531 C   0  0  0  0  0  0  0  0  0  0  0  0
  138.8818  142.5000  169.3421 C   0  0  0  0  0  0  0  0  0  0  0  0
  139.5211  143.1760  170.3219 F   0  0  0  0  0  0  0  0  0  0  0  0
  138.7425  141.1240  169.4303 C   0  0  0  0  0  0  0  0  0  0  0  0
  138.0911  140.4291  168.4328 C   0  0  0  0  0  0  0  0  0  0  0  0
  135.5471  140.7953  160.6341 C   0  0  0  0  0  0  0  0  0  0  0  0
  135.0170  140.2621  159.4741 C   0  0  0  0  0  0  0  0  0  0  0  0
  134.1242  139.2094  159.5375 C   0  0  0  0  0  0  0  0  0  0  0  0
  133.7552  138.6820  160.7682 C   0  0  0  0  0  0  0  0  0  0  0  0
  132.8507  137.6155  160.8311 N   0  0  0  0  0  0  0  0  0  0  0  0
  133.4021  136.4181  160.1813 C   0  0  0  0  0  0  0  0  0  0  0  0
  132.4102  135.2616  160.3238 C   0  0  0  0  0  0  0  0  0  0  0  0
  131.1324  135.6327  159.7016 N   0  0  0  0  0  0  0  0  0  0  0  0
  131.2819  135.8421  158.7260 H   0  0  0  0  0  0  0  0  0  0  0  0
  130.1864  134.5155  159.8228 C   0  0  0  0  0  0  0  0  0  0  0  0
  128.8753  134.8959  159.1846 C   0  0  0  0  0  0  0  0  0  0  0  0
  127.6940  134.3559  159.6575 C   0  0  0  0  0  0  0  0  0  0  0  0
  126.4909  134.7085  159.0752 C   0  0  0  0  0  0  0  0  0  0  0  0
  126.4697  135.5930  158.0141 C   0  0  0  0  0  0  0  0  0  0  0  0
  127.6520  136.1293  157.5368 C   0  0  0  0  0  0  0  0  0  0  0  0
  128.8546  135.7806  158.1227 C   0  0  0  0  0  0  0  0  0  0  0  0
  130.7499  133.3026  159.1281 C   0  0  0  0  0  0  0  0  0  0  0  0
  130.4743  133.0811  157.7917 C   0  0  0  0  0  0  0  0  0  0  0  0
  130.9951  131.9711  157.1534 C   0  0  0  0  0  0  0  0  0  0  0  0
  131.7830  131.0770  157.8541 C   0  0  0  0  0  0  0  0  0  0  0  0
  132.0543  131.2958  159.1917 C   0  0  0  0  0  0  0  0  0  0  0  0
  131.5378  132.4086  159.8288 C   0  0  0  0  0  0  0  0  0  0  0  0
  130.5822  136.8152  160.3772 C   0  0  0  0  0  0  0  0  0  0  0  0
  131.5589  137.9846  160.2352 C   0  0  0  0  0  0  0  0  0  0  0  0
  133.3073  137.9612  163.0910 H   0  0  0  0  0  0  0  0  0  0  0  0
  136.3451  141.5570  162.9944 H   0  0  0  0  0  0  0  0  0  0  0  0
  135.6227  139.2090  164.3878 H   0  0  0  0  0  0  0  0  0  0  0  0
  134.2652  140.3564  164.4808 H   0  0  0  0  0  0  0  0  0  0  0  0
  135.8988  142.0782  165.5515 H   0  0  0  0  0  0  0  0  0  0  0  0
  137.0325  139.3126  166.1455 H   0  0  0  0  0  0  0  0  0  0  0  0
  137.3220  143.0334  166.3968 H   0  0  0  0  0  0  0  0  0  0  0  0
  138.4783  144.2574  168.1894 H   0  0  0  0  0  0  0  0  0  0  0  0
  139.1451  140.5949  170.2814 H   0  0  0  0  0  0  0  0  0  0  0  0
  137.9831  139.3568  168.5024 H   0  0  0  0  0  0  0  0  0  0  0  0
  136.2444  141.6184  160.5798 H   0  0  0  0  0  0  0  0  0  0  0  0
  135.3014  140.6699  158.5152 H   0  0  0  0  0  0  0  0  0  0  0  0
  133.7129  138.7958  158.6284 H   0  0  0  0  0  0  0  0  0  0  0  0
  133.5720  136.6235  159.1244 H   0  0  0  0  0  0  0  0  0  0  0  0
  134.3456  136.1486  160.6560 H   0  0  0  0  0  0  0  0  0  0  0  0
  132.2512  135.0475  161.3806 H   0  0  0  0  0  0  0  0  0  0  0  0
  132.8111  134.3763  159.8302 H   0  0  0  0  0  0  0  0  0  0  0  0
  130.0252  134.2884  160.8765 H   0  0  0  0  0  0  0  0  0  0  0  0
  127.7105  133.6612  160.4844 H   0  0  0  0  0  0  0  0  0  0  0  0
  125.5676  134.2895  159.4470 H   0  0  0  0  0  0  0  0  0  0  0  0
  125.5306  135.8653  157.5553 H   0  0  0  0  0  0  0  0  0  0  0  0
  127.6357  136.8201  156.7069 H   0  0  0  0  0  0  0  0  0  0  0  0
  129.7779  136.1991  157.7503 H   0  0  0  0  0  0  0  0  0  0  0  0
  129.8552  133.7772  157.2455 H   0  0  0  0  0  0  0  0  0  0  0  0
  130.7830  131.8000  156.1084 H   0  0  0  0  0  0  0  0  0  0  0  0
  132.1863  130.2076  157.3565 H   0  0  0  0  0  0  0  0  0  0  0  0
  132.6696  130.5971  159.7393 H   0  0  0  0  0  0  0  0  0  0  0  0
  131.7494  132.5793  160.8740 H   0  0  0  0  0  0  0  0  0  0  0  0
  130.4324  136.5932  161.4338 H   0  0  0  0  0  0  0  0  0  0  0  0
  129.6278  137.0818  159.9232 H   0  0  0  0  0  0  0  0  0  0  0  0
  131.1576  138.8581  160.7492 H   0  0  0  0  0  0  0  0  0  0  0  0
  131.6984  138.2159  159.1791 H   0  0  0  0  0  0  0  0  0  0  0  0
  1  2  1  0
  1 39  1  0
  2 18  2  0
  2  3  1  0
  3  4  1  0
  3 15  2  0
  4  5  1  0
  4 40  1  0
  5  6  1  0
  5 41  1  0
  5 42  1  0
  6  7  2  0
  6 43  1  0
  7  8  1  0
  7 44  1  0
  8 14  1  0
  8  9  2  0
  9 10  1  0
  9 45  1  0
 10 11  2  0
 10 46  1  0
 11 12  1  0
 11 13  1  0
 13 14  2  0
 13 47  1  0
 14 48  1  0
 15 16  1  0
 15 49  1  0
 16 17  2  0
 16 50  1  0
 17 18  1  0
 17 51  1  0
 18 19  1  0
 19 38  1  0
 19 20  1  0
 20 21  1  0
 20 52  1  0
 20 53  1  0
 21 22  1  0
 21 54  1  0
 21 55  1  0
 22 23  1  0
 22 24  1  0
 22 37  1  0
 24 25  1  0
 24 31  1  0
 24 56  1  0
 25 30  1  0
 25 26  2  0
 26 27  1  0
 26 57  1  0
 27 28  2  0
 27 58  1  0
 28 29  1  0
 28 59  1  0
 29 30  2  0
 29 60  1  0
 30 61  1  0
 31 36  1  0
 31 32  2  0
 32 33  1  0
 32 62  1  0
 33 34  2  0
 33 63  1  0
 34 35  1  0
 34 64  1  0
 35 36  2  0
 35 65  1  0
 36 66  1  0
 37 38  1  0
 37 67  1  0
 37 68  1  0
 38 69  1  0
 38 70  1  0
M  CHG  1  22   1
M  END
>  <DOCK_score>  (1) 
-64.717194

>  <SMILES>  (1) 
Oc1c(NC/C=C/c2ccc(F)cc2)cccc1N1CC[NH+](C(c2ccccc2)c2ccccc2)CC1

$$$$
