Cc1c(OCc2ccccc2C2CC2)cccc1N1CC[NH+]([C@H](c2ccccc2)C2CCC2)CC1
     RDKit          3D

 74 79  0  0  1  0  0  0  0  0999 V2000
  133.4360  138.0169  163.7397 C   0  0  0  0  0  0  0  0  0  0  0  0
  134.0691  138.6584  162.5318 C   0  0  0  0  0  0  0  0  0  0  0  0
  135.0351  139.6394  162.6928 C   0  0  0  0  0  0  0  0  0  0  0  0
  135.4128  140.0235  163.9403 O   0  0  0  0  0  0  0  0  0  0  0  0
  135.2176  141.3970  164.2832 C   0  0  0  0  0  0  0  0  0  0  0  0
  135.6910  141.6347  165.6941 C   0  0  0  0  0  0  0  0  0  0  0  0
  137.0044  141.9963  165.9308 C   0  0  0  0  0  0  0  0  0  0  0  0
  137.4374  142.2186  167.2245 C   0  0  0  0  0  0  0  0  0  0  0  0
  136.5598  142.0701  168.2823 C   0  0  0  0  0  0  0  0  0  0  0  0
  135.2482  141.7039  168.0460 C   0  0  0  0  0  0  0  0  0  0  0  0
  134.8146  141.4858  166.7518 C   0  0  0  0  0  0  0  0  0  0  0  0
  133.3839  141.0860  166.4939 C   0  0  0  0  0  0  0  0  0  0  0  0
  132.4082  142.1860  166.0710 C   0  0  0  0  0  0  0  0  0  0  0  0
  132.3227  141.5863  167.4760 C   0  0  0  0  0  0  0  0  0  0  0  0
  135.6125  140.2328  161.5791 C   0  0  0  0  0  0  0  0  0  0  0  0
  135.2294  139.8433  160.3094 C   0  0  0  0  0  0  0  0  0  0  0  0
  134.2714  138.8622  160.1446 C   0  0  0  0  0  0  0  0  0  0  0  0
  133.6900  138.2641  161.2563 C   0  0  0  0  0  0  0  0  0  0  0  0
  132.7216  137.2715  161.0899 N   0  0  0  0  0  0  0  0  0  0  0  0
  131.5284  137.8071  160.4193 C   0  0  0  0  0  0  0  0  0  0  0  0
  130.4711  136.7062  160.3102 C   0  0  0  0  0  0  0  0  0  0  0  0
  131.0173  135.5765  159.5467 N   0  0  0  0  0  0  0  0  0  0  0  0
  131.2857  135.8912  158.6263 H   0  0  0  0  0  0  0  0  0  0  0  0
  129.9960  134.5275  159.4267 C   0  0  2  0  0  0  0  0  0  0  0  0
  129.9601  133.9481  160.3492 H   0  0  0  0  0  0  0  0  0  0  0  0
  130.3423  133.6185  158.2757 C   0  0  0  0  0  0  0  0  0  0  0  0
  129.8716  133.8999  157.0068 C   0  0  0  0  0  0  0  0  0  0  0  0
  130.1900  133.0666  155.9509 C   0  0  0  0  0  0  0  0  0  0  0  0
  130.9792  131.9518  156.1638 C   0  0  0  0  0  0  0  0  0  0  0  0
  131.4488  131.6696  157.4330 C   0  0  0  0  0  0  0  0  0  0  0  0
  131.1311  132.5034  158.4888 C   0  0  0  0  0  0  0  0  0  0  0  0
  128.6309  135.1711  159.1753 C   0  0  0  0  0  0  0  0  0  0  0  0
  127.9342  135.6581  160.4568 C   0  0  0  0  0  0  0  0  0  0  0  0
  126.6233  135.1290  159.8512 C   0  0  0  0  0  0  0  0  0  0  0  0
  127.4866  134.1535  159.0339 C   0  0  0  0  0  0  0  0  0  0  0  0
  132.1935  135.0370  160.2418 C   0  0  0  0  0  0  0  0  0  0  0  0
  133.2652  136.1239  160.3501 C   0  0  0  0  0  0  0  0  0  0  0  0
  134.0182  137.1440  164.0346 H   0  0  0  0  0  0  0  0  0  0  0  0
  133.4131  138.7329  164.5612 H   0  0  0  0  0  0  0  0  0  0  0  0
  132.4187  137.7099  163.4968 H   0  0  0  0  0  0  0  0  0  0  0  0
  135.7856  142.0267  163.5984 H   0  0  0  0  0  0  0  0  0  0  0  0
  134.1584  141.6429  164.2093 H   0  0  0  0  0  0  0  0  0  0  0  0
  137.6909  142.1084  165.1047 H   0  0  0  0  0  0  0  0  0  0  0  0
  138.4622  142.5052  167.4091 H   0  0  0  0  0  0  0  0  0  0  0  0
  136.8991  142.2405  169.2934 H   0  0  0  0  0  0  0  0  0  0  0  0
  134.5626  141.5878  168.8723 H   0  0  0  0  0  0  0  0  0  0  0  0
  133.2431  140.0949  166.0628 H   0  0  0  0  0  0  0  0  0  0  0  0
  132.8005  143.1988  165.9791 H   0  0  0  0  0  0  0  0  0  0  0  0
  131.6253  141.9187  165.3613 H   0  0  0  0  0  0  0  0  0  0  0  0
  131.4836  140.9245  167.6905 H   0  0  0  0  0  0  0  0  0  0  0  0
  132.6588  142.2045  168.3084 H   0  0  0  0  0  0  0  0  0  0  0  0
  136.3620  141.0003  161.7045 H   0  0  0  0  0  0  0  0  0  0  0  0
  135.6805  140.3068  159.4445 H   0  0  0  0  0  0  0  0  0  0  0  0
  133.9743  138.5594  159.1515 H   0  0  0  0  0  0  0  0  0  0  0  0
  131.7968  138.1538  159.4214 H   0  0  0  0  0  0  0  0  0  0  0  0
  131.1282  138.6395  160.9982 H   0  0  0  0  0  0  0  0  0  0  0  0
  129.5906  137.0974  159.8004 H   0  0  0  0  0  0  0  0  0  0  0  0
  130.1929  136.3693  161.3087 H   0  0  0  0  0  0  0  0  0  0  0  0
  129.2553  134.7711  156.8403 H   0  0  0  0  0  0  0  0  0  0  0  0
  129.8186  133.2839  154.9603 H   0  0  0  0  0  0  0  0  0  0  0  0
  131.2278  131.3005  155.3389 H   0  0  0  0  0  0  0  0  0  0  0  0
  132.0653  130.7986  157.5994 H   0  0  0  0  0  0  0  0  0  0  0  0
  131.4995  132.2839  159.4800 H   0  0  0  0  0  0  0  0  0  0  0  0
  128.6541  135.9156  158.3795 H   0  0  0  0  0  0  0  0  0  0  0  0
  128.2474  135.1243  161.3540 H   0  0  0  0  0  0  0  0  0  0  0  0
  127.9526  136.7410  160.5793 H   0  0  0  0  0  0  0  0  0  0  0  0
  126.0967  135.8628  159.2410 H   0  0  0  0  0  0  0  0  0  0  0  0
  125.9751  134.6362  160.5759 H   0  0  0  0  0  0  0  0  0  0  0  0
  127.1439  134.0218  158.0076 H   0  0  0  0  0  0  0  0  0  0  0  0
  127.6776  133.2084  159.5419 H   0  0  0  0  0  0  0  0  0  0  0  0
  131.9063  134.7088  161.2408 H   0  0  0  0  0  0  0  0  0  0  0  0
  132.5901  134.1905  159.6813 H   0  0  0  0  0  0  0  0  0  0  0  0
  133.5623  136.4429  159.3510 H   0  0  0  0  0  0  0  0  0  0  0  0
  134.1324  135.7281  160.8788 H   0  0  0  0  0  0  0  0  0  0  0  0
  1  2  1  0
  1 38  1  0
  1 39  1  0
  1 40  1  0
  2 18  2  0
  2  3  1  0
  3  4  1  0
  3 15  2  0
  4  5  1  0
  5  6  1  0
  5 41  1  0
  5 42  1  0
  6 11  1  0
  6  7  2  0
  7  8  1  0
  7 43  1  0
  8  9  2  0
  8 44  1  0
  9 10  1  0
  9 45  1  0
 10 11  2  0
 10 46  1  0
 11 12  1  0
 12 14  1  0
 12 13  1  0
 12 47  1  0
 13 14  1  0
 13 48  1  0
 13 49  1  0
 14 50  1  0
 14 51  1  0
 15 16  1  0
 15 52  1  0
 16 17  2  0
 16 53  1  0
 17 18  1  0
 17 54  1  0
 18 19  1  0
 19 37  1  0
 19 20  1  0
 20 21  1  0
 20 55  1  0
 20 56  1  0
 21 22  1  0
 21 57  1  0
 21 58  1  0
 22 23  1  0
 22 24  1  0
 22 36  1  0
 24 25  1  1
 24 26  1  0
 24 32  1  0
 26 31  1  0
 26 27  2  0
 27 28  1  0
 27 59  1  0
 28 29  2  0
 28 60  1  0
 29 30  1  0
 29 61  1  0
 30 31  2  0
 30 62  1  0
 31 63  1  0
 32 35  1  0
 32 33  1  0
 32 64  1  0
 33 34  1  0
 33 65  1  0
 33 66  1  0
 34 35  1  0
 34 67  1  0
 34 68  1  0
 35 69  1  0
 35 70  1  0
 36 37  1  0
 36 71  1  0
 36 72  1  0
 37 73  1  0
 37 74  1  0
M  CHG  1  22   1
M  END
>  <DOCK_score>  (1) 
-56.62693

>  <SMILES>  (1) 
Cc1c(OCc2ccccc2C2CC2)cccc1N1CC[NH+]([C@H](c2ccccc2)C2CCC2)CC1

$$$$
