Cc1c(CCc2ccccn2)cccc1N1CC[NH+](C(c2ccccc2)c2ccccc2)CC1
     RDKit          3D

 68 72  0  0  0  0  0  0  0  0999 V2000
  133.9353  135.3873  163.5939 C   0  0  0  0  0  0  0  0  0  0  0  0
  134.4219  136.3552  162.5463 C   0  0  0  0  0  0  0  0  0  0  0  0
  135.4440  137.2364  162.8406 C   0  0  0  0  0  0  0  0  0  0  0  0
  136.0724  137.2299  164.2103 C   0  0  0  0  0  0  0  0  0  0  0  0
  137.2521  136.2558  164.2254 C   0  0  0  0  0  0  0  0  0  0  0  0
  137.8806  136.2491  165.5950 C   0  0  0  0  0  0  0  0  0  0  0  0
  138.9034  137.1337  165.8816 C   0  0  0  0  0  0  0  0  0  0  0  0
  139.4751  137.1191  167.1445 C   0  0  0  0  0  0  0  0  0  0  0  0
  138.9947  136.2112  168.0760 C   0  0  0  0  0  0  0  0  0  0  0  0
  137.9731  135.3533  167.7153 C   0  0  0  0  0  0  0  0  0  0  0  0
  137.4490  135.3993  166.5060 N   0  0  0  0  0  0  0  0  0  0  0  0
  135.8949  138.1209  161.8781 C   0  0  0  0  0  0  0  0  0  0  0  0
  135.3205  138.1306  160.6200 C   0  0  0  0  0  0  0  0  0  0  0  0
  134.2947  137.2561  160.3208 C   0  0  0  0  0  0  0  0  0  0  0  0
  133.8395  136.3658  161.2855 C   0  0  0  0  0  0  0  0  0  0  0  0
  132.8019  135.4798  160.9862 N   0  0  0  0  0  0  0  0  0  0  0  0
  133.1984  134.5436  159.9249 C   0  0  0  0  0  0  0  0  0  0  0  0
  132.0588  133.5549  159.6691 C   0  0  0  0  0  0  0  0  0  0  0  0
  130.8518  134.2910  159.2706 N   0  0  0  0  0  0  0  0  0  0  0  0
  131.0430  134.8224  158.4344 H   0  0  0  0  0  0  0  0  0  0  0  0
  129.7632  133.3404  159.0077 C   0  0  0  0  0  0  0  0  0  0  0  0
  128.5248  134.0955  158.5988 C   0  0  0  0  0  0  0  0  0  0  0  0
  127.2746  133.5781  158.8823 C   0  0  0  0  0  0  0  0  0  0  0  0
  126.1387  134.2732  158.5114 C   0  0  0  0  0  0  0  0  0  0  0  0
  126.2529  135.4804  157.8478 C   0  0  0  0  0  0  0  0  0  0  0  0
  127.5030  135.9952  157.5597 C   0  0  0  0  0  0  0  0  0  0  0  0
  128.6390  135.3028  157.9352 C   0  0  0  0  0  0  0  0  0  0  0  0
  130.1702  132.4048  157.8986 C   0  0  0  0  0  0  0  0  0  0  0  0
  129.8883  132.7270  156.5841 C   0  0  0  0  0  0  0  0  0  0  0  0
  130.2659  131.8711  155.5664 C   0  0  0  0  0  0  0  0  0  0  0  0
  130.9162  130.6881  155.8638 C   0  0  0  0  0  0  0  0  0  0  0  0
  131.1935  130.3634  157.1786 C   0  0  0  0  0  0  0  0  0  0  0  0
  130.8205  131.2218  158.1960 C   0  0  0  0  0  0  0  0  0  0  0  0
  130.4542  135.2040  160.3503 C   0  0  0  0  0  0  0  0  0  0  0  0
  131.5805  136.2064  160.6117 C   0  0  0  0  0  0  0  0  0  0  0  0
  133.1290  135.8463  164.1659 H   0  0  0  0  0  0  0  0  0  0  0  0
  133.5679  134.4824  163.1100 H   0  0  0  0  0  0  0  0  0  0  0  0
  134.7569  135.1334  164.2635 H   0  0  0  0  0  0  0  0  0  0  0  0
  135.3333  136.9168  164.9477 H   0  0  0  0  0  0  0  0  0  0  0  0
  136.4255  138.2322  164.4528 H   0  0  0  0  0  0  0  0  0  0  0  0
  137.9913  136.5689  163.4880 H   0  0  0  0  0  0  0  0  0  0  0  0
  136.8990  135.2535  163.9828 H   0  0  0  0  0  0  0  0  0  0  0  0
  139.2529  137.8274  165.1311 H   0  0  0  0  0  0  0  0  0  0  0  0
  140.2755  137.7990  167.3969 H   0  0  0  0  0  0  0  0  0  0  0  0
  139.4165  136.1720  169.0694 H   0  0  0  0  0  0  0  0  0  0  0  0
  137.5965  134.6399  168.4336 H   0  0  0  0  0  0  0  0  0  0  0  0
  136.6971  138.8059  162.1095 H   0  0  0  0  0  0  0  0  0  0  0  0
  135.6746  138.8232  159.8708 H   0  0  0  0  0  0  0  0  0  0  0  0
  133.8469  137.2639  159.3381 H   0  0  0  0  0  0  0  0  0  0  0  0
  133.4105  135.0985  159.0110 H   0  0  0  0  0  0  0  0  0  0  0  0
  134.0899  133.9986  160.2351 H   0  0  0  0  0  0  0  0  0  0  0  0
  131.8561  132.9906  160.5794 H   0  0  0  0  0  0  0  0  0  0  0  0
  132.3454  132.8684  158.8724 H   0  0  0  0  0  0  0  0  0  0  0  0
  129.5569  132.7656  159.9104 H   0  0  0  0  0  0  0  0  0  0  0  0
  127.1855  132.6327  159.3967 H   0  0  0  0  0  0  0  0  0  0  0  0
  125.1621  133.8707  158.7362 H   0  0  0  0  0  0  0  0  0  0  0  0
  125.3654  136.0212  157.5541 H   0  0  0  0  0  0  0  0  0  0  0  0
  127.5923  136.9382  157.0409 H   0  0  0  0  0  0  0  0  0  0  0  0
  129.6158  135.7048  157.7098 H   0  0  0  0  0  0  0  0  0  0  0  0
  129.3762  133.6492  156.3521 H   0  0  0  0  0  0  0  0  0  0  0  0
  130.0489  132.1246  154.5393 H   0  0  0  0  0  0  0  0  0  0  0  0
  131.2072  130.0172  155.0690 H   0  0  0  0  0  0  0  0  0  0  0  0
  131.7012  129.4389  157.4110 H   0  0  0  0  0  0  0  0  0  0  0  0
  131.0369  130.9680  159.2231 H   0  0  0  0  0  0  0  0  0  0  0  0
  130.2598  134.6312  161.2571 H   0  0  0  0  0  0  0  0  0  0  0  0
  129.5511  135.7402  160.0587 H   0  0  0  0  0  0  0  0  0  0  0  0
  131.2916  136.8746  161.4230 H   0  0  0  0  0  0  0  0  0  0  0  0
  131.7659  136.7887  159.7091 H   0  0  0  0  0  0  0  0  0  0  0  0
  1  2  1  0
  1 36  1  0
  1 37  1  0
  1 38  1  0
  2 15  2  0
  2  3  1  0
  3  4  1  0
  3 12  2  0
  4  5  1  0
  4 39  1  0
  4 40  1  0
  5  6  1  0
  5 41  1  0
  5 42  1  0
  6 11  1  0
  6  7  2  0
  7  8  1  0
  7 43  1  0
  8  9  2  0
  8 44  1  0
  9 10  1  0
  9 45  1  0
 10 11  2  0
 10 46  1  0
 12 13  1  0
 12 47  1  0
 13 14  2  0
 13 48  1  0
 14 15  1  0
 14 49  1  0
 15 16  1  0
 16 35  1  0
 16 17  1  0
 17 18  1  0
 17 50  1  0
 17 51  1  0
 18 19  1  0
 18 52  1  0
 18 53  1  0
 19 20  1  0
 19 21  1  0
 19 34  1  0
 21 22  1  0
 21 28  1  0
 21 54  1  0
 22 27  1  0
 22 23  2  0
 23 24  1  0
 23 55  1  0
 24 25  2  0
 24 56  1  0
 25 26  1  0
 25 57  1  0
 26 27  2  0
 26 58  1  0
 27 59  1  0
 28 33  1  0
 28 29  2  0
 29 30  1  0
 29 60  1  0
 30 31  2  0
 30 61  1  0
 31 32  1  0
 31 62  1  0
 32 33  2  0
 32 63  1  0
 33 64  1  0
 34 35  1  0
 34 65  1  0
 34 66  1  0
 35 67  1  0
 35 68  1  0
M  CHG  1  19   1
M  END
>  <DOCK_score>  (1) 
-59.703045

>  <SMILES>  (1) 
Cc1c(CCc2ccccn2)cccc1N1CC[NH+](C(c2ccccc2)c2ccccc2)CC1

$$$$
