CCc1ccc(-c2c[nH]c(N[C@H](C=C3C=C(C)CC3)Cc3ccccc3)[nH+]2)cc1
     RDKit          3D

 59 62  0  0  1  0  0  0  0  0999 V2000
  130.0835  128.6846  150.4466 C   0  0  0  0  0  0  0  0  0  0  0  0
  131.1839  129.7068  150.7381 C   0  0  0  0  0  0  0  0  0  0  0  0
  130.9510  130.3231  152.0935 C   0  0  0  0  0  0  0  0  0  0  0  0
  131.5103  129.7450  153.2183 C   0  0  0  0  0  0  0  0  0  0  0  0
  131.3051  130.3082  154.4615 C   0  0  0  0  0  0  0  0  0  0  0  0
  130.5231  131.4553  154.5834 C   0  0  0  0  0  0  0  0  0  0  0  0
  130.2943  132.0621  155.9174 C   0  0  0  0  0  0  0  0  0  0  0  0
  129.7098  131.4558  156.9804 C   0  0  0  0  0  0  0  0  0  0  0  0
  129.6998  132.3705  158.0052 N   0  0  0  0  0  0  0  0  0  0  0  0
  129.3451  132.2302  158.8970 H   0  0  0  0  0  0  0  0  0  0  0  0
  130.2791  133.5100  157.5382 C   0  0  0  0  0  0  0  0  0  0  0  0
  130.4638  134.6757  158.2618 N   0  0  0  0  0  0  0  0  0  0  0  0
  129.5243  135.0330  159.3275 C   0  0  2  0  0  0  0  0  0  0  0  0
  129.5203  134.2500  160.0859 H   0  0  0  0  0  0  0  0  0  0  0  0
  128.1403  135.1789  158.7491 C   0  0  0  0  0  0  0  0  0  0  0  0
  127.0758  134.9090  159.4971 C   0  0  0  0  0  0  0  0  0  0  0  0
  127.0863  134.4556  160.8927 C   0  0  0  0  0  0  0  0  0  0  0  0
  125.8688  134.2742  161.3672 C   0  0  0  0  0  0  0  0  0  0  0  0
  125.5543  133.8157  162.7678 C   0  0  0  0  0  0  0  0  0  0  0  0
  124.8352  134.5827  160.3137 C   0  0  0  0  0  0  0  0  0  0  0  0
  125.6280  135.0064  159.0647 C   0  0  0  0  0  0  0  0  0  0  0  0
  129.9535  136.3568  159.9632 C   0  0  0  0  0  0  0  0  0  0  0  0
  131.3374  136.2109  160.5416 C   0  0  0  0  0  0  0  0  0  0  0  0
  132.1825  137.3034  160.5963 C   0  0  0  0  0  0  0  0  0  0  0  0
  133.4501  137.1707  161.1313 C   0  0  0  0  0  0  0  0  0  0  0  0
  133.8766  135.9429  161.6020 C   0  0  0  0  0  0  0  0  0  0  0  0
  133.0333  134.8491  161.5426 C   0  0  0  0  0  0  0  0  0  0  0  0
  131.7638  134.9831  161.0124 C   0  0  0  0  0  0  0  0  0  0  0  0
  130.6382  133.3199  156.2921 N   0  0  0  0  0  0  0  0  0  0  0  0
  131.0776  133.9747  155.7272 H   0  0  0  0  0  0  0  0  0  0  0  0
  129.9571  132.0306  153.4470 C   0  0  0  0  0  0  0  0  0  0  0  0
  130.1737  131.4621  152.2082 C   0  0  0  0  0  0  0  0  0  0  0  0
  130.2519  128.2390  149.4663 H   0  0  0  0  0  0  0  0  0  0  0  0
  130.1016  127.9050  151.2081 H   0  0  0  0  0  0  0  0  0  0  0  0
  129.1133  129.1813  150.4582 H   0  0  0  0  0  0  0  0  0  0  0  0
  132.1537  129.2107  150.7262 H   0  0  0  0  0  0  0  0  0  0  0  0
  131.1655  130.4871  149.9762 H   0  0  0  0  0  0  0  0  0  0  0  0
  132.1122  128.8534  153.1232 H   0  0  0  0  0  0  0  0  0  0  0  0
  131.7462  129.8584  155.3387 H   0  0  0  0  0  0  0  0  0  0  0  0
  129.3254  130.4471  157.0145 H   0  0  0  0  0  0  0  0  0  0  0  0
  131.2155  135.2557  158.0632 H   0  0  0  0  0  0  0  0  0  0  0  0
  128.0139  135.5027  157.7265 H   0  0  0  0  0  0  0  0  0  0  0  0
  127.9867  134.2917  161.4661 H   0  0  0  0  0  0  0  0  0  0  0  0
  125.5065  132.7270  162.7916 H   0  0  0  0  0  0  0  0  0  0  0  0
  126.3346  134.1600  163.4466 H   0  0  0  0  0  0  0  0  0  0  0  0
  124.5946  134.2283  163.0784 H   0  0  0  0  0  0  0  0  0  0  0  0
  124.1913  135.3974  160.6451 H   0  0  0  0  0  0  0  0  0  0  0  0
  124.2388  133.6960  160.0983 H   0  0  0  0  0  0  0  0  0  0  0  0
  125.3811  136.0305  158.7848 H   0  0  0  0  0  0  0  0  0  0  0  0
  125.4305  134.3267  158.2358 H   0  0  0  0  0  0  0  0  0  0  0  0
  129.9573  137.1396  159.2048 H   0  0  0  0  0  0  0  0  0  0  0  0
  129.2544  136.6225  160.7561 H   0  0  0  0  0  0  0  0  0  0  0  0
  131.8508  138.2616  160.2243 H   0  0  0  0  0  0  0  0  0  0  0  0
  134.1089  138.0252  161.1774 H   0  0  0  0  0  0  0  0  0  0  0  0
  134.8687  135.8381  162.0160 H   0  0  0  0  0  0  0  0  0  0  0  0
  133.3666  133.8898  161.9102 H   0  0  0  0  0  0  0  0  0  0  0  0
  131.1052  134.1285  160.9656 H   0  0  0  0  0  0  0  0  0  0  0  0
  129.3501  132.9195  153.5357 H   0  0  0  0  0  0  0  0  0  0  0  0
  129.7354  131.9069  151.3270 H   0  0  0  0  0  0  0  0  0  0  0  0
  1  2  1  0
  1 33  1  0
  1 34  1  0
  1 35  1  0
  2  3  1  0
  2 36  1  0
  2 37  1  0
  3 32  2  0
  3  4  1  0
  4  5  2  0
  4 38  1  0
  5  6  1  0
  5 39  1  0
  6  7  1  0
  6 31  2  0
  7 29  1  0
  7  8  2  0
  8  9  1  0
  8 40  1  0
  9 10  1  0
  9 11  1  0
 11 12  1  0
 11 29  2  0
 12 13  1  0
 12 41  1  0
 13 14  1  1
 13 15  1  0
 13 22  1  0
 15 16  2  0
 15 42  1  0
 16 21  1  0
 16 17  1  0
 17 18  2  0
 17 43  1  0
 18 19  1  0
 18 20  1  0
 19 44  1  0
 19 45  1  0
 19 46  1  0
 20 21  1  0
 20 47  1  0
 20 48  1  0
 21 49  1  0
 21 50  1  0
 22 23  1  0
 22 51  1  0
 22 52  1  0
 23 28  1  0
 23 24  2  0
 24 25  1  0
 24 53  1  0
 25 26  2  0
 25 54  1  0
 26 27  1  0
 26 55  1  0
 27 28  2  0
 27 56  1  0
 28 57  1  0
 29 30  1  0
 31 32  1  0
 31 58  1  0
 32 59  1  0
M  CHG  1  29   1
M  END
>  <DOCK_score>  (1) 
-60.577335

>  <SMILES>  (1) 
CCc1ccc(-c2c[nH]c(N[C@H](C=C3C=C(C)CC3)Cc3ccccc3)[nH+]2)cc1

$$$$
