COc1ccc2c(c1)OC[C@H]([NH+]=C(NC1CC=C(C)CC1)NC1CCC(=O)NC1)C2
     RDKit          3D

 63 66  0  0  1  0  0  0  0  0999 V2000
  135.0445  137.3123  167.0549 C   0  0  0  0  0  0  0  0  0  0  0  0
  135.2221  136.2555  166.1095 O   0  0  0  0  0  0  0  0  0  0  0  0
  134.3870  136.2397  165.0376 C   0  0  0  0  0  0  0  0  0  0  0  0
  133.4153  137.2210  164.8981 C   0  0  0  0  0  0  0  0  0  0  0  0
  132.5698  137.2026  163.8075 C   0  0  0  0  0  0  0  0  0  0  0  0
  132.6845  136.2081  162.8483 C   0  0  0  0  0  0  0  0  0  0  0  0
  133.6491  135.2259  162.9848 C   0  0  0  0  0  0  0  0  0  0  0  0
  134.5029  135.2443  164.0822 C   0  0  0  0  0  0  0  0  0  0  0  0
  133.7914  134.2310  162.0708 O   0  0  0  0  0  0  0  0  0  0  0  0
  133.1898  134.4117  160.7881 C   0  0  0  0  0  0  0  0  0  0  0  0
  131.7357  134.8548  160.9943 C   0  0  2  0  0  0  0  0  0  0  0  0
  131.2188  134.1351  161.6294 H   0  0  0  0  0  0  0  0  0  0  0  0
  131.0587  134.9462  159.6983 N   0  0  0  0  0  0  0  0  0  0  0  0
  131.5644  135.1714  158.9019 H   0  0  0  0  0  0  0  0  0  0  0  0
  129.7769  134.7249  159.6156 C   0  0  0  0  0  0  0  0  0  0  0  0
  129.2421  134.2058  158.4604 N   0  0  0  0  0  0  0  0  0  0  0  0
  130.0451  133.3177  157.6160 C   0  0  1  0  0  0  0  0  0  0  0  0
  130.4361  132.0688  158.4091 C   0  0  0  0  0  0  0  0  0  0  0  0
  131.0256  131.0377  157.4918 C   0  0  0  0  0  0  0  0  0  0  0  0
  130.8917  131.0508  156.2043 C   0  0  0  0  0  0  0  0  0  0  0  0
  131.5340  129.9387  155.4157 C   0  0  0  0  0  0  0  0  0  0  0  0
  130.1370  132.1048  155.4482 C   0  0  0  0  0  0  0  0  0  0  0  0
  129.2215  132.8808  156.3979 C   0  0  0  0  0  0  0  0  0  0  0  0
  128.9597  135.0109  160.6835 N   0  0  0  0  0  0  0  0  0  0  0  0
  127.5189  134.7622  160.5907 C   0  0  1  0  0  0  0  0  0  0  0  0
  127.2084  133.3448  161.0866 C   0  0  0  0  0  0  0  0  0  0  0  0
  125.7328  133.0475  160.8091 C   0  0  0  0  0  0  0  0  0  0  0  0
  124.8817  134.1836  161.2994 C   0  0  0  0  0  0  0  0  0  0  0  0
  123.6959  133.9852  161.4586 O   0  0  0  0  0  0  0  0  0  0  0  0
  125.3602  135.3986  161.5694 N   0  0  0  0  0  0  0  0  0  0  0  0
  126.7677  135.7637  161.4687 C   0  0  0  0  0  0  0  0  0  0  0  0
  131.7429  136.2278  161.6706 C   0  0  0  0  0  0  0  0  0  0  0  0
  134.0374  137.2637  167.4689 H   0  0  0  0  0  0  0  0  0  0  0  0
  135.7731  137.2072  167.8585 H   0  0  0  0  0  0  0  0  0  0  0  0
  135.1871  138.2720  166.5581 H   0  0  0  0  0  0  0  0  0  0  0  0
  133.3210  137.9979  165.6423 H   0  0  0  0  0  0  0  0  0  0  0  0
  131.8150  137.9675  163.7007 H   0  0  0  0  0  0  0  0  0  0  0  0
  135.2585  134.4801  164.1895 H   0  0  0  0  0  0  0  0  0  0  0  0
  133.2127  133.4722  160.2361 H   0  0  0  0  0  0  0  0  0  0  0  0
  133.7315  135.1773  160.2325 H   0  0  0  0  0  0  0  0  0  0  0  0
  128.3332  134.4274  158.2044 H   0  0  0  0  0  0  0  0  0  0  0  0
  130.9439  133.8391  157.2868 H   0  0  0  0  0  0  0  0  0  0  0  0
  131.1698  132.3383  159.1687 H   0  0  0  0  0  0  0  0  0  0  0  0
  129.5507  131.6556  158.8922 H   0  0  0  0  0  0  0  0  0  0  0  0
  131.5970  130.2346  157.9333 H   0  0  0  0  0  0  0  0  0  0  0  0
  132.0417  129.2563  156.0973 H   0  0  0  0  0  0  0  0  0  0  0  0
  130.7674  129.3962  154.8624 H   0  0  0  0  0  0  0  0  0  0  0  0
  132.2571  130.3595  154.7171 H   0  0  0  0  0  0  0  0  0  0  0  0
  130.8439  132.7929  154.9846 H   0  0  0  0  0  0  0  0  0  0  0  0
  129.5349  131.6316  154.6725 H   0  0  0  0  0  0  0  0  0  0  0  0
  128.4009  132.2404  156.7209 H   0  0  0  0  0  0  0  0  0  0  0  0
  128.8260  133.7596  155.8886 H   0  0  0  0  0  0  0  0  0  0  0  0
  129.3370  135.3774  161.4985 H   0  0  0  0  0  0  0  0  0  0  0  0
  127.1959  134.8661  159.5548 H   0  0  0  0  0  0  0  0  0  0  0  0
  127.8335  132.6256  160.5573 H   0  0  0  0  0  0  0  0  0  0  0  0
  127.4007  133.2804  162.1576 H   0  0  0  0  0  0  0  0  0  0  0  0
  125.5844  132.9205  159.7368 H   0  0  0  0  0  0  0  0  0  0  0  0
  125.4446  132.1318  161.3254 H   0  0  0  0  0  0  0  0  0  0  0  0
  124.7322  136.0824  161.8506 H   0  0  0  0  0  0  0  0  0  0  0  0
  127.2099  135.7720  162.4650 H   0  0  0  0  0  0  0  0  0  0  0  0
  126.8514  136.7591  161.0325 H   0  0  0  0  0  0  0  0  0  0  0  0
  132.0716  136.9825  160.9560 H   0  0  0  0  0  0  0  0  0  0  0  0
  130.7369  136.4681  162.0148 H   0  0  0  0  0  0  0  0  0  0  0  0
  1  2  1  0
  1 33  1  0
  1 34  1  0
  1 35  1  0
  2  3  1  0
  3  8  2  0
  3  4  1  0
  4  5  2  0
  4 36  1  0
  5  6  1  0
  5 37  1  0
  6 32  1  0
  6  7  2  0
  7  8  1  0
  7  9  1  0
  8 38  1  0
  9 10  1  0
 10 11  1  0
 10 39  1  0
 10 40  1  0
 11 12  1  1
 11 13  1  0
 11 32  1  0
 13 14  1  0
 15 13  2  0
 15 16  1  0
 15 24  1  0
 16 17  1  0
 16 41  1  0
 17 23  1  0
 17 18  1  0
 17 42  1  6
 18 19  1  0
 18 43  1  0
 18 44  1  0
 19 20  2  0
 19 45  1  0
 20 21  1  0
 20 22  1  0
 21 46  1  0
 21 47  1  0
 21 48  1  0
 22 23  1  0
 22 49  1  0
 22 50  1  0
 23 51  1  0
 23 52  1  0
 24 25  1  0
 24 53  1  0
 25 31  1  0
 25 26  1  0
 25 54  1  6
 26 27  1  0
 26 55  1  0
 26 56  1  0
 27 28  1  0
 27 57  1  0
 27 58  1  0
 28 29  2  0
 28 30  1  0
 30 31  1  0
 30 59  1  0
 31 60  1  0
 31 61  1  0
 32 62  1  0
 32 63  1  0
M  CHG  1  13   1
M  END
>  <DOCK_score>  (1) 
-47.215424

>  <SMILES>  (1) 
COc1ccc2c(c1)OC[C@H]([NH+]=C(NC1CC=C(C)CC1)NC1CCC(=O)NC1)C2

$$$$
