[NH3+][C@H](C(=O)Nc1cccc(O)c1)c1cccc(OCC2=CCOCC2)c1
     RDKit          3D

 49 51  0  0  1  0  0  0  0  0999 V2000
  129.8918  135.5492  158.3432 N   0  0  0  0  0  0  0  0  0  0  0  0
  129.3939  135.1173  157.5791 H   0  0  0  0  0  0  0  0  0  0  0  0
  129.3849  136.3629  158.6575 H   0  0  0  0  0  0  0  0  0  0  0  0
  130.8113  135.8249  158.0323 H   0  0  0  0  0  0  0  0  0  0  0  0
  130.0159  134.5915  159.4501 C   0  0  2  0  0  0  0  0  0  0  0  0
  130.5635  133.7124  159.1104 H   0  0  0  0  0  0  0  0  0  0  0  0
  128.6427  134.1797  159.9145 C   0  0  0  0  0  0  0  0  0  0  0  0
  127.7126  134.9520  159.8170 O   0  0  0  0  0  0  0  0  0  0  0  0
  128.4480  132.9530  160.4378 N   0  0  0  0  0  0  0  0  0  0  0  0
  127.1730  132.5706  160.8687 C   0  0  0  0  0  0  0  0  0  0  0  0
  126.7922  131.2355  160.8158 C   0  0  0  0  0  0  0  0  0  0  0  0
  125.5334  130.8581  161.2411 C   0  0  0  0  0  0  0  0  0  0  0  0
  124.6515  131.8060  161.7248 C   0  0  0  0  0  0  0  0  0  0  0  0
  125.0244  133.1417  161.7746 C   0  0  0  0  0  0  0  0  0  0  0  0
  124.1543  134.0734  162.2454 O   0  0  0  0  0  0  0  0  0  0  0  0
  126.2869  133.5243  161.3490 C   0  0  0  0  0  0  0  0  0  0  0  0
  130.7596  135.2365  160.5913 C   0  0  0  0  0  0  0  0  0  0  0  0
  130.1515  135.3661  161.8265 C   0  0  0  0  0  0  0  0  0  0  0  0
  130.8313  135.9565  162.8756 C   0  0  0  0  0  0  0  0  0  0  0  0
  132.1202  136.4187  162.6921 C   0  0  0  0  0  0  0  0  0  0  0  0
  132.7323  136.2903  161.4539 C   0  0  0  0  0  0  0  0  0  0  0  0
  134.0002  136.7437  161.2710 O   0  0  0  0  0  0  0  0  0  0  0  0
  134.4108  137.8599  162.0634 C   0  0  0  0  0  0  0  0  0  0  0  0
  135.4322  138.6664  161.3039 C   0  0  0  0  0  0  0  0  0  0  0  0
  136.6159  138.8203  161.8188 C   0  0  0  0  0  0  0  0  0  0  0  0
  137.7026  139.6080  161.1436 C   0  0  0  0  0  0  0  0  0  0  0  0
  137.3694  139.8329  159.7723 O   0  0  0  0  0  0  0  0  0  0  0  0
  136.0470  140.3560  159.5955 C   0  0  0  0  0  0  0  0  0  0  0  0
  135.0414  139.2678  159.9820 C   0  0  0  0  0  0  0  0  0  0  0  0
  132.0497  135.6926  160.4041 C   0  0  0  0  0  0  0  0  0  0  0  0
  129.1919  132.3353  160.5157 H   0  0  0  0  0  0  0  0  0  0  0  0
  127.4809  130.4922  160.4421 H   0  0  0  0  0  0  0  0  0  0  0  0
  125.2393  129.8197  161.1996 H   0  0  0  0  0  0  0  0  0  0  0  0
  123.6694  131.5074  162.0605 H   0  0  0  0  0  0  0  0  0  0  0  0
  124.5034  134.9753  162.2414 H   0  0  0  0  0  0  0  0  0  0  0  0
  126.5804  134.5629  161.3908 H   0  0  0  0  0  0  0  0  0  0  0  0
  129.1441  135.0052  161.9720 H   0  0  0  0  0  0  0  0  0  0  0  0
  130.3544  136.0562  163.8395 H   0  0  0  0  0  0  0  0  0  0  0  0
  132.6512  136.8792  163.5122 H   0  0  0  0  0  0  0  0  0  0  0  0
  133.5462  138.4852  162.2857 H   0  0  0  0  0  0  0  0  0  0  0  0
  134.8497  137.5022  162.9948 H   0  0  0  0  0  0  0  0  0  0  0  0
  136.8285  138.3586  162.7717 H   0  0  0  0  0  0  0  0  0  0  0  0
  138.6411  139.0569  161.2019 H   0  0  0  0  0  0  0  0  0  0  0  0
  137.8144  140.5666  161.6503 H   0  0  0  0  0  0  0  0  0  0  0  0
  135.9001  140.6379  158.5529 H   0  0  0  0  0  0  0  0  0  0  0  0
  135.9087  141.2278  160.2350 H   0  0  0  0  0  0  0  0  0  0  0  0
  135.0355  138.4909  159.2175 H   0  0  0  0  0  0  0  0  0  0  0  0
  134.0463  139.7052  160.0624 H   0  0  0  0  0  0  0  0  0  0  0  0
  132.5257  135.5871  159.4403 H   0  0  0  0  0  0  0  0  0  0  0  0
  1  2  1  0
  1  3  1  0
  1  4  1  0
  1  5  1  0
  5  6  1  6
  5  7  1  0
  5 17  1  0
  7  8  2  0
  7  9  1  0
  9 10  1  0
  9 31  1  0
 10 16  1  0
 10 11  2  0
 11 12  1  0
 11 32  1  0
 12 13  2  0
 12 33  1  0
 13 14  1  0
 13 34  1  0
 14 15  1  0
 14 16  2  0
 15 35  1  0
 16 36  1  0
 17 30  1  0
 17 18  2  0
 18 19  1  0
 18 37  1  0
 19 20  2  0
 19 38  1  0
 20 21  1  0
 20 39  1  0
 21 22  1  0
 21 30  2  0
 22 23  1  0
 23 24  1  0
 23 40  1  0
 23 41  1  0
 24 29  1  0
 24 25  2  0
 25 26  1  0
 25 42  1  0
 26 27  1  0
 26 43  1  0
 26 44  1  0
 27 28  1  0
 28 29  1  0
 28 45  1  0
 28 46  1  0
 29 47  1  0
 29 48  1  0
 30 49  1  0
M  CHG  1   1   1
M  END
>  <DOCK_score>  (1) 
-44.549866

>  <SMILES>  (1) 
[NH3+][C@H](C(=O)Nc1cccc(O)c1)c1cccc(OCC2=CCOCC2)c1

$$$$
