CC(C)(C)[C@H](CCc1cccc2ccccc12)Nc1[nH]cc(-c2ccc(N)cc2)[nH+]1
     RDKit          3D

 61 64  0  0  1  0  0  0  0  0999 V2000
  128.4662  135.1952  161.3531 C   0  0  0  0  0  0  0  0  0  0  0  0
  128.8468  135.0986  159.8743 C   0  0  0  0  0  0  0  0  0  0  0  0
  128.6428  136.4594  159.2052 C   0  0  0  0  0  0  0  0  0  0  0  0
  127.9636  134.0550  159.1873 C   0  0  0  0  0  0  0  0  0  0  0  0
  130.3147  134.6849  159.7514 C   0  0  2  0  0  0  0  0  0  0  0  0
  130.4601  133.7155  160.2280 H   0  0  0  0  0  0  0  0  0  0  0  0
  131.1979  135.7286  160.4381 C   0  0  0  0  0  0  0  0  0  0  0  0
  132.6658  135.3148  160.3153 C   0  0  0  0  0  0  0  0  0  0  0  0
  133.5357  136.3428  160.9917 C   0  0  0  0  0  0  0  0  0  0  0  0
  134.0142  137.4046  160.2870 C   0  0  0  0  0  0  0  0  0  0  0  0
  134.8193  138.3653  160.8954 C   0  0  0  0  0  0  0  0  0  0  0  0
  135.1521  138.2693  162.2119 C   0  0  0  0  0  0  0  0  0  0  0  0
  134.6773  137.1868  162.9716 C   0  0  0  0  0  0  0  0  0  0  0  0
  134.9987  137.0541  164.3334 C   0  0  0  0  0  0  0  0  0  0  0  0
  134.5199  135.9928  165.0379 C   0  0  0  0  0  0  0  0  0  0  0  0
  133.7141  135.0320  164.4294 C   0  0  0  0  0  0  0  0  0  0  0  0
  133.3822  135.1276  163.1130 C   0  0  0  0  0  0  0  0  0  0  0  0
  133.8575  136.2100  162.3529 C   0  0  0  0  0  0  0  0  0  0  0  0
  130.6790  134.5924  158.3354 N   0  0  0  0  0  0  0  0  0  0  0  0
  130.5254  133.3950  157.6579 C   0  0  0  0  0  0  0  0  0  0  0  0
  130.0432  132.2393  158.1903 N   0  0  0  0  0  0  0  0  0  0  0  0
  129.7483  132.1072  159.1049 H   0  0  0  0  0  0  0  0  0  0  0  0
  130.0519  131.2935  157.1926 C   0  0  0  0  0  0  0  0  0  0  0  0
  130.5387  131.8988  156.0812 C   0  0  0  0  0  0  0  0  0  0  0  0
  130.7303  131.2637  154.7542 C   0  0  0  0  0  0  0  0  0  0  0  0
  130.6207  132.0270  153.5929 C   0  0  0  0  0  0  0  0  0  0  0  0
  130.8044  131.4357  152.3607 C   0  0  0  0  0  0  0  0  0  0  0  0
  131.0871  130.0775  152.2757 C   0  0  0  0  0  0  0  0  0  0  0  0
  131.2669  129.4796  151.0262 N   0  0  0  0  0  0  0  0  0  0  0  0
  131.1915  129.3136  153.4321 C   0  0  0  0  0  0  0  0  0  0  0  0
  131.0144  129.9018  154.6665 C   0  0  0  0  0  0  0  0  0  0  0  0
  130.8149  133.1890  156.3961 N   0  0  0  0  0  0  0  0  0  0  0  0
  131.1721  133.8528  155.7856 H   0  0  0  0  0  0  0  0  0  0  0  0
  129.0954  135.9387  161.8423 H   0  0  0  0  0  0  0  0  0  0  0  0
  127.4205  135.4899  161.4405 H   0  0  0  0  0  0  0  0  0  0  0  0
  128.6117  134.2258  161.8297 H   0  0  0  0  0  0  0  0  0  0  0  0
  128.9139  136.3905  158.1516 H   0  0  0  0  0  0  0  0  0  0  0  0
  127.5970  136.7541  159.2926 H   0  0  0  0  0  0  0  0  0  0  0  0
  129.2719  137.2028  159.6944 H   0  0  0  0  0  0  0  0  0  0  0  0
  128.1090  133.0855  159.6640 H   0  0  0  0  0  0  0  0  0  0  0  0
  126.9178  134.3496  159.2749 H   0  0  0  0  0  0  0  0  0  0  0  0
  128.2347  133.9861  158.1339 H   0  0  0  0  0  0  0  0  0  0  0  0
  130.9267  135.7974  161.4917 H   0  0  0  0  0  0  0  0  0  0  0  0
  131.0524  136.6979  159.9616 H   0  0  0  0  0  0  0  0  0  0  0  0
  132.9368  135.2460  159.2617 H   0  0  0  0  0  0  0  0  0  0  0  0
  132.8112  134.3455  160.7920 H   0  0  0  0  0  0  0  0  0  0  0  0
  133.7653  137.5044  159.2408 H   0  0  0  0  0  0  0  0  0  0  0  0
  135.1855  139.1984  160.3137 H   0  0  0  0  0  0  0  0  0  0  0  0
  135.7741  139.0233  162.6710 H   0  0  0  0  0  0  0  0  0  0  0  0
  135.6225  137.7905  164.8182 H   0  0  0  0  0  0  0  0  0  0  0  0
  134.7684  135.8932  166.0842 H   0  0  0  0  0  0  0  0  0  0  0  0
  133.3479  134.1991  165.0110 H   0  0  0  0  0  0  0  0  0  0  0  0
  132.7573  134.3752  162.6548 H   0  0  0  0  0  0  0  0  0  0  0  0
  131.0280  135.3703  157.8727 H   0  0  0  0  0  0  0  0  0  0  0  0
  129.7324  130.2653  157.2778 H   0  0  0  0  0  0  0  0  0  0  0  0
  130.3963  133.0813  153.6583 H   0  0  0  0  0  0  0  0  0  0  0  0
  130.7241  132.0275  151.4608 H   0  0  0  0  0  0  0  0  0  0  0  0
  131.4647  128.5317  150.9660 H   0  0  0  0  0  0  0  0  0  0  0  0
  131.1943  130.0120  150.2186 H   0  0  0  0  0  0  0  0  0  0  0  0
  131.4113  128.2584  153.3637 H   0  0  0  0  0  0  0  0  0  0  0  0
  131.0959  129.3079  155.5649 H   0  0  0  0  0  0  0  0  0  0  0  0
  1  2  1  0
  1 34  1  0
  1 35  1  0
  1 36  1  0
  2  3  1  0
  2  4  1  0
  2  5  1  0
  3 37  1  0
  3 38  1  0
  3 39  1  0
  4 40  1  0
  4 41  1  0
  4 42  1  0
  5  6  1  1
  5  7  1  0
  5 19  1  0
  7  8  1  0
  7 43  1  0
  7 44  1  0
  8  9  1  0
  8 45  1  0
  8 46  1  0
  9 18  1  0
  9 10  2  0
 10 11  1  0
 10 47  1  0
 11 12  2  0
 11 48  1  0
 12 13  1  0
 12 49  1  0
 13 18  2  0
 13 14  1  0
 14 15  2  0
 14 50  1  0
 15 16  1  0
 15 51  1  0
 16 17  2  0
 16 52  1  0
 17 18  1  0
 17 53  1  0
 19 54  1  0
 20 19  1  0
 20 32  2  0
 20 21  1  0
 21 22  1  0
 21 23  1  0
 23 24  2  0
 23 55  1  0
 24 25  1  0
 24 32  1  0
 25 31  1  0
 25 26  2  0
 26 27  1  0
 26 56  1  0
 27 28  2  0
 27 57  1  0
 28 29  1  0
 28 30  1  0
 29 58  1  0
 29 59  1  0
 30 31  2  0
 30 60  1  0
 31 61  1  0
 32 33  1  0
M  CHG  1  32   1
M  END
>  <DOCK_score>  (1) 
-58.942627

>  <SMILES>  (1) 
CC(C)(C)[C@H](CCc1cccc2ccccc12)Nc1[nH]cc(-c2ccc(N)cc2)[nH+]1

$$$$
