O=C1CC[C@H](NC(NC2CC2)=[NH+]C2Cc3cscc3C2)CN1
     RDKit          3D

 45 48  0  0  1  0  0  0  0  0999 V2000
  123.8408  133.9694  161.8188 O   0  0  0  0  0  0  0  0  0  0  0  0
  125.0129  134.2161  161.6290 C   0  0  0  0  0  0  0  0  0  0  0  0
  125.9444  133.0713  161.3512 C   0  0  0  0  0  0  0  0  0  0  0  0
  127.3930  133.5126  161.5739 C   0  0  0  0  0  0  0  0  0  0  0  0
  127.6156  134.8368  160.8333 C   0  0  2  0  0  0  0  0  0  0  0  0
  127.3009  134.7324  159.7949 H   0  0  0  0  0  0  0  0  0  0  0  0
  129.0352  135.1952  160.8830 N   0  0  0  0  0  0  0  0  0  0  0  0
  129.8877  134.7656  159.8937 C   0  0  0  0  0  0  0  0  0  0  0  0
  129.4081  133.9997  158.8576 N   0  0  0  0  0  0  0  0  0  0  0  0
  130.3165  133.5419  157.8035 C   0  0  0  0  0  0  0  0  0  0  0  0
  129.8871  132.3265  156.9794 C   0  0  0  0  0  0  0  0  0  0  0  0
  131.0139  132.1954  158.0074 C   0  0  0  0  0  0  0  0  0  0  0  0
  131.1508  135.0846  159.9380 N   0  0  0  0  0  0  0  0  0  0  0  0
  131.6544  135.1864  159.1152 H   0  0  0  0  0  0  0  0  0  0  0  0
  131.8097  135.2894  161.2303 C   0  0  0  0  0  0  0  0  0  0  0  0
  131.8504  136.7860  161.5922 C   0  0  0  0  0  0  0  0  0  0  0  0
  133.1694  136.9755  162.3436 C   0  0  0  0  0  0  0  0  0  0  0  0
  133.6959  137.9036  163.1681 C   0  0  0  0  0  0  0  0  0  0  0  0
  135.3108  137.4286  163.6605 S   0  0  0  0  0  0  0  0  0  0  0  0
  135.2029  135.9601  162.7077 C   0  0  0  0  0  0  0  0  0  0  0  0
  134.0073  135.8950  162.0875 C   0  0  0  0  0  0  0  0  0  0  0  0
  133.3026  134.9196  161.1475 C   0  0  0  0  0  0  0  0  0  0  0  0
  126.7873  135.9254  161.5168 C   0  0  0  0  0  0  0  0  0  0  0  0
  125.4059  135.4895  161.6785 N   0  0  0  0  0  0  0  0  0  0  0  0
  125.8198  132.7456  160.3185 H   0  0  0  0  0  0  0  0  0  0  0  0
  125.7109  132.2439  162.0212 H   0  0  0  0  0  0  0  0  0  0  0  0
  128.0718  132.7547  161.1828 H   0  0  0  0  0  0  0  0  0  0  0  0
  127.5741  133.6533  162.6395 H   0  0  0  0  0  0  0  0  0  0  0  0
  129.3736  135.7356  161.6140 H   0  0  0  0  0  0  0  0  0  0  0  0
  128.4689  133.7590  158.8268 H   0  0  0  0  0  0  0  0  0  0  0  0
  130.8749  134.3254  157.2912 H   0  0  0  0  0  0  0  0  0  0  0  0
  128.9287  131.8672  157.2217 H   0  0  0  0  0  0  0  0  0  0  0  0
  130.1634  132.3100  155.9252 H   0  0  0  0  0  0  0  0  0  0  0  0
  132.0308  132.0930  157.6289 H   0  0  0  0  0  0  0  0  0  0  0  0
  130.7970  131.6503  158.9259 H   0  0  0  0  0  0  0  0  0  0  0  0
  131.3118  134.7157  162.0120 H   0  0  0  0  0  0  0  0  0  0  0  0
  131.8403  137.3944  160.6879 H   0  0  0  0  0  0  0  0  0  0  0  0
  131.0063  137.0437  162.2321 H   0  0  0  0  0  0  0  0  0  0  0  0
  133.1955  138.8084  163.4800 H   0  0  0  0  0  0  0  0  0  0  0  0
  135.9817  135.2160  162.6286 H   0  0  0  0  0  0  0  0  0  0  0  0
  133.4575  133.8936  161.4814 H   0  0  0  0  0  0  0  0  0  0  0  0
  133.6672  135.0443  160.1280 H   0  0  0  0  0  0  0  0  0  0  0  0
  127.2140  136.1411  162.4964 H   0  0  0  0  0  0  0  0  0  0  0  0
  126.8108  136.8305  160.9100 H   0  0  0  0  0  0  0  0  0  0  0  0
  124.7300  136.1682  161.8317 H   0  0  0  0  0  0  0  0  0  0  0  0
  1  2  2  0
  2 24  1  0
  2  3  1  0
  3  4  1  0
  3 25  1  0
  3 26  1  0
  4  5  1  0
  4 27  1  0
  4 28  1  0
  5  6  1  6
  5  7  1  0
  5 23  1  0
  7 29  1  0
  8  7  1  0
  8  9  1  0
  8 13  2  0
  9 10  1  0
  9 30  1  0
 10 12  1  0
 10 11  1  0
 10 31  1  0
 11 12  1  0
 11 32  1  0
 11 33  1  0
 12 34  1  0
 12 35  1  0
 13 14  1  0
 13 15  1  0
 15 22  1  0
 15 16  1  0
 15 36  1  0
 16 17  1  0
 16 37  1  0
 16 38  1  0
 17 21  1  0
 17 18  2  0
 18 19  1  0
 18 39  1  0
 19 20  1  0
 20 21  2  0
 20 40  1  0
 21 22  1  0
 22 41  1  0
 22 42  1  0
 23 24  1  0
 23 43  1  0
 23 44  1  0
 24 45  1  0
M  CHG  1  13   1
M  END
>  <DOCK_score>  (1) 
-44.131336

>  <SMILES>  (1) 
O=C1CC[C@H](NC(NC2CC2)=[NH+]C2Cc3cscc3C2)CN1

$$$$
