Cc1cn[nH]c1CCNC(=O)c1nn(C2CCOCC2)cc1C[NH2+][C@@H](CO)C1CC1
     RDKit          3D

 63 66  0  0  1  0  0  0  0  0999 V2000
  132.9184  140.1242  162.4994 C   0  0  0  0  0  0  0  0  0  0  0  0
  132.3106  139.5639  161.2393 C   0  0  0  0  0  0  0  0  0  0  0  0
  131.1041  139.9671  160.6579 C   0  0  0  0  0  0  0  0  0  0  0  0
  130.9115  139.2524  159.5789 N   0  0  0  0  0  0  0  0  0  0  0  0
  131.9935  138.3742  159.4367 N   0  0  0  0  0  0  0  0  0  0  0  0
  132.1151  137.7294  158.7223 H   0  0  0  0  0  0  0  0  0  0  0  0
  132.8356  138.5817  160.4708 C   0  0  0  0  0  0  0  0  0  0  0  0
  134.1313  137.8542  160.7211 C   0  0  0  0  0  0  0  0  0  0  0  0
  133.8650  136.6208  161.5862 C   0  0  0  0  0  0  0  0  0  0  0  0
  132.9313  135.7302  160.8925 N   0  0  0  0  0  0  0  0  0  0  0  0
  131.7477  135.4216  161.4587 C   0  0  0  0  0  0  0  0  0  0  0  0
  131.4549  135.8825  162.5448 O   0  0  0  0  0  0  0  0  0  0  0  0
  130.8064  134.5237  160.7592 C   0  0  0  0  0  0  0  0  0  0  0  0
  130.9929  133.9509  159.5869 N   0  0  0  0  0  0  0  0  0  0  0  0
  129.9708  133.2368  159.2773 N   0  0  0  0  0  0  0  0  0  0  0  0
  129.8337  132.4612  158.0422 C   0  0  0  0  0  0  0  0  0  0  0  0
  130.9646  131.4318  157.9552 C   0  0  0  0  0  0  0  0  0  0  0  0
  130.8597  130.6791  156.6263 C   0  0  0  0  0  0  0  0  0  0  0  0
  130.9142  131.6149  155.5459 O   0  0  0  0  0  0  0  0  0  0  0  0
  129.8538  132.5729  155.5488 C   0  0  0  0  0  0  0  0  0  0  0  0
  129.9190  133.4004  156.8350 C   0  0  0  0  0  0  0  0  0  0  0  0
  129.0434  133.2997  160.2568 C   0  0  0  0  0  0  0  0  0  0  0  0
  129.5349  134.1104  161.2230 C   0  0  0  0  0  0  0  0  0  0  0  0
  128.8685  134.4923  162.5196 C   0  0  0  0  0  0  0  0  0  0  0  0
  129.0166  135.9372  162.7394 N   0  0  0  0  0  0  0  0  0  0  0  0
  129.9969  136.1719  162.7831 H   0  0  0  0  0  0  0  0  0  0  0  0
  128.5844  136.4391  161.9783 H   0  0  0  0  0  0  0  0  0  0  0  0
  128.3670  136.3094  164.0031 C   0  0  1  0  0  0  0  0  0  0  0  0
  128.4769  137.3816  164.1662 H   0  0  0  0  0  0  0  0  0  0  0  0
  126.8804  135.9535  163.9366 C   0  0  0  0  0  0  0  0  0  0  0  0
  126.3735  136.2657  162.6375 O   0  0  0  0  0  0  0  0  0  0  0  0
  129.0226  135.5483  165.1571 C   0  0  0  0  0  0  0  0  0  0  0  0
  129.0694  136.2380  166.5220 C   0  0  0  0  0  0  0  0  0  0  0  0
  130.3492  136.0875  165.6957 C   0  0  0  0  0  0  0  0  0  0  0  0
  133.5679  140.9626  162.2478 H   0  0  0  0  0  0  0  0  0  0  0  0
  132.1253  140.4658  163.1646 H   0  0  0  0  0  0  0  0  0  0  0  0
  133.5015  139.3494  162.9971 H   0  0  0  0  0  0  0  0  0  0  0  0
  130.4449  140.7350  161.0347 H   0  0  0  0  0  0  0  0  0  0  0  0
  134.8261  138.5170  161.2372 H   0  0  0  0  0  0  0  0  0  0  0  0
  134.5637  137.5444  159.7697 H   0  0  0  0  0  0  0  0  0  0  0  0
  133.4327  136.9308  162.5376 H   0  0  0  0  0  0  0  0  0  0  0  0
  134.8023  136.0947  161.7672 H   0  0  0  0  0  0  0  0  0  0  0  0
  133.1650  135.3625  160.0259 H   0  0  0  0  0  0  0  0  0  0  0  0
  128.8722  131.9477  158.0390 H   0  0  0  0  0  0  0  0  0  0  0  0
  131.9264  131.9419  158.0099 H   0  0  0  0  0  0  0  0  0  0  0  0
  130.8791  130.7261  158.7813 H   0  0  0  0  0  0  0  0  0  0  0  0
  131.6872  129.9747  156.5411 H   0  0  0  0  0  0  0  0  0  0  0  0
  129.9151  130.1365  156.5894 H   0  0  0  0  0  0  0  0  0  0  0  0
  128.8960  132.0551  155.4978 H   0  0  0  0  0  0  0  0  0  0  0  0
  129.9571  133.2320  154.6868 H   0  0  0  0  0  0  0  0  0  0  0  0
  129.0850  134.1018  156.8596 H   0  0  0  0  0  0  0  0  0  0  0  0
  130.8591  133.9510  156.8678 H   0  0  0  0  0  0  0  0  0  0  0  0
  128.0877  132.7967  160.2675 H   0  0  0  0  0  0  0  0  0  0  0  0
  127.8094  134.2386  162.4722 H   0  0  0  0  0  0  0  0  0  0  0  0
  129.3354  133.9500  163.3417 H   0  0  0  0  0  0  0  0  0  0  0  0
  126.7529  134.8884  164.1300 H   0  0  0  0  0  0  0  0  0  0  0  0
  126.3356  136.5269  164.6866 H   0  0  0  0  0  0  0  0  0  0  0  0
  125.4344  136.0654  162.5231 H   0  0  0  0  0  0  0  0  0  0  0  0
  128.8869  134.4669  165.1442 H   0  0  0  0  0  0  0  0  0  0  0  0
  128.6333  137.2341  166.5979 H   0  0  0  0  0  0  0  0  0  0  0  0
  128.9651  135.6103  167.4070 H   0  0  0  0  0  0  0  0  0  0  0  0
  131.0862  135.3608  166.0374 H   0  0  0  0  0  0  0  0  0  0  0  0
  130.7552  136.9843  165.2277 H   0  0  0  0  0  0  0  0  0  0  0  0
  1  2  1  0
  1 35  1  0
  1 36  1  0
  1 37  1  0
  2  7  2  0
  2  3  1  0
  3  4  2  0
  3 38  1  0
  4  5  1  0
  5  6  1  0
  5  7  1  0
  7  8  1  0
  8  9  1  0
  8 39  1  0
  8 40  1  0
  9 10  1  0
  9 41  1  0
  9 42  1  0
 10 11  1  0
 10 43  1  0
 11 12  2  0
 11 13  1  0
 13 23  1  0
 13 14  2  0
 14 15  1  0
 15 16  1  0
 15 22  1  0
 16 21  1  0
 16 17  1  0
 16 44  1  0
 17 18  1  0
 17 45  1  0
 17 46  1  0
 18 19  1  0
 18 47  1  0
 18 48  1  0
 19 20  1  0
 20 21  1  0
 20 49  1  0
 20 50  1  0
 21 51  1  0
 21 52  1  0
 22 23  2  0
 22 53  1  0
 23 24  1  0
 24 25  1  0
 24 54  1  0
 24 55  1  0
 25 26  1  0
 25 27  1  0
 25 28  1  0
 28 29  1  1
 28 30  1  0
 28 32  1  0
 30 31  1  0
 30 56  1  0
 30 57  1  0
 31 58  1  0
 32 34  1  0
 32 33  1  0
 32 59  1  0
 33 34  1  0
 33 60  1  0
 33 61  1  0
 34 62  1  0
 34 63  1  0
M  CHG  1  25   1
M  END
>  <DOCK_score>  (1) 
-41.609982

>  <SMILES>  (1) 
Cc1cn[nH]c1CCNC(=O)c1nn(C2CCOCC2)cc1C[NH2+][C@@H](CO)C1CC1

$$$$
