CCn1ncnc1CC1(O)C=C[C@@H](Nc2[nH]cc(-c3ccc(N)cc3)[nH+]2)c2ccccc21
     RDKit          3D

 58 62  0  0  1  0  0  0  0  0999 V2000
  131.7627  141.5824  163.4564 C   0  0  0  0  0  0  0  0  0  0  0  0
  130.4937  141.5334  162.6032 C   0  0  0  0  0  0  0  0  0  0  0  0
  130.6528  140.5291  161.5485 N   0  0  0  0  0  0  0  0  0  0  0  0
  131.1720  140.7365  160.2601 N   0  0  0  0  0  0  0  0  0  0  0  0
  131.1344  139.5824  159.6475 C   0  0  0  0  0  0  0  0  0  0  0  0
  130.6293  138.6692  160.4759 N   0  0  0  0  0  0  0  0  0  0  0  0
  130.3304  139.2260  161.6213 C   0  0  0  0  0  0  0  0  0  0  0  0
  129.7345  138.5273  162.8163 C   0  0  0  0  0  0  0  0  0  0  0  0
  129.5192  137.0487  162.4876 C   0  0  1  0  0  0  0  0  0  0  0  0
  128.9751  136.3903  163.6331 O   0  0  0  0  0  0  0  0  0  0  0  0
  128.5498  136.9374  161.3530 C   0  0  0  0  0  0  0  0  0  0  0  0
  128.6573  136.0615  160.4049 C   0  0  0  0  0  0  0  0  0  0  0  0
  129.7639  135.0569  160.3308 C   0  0  1  0  0  0  0  0  0  0  0  0
  129.4043  134.1023  160.7148 H   0  0  0  0  0  0  0  0  0  0  0  0
  130.1651  134.8881  158.9320 N   0  0  0  0  0  0  0  0  0  0  0  0
  130.0689  133.6453  158.3295 C   0  0  0  0  0  0  0  0  0  0  0  0
  129.6141  132.5092  158.9244 N   0  0  0  0  0  0  0  0  0  0  0  0
  129.3018  132.4248  159.8389 H   0  0  0  0  0  0  0  0  0  0  0  0
  129.6788  131.5031  157.9897 C   0  0  0  0  0  0  0  0  0  0  0  0
  130.1705  132.0538  156.8525 C   0  0  0  0  0  0  0  0  0  0  0  0
  130.4136  131.3438  155.5728 C   0  0  0  0  0  0  0  0  0  0  0  0
  129.7506  131.7461  154.4144 C   0  0  0  0  0  0  0  0  0  0  0  0
  129.9826  131.0883  153.2249 C   0  0  0  0  0  0  0  0  0  0  0  0
  130.8674  130.0175  153.1827 C   0  0  0  0  0  0  0  0  0  0  0  0
  131.0966  129.3486  151.9779 N   0  0  0  0  0  0  0  0  0  0  0  0
  131.5254  129.6111  154.3376 C   0  0  0  0  0  0  0  0  0  0  0  0
  131.3010  130.2696  155.5281 C   0  0  0  0  0  0  0  0  0  0  0  0
  130.3955  133.3704  157.0902 N   0  0  0  0  0  0  0  0  0  0  0  0
  130.7444  134.0065  156.4462 H   0  0  0  0  0  0  0  0  0  0  0  0
  130.9573  135.4919  161.1351 C   0  0  0  0  0  0  0  0  0  0  0  0
  132.1949  134.9363  160.8471 C   0  0  0  0  0  0  0  0  0  0  0  0
  133.3109  135.3073  161.5698 C   0  0  0  0  0  0  0  0  0  0  0  0
  133.1971  136.2463  162.5781 C   0  0  0  0  0  0  0  0  0  0  0  0
  131.9659  136.8003  162.8656 C   0  0  0  0  0  0  0  0  0  0  0  0
  130.8429  136.4240  162.1441 C   0  0  0  0  0  0  0  0  0  0  0  0
  131.6443  142.3296  164.2410 H   0  0  0  0  0  0  0  0  0  0  0  0
  131.9349  140.6054  163.9080 H   0  0  0  0  0  0  0  0  0  0  0  0
  132.6129  141.8472  162.8279 H   0  0  0  0  0  0  0  0  0  0  0  0
  130.3214  142.5104  162.1515 H   0  0  0  0  0  0  0  0  0  0  0  0
  129.6433  141.2685  163.2316 H   0  0  0  0  0  0  0  0  0  0  0  0
  131.4637  139.3980  158.6356 H   0  0  0  0  0  0  0  0  0  0  0  0
  128.7782  138.9870  163.0663 H   0  0  0  0  0  0  0  0  0  0  0  0
  130.4130  138.6160  163.6647 H   0  0  0  0  0  0  0  0  0  0  0  0
  128.8238  135.4435  163.5077 H   0  0  0  0  0  0  0  0  0  0  0  0
  127.7163  137.6234  161.3234 H   0  0  0  0  0  0  0  0  0  0  0  0
  127.9087  136.0560  159.6264 H   0  0  0  0  0  0  0  0  0  0  0  0
  130.4982  135.6469  158.4279 H   0  0  0  0  0  0  0  0  0  0  0  0
  129.3925  130.4716  158.1337 H   0  0  0  0  0  0  0  0  0  0  0  0
  129.0591  132.5750  154.4477 H   0  0  0  0  0  0  0  0  0  0  0  0
  129.4722  131.4023  152.3263 H   0  0  0  0  0  0  0  0  0  0  0  0
  131.7148  128.6022  151.9473 H   0  0  0  0  0  0  0  0  0  0  0  0
  130.6383  129.6324  151.1712 H   0  0  0  0  0  0  0  0  0  0  0  0
  132.2132  128.7793  154.3025 H   0  0  0  0  0  0  0  0  0  0  0  0
  131.8127  129.9538  156.4253 H   0  0  0  0  0  0  0  0  0  0  0  0
  132.2851  134.2062  160.0563 H   0  0  0  0  0  0  0  0  0  0  0  0
  134.2717  134.8683  161.3450 H   0  0  0  0  0  0  0  0  0  0  0  0
  134.0688  136.5423  163.1431 H   0  0  0  0  0  0  0  0  0  0  0  0
  131.8767  137.5305  163.6563 H   0  0  0  0  0  0  0  0  0  0  0  0
  1  2  1  0
  1 36  1  0
  1 37  1  0
  1 38  1  0
  2  3  1  0
  2 39  1  0
  2 40  1  0
  3  7  1  0
  3  4  1  0
  4  5  2  0
  5  6  1  0
  5 41  1  0
  6  7  2  0
  7  8  1  0
  8  9  1  0
  8 42  1  0
  8 43  1  0
  9 35  1  0
  9 10  1  1
  9 11  1  0
 10 44  1  0
 11 12  2  0
 11 45  1  0
 12 13  1  0
 12 46  1  0
 13 14  1  1
 13 15  1  0
 13 30  1  0
 15 47  1  0
 16 15  1  0
 16 28  2  0
 16 17  1  0
 17 18  1  0
 17 19  1  0
 19 20  2  0
 19 48  1  0
 20 21  1  0
 20 28  1  0
 21 27  1  0
 21 22  2  0
 22 23  1  0
 22 49  1  0
 23 24  2  0
 23 50  1  0
 24 25  1  0
 24 26  1  0
 25 51  1  0
 25 52  1  0
 26 27  2  0
 26 53  1  0
 27 54  1  0
 28 29  1  0
 30 35  2  0
 30 31  1  0
 31 32  2  0
 31 55  1  0
 32 33  1  0
 32 56  1  0
 33 34  2  0
 33 57  1  0
 34 35  1  0
 34 58  1  0
M  CHG  1  28   1
M  END
>  <DOCK_score>  (1) 
-59.144001

>  <SMILES>  (1) 
CCn1ncnc1CC1(O)C=C[C@@H](Nc2[nH]cc(-c3ccc(N)cc3)[nH+]2)c2ccccc21

$$$$
