NC1=CC(=C[C@@H](Nc2[nH]cc(-c3ccc(Br)cc3)[nH+]2)c2ccc(C3CC3)cc2)CC1
     RDKit          3D

 56 60  0  0  1  0  0  0  0  0999 V2000
  133.3597  137.3759  160.4153 N   0  0  0  0  0  0  0  0  0  0  0  0
  133.0542  136.1300  160.9284 C   0  0  0  0  0  0  0  0  0  0  0  0
  132.2132  135.2636  160.3678 C   0  0  0  0  0  0  0  0  0  0  0  0
  132.0949  134.0296  161.1462 C   0  0  0  0  0  0  0  0  0  0  0  0
  131.3347  132.9790  160.8456 C   0  0  0  0  0  0  0  0  0  0  0  0
  130.5739  132.9469  159.5452 C   0  0  1  0  0  0  0  0  0  0  0  0
  130.7685  133.8632  158.9876 H   0  0  0  0  0  0  0  0  0  0  0  0
  131.0072  131.7925  158.7542 N   0  0  0  0  0  0  0  0  0  0  0  0
  130.9723  131.8485  157.3714 C   0  0  0  0  0  0  0  0  0  0  0  0
  131.1340  132.9710  156.6192 N   0  0  0  0  0  0  0  0  0  0  0  0
  131.2926  133.8681  156.9525 H   0  0  0  0  0  0  0  0  0  0  0  0
  131.0307  132.5993  155.3006 C   0  0  0  0  0  0  0  0  0  0  0  0
  130.8090  131.2616  155.2852 C   0  0  0  0  0  0  0  0  0  0  0  0
  130.6306  130.4202  154.0765 C   0  0  0  0  0  0  0  0  0  0  0  0
  131.5105  129.3703  153.8193 C   0  0  0  0  0  0  0  0  0  0  0  0
  131.3367  128.5870  152.6966 C   0  0  0  0  0  0  0  0  0  0  0  0
  130.2981  128.8495  151.8206 C   0  0  0  0  0  0  0  0  0  0  0  0
  130.0710  127.7777  150.2793 Br  0  0  0  0  0  0  0  0  0  0  0  0
  129.4245  129.8947  152.0684 C   0  0  0  0  0  0  0  0  0  0  0  0
  129.5860  130.6805  153.1912 C   0  0  0  0  0  0  0  0  0  0  0  0
  130.7841  130.8281  156.5705 N   0  0  0  0  0  0  0  0  0  0  0  0
  130.6462  129.9102  156.8520 H   0  0  0  0  0  0  0  0  0  0  0  0
  129.0981  132.8359  159.8292 C   0  0  0  0  0  0  0  0  0  0  0  0
  128.6087  131.7489  160.5292 C   0  0  0  0  0  0  0  0  0  0  0  0
  127.2550  131.6470  160.7896 C   0  0  0  0  0  0  0  0  0  0  0  0
  126.3906  132.6324  160.3505 C   0  0  0  0  0  0  0  0  0  0  0  0
  124.9146  132.5212  160.6342 C   0  0  0  0  0  0  0  0  0  0  0  0
  124.2255  133.7278  161.2746 C   0  0  0  0  0  0  0  0  0  0  0  0
  124.4793  132.4636  162.0998 C   0  0  0  0  0  0  0  0  0  0  0  0
  126.8799  133.7194  159.6505 C   0  0  0  0  0  0  0  0  0  0  0  0
  128.2335  133.8212  159.3900 C   0  0  0  0  0  0  0  0  0  0  0  0
  132.9900  134.1689  162.3587 C   0  0  0  0  0  0  0  0  0  0  0  0
  133.6263  135.5610  162.2023 C   0  0  0  0  0  0  0  0  0  0  0  0
  132.9502  137.6733  159.5878 H   0  0  0  0  0  0  0  0  0  0  0  0
  133.9838  137.9531  160.8824 H   0  0  0  0  0  0  0  0  0  0  0  0
  131.6801  135.4496  159.4471 H   0  0  0  0  0  0  0  0  0  0  0  0
  131.2632  132.1496  161.5337 H   0  0  0  0  0  0  0  0  0  0  0  0
  131.3184  130.9888  159.1995 H   0  0  0  0  0  0  0  0  0  0  0  0
  131.1110  133.2482  154.4410 H   0  0  0  0  0  0  0  0  0  0  0  0
  132.3243  129.1673  154.4999 H   0  0  0  0  0  0  0  0  0  0  0  0
  132.0155  127.7707  152.4985 H   0  0  0  0  0  0  0  0  0  0  0  0
  128.6155  130.0956  151.3819 H   0  0  0  0  0  0  0  0  0  0  0  0
  128.9040  131.4953  153.3839 H   0  0  0  0  0  0  0  0  0  0  0  0
  129.2840  130.9792  160.8723 H   0  0  0  0  0  0  0  0  0  0  0  0
  126.8721  130.7955  161.3324 H   0  0  0  0  0  0  0  0  0  0  0  0
  124.3405  131.9368  159.9151 H   0  0  0  0  0  0  0  0  0  0  0  0
  124.8396  134.6019  161.4909 H   0  0  0  0  0  0  0  0  0  0  0  0
  123.1978  133.9368  160.9773 H   0  0  0  0  0  0  0  0  0  0  0  0
  123.6184  131.8416  162.3448 H   0  0  0  0  0  0  0  0  0  0  0  0
  125.2603  132.5058  162.8589 H   0  0  0  0  0  0  0  0  0  0  0  0
  126.2046  134.4893  159.3077 H   0  0  0  0  0  0  0  0  0  0  0  0
  128.6160  134.6709  158.8437 H   0  0  0  0  0  0  0  0  0  0  0  0
  132.4017  134.1172  163.2749 H   0  0  0  0  0  0  0  0  0  0  0  0
  133.7600  133.3974  162.3549 H   0  0  0  0  0  0  0  0  0  0  0  0
  134.7101  135.4771  162.1237 H   0  0  0  0  0  0  0  0  0  0  0  0
  133.3572  136.1910  163.0502 H   0  0  0  0  0  0  0  0  0  0  0  0
  1  2  1  0
  1 34  1  0
  1 35  1  0
  2 33  1  0
  2  3  2  0
  3  4  1  0
  3 36  1  0
  4  5  2  0
  4 32  1  0
  5  6  1  0
  5 37  1  0
  6  7  1  6
  6  8  1  0
  6 23  1  0
  8 38  1  0
  9  8  1  0
  9 21  2  0
  9 10  1  0
 10 11  1  0
 10 12  1  0
 12 13  2  0
 12 39  1  0
 13 14  1  0
 13 21  1  0
 14 20  1  0
 14 15  2  0
 15 16  1  0
 15 40  1  0
 16 17  2  0
 16 41  1  0
 17 18  1  0
 17 19  1  0
 19 20  2  0
 19 42  1  0
 20 43  1  0
 21 22  1  0
 23 31  1  0
 23 24  2  0
 24 25  1  0
 24 44  1  0
 25 26  2  0
 25 45  1  0
 26 27  1  0
 26 30  1  0
 27 29  1  0
 27 28  1  0
 27 46  1  0
 28 29  1  0
 28 47  1  0
 28 48  1  0
 29 49  1  0
 29 50  1  0
 30 31  2  0
 30 51  1  0
 31 52  1  0
 32 33  1  0
 32 53  1  0
 32 54  1  0
 33 55  1  0
 33 56  1  0
M  CHG  1  21   1
M  END
>  <DOCK_score>  (1) 
-60.623833

>  <SMILES>  (1) 
NC1=CC(=C[C@@H](Nc2[nH]cc(-c3ccc(Br)cc3)[nH+]2)c2ccc(C3CC3)cc2)CC1

$$$$
