c1ccc(CCCc2c(N3CC[NH+](C(c4ccccc4)c4ccccc4)CC3)ccc3c2CCC3)cc1
     RDKit          3D

 76 81  0  0  0  0  0  0  0  0999 V2000
  129.1980  140.4175  166.9623 C   0  0  0  0  0  0  0  0  0  0  0  0
  129.2871  139.0703  167.2590 C   0  0  0  0  0  0  0  0  0  0  0  0
  130.3141  138.3122  166.7285 C   0  0  0  0  0  0  0  0  0  0  0  0
  131.2520  138.9013  165.9015 C   0  0  0  0  0  0  0  0  0  0  0  0
  132.3720  138.0748  165.3235 C   0  0  0  0  0  0  0  0  0  0  0  0
  132.7889  138.6557  163.9709 C   0  0  0  0  0  0  0  0  0  0  0  0
  133.9259  137.8167  163.3843 C   0  0  0  0  0  0  0  0  0  0  0  0
  134.3366  138.3888  162.0520 C   0  0  0  0  0  0  0  0  0  0  0  0
  133.7208  137.9466  160.8891 C   0  0  0  0  0  0  0  0  0  0  0  0
  132.7220  136.9724  160.9519 N   0  0  0  0  0  0  0  0  0  0  0  0
  133.1371  135.7467  160.2548 C   0  0  0  0  0  0  0  0  0  0  0  0
  132.0426  134.6868  160.3976 C   0  0  0  0  0  0  0  0  0  0  0  0
  130.7897  135.1962  159.8246 N   0  0  0  0  0  0  0  0  0  0  0  0
  130.9314  135.4182  158.8505 H   0  0  0  0  0  0  0  0  0  0  0  0
  129.7440  134.1714  159.9457 C   0  0  0  0  0  0  0  0  0  0  0  0
  128.4585  134.6937  159.3578 C   0  0  0  0  0  0  0  0  0  0  0  0
  127.2442  134.2560  159.8524 C   0  0  0  0  0  0  0  0  0  0  0  0
  126.0650  134.7387  159.3165 C   0  0  0  0  0  0  0  0  0  0  0  0
  126.0998  135.6513  158.2794 C   0  0  0  0  0  0  0  0  0  0  0  0
  127.3145  136.0853  157.7807 C   0  0  0  0  0  0  0  0  0  0  0  0
  128.4936  135.6064  158.3202 C   0  0  0  0  0  0  0  0  0  0  0  0
  130.1684  132.9306  159.2032 C   0  0  0  0  0  0  0  0  0  0  0  0
  129.7430  131.6879  159.6341 C   0  0  0  0  0  0  0  0  0  0  0  0
  130.1282  130.5500  158.9500 C   0  0  0  0  0  0  0  0  0  0  0  0
  130.9474  130.6541  157.8415 C   0  0  0  0  0  0  0  0  0  0  0  0
  131.3771  131.8965  157.4138 C   0  0  0  0  0  0  0  0  0  0  0  0
  130.9876  133.0346  158.0946 C   0  0  0  0  0  0  0  0  0  0  0  0
  130.3751  136.4059  160.5470 C   0  0  0  0  0  0  0  0  0  0  0  0
  131.4558  137.4804  160.4054 C   0  0  0  0  0  0  0  0  0  0  0  0
  134.1018  138.4760  159.6629 C   0  0  0  0  0  0  0  0  0  0  0  0
  135.0897  139.4380  159.6067 C   0  0  0  0  0  0  0  0  0  0  0  0
  135.7034  139.8785  160.7679 C   0  0  0  0  0  0  0  0  0  0  0  0
  135.3263  139.3532  161.9908 C   0  0  0  0  0  0  0  0  0  0  0  0
  136.1373  139.9971  163.0993 C   0  0  0  0  0  0  0  0  0  0  0  0
  136.7382  141.2706  162.4676 C   0  0  0  0  0  0  0  0  0  0  0  0
  136.7955  140.9075  160.9687 C   0  0  0  0  0  0  0  0  0  0  0  0
  131.1660  140.2496  165.6089 C   0  0  0  0  0  0  0  0  0  0  0  0
  130.1360  141.0065  166.1351 C   0  0  0  0  0  0  0  0  0  0  0  0
  128.3958  141.0099  167.3770 H   0  0  0  0  0  0  0  0  0  0  0  0
  128.5545  138.6102  167.9055 H   0  0  0  0  0  0  0  0  0  0  0  0
  130.3839  137.2597  166.9606 H   0  0  0  0  0  0  0  0  0  0  0  0
  132.0333  137.0476  165.1890 H   0  0  0  0  0  0  0  0  0  0  0  0
  133.2235  138.0906  166.0038 H   0  0  0  0  0  0  0  0  0  0  0  0
  133.1275  139.6830  164.1056 H   0  0  0  0  0  0  0  0  0  0  0  0
  131.9373  138.6401  163.2908 H   0  0  0  0  0  0  0  0  0  0  0  0
  133.5872  136.7893  163.2496 H   0  0  0  0  0  0  0  0  0  0  0  0
  134.7774  137.8322  164.0646 H   0  0  0  0  0  0  0  0  0  0  0  0
  133.2963  135.9650  159.1989 H   0  0  0  0  0  0  0  0  0  0  0  0
  134.0630  135.3748  160.6934 H   0  0  0  0  0  0  0  0  0  0  0  0
  131.8932  134.4588  161.4530 H   0  0  0  0  0  0  0  0  0  0  0  0
  132.3423  133.7818  159.8692 H   0  0  0  0  0  0  0  0  0  0  0  0
  129.5911  133.9309  160.9977 H   0  0  0  0  0  0  0  0  0  0  0  0
  127.2167  133.5396  160.6601 H   0  0  0  0  0  0  0  0  0  0  0  0
  125.1163  134.3996  159.7054 H   0  0  0  0  0  0  0  0  0  0  0  0
  125.1788  136.0254  157.8570 H   0  0  0  0  0  0  0  0  0  0  0  0
  127.3419  136.7982  156.9698 H   0  0  0  0  0  0  0  0  0  0  0  0
  129.4423  135.9451  157.9307 H   0  0  0  0  0  0  0  0  0  0  0  0
  129.1065  131.6062  160.5028 H   0  0  0  0  0  0  0  0  0  0  0  0
  129.7928  129.5795  159.2845 H   0  0  0  0  0  0  0  0  0  0  0  0
  131.2521  129.7648  157.3097 H   0  0  0  0  0  0  0  0  0  0  0  0
  132.0175  131.9777  156.5478 H   0  0  0  0  0  0  0  0  0  0  0  0
  131.3235  134.0053  157.7607 H   0  0  0  0  0  0  0  0  0  0  0  0
  130.2342  136.1691  161.6016 H   0  0  0  0  0  0  0  0  0  0  0  0
  129.4385  136.7755  160.1294 H   0  0  0  0  0  0  0  0  0  0  0  0
  131.1550  138.3730  160.9537 H   0  0  0  0  0  0  0  0  0  0  0  0
  131.5872  137.7272  159.3520 H   0  0  0  0  0  0  0  0  0  0  0  0
  133.6257  138.1356  158.7551 H   0  0  0  0  0  0  0  0  0  0  0  0
  135.3854  139.8497  158.6530 H   0  0  0  0  0  0  0  0  0  0  0  0
  136.9317  139.3253  163.4245 H   0  0  0  0  0  0  0  0  0  0  0  0
  135.4945  140.2589  163.9397 H   0  0  0  0  0  0  0  0  0  0  0  0
  137.7375  141.4626  162.8583 H   0  0  0  0  0  0  0  0  0  0  0  0
  136.0876  142.1293  162.6336 H   0  0  0  0  0  0  0  0  0  0  0  0
  136.6012  141.7894  160.3581 H   0  0  0  0  0  0  0  0  0  0  0  0
  137.7673  140.4812  160.7197 H   0  0  0  0  0  0  0  0  0  0  0  0
  131.9013  140.7108  164.9662 H   0  0  0  0  0  0  0  0  0  0  0  0
  130.0666  142.0592  165.9036 H   0  0  0  0  0  0  0  0  0  0  0  0
  1 38  2  0
  1  2  1  0
  1 39  1  0
  2  3  2  0
  2 40  1  0
  3  4  1  0
  3 41  1  0
  4  5  1  0
  4 37  2  0
  5  6  1  0
  5 42  1  0
  5 43  1  0
  6  7  1  0
  6 44  1  0
  6 45  1  0
  7  8  1  0
  7 46  1  0
  7 47  1  0
  8 33  2  0
  8  9  1  0
  9 10  1  0
  9 30  2  0
 10 29  1  0
 10 11  1  0
 11 12  1  0
 11 48  1  0
 11 49  1  0
 12 13  1  0
 12 50  1  0
 12 51  1  0
 13 14  1  0
 13 15  1  0
 13 28  1  0
 15 16  1  0
 15 22  1  0
 15 52  1  0
 16 21  1  0
 16 17  2  0
 17 18  1  0
 17 53  1  0
 18 19  2  0
 18 54  1  0
 19 20  1  0
 19 55  1  0
 20 21  2  0
 20 56  1  0
 21 57  1  0
 22 27  1  0
 22 23  2  0
 23 24  1  0
 23 58  1  0
 24 25  2  0
 24 59  1  0
 25 26  1  0
 25 60  1  0
 26 27  2  0
 26 61  1  0
 27 62  1  0
 28 29  1  0
 28 63  1  0
 28 64  1  0
 29 65  1  0
 29 66  1  0
 30 31  1  0
 30 67  1  0
 31 32  2  0
 31 68  1  0
 32 36  1  0
 32 33  1  0
 33 34  1  0
 34 35  1  0
 34 69  1  0
 34 70  1  0
 35 36  1  0
 35 71  1  0
 35 72  1  0
 36 73  1  0
 36 74  1  0
 37 38  1  0
 37 75  1  0
 38 76  1  0
M  CHG  1  13   1
M  END
>  <DOCK_score>  (1) 
-57.184032

>  <SMILES>  (1) 
c1ccc(CCCc2c(N3CC[NH+](C(c4ccccc4)c4ccccc4)CC3)ccc3c2CCC3)cc1

$$$$
