O=C1CC[C@H](NC(N[C@H]2CCC(=O)NC2)=[NH+][C@H]2COc3ccc(Br)cc3C2)CN1
     RDKit          3D

 56 59  0  0  1  0  0  0  0  0999 V2000
  124.0877  133.9336  162.0890 O   0  0  0  0  0  0  0  0  0  0  0  0
  125.2373  134.1316  161.7569 C   0  0  0  0  0  0  0  0  0  0  0  0
  126.1043  132.9433  161.4547 C   0  0  0  0  0  0  0  0  0  0  0  0
  127.5792  133.3505  161.4842 C   0  0  0  0  0  0  0  0  0  0  0  0
  127.7488  134.6200  160.6411 C   0  0  2  0  0  0  0  0  0  0  0  0
  127.3172  134.4630  159.6525 H   0  0  0  0  0  0  0  0  0  0  0  0
  129.1732  134.9369  160.5108 N   0  0  0  0  0  0  0  0  0  0  0  0
  129.8988  134.4224  159.4624 C   0  0  0  0  0  0  0  0  0  0  0  0
  129.2876  133.6104  158.5365 N   0  0  0  0  0  0  0  0  0  0  0  0
  130.0588  132.5690  157.8532 C   0  0  1  0  0  0  0  0  0  0  0  0
  131.0903  132.5878  158.2045 H   0  0  0  0  0  0  0  0  0  0  0  0
  129.4408  131.1962  158.1450 C   0  0  0  0  0  0  0  0  0  0  0  0
  130.3631  130.1183  157.5714 C   0  0  0  0  0  0  0  0  0  0  0  0
  130.7317  130.4577  156.1557 C   0  0  0  0  0  0  0  0  0  0  0  0
  131.1801  129.5772  155.4524 O   0  0  0  0  0  0  0  0  0  0  0  0
  130.5926  131.6756  155.6305 N   0  0  0  0  0  0  0  0  0  0  0  0
  130.0264  132.8134  156.3439 C   0  0  0  0  0  0  0  0  0  0  0  0
  131.1661  134.7042  159.3465 N   0  0  0  0  0  0  0  0  0  0  0  0
  131.5765  134.7406  158.4684 H   0  0  0  0  0  0  0  0  0  0  0  0
  131.9707  134.9660  160.5426 C   0  0  1  0  0  0  0  0  0  0  0  0
  131.3457  134.8812  161.4315 H   0  0  0  0  0  0  0  0  0  0  0  0
  133.1225  133.9559  160.6221 C   0  0  0  0  0  0  0  0  0  0  0  0
  133.8253  134.1694  161.8469 O   0  0  0  0  0  0  0  0  0  0  0  0
  134.1938  135.4404  162.1543 C   0  0  0  0  0  0  0  0  0  0  0  0
  135.1695  135.6316  163.1276 C   0  0  0  0  0  0  0  0  0  0  0  0
  135.5641  136.9074  163.4745 C   0  0  0  0  0  0  0  0  0  0  0  0
  134.9883  138.0014  162.8531 C   0  0  0  0  0  0  0  0  0  0  0  0
  135.5262  139.7508  163.3283 Br  0  0  0  0  0  0  0  0  0  0  0  0
  134.0202  137.8148  161.8849 C   0  0  0  0  0  0  0  0  0  0  0  0
  133.6219  136.5359  161.5319 C   0  0  0  0  0  0  0  0  0  0  0  0
  132.5702  136.3726  160.4641 C   0  0  0  0  0  0  0  0  0  0  0  0
  127.0281  135.7748  161.3380 C   0  0  0  0  0  0  0  0  0  0  0  0
  125.6634  135.3927  161.6789 N   0  0  0  0  0  0  0  0  0  0  0  0
  125.9274  132.1672  162.1993 H   0  0  0  0  0  0  0  0  0  0  0  0
  125.8589  132.5582  160.4650 H   0  0  0  0  0  0  0  0  0  0  0  0
  128.1915  132.5498  161.0691 H   0  0  0  0  0  0  0  0  0  0  0  0
  127.8821  133.5496  162.5122 H   0  0  0  0  0  0  0  0  0  0  0  0
  129.6044  135.5097  161.1641 H   0  0  0  0  0  0  0  0  0  0  0  0
  128.3458  133.7272  158.3357 H   0  0  0  0  0  0  0  0  0  0  0  0
  129.3398  131.0607  159.2218 H   0  0  0  0  0  0  0  0  0  0  0  0
  128.4610  131.1270  157.6724 H   0  0  0  0  0  0  0  0  0  0  0  0
  129.8525  129.1555  157.5917 H   0  0  0  0  0  0  0  0  0  0  0  0
  131.2674  130.0614  158.1773 H   0  0  0  0  0  0  0  0  0  0  0  0
  130.8871  131.8128  154.7166 H   0  0  0  0  0  0  0  0  0  0  0  0
  128.9946  132.9615  156.0250 H   0  0  0  0  0  0  0  0  0  0  0  0
  130.6070  133.7061  156.1112 H   0  0  0  0  0  0  0  0  0  0  0  0
  133.7990  134.1034  159.7802 H   0  0  0  0  0  0  0  0  0  0  0  0
  132.7236  132.9417  160.5995 H   0  0  0  0  0  0  0  0  0  0  0  0
  135.6198  134.7783  163.6131 H   0  0  0  0  0  0  0  0  0  0  0  0
  136.3214  137.0519  164.2307 H   0  0  0  0  0  0  0  0  0  0  0  0
  133.5724  138.6700  161.4007 H   0  0  0  0  0  0  0  0  0  0  0  0
  131.7827  137.1110  160.6147 H   0  0  0  0  0  0  0  0  0  0  0  0
  133.0227  136.5206  159.4836 H   0  0  0  0  0  0  0  0  0  0  0  0
  127.5665  136.0385  162.2484 H   0  0  0  0  0  0  0  0  0  0  0  0
  127.0019  136.6374  160.6722 H   0  0  0  0  0  0  0  0  0  0  0  0
  125.0251  136.1004  161.8602 H   0  0  0  0  0  0  0  0  0  0  0  0
  1  2  2  0
  2 33  1  0
  2  3  1  0
  3  4  1  0
  3 34  1  0
  3 35  1  0
  4  5  1  0
  4 36  1  0
  4 37  1  0
  5  6  1  6
  5  7  1  0
  5 32  1  0
  7 38  1  0
  8  7  1  1
  8  9  1  0
  8 18  2  0
  9 10  1  0
  9 39  1  0
 10 11  1  1
 10 17  1  0
 10 12  1  0
 12 13  1  0
 12 40  1  0
 12 41  1  0
 13 14  1  0
 13 42  1  0
 13 43  1  0
 14 15  2  0
 14 16  1  0
 16 17  1  0
 16 44  1  0
 17 45  1  0
 17 46  1  0
 18 19  1  0
 18 20  1  0
 20 21  1  1
 20 31  1  0
 20 22  1  0
 22 23  1  0
 22 47  1  0
 22 48  1  0
 23 24  1  0
 24 30  2  0
 24 25  1  0
 25 26  2  0
 25 49  1  0
 26 27  1  0
 26 50  1  0
 27 28  1  0
 27 29  2  0
 29 30  1  0
 29 51  1  0
 30 31  1  0
 31 52  1  0
 31 53  1  0
 32 33  1  0
 32 54  1  0
 32 55  1  0
 33 56  1  0
M  CHG  1  18   1
M  END
>  <DOCK_score>  (1) 
-42.755188

>  <SMILES>  (1) 
O=C1CC[C@H](NC(N[C@H]2CCC(=O)NC2)=[NH+][C@H]2COc3ccc(Br)cc3C2)CN1

$$$$
