O=C1CC[C@H](NC(NC2CCCCC2)=[NH+][C@H]2CCCOC2)CN1
     RDKit          3D

 54 56  0  0  1  0  0  0  0  0999 V2000
  123.6998  133.9620  161.6566 O   0  0  0  0  0  0  0  0  0  0  0  0
  124.8704  134.2072  161.4551 C   0  0  0  0  0  0  0  0  0  0  0  0
  125.7743  133.0771  161.0538 C   0  0  0  0  0  0  0  0  0  0  0  0
  127.2358  133.4771  161.2708 C   0  0  0  0  0  0  0  0  0  0  0  0
  127.4598  134.8565  160.6396 C   0  0  2  0  0  0  0  0  0  0  0  0
  127.1142  134.8489  159.6059 H   0  0  0  0  0  0  0  0  0  0  0  0
  128.8862  135.1890  160.6785 N   0  0  0  0  0  0  0  0  0  0  0  0
  129.7036  134.8337  159.6318 C   0  0  0  0  0  0  0  0  0  0  0  0
  129.1826  134.1663  158.5485 N   0  0  0  0  0  0  0  0  0  0  0  0
  130.0214  133.2363  157.7885 C   0  0  0  0  0  0  0  0  0  0  0  0
  129.2055  132.6327  156.6436 C   0  0  0  0  0  0  0  0  0  0  0  0
  130.0815  131.6614  155.8499 C   0  0  0  0  0  0  0  0  0  0  0  0
  130.5693  130.5432  156.7733 C   0  0  0  0  0  0  0  0  0  0  0  0
  131.3853  131.1469  157.9182 C   0  0  0  0  0  0  0  0  0  0  0  0
  130.5092  132.1183  158.7119 C   0  0  0  0  0  0  0  0  0  0  0  0
  130.9726  135.1295  159.6664 N   0  0  0  0  0  0  0  0  0  0  0  0
  131.4547  135.2943  158.8410 H   0  0  0  0  0  0  0  0  0  0  0  0
  131.6706  135.2132  160.9517 C   0  0  1  0  0  0  0  0  0  0  0  0
  131.2058  134.5310  161.6637 H   0  0  0  0  0  0  0  0  0  0  0  0
  133.1414  134.8305  160.7613 C   0  0  0  0  0  0  0  0  0  0  0  0
  133.8775  134.9965  162.0943 C   0  0  0  0  0  0  0  0  0  0  0  0
  133.7107  136.4373  162.5843 C   0  0  0  0  0  0  0  0  0  0  0  0
  132.3195  136.7381  162.7106 O   0  0  0  0  0  0  0  0  0  0  0  0
  131.5877  136.6453  161.4865 C   0  0  0  0  0  0  0  0  0  0  0  0
  126.6692  135.8943  161.4373 C   0  0  0  0  0  0  0  0  0  0  0  0
  125.2857  135.4659  161.6012 N   0  0  0  0  0  0  0  0  0  0  0  0
  125.5458  132.1988  161.6576 H   0  0  0  0  0  0  0  0  0  0  0  0
  125.6155  132.8427  160.0012 H   0  0  0  0  0  0  0  0  0  0  0  0
  127.8906  132.7459  160.7968 H   0  0  0  0  0  0  0  0  0  0  0  0
  127.4486  133.5233  162.3388 H   0  0  0  0  0  0  0  0  0  0  0  0
  129.2536  135.6598  161.4427 H   0  0  0  0  0  0  0  0  0  0  0  0
  128.2596  134.3112  158.2875 H   0  0  0  0  0  0  0  0  0  0  0  0
  130.8793  133.7710  157.3808 H   0  0  0  0  0  0  0  0  0  0  0  0
  128.8580  133.4293  155.9858 H   0  0  0  0  0  0  0  0  0  0  0  0
  128.3476  132.0980  157.0513 H   0  0  0  0  0  0  0  0  0  0  0  0
  129.5003  131.2314  155.0341 H   0  0  0  0  0  0  0  0  0  0  0  0
  130.9394  132.1961  155.4421 H   0  0  0  0  0  0  0  0  0  0  0  0
  129.7114  130.0087  157.1810 H   0  0  0  0  0  0  0  0  0  0  0  0
  131.1934  129.8513  156.2077 H   0  0  0  0  0  0  0  0  0  0  0  0
  131.7327  130.3503  158.5761 H   0  0  0  0  0  0  0  0  0  0  0  0
  132.2431  131.6815  157.5104 H   0  0  0  0  0  0  0  0  0  0  0  0
  129.6513  131.5835  159.1196 H   0  0  0  0  0  0  0  0  0  0  0  0
  131.0905  132.5482  159.5275 H   0  0  0  0  0  0  0  0  0  0  0  0
  133.2088  133.7928  160.4343 H   0  0  0  0  0  0  0  0  0  0  0  0
  133.5932  135.4803  160.0119 H   0  0  0  0  0  0  0  0  0  0  0  0
  133.4576  134.3107  162.8302 H   0  0  0  0  0  0  0  0  0  0  0  0
  134.9366  134.7794  161.9552 H   0  0  0  0  0  0  0  0  0  0  0  0
  134.1965  136.5502  163.5535 H   0  0  0  0  0  0  0  0  0  0  0  0
  134.1668  137.1202  161.8675 H   0  0  0  0  0  0  0  0  0  0  0  0
  132.0151  137.3315  160.7557 H   0  0  0  0  0  0  0  0  0  0  0  0
  130.5448  136.9070  161.6647 H   0  0  0  0  0  0  0  0  0  0  0  0
  127.1265  136.0190  162.4189 H   0  0  0  0  0  0  0  0  0  0  0  0
  126.6880  136.8466  160.9075 H   0  0  0  0  0  0  0  0  0  0  0  0
  124.6258  136.1386  161.8313 H   0  0  0  0  0  0  0  0  0  0  0  0
  1  2  2  0
  2 26  1  0
  2  3  1  0
  3  4  1  0
  3 27  1  0
  3 28  1  0
  4  5  1  0
  4 29  1  0
  4 30  1  0
  5  6  1  6
  5  7  1  0
  5 25  1  0
  7 31  1  0
  8  7  1  0
  8  9  1  0
  8 16  2  0
  9 10  1  0
  9 32  1  0
 10 15  1  0
 10 11  1  0
 10 33  1  0
 11 12  1  0
 11 34  1  0
 11 35  1  0
 12 13  1  0
 12 36  1  0
 12 37  1  0
 13 14  1  0
 13 38  1  0
 13 39  1  0
 14 15  1  0
 14 40  1  0
 14 41  1  0
 15 42  1  0
 15 43  1  0
 16 17  1  0
 16 18  1  0
 18 19  1  1
 18 24  1  0
 18 20  1  0
 20 21  1  0
 20 44  1  0
 20 45  1  0
 21 22  1  0
 21 46  1  0
 21 47  1  0
 22 23  1  0
 22 48  1  0
 22 49  1  0
 23 24  1  0
 24 50  1  0
 24 51  1  0
 25 26  1  0
 25 52  1  0
 25 53  1  0
 26 54  1  0
M  CHG  1  16   1
M  END
>  <DOCK_score>  (1) 
-44.520393

>  <SMILES>  (1) 
O=C1CC[C@H](NC(NC2CCCCC2)=[NH+][C@H]2CCCOC2)CN1

$$$$
