[NH3+][C@H](Cc1ccccc1Oc1ccc(Cl)cc1)C(=O)Nc1cccc(O)c1
     RDKit          3D

 47 49  0  0  1  0  0  0  0  0999 V2000
  130.4595  133.7823  156.8243 N   0  0  0  0  0  0  0  0  0  0  0  0
  130.4342  132.8097  156.5571 H   0  0  0  0  0  0  0  0  0  0  0  0
  129.7294  134.2831  156.3402 H   0  0  0  0  0  0  0  0  0  0  0  0
  131.3560  134.1753  156.5795 H   0  0  0  0  0  0  0  0  0  0  0  0
  130.2538  133.8974  158.2742 C   0  0  2  0  0  0  0  0  0  0  0  0
  130.2810  134.9482  158.5628 H   0  0  0  0  0  0  0  0  0  0  0  0
  131.3609  133.1380  159.0083 C   0  0  0  0  0  0  0  0  0  0  0  0
  131.1497  133.2560  160.4958 C   0  0  0  0  0  0  0  0  0  0  0  0
  130.3792  132.3221  161.1610 C   0  0  0  0  0  0  0  0  0  0  0  0
  130.1901  132.4263  162.5265 C   0  0  0  0  0  0  0  0  0  0  0  0
  130.7619  133.4720  163.2284 C   0  0  0  0  0  0  0  0  0  0  0  0
  131.5281  134.4117  162.5672 C   0  0  0  0  0  0  0  0  0  0  0  0
  131.7244  134.3059  161.1974 C   0  0  0  0  0  0  0  0  0  0  0  0
  132.4786  135.2288  160.5446 O   0  0  0  0  0  0  0  0  0  0  0  0
  132.0783  136.5267  160.5891 C   0  0  0  0  0  0  0  0  0  0  0  0
  133.0020  137.5304  160.8430 C   0  0  0  0  0  0  0  0  0  0  0  0
  132.5937  138.8493  160.8834 C   0  0  0  0  0  0  0  0  0  0  0  0
  131.2627  139.1692  160.6810 C   0  0  0  0  0  0  0  0  0  0  0  0
  130.7509  140.8270  160.7395 Cl  0  0  0  0  0  0  0  0  0  0  0  0
  130.3391  138.1693  160.4324 C   0  0  0  0  0  0  0  0  0  0  0  0
  130.7442  136.8495  160.3863 C   0  0  0  0  0  0  0  0  0  0  0  0
  128.9147  133.3106  158.6398 C   0  0  0  0  0  0  0  0  0  0  0  0
  128.4499  132.4041  157.9817 O   0  0  0  0  0  0  0  0  0  0  0  0
  128.2338  133.7932  159.6980 N   0  0  0  0  0  0  0  0  0  0  0  0
  126.9905  133.2483  160.0374 C   0  0  0  0  0  0  0  0  0  0  0  0
  126.7186  131.9133  159.7657 C   0  0  0  0  0  0  0  0  0  0  0  0
  125.4914  131.3755  160.1008 C   0  0  0  0  0  0  0  0  0  0  0  0
  124.5333  132.1615  160.7130 C   0  0  0  0  0  0  0  0  0  0  0  0
  124.7972  133.4970  160.9815 C   0  0  0  0  0  0  0  0  0  0  0  0
  123.8521  134.2704  161.5778 O   0  0  0  0  0  0  0  0  0  0  0  0
  126.0277  134.0406  160.6463 C   0  0  0  0  0  0  0  0  0  0  0  0
  131.3337  132.0874  158.7196 H   0  0  0  0  0  0  0  0  0  0  0  0
  132.3294  133.5625  158.7440 H   0  0  0  0  0  0  0  0  0  0  0  0
  129.9279  131.5071  160.6145 H   0  0  0  0  0  0  0  0  0  0  0  0
  129.5913  131.6924  163.0455 H   0  0  0  0  0  0  0  0  0  0  0  0
  130.6084  133.5540  164.2942 H   0  0  0  0  0  0  0  0  0  0  0  0
  131.9740  135.2282  163.1156 H   0  0  0  0  0  0  0  0  0  0  0  0
  134.0401  137.2809  161.0051 H   0  0  0  0  0  0  0  0  0  0  0  0
  133.3131  139.6313  161.0773 H   0  0  0  0  0  0  0  0  0  0  0  0
  129.3007  138.4209  160.2747 H   0  0  0  0  0  0  0  0  0  0  0  0
  130.0228  136.0694  160.1930 H   0  0  0  0  0  0  0  0  0  0  0  0
  128.6055  134.5183  160.2243 H   0  0  0  0  0  0  0  0  0  0  0  0
  127.4673  131.2956  159.2918 H   0  0  0  0  0  0  0  0  0  0  0  0
  125.2816  130.3374  159.8885 H   0  0  0  0  0  0  0  0  0  0  0  0
  123.5765  131.7369  160.9784 H   0  0  0  0  0  0  0  0  0  0  0  0
  124.1276  135.1857  161.7239 H   0  0  0  0  0  0  0  0  0  0  0  0
  126.2366  135.0786  160.8589 H   0  0  0  0  0  0  0  0  0  0  0  0
  1  2  1  0
  1  3  1  0
  1  4  1  0
  1  5  1  0
  5  6  1  1
  5  7  1  0
  5 22  1  0
  7  8  1  0
  7 32  1  0
  7 33  1  0
  8 13  1  0
  8  9  2  0
  9 10  1  0
  9 34  1  0
 10 11  2  0
 10 35  1  0
 11 12  1  0
 11 36  1  0
 12 13  2  0
 12 37  1  0
 13 14  1  0
 14 15  1  0
 15 21  1  0
 15 16  2  0
 16 17  1  0
 16 38  1  0
 17 18  2  0
 17 39  1  0
 18 19  1  0
 18 20  1  0
 20 21  2  0
 20 40  1  0
 21 41  1  0
 22 23  2  0
 22 24  1  0
 24 25  1  0
 24 42  1  0
 25 31  1  0
 25 26  2  0
 26 27  1  0
 26 43  1  0
 27 28  2  0
 27 44  1  0
 28 29  1  0
 28 45  1  0
 29 30  1  0
 29 31  2  0
 30 46  1  0
 31 47  1  0
M  CHG  1   1   1
M  END
>  <DOCK_score>  (1) 
-48.696327

>  <SMILES>  (1) 
[NH3+][C@H](Cc1ccccc1Oc1ccc(Cl)cc1)C(=O)Nc1cccc(O)c1

$$$$
