CCc1ccc([C@H](Nc2[nH]cc(-c3ccccc3)[nH+]2)c2ccccc2)cc1
     RDKit          3D

 51 54  0  0  1  0  0  0  0  0999 V2000
  131.3174  140.8188  162.2523 C   0  0  0  0  0  0  0  0  0  0  0  0
  130.0087  140.8670  161.4612 C   0  0  0  0  0  0  0  0  0  0  0  0
  129.7058  139.4986  160.9072 C   0  0  0  0  0  0  0  0  0  0  0  0
  128.9561  138.6038  161.6474 C   0  0  0  0  0  0  0  0  0  0  0  0
  128.6778  137.3486  161.1391 C   0  0  0  0  0  0  0  0  0  0  0  0
  129.1511  136.9879  159.8913 C   0  0  0  0  0  0  0  0  0  0  0  0
  128.8483  135.6195  159.3373 C   0  0  2  0  0  0  0  0  0  0  0  0
  128.7496  134.9089  160.1581 H   0  0  0  0  0  0  0  0  0  0  0  0
  129.9387  135.1978  158.4547 N   0  0  0  0  0  0  0  0  0  0  0  0
  129.8829  133.9658  157.8255 C   0  0  0  0  0  0  0  0  0  0  0  0
  129.2693  132.8535  158.3138 N   0  0  0  0  0  0  0  0  0  0  0  0
  128.7962  132.7819  159.1575 H   0  0  0  0  0  0  0  0  0  0  0  0
  129.4408  131.8517  157.3896 C   0  0  0  0  0  0  0  0  0  0  0  0
  130.1609  132.3778  156.3680 C   0  0  0  0  0  0  0  0  0  0  0  0
  130.5914  131.6603  155.1432 C   0  0  0  0  0  0  0  0  0  0  0  0
  130.1742  132.1040  153.8896 C   0  0  0  0  0  0  0  0  0  0  0  0
  130.5828  131.4362  152.7531 C   0  0  0  0  0  0  0  0  0  0  0  0
  131.3948  130.3210  152.8572 C   0  0  0  0  0  0  0  0  0  0  0  0
  131.8073  129.8729  154.0990 C   0  0  0  0  0  0  0  0  0  0  0  0
  131.4099  130.5365  155.2420 C   0  0  0  0  0  0  0  0  0  0  0  0
  130.4173  133.6768  156.6642 N   0  0  0  0  0  0  0  0  0  0  0  0
  130.9164  134.2931  156.1057 H   0  0  0  0  0  0  0  0  0  0  0  0
  127.5601  135.6674  158.5569 C   0  0  0  0  0  0  0  0  0  0  0  0
  126.3577  135.4168  159.1913 C   0  0  0  0  0  0  0  0  0  0  0  0
  125.1758  135.4650  158.4763 C   0  0  0  0  0  0  0  0  0  0  0  0
  125.1967  135.7547  157.1248 C   0  0  0  0  0  0  0  0  0  0  0  0
  126.3995  136.0000  156.4892 C   0  0  0  0  0  0  0  0  0  0  0  0
  127.5812  135.9560  157.2052 C   0  0  0  0  0  0  0  0  0  0  0  0
  129.9024  137.8821  159.1520 C   0  0  0  0  0  0  0  0  0  0  0  0
  130.1802  139.1373  159.6602 C   0  0  0  0  0  0  0  0  0  0  0  0
  131.2198  140.1080  163.0730 H   0  0  0  0  0  0  0  0  0  0  0  0
  132.1281  140.5056  161.5946 H   0  0  0  0  0  0  0  0  0  0  0  0
  131.5363  141.8085  162.6530 H   0  0  0  0  0  0  0  0  0  0  0  0
  130.1061  141.5778  160.6406 H   0  0  0  0  0  0  0  0  0  0  0  0
  129.1978  141.1803  162.1188 H   0  0  0  0  0  0  0  0  0  0  0  0
  128.5861  138.8857  162.6221 H   0  0  0  0  0  0  0  0  0  0  0  0
  128.0871  136.6516  161.7149 H   0  0  0  0  0  0  0  0  0  0  0  0
  130.6999  135.7816  158.3110 H   0  0  0  0  0  0  0  0  0  0  0  0
  129.0750  130.8382  157.4640 H   0  0  0  0  0  0  0  0  0  0  0  0
  129.5363  132.9717  153.8074 H   0  0  0  0  0  0  0  0  0  0  0  0
  130.2644  131.7824  151.7808 H   0  0  0  0  0  0  0  0  0  0  0  0
  131.7083  129.7986  151.9653 H   0  0  0  0  0  0  0  0  0  0  0  0
  132.4418  129.0023  154.1743 H   0  0  0  0  0  0  0  0  0  0  0  0
  131.7327  130.1859  156.2112 H   0  0  0  0  0  0  0  0  0  0  0  0
  126.3417  135.1868  160.2465 H   0  0  0  0  0  0  0  0  0  0  0  0
  124.2360  135.2737  158.9730 H   0  0  0  0  0  0  0  0  0  0  0  0
  124.2734  135.7896  156.5656 H   0  0  0  0  0  0  0  0  0  0  0  0
  126.4159  136.2263  155.4333 H   0  0  0  0  0  0  0  0  0  0  0  0
  128.5209  136.1478  156.7085 H   0  0  0  0  0  0  0  0  0  0  0  0
  130.2728  137.6000  158.1774 H   0  0  0  0  0  0  0  0  0  0  0  0
  130.7676  139.8359  159.0826 H   0  0  0  0  0  0  0  0  0  0  0  0
  1  2  1  0
  1 31  1  0
  1 32  1  0
  1 33  1  0
  2  3  1  0
  2 34  1  0
  2 35  1  0
  3 30  2  0
  3  4  1  0
  4  5  2  0
  4 36  1  0
  5  6  1  0
  5 37  1  0
  6  7  1  0
  6 29  2  0
  7  8  1  1
  7  9  1  0
  7 23  1  0
  9 38  1  0
 10  9  1  0
 10 21  2  0
 10 11  1  0
 11 12  1  0
 11 13  1  0
 13 14  2  0
 13 39  1  0
 14 15  1  0
 14 21  1  0
 15 20  1  0
 15 16  2  0
 16 17  1  0
 16 40  1  0
 17 18  2  0
 17 41  1  0
 18 19  1  0
 18 42  1  0
 19 20  2  0
 19 43  1  0
 20 44  1  0
 21 22  1  0
 23 28  1  0
 23 24  2  0
 24 25  1  0
 24 45  1  0
 25 26  2  0
 25 46  1  0
 26 27  1  0
 26 47  1  0
 27 28  2  0
 27 48  1  0
 28 49  1  0
 29 30  1  0
 29 50  1  0
 30 51  1  0
M  CHG  1  21   1
M  END
>  <DOCK_score>  (1) 
-62.01395

>  <SMILES>  (1) 
CCc1ccc([C@H](Nc2[nH]cc(-c3ccccc3)[nH+]2)c2ccccc2)cc1

$$$$
