O=C1CC[C@H](NC(N[C@@H]2C=CCC2)=[NH+]C2COc3cc(O)ccc3C2)CN1
     RDKit          3D

 54 57  0  0  1  0  0  0  0  0999 V2000
  123.4978  133.7744  161.2673 O   0  0  0  0  0  0  0  0  0  0  0  0
  124.6852  133.9753  161.1233 C   0  0  0  0  0  0  0  0  0  0  0  0
  125.5350  132.8592  160.5873 C   0  0  0  0  0  0  0  0  0  0  0  0
  127.0101  133.1385  160.8855 C   0  0  0  0  0  0  0  0  0  0  0  0
  127.3281  134.5755  160.4547 C   0  0  2  0  0  0  0  0  0  0  0  0
  127.0111  134.7265  159.4229 H   0  0  0  0  0  0  0  0  0  0  0  0
  128.7691  134.8145  160.5662 N   0  0  0  0  0  0  0  0  0  0  0  0
  129.5933  134.5575  159.4962 C   0  0  0  0  0  0  0  0  0  0  0  0
  129.0651  134.0761  158.3217 N   0  0  0  0  0  0  0  0  0  0  0  0
  129.9434  133.8023  157.1815 C   0  0  2  0  0  0  0  0  0  0  0  0
  130.4588  134.7118  156.8732 H   0  0  0  0  0  0  0  0  0  0  0  0
  129.1484  133.2318  156.0301 C   0  0  0  0  0  0  0  0  0  0  0  0
  129.3138  131.9370  155.9437 C   0  0  0  0  0  0  0  0  0  0  0  0
  130.2457  131.4334  157.0213 C   0  0  0  0  0  0  0  0  0  0  0  0
  130.9655  132.6993  157.5416 C   0  0  0  0  0  0  0  0  0  0  0  0
  130.8755  134.7702  159.5954 N   0  0  0  0  0  0  0  0  0  0  0  0
  131.3882  135.0171  158.8098 H   0  0  0  0  0  0  0  0  0  0  0  0
  131.5420  134.6361  160.8929 C   0  0  1  0  0  0  0  0  0  0  0  0
  133.0037  134.2204  160.6830 C   0  0  0  0  0  0  0  0  0  0  0  0
  133.5965  133.9976  161.9632 O   0  0  0  0  0  0  0  0  0  0  0  0
  133.4346  134.9554  162.9128 C   0  0  0  0  0  0  0  0  0  0  0  0
  134.2854  134.9480  164.0128 C   0  0  0  0  0  0  0  0  0  0  0  0
  134.1453  135.9009  165.0074 C   0  0  0  0  0  0  0  0  0  0  0  0
  134.9750  135.8893  166.0836 O   0  0  0  0  0  0  0  0  0  0  0  0
  133.1590  136.8715  164.8997 C   0  0  0  0  0  0  0  0  0  0  0  0
  132.3197  136.8818  163.8043 C   0  0  0  0  0  0  0  0  0  0  0  0
  132.4552  135.9280  162.8086 C   0  0  0  0  0  0  0  0  0  0  0  0
  131.5247  135.9812  161.6233 C   0  0  0  0  0  0  0  0  0  0  0  0
  126.5755  135.5396  161.3726 C   0  0  0  0  0  0  0  0  0  0  0  0
  125.1663  135.1754  161.4496 N   0  0  0  0  0  0  0  0  0  0  0  0
  125.3920  132.7806  159.5096 H   0  0  0  0  0  0  0  0  0  0  0  0
  125.2413  131.9217  161.0596 H   0  0  0  0  0  0  0  0  0  0  0  0
  127.6356  132.4413  160.3279 H   0  0  0  0  0  0  0  0  0  0  0  0
  127.1964  133.0258  161.9536 H   0  0  0  0  0  0  0  0  0  0  0  0
  129.1418  135.1542  161.3948 H   0  0  0  0  0  0  0  0  0  0  0  0
  128.1109  133.9178  158.2480 H   0  0  0  0  0  0  0  0  0  0  0  0
  128.5272  133.8162  155.3676 H   0  0  0  0  0  0  0  0  0  0  0  0
  128.8459  131.3105  155.1989 H   0  0  0  0  0  0  0  0  0  0  0  0
  130.9669  130.7318  156.6023 H   0  0  0  0  0  0  0  0  0  0  0  0
  129.6785  130.9623  157.8241 H   0  0  0  0  0  0  0  0  0  0  0  0
  131.9095  132.8551  157.0194 H   0  0  0  0  0  0  0  0  0  0  0  0
  131.1206  132.6462  158.6194 H   0  0  0  0  0  0  0  0  0  0  0  0
  131.0291  133.8850  161.4935 H   0  0  0  0  0  0  0  0  0  0  0  0
  133.5401  135.0142  160.1630 H   0  0  0  0  0  0  0  0  0  0  0  0
  133.0437  133.3034  160.0953 H   0  0  0  0  0  0  0  0  0  0  0  0
  135.0550  134.1948  164.0932 H   0  0  0  0  0  0  0  0  0  0  0  0
  134.7993  136.5930  166.7233 H   0  0  0  0  0  0  0  0  0  0  0  0
  133.0482  137.6176  165.6727 H   0  0  0  0  0  0  0  0  0  0  0  0
  131.5526  137.6377  163.7230 H   0  0  0  0  0  0  0  0  0  0  0  0
  130.5122  136.1944  161.9663 H   0  0  0  0  0  0  0  0  0  0  0  0
  131.8493  136.7678  160.9423 H   0  0  0  0  0  0  0  0  0  0  0  0
  127.0124  135.5020  162.3705 H   0  0  0  0  0  0  0  0  0  0  0  0
  126.6649  136.5530  160.9816 H   0  0  0  0  0  0  0  0  0  0  0  0
  124.5391  135.8483  161.7576 H   0  0  0  0  0  0  0  0  0  0  0  0
  1  2  2  0
  2 30  1  0
  2  3  1  0
  3  4  1  0
  3 31  1  0
  3 32  1  0
  4  5  1  0
  4 33  1  0
  4 34  1  0
  5  6  1  6
  5  7  1  0
  5 29  1  0
  7 35  1  0
  8  7  1  0
  8  9  1  0
  8 16  2  0
  9 10  1  0
  9 36  1  0
 10 11  1  6
 10 15  1  0
 10 12  1  0
 12 13  2  0
 12 37  1  0
 13 14  1  0
 13 38  1  0
 14 15  1  0
 14 39  1  0
 14 40  1  0
 15 41  1  0
 15 42  1  0
 16 17  1  0
 16 18  1  0
 18 28  1  0
 18 19  1  0
 18 43  1  1
 19 20  1  0
 19 44  1  0
 19 45  1  0
 20 21  1  0
 21 27  2  0
 21 22  1  0
 22 23  2  0
 22 46  1  0
 23 24  1  0
 23 25  1  0
 24 47  1  0
 25 26  2  0
 25 48  1  0
 26 27  1  0
 26 49  1  0
 27 28  1  0
 28 50  1  0
 28 51  1  0
 29 30  1  0
 29 52  1  0
 29 53  1  0
 30 54  1  0
M  CHG  1  16   1
M  END
>  <DOCK_score>  (1) 
-42.336842

>  <SMILES>  (1) 
O=C1CC[C@H](NC(N[C@@H]2C=CCC2)=[NH+]C2COc3cc(O)ccc3C2)CN1

$$$$
