C/C=C/C[NH2+]Cc1c[nH]nc1-c1ccc(NCc2ccccc2Br)o1
     RDKit          3D

 47 49  0  0  0  0  0  0  0  0999 V2000
  134.8165  139.1024  160.7480 C   0  0  0  0  0  0  0  0  0  0  0  0
  133.4179  138.9729  160.2016 C   0  0  0  0  0  0  0  0  0  0  0  0
  132.4839  138.4021  160.9212 C   0  0  0  0  0  0  0  0  0  0  0  0
  131.0854  138.2727  160.3750 C   0  0  0  0  0  0  0  0  0  0  0  0
  130.9590  137.0020  159.6487 N   0  0  0  0  0  0  0  0  0  0  0  0
  131.6206  136.9826  158.8873 H   0  0  0  0  0  0  0  0  0  0  0  0
  130.0226  136.9152  159.2831 H   0  0  0  0  0  0  0  0  0  0  0  0
  131.2328  135.8858  160.5636 C   0  0  0  0  0  0  0  0  0  0  0  0
  131.1031  134.5823  159.8188 C   0  0  0  0  0  0  0  0  0  0  0  0
  132.0927  133.9393  159.1627 C   0  0  0  0  0  0  0  0  0  0  0  0
  131.5763  132.8116  158.6279 N   0  0  0  0  0  0  0  0  0  0  0  0
  132.0623  132.1572  158.1022 H   0  0  0  0  0  0  0  0  0  0  0  0
  130.2177  132.7509  158.9631 N   0  0  0  0  0  0  0  0  0  0  0  0
  129.9257  133.8169  159.6821 C   0  0  0  0  0  0  0  0  0  0  0  0
  128.5996  134.1535  160.2400 C   0  0  0  0  0  0  0  0  0  0  0  0
  127.4694  133.4098  160.1107 C   0  0  0  0  0  0  0  0  0  0  0  0
  126.4472  134.0989  160.7928 C   0  0  0  0  0  0  0  0  0  0  0  0
  127.0024  135.2261  161.3035 C   0  0  0  0  0  0  0  0  0  0  0  0
  126.3383  136.1914  162.0514 N   0  0  0  0  0  0  0  0  0  0  0  0
  127.0989  137.1111  162.9012 C   0  0  0  0  0  0  0  0  0  0  0  0
  127.2530  136.5135  164.2761 C   0  0  0  0  0  0  0  0  0  0  0  0
  126.1689  135.9241  164.8992 C   0  0  0  0  0  0  0  0  0  0  0  0
  126.3102  135.3755  166.1599 C   0  0  0  0  0  0  0  0  0  0  0  0
  127.5356  135.4167  166.7988 C   0  0  0  0  0  0  0  0  0  0  0  0
  128.6200  136.0058  166.1767 C   0  0  0  0  0  0  0  0  0  0  0  0
  128.4804  136.5497  164.9124 C   0  0  0  0  0  0  0  0  0  0  0  0
  129.9654  137.3498  164.0577 Br  0  0  0  0  0  0  0  0  0  0  0  0
  128.3042  135.2493  160.9704 O   0  0  0  0  0  0  0  0  0  0  0  0
  135.2166  138.1110  160.9607 H   0  0  0  0  0  0  0  0  0  0  0  0
  135.4492  139.5996  160.0127 H   0  0  0  0  0  0  0  0  0  0  0  0
  134.7951  139.6901  161.6657 H   0  0  0  0  0  0  0  0  0  0  0  0
  133.1858  139.3506  159.2168 H   0  0  0  0  0  0  0  0  0  0  0  0
  132.7160  138.0245  161.9060 H   0  0  0  0  0  0  0  0  0  0  0  0
  130.8825  139.1009  159.6960 H   0  0  0  0  0  0  0  0  0  0  0  0
  130.3705  138.2937  161.1975 H   0  0  0  0  0  0  0  0  0  0  0  0
  130.5180  135.9067  161.3864 H   0  0  0  0  0  0  0  0  0  0  0  0
  132.2443  135.9795  160.9588 H   0  0  0  0  0  0  0  0  0  0  0  0
  133.1178  134.2691  159.0800 H   0  0  0  0  0  0  0  0  0  0  0  0
  127.3733  132.4710  159.5857 H   0  0  0  0  0  0  0  0  0  0  0  0
  125.4174  133.7885  160.8905 H   0  0  0  0  0  0  0  0  0  0  0  0
  125.3714  136.2561  162.0108 H   0  0  0  0  0  0  0  0  0  0  0  0
  128.0838  137.2782  162.4652 H   0  0  0  0  0  0  0  0  0  0  0  0
  126.5684  138.0603  162.9749 H   0  0  0  0  0  0  0  0  0  0  0  0
  125.2112  135.8924  164.4008 H   0  0  0  0  0  0  0  0  0  0  0  0
  125.4630  134.9151  166.6464 H   0  0  0  0  0  0  0  0  0  0  0  0
  127.6455  134.9886  167.7842 H   0  0  0  0  0  0  0  0  0  0  0  0
  129.5773  136.0375  166.6756 H   0  0  0  0  0  0  0  0  0  0  0  0
  1  2  1  0
  1 29  1  0
  1 30  1  0
  1 31  1  0
  2  3  2  0
  2 32  1  0
  3  4  1  0
  3 33  1  0
  4  5  1  0
  4 34  1  0
  4 35  1  0
  5  6  1  0
  5  7  1  0
  5  8  1  0
  8  9  1  0
  8 36  1  0
  8 37  1  0
  9 14  1  0
  9 10  2  0
 10 11  1  0
 10 38  1  0
 11 12  1  0
 11 13  1  0
 13 14  2  0
 14 15  1  0
 15 28  1  0
 15 16  2  0
 16 17  1  0
 16 39  1  0
 17 18  2  0
 17 40  1  0
 18 19  1  0
 18 28  1  0
 19 20  1  0
 19 41  1  0
 20 21  1  0
 20 42  1  0
 20 43  1  0
 21 26  1  0
 21 22  2  0
 22 23  1  0
 22 44  1  0
 23 24  2  0
 23 45  1  0
 24 25  1  0
 24 46  1  0
 25 26  2  0
 25 47  1  0
 26 27  1  0
M  CHG  1   5   1
M  END
>  <DOCK_score>  (1) 
-41.89537

>  <SMILES>  (1) 
C/C=C/C[NH2+]Cc1c[nH]nc1-c1ccc(NCc2ccccc2Br)o1

$$$$
