Oc1ccc(Nc2[nH]cc(-c3ccccc3)[nH+]2)c(I)c1
     RDKit          3D

 33 35  0  0  1  0  0  0  0  0999 V2000
  126.9616  136.0313  161.8737 O   0  0  0  0  0  0  0  0  0  0  0  0
  127.8182  135.6768  160.8788 C   0  0  0  0  0  0  0  0  0  0  0  0
  127.5016  135.9592  159.5580 C   0  0  0  0  0  0  0  0  0  0  0  0
  128.3733  135.6049  158.5473 C   0  0  0  0  0  0  0  0  0  0  0  0
  129.5650  134.9608  158.8529 C   0  0  0  0  0  0  0  0  0  0  0  0
  130.4494  134.6007  157.8285 N   0  0  0  0  0  0  0  0  0  0  0  0
  130.3384  133.3606  157.2218 C   0  0  0  0  0  0  0  0  0  0  0  0
  129.8728  132.2269  157.8141 N   0  0  0  0  0  0  0  0  0  0  0  0
  129.5619  132.1427  158.7291 H   0  0  0  0  0  0  0  0  0  0  0  0
  129.9242  131.2242  156.8771 C   0  0  0  0  0  0  0  0  0  0  0  0
  130.4194  131.7731  155.7400 C   0  0  0  0  0  0  0  0  0  0  0  0
  130.6530  131.0639  154.4583 C   0  0  0  0  0  0  0  0  0  0  0  0
  129.9927  131.4742  153.3014 C   0  0  0  0  0  0  0  0  0  0  0  0
  130.2182  130.8142  152.1105 C   0  0  0  0  0  0  0  0  0  0  0  0
  131.0889  129.7403  152.0660 C   0  0  0  0  0  0  0  0  0  0  0  0
  131.7426  129.3250  153.2122 C   0  0  0  0  0  0  0  0  0  0  0  0
  131.5292  129.9811  154.4075 C   0  0  0  0  0  0  0  0  0  0  0  0
  130.6592  133.0862  155.9808 N   0  0  0  0  0  0  0  0  0  0  0  0
  131.0136  133.7204  155.3381 H   0  0  0  0  0  0  0  0  0  0  0  0
  129.8791  134.6734  160.1750 C   0  0  0  0  0  0  0  0  0  0  0  0
  131.6769  133.7023  160.6381 I   0  0  0  0  0  0  0  0  0  0  0  0
  129.0057  135.0287  161.1849 C   0  0  0  0  0  0  0  0  0  0  0  0
  126.1617  136.4774  161.5634 H   0  0  0  0  0  0  0  0  0  0  0  0
  126.5749  136.4605  159.3204 H   0  0  0  0  0  0  0  0  0  0  0  0
  128.1285  135.8289  157.5195 H   0  0  0  0  0  0  0  0  0  0  0  0
  131.1398  135.2198  157.5440 H   0  0  0  0  0  0  0  0  0  0  0  0
  129.6268  130.1957  157.0184 H   0  0  0  0  0  0  0  0  0  0  0  0
  129.3094  132.3098  153.3360 H   0  0  0  0  0  0  0  0  0  0  0  0
  129.7106  131.1340  151.2125 H   0  0  0  0  0  0  0  0  0  0  0  0
  131.2592  129.2238  151.1329 H   0  0  0  0  0  0  0  0  0  0  0  0
  132.4216  128.4861  153.1717 H   0  0  0  0  0  0  0  0  0  0  0  0
  132.0403  129.6564  155.3017 H   0  0  0  0  0  0  0  0  0  0  0  0
  129.2495  134.8056  162.2131 H   0  0  0  0  0  0  0  0  0  0  0  0
  1  2  1  0
  1 23  1  0
  2 22  2  0
  2  3  1  0
  3  4  2  0
  3 24  1  0
  4  5  1  0
  4 25  1  0
  5  6  1  0
  5 20  2  0
  6 26  1  0
  7  6  1  0
  7 18  2  0
  7  8  1  0
  8  9  1  0
  8 10  1  0
 10 11  2  0
 10 27  1  0
 11 12  1  0
 11 18  1  0
 12 17  1  0
 12 13  2  0
 13 14  1  0
 13 28  1  0
 14 15  2  0
 14 29  1  0
 15 16  1  0
 15 30  1  0
 16 17  2  0
 16 31  1  0
 17 32  1  0
 18 19  1  0
 20 21  1  0
 20 22  1  0
 22 33  1  0
M  CHG  1  18   1
M  END
>  <DOCK_score>  (1) 
-51.049942

>  <SMILES>  (1) 
Oc1ccc(Nc2[nH]cc(-c3ccccc3)[nH+]2)c(I)c1

$$$$
