Cn1nccc1[C@@H](Nc1[nH]cc(-c2ccc(N)cc2)[nH+]1)[C@H](CO)c1ccccc1
     RDKit          3D

 54 57  0  0  1  0  0  0  0  0999 V2000
  127.6395  134.8113  162.7966 C   0  0  0  0  0  0  0  0  0  0  0  0
  127.3604  135.3028  161.4451 N   0  0  0  0  0  0  0  0  0  0  0  0
  126.0916  135.4829  160.8792 N   0  0  0  0  0  0  0  0  0  0  0  0
  126.2474  135.9353  159.6615 C   0  0  0  0  0  0  0  0  0  0  0  0
  127.6184  136.0625  159.4148 C   0  0  0  0  0  0  0  0  0  0  0  0
  128.2801  135.6626  160.5255 C   0  0  0  0  0  0  0  0  0  0  0  0
  129.7760  135.6308  160.7053 C   0  0  1  0  0  0  0  0  0  0  0  0
  130.0416  134.8335  161.3996 H   0  0  0  0  0  0  0  0  0  0  0  0
  130.4183  135.3858  159.4116 N   0  0  0  0  0  0  0  0  0  0  0  0
  130.1411  134.2250  158.7099 C   0  0  0  0  0  0  0  0  0  0  0  0
  129.2952  133.2382  159.1128 N   0  0  0  0  0  0  0  0  0  0  0  0
  128.7818  133.2218  159.9356 H   0  0  0  0  0  0  0  0  0  0  0  0
  129.3024  132.2689  158.1379 C   0  0  0  0  0  0  0  0  0  0  0  0
  130.1518  132.6918  157.1692 C   0  0  0  0  0  0  0  0  0  0  0  0
  130.4778  131.9668  155.9166 C   0  0  0  0  0  0  0  0  0  0  0  0
  130.2053  132.5513  154.6807 C   0  0  0  0  0  0  0  0  0  0  0  0
  130.5146  131.8781  153.5177 C   0  0  0  0  0  0  0  0  0  0  0  0
  131.0865  130.6130  153.5769 C   0  0  0  0  0  0  0  0  0  0  0  0
  131.3935  129.9307  152.3972 N   0  0  0  0  0  0  0  0  0  0  0  0
  131.3541  130.0258  154.8082 C   0  0  0  0  0  0  0  0  0  0  0  0
  131.0518  130.6977  155.9737 C   0  0  0  0  0  0  0  0  0  0  0  0
  130.6509  133.8949  157.5483 N   0  0  0  0  0  0  0  0  0  0  0  0
  131.2839  134.4263  157.0406 H   0  0  0  0  0  0  0  0  0  0  0  0
  130.2510  136.9734  161.2644 C   0  0  2  0  0  0  0  0  0  0  0  0
  129.7731  137.1556  162.2269 H   0  0  0  0  0  0  0  0  0  0  0  0
  129.8780  138.0924  160.2899 C   0  0  0  0  0  0  0  0  0  0  0  0
  130.3217  139.3464  160.8121 O   0  0  0  0  0  0  0  0  0  0  0  0
  131.7469  136.9418  161.4441 C   0  0  0  0  0  0  0  0  0  0  0  0
  132.2903  136.5190  162.6429 C   0  0  0  0  0  0  0  0  0  0  0  0
  133.6626  136.4862  162.8063 C   0  0  0  0  0  0  0  0  0  0  0  0
  134.4913  136.8840  161.7738 C   0  0  0  0  0  0  0  0  0  0  0  0
  133.9477  137.3117  160.5770 C   0  0  0  0  0  0  0  0  0  0  0  0
  132.5756  137.3408  160.4122 C   0  0  0  0  0  0  0  0  0  0  0  0
  127.6867  135.6535  163.4869 H   0  0  0  0  0  0  0  0  0  0  0  0
  126.8461  134.1311  163.1069 H   0  0  0  0  0  0  0  0  0  0  0  0
  128.5932  134.2835  162.8016 H   0  0  0  0  0  0  0  0  0  0  0  0
  125.4546  136.1731  158.9679 H   0  0  0  0  0  0  0  0  0  0  0  0
  128.0692  136.4155  158.4992 H   0  0  0  0  0  0  0  0  0  0  0  0
  131.0377  136.0370  159.0466 H   0  0  0  0  0  0  0  0  0  0  0  0
  128.7424  131.3454  158.1445 H   0  0  0  0  0  0  0  0  0  0  0  0
  129.7567  133.5325  154.6342 H   0  0  0  0  0  0  0  0  0  0  0  0
  130.3076  132.3323  152.5600 H   0  0  0  0  0  0  0  0  0  0  0  0
  131.7926  129.0469  152.4381 H   0  0  0  0  0  0  0  0  0  0  0  0
  131.2067  130.3389  151.5379 H   0  0  0  0  0  0  0  0  0  0  0  0
  131.7988  129.0427  154.8520 H   0  0  0  0  0  0  0  0  0  0  0  0
  131.2599  130.2413  156.9302 H   0  0  0  0  0  0  0  0  0  0  0  0
  130.3559  137.9101  159.3274 H   0  0  0  0  0  0  0  0  0  0  0  0
  128.7961  138.1153  160.1599 H   0  0  0  0  0  0  0  0  0  0  0  0
  131.2769  139.3978  160.9535 H   0  0  0  0  0  0  0  0  0  0  0  0
  131.6428  136.2114  163.4505 H   0  0  0  0  0  0  0  0  0  0  0  0
  134.0872  136.1524  163.7415 H   0  0  0  0  0  0  0  0  0  0  0  0
  135.5634  136.8610  161.9023 H   0  0  0  0  0  0  0  0  0  0  0  0
  134.5952  137.6230  159.7705 H   0  0  0  0  0  0  0  0  0  0  0  0
  132.1510  137.6751  159.4771 H   0  0  0  0  0  0  0  0  0  0  0  0
  1  2  1  0
  1 34  1  0
  1 35  1  0
  1 36  1  0
  2  6  1  0
  2  3  1  0
  3  4  2  0
  4  5  1  0
  4 37  1  0
  5  6  2  0
  5 38  1  0
  6  7  1  0
  7  8  1  1
  7  9  1  0
  7 24  1  0
  9 39  1  0
 10  9  1  0
 10 22  2  0
 10 11  1  0
 11 12  1  0
 11 13  1  0
 13 14  2  0
 13 40  1  0
 14 15  1  0
 14 22  1  0
 15 21  1  0
 15 16  2  0
 16 17  1  0
 16 41  1  0
 17 18  2  0
 17 42  1  0
 18 19  1  0
 18 20  1  0
 19 43  1  0
 19 44  1  0
 20 21  2  0
 20 45  1  0
 21 46  1  0
 22 23  1  0
 24 25  1  1
 24 26  1  0
 24 28  1  0
 26 27  1  0
 26 47  1  0
 26 48  1  0
 27 49  1  0
 28 33  1  0
 28 29  2  0
 29 30  1  0
 29 50  1  0
 30 31  2  0
 30 51  1  0
 31 32  1  0
 31 52  1  0
 32 33  2  0
 32 53  1  0
 33 54  1  0
M  CHG  1  22   1
M  END
>  <DOCK_score>  (1) 
-62.071537

>  <SMILES>  (1) 
Cn1nccc1[C@@H](Nc1[nH]cc(-c2ccc(N)cc2)[nH+]1)[C@H](CO)c1ccccc1

$$$$
