CCc1ccc(-c2c[nH]c(N[C@@H](Cc3nc4ccccc4[nH]3)c3ccccc3)[nH+]2)cc1
     RDKit          3D

 57 61  0  0  1  0  0  0  0  0999 V2000
  130.5853  128.4371  151.5995 C   0  0  0  0  0  0  0  0  0  0  0  0
  131.6696  129.4520  151.9669 C   0  0  0  0  0  0  0  0  0  0  0  0
  131.2810  130.1655  153.2362 C   0  0  0  0  0  0  0  0  0  0  0  0
  131.6693  129.6531  154.4611 C   0  0  0  0  0  0  0  0  0  0  0  0
  131.3161  130.3020  155.6267 C   0  0  0  0  0  0  0  0  0  0  0  0
  130.5669  131.4758  155.5681 C   0  0  0  0  0  0  0  0  0  0  0  0
  130.1843  132.1779  156.8175 C   0  0  0  0  0  0  0  0  0  0  0  0
  129.4317  131.6655  157.8224 C   0  0  0  0  0  0  0  0  0  0  0  0
  129.3221  132.6461  158.7782 N   0  0  0  0  0  0  0  0  0  0  0  0
  128.8419  132.5785  159.6183 H   0  0  0  0  0  0  0  0  0  0  0  0
  130.0116  133.7300  158.3289 C   0  0  0  0  0  0  0  0  0  0  0  0
  130.1478  134.9337  158.9992 N   0  0  0  0  0  0  0  0  0  0  0  0
  129.0874  135.3953  159.8986 C   0  0  1  0  0  0  0  0  0  0  0  0
  128.9431  134.6653  160.6950 H   0  0  0  0  0  0  0  0  0  0  0  0
  129.4848  136.7418  160.5067 C   0  0  0  0  0  0  0  0  0  0  0  0
  130.7675  136.5838  161.2819 C   0  0  0  0  0  0  0  0  0  0  0  0
  131.9611  136.7321  160.7857 N   0  0  0  0  0  0  0  0  0  0  0  0
  132.8879  136.5216  161.7557 C   0  0  0  0  0  0  0  0  0  0  0  0
  134.2848  136.5524  161.7769 C   0  0  0  0  0  0  0  0  0  0  0  0
  134.9541  136.2830  162.9369 C   0  0  0  0  0  0  0  0  0  0  0  0
  134.2607  135.9774  164.0995 C   0  0  0  0  0  0  0  0  0  0  0  0
  132.8826  135.9411  164.1021 C   0  0  0  0  0  0  0  0  0  0  0  0
  132.1854  136.2126  162.9328 C   0  0  0  0  0  0  0  0  0  0  0  0
  130.8463  136.2601  162.6008 N   0  0  0  0  0  0  0  0  0  0  0  0
  130.0998  136.0928  163.1973 H   0  0  0  0  0  0  0  0  0  0  0  0
  127.8047  135.5532  159.1234 C   0  0  0  0  0  0  0  0  0  0  0  0
  126.5888  135.3600  159.7523 C   0  0  0  0  0  0  0  0  0  0  0  0
  125.4122  135.5090  159.0423 C   0  0  0  0  0  0  0  0  0  0  0  0
  125.4515  135.8423  157.7012 C   0  0  0  0  0  0  0  0  0  0  0  0
  126.6674  136.0305  157.0712 C   0  0  0  0  0  0  0  0  0  0  0  0
  127.8440  135.8857  157.7822 C   0  0  0  0  0  0  0  0  0  0  0  0
  130.5206  133.4484  157.1544 N   0  0  0  0  0  0  0  0  0  0  0  0
  131.0547  134.0511  156.6137 H   0  0  0  0  0  0  0  0  0  0  0  0
  130.1740  131.9845  154.3314 C   0  0  0  0  0  0  0  0  0  0  0  0
  130.5373  131.3300  153.1720 C   0  0  0  0  0  0  0  0  0  0  0  0
  130.4784  127.7116  152.4059 H   0  0  0  0  0  0  0  0  0  0  0  0
  129.6383  128.9557  151.4494 H   0  0  0  0  0  0  0  0  0  0  0  0
  130.8664  127.9213  150.6814 H   0  0  0  0  0  0  0  0  0  0  0  0
  131.7765  130.1775  151.1606 H   0  0  0  0  0  0  0  0  0  0  0  0
  132.6167  128.9334  152.1170 H   0  0  0  0  0  0  0  0  0  0  0  0
  132.2497  128.7433  154.5052 H   0  0  0  0  0  0  0  0  0  0  0  0
  131.6198  129.9010  156.5825 H   0  0  0  0  0  0  0  0  0  0  0  0
  129.0005  130.6762  157.8633 H   0  0  0  0  0  0  0  0  0  0  0  0
  130.9451  135.4714  158.8733 H   0  0  0  0  0  0  0  0  0  0  0  0
  129.6292  137.4718  159.7103 H   0  0  0  0  0  0  0  0  0  0  0  0
  128.6958  137.0852  161.1759 H   0  0  0  0  0  0  0  0  0  0  0  0
  134.8343  136.7885  160.8776 H   0  0  0  0  0  0  0  0  0  0  0  0
  136.0336  136.3079  162.9491 H   0  0  0  0  0  0  0  0  0  0  0  0
  134.8045  135.7663  165.0084 H   0  0  0  0  0  0  0  0  0  0  0  0
  132.3480  135.7033  165.0098 H   0  0  0  0  0  0  0  0  0  0  0  0
  126.5583  135.0959  160.7990 H   0  0  0  0  0  0  0  0  0  0  0  0
  124.4621  135.3625  159.5347 H   0  0  0  0  0  0  0  0  0  0  0  0
  124.5323  135.9563  157.1459 H   0  0  0  0  0  0  0  0  0  0  0  0
  126.6982  136.2908  156.0235 H   0  0  0  0  0  0  0  0  0  0  0  0
  128.7941  136.0325  157.2899 H   0  0  0  0  0  0  0  0  0  0  0  0
  129.5893  132.8911  154.2805 H   0  0  0  0  0  0  0  0  0  0  0  0
  130.2368  131.7254  152.2130 H   0  0  0  0  0  0  0  0  0  0  0  0
  1  2  1  0
  1 36  1  0
  1 37  1  0
  1 38  1  0
  2  3  1  0
  2 39  1  0
  2 40  1  0
  3 35  2  0
  3  4  1  0
  4  5  2  0
  4 41  1  0
  5  6  1  0
  5 42  1  0
  6  7  1  0
  6 34  2  0
  7 32  1  0
  7  8  2  0
  8  9  1  0
  8 43  1  0
  9 10  1  0
  9 11  1  0
 11 12  1  0
 11 32  2  0
 12 13  1  0
 12 44  1  0
 13 14  1  1
 13 15  1  0
 13 26  1  0
 15 16  1  0
 15 45  1  0
 15 46  1  0
 16 24  1  0
 16 17  2  0
 17 18  1  0
 18 23  2  0
 18 19  1  0
 19 20  2  0
 19 47  1  0
 20 21  1  0
 20 48  1  0
 21 22  2  0
 21 49  1  0
 22 23  1  0
 22 50  1  0
 23 24  1  0
 24 25  1  0
 26 31  1  0
 26 27  2  0
 27 28  1  0
 27 51  1  0
 28 29  2  0
 28 52  1  0
 29 30  1  0
 29 53  1  0
 30 31  2  0
 30 54  1  0
 31 55  1  0
 32 33  1  0
 34 35  1  0
 34 56  1  0
 35 57  1  0
M  CHG  1  32   1
M  END
>  <DOCK_score>  (1) 
-62.128326

>  <SMILES>  (1) 
CCc1ccc(-c2c[nH]c(N[C@@H](Cc3nc4ccccc4[nH]3)c3ccccc3)[nH+]2)cc1

$$$$
