Cc1ccc(Nc2ccc(C3(C)CC[NH+](C[C@@H](O)c4ccccc4)CC3)cc2)cc1
     RDKit          3D

 63 66  0  0  1  0  0  0  0  0999 V2000
  128.4331  140.2570  167.1345 C   0  0  0  0  0  0  0  0  0  0  0  0
  127.8201  139.4975  165.9863 C   0  0  0  0  0  0  0  0  0  0  0  0
  127.6877  140.1040  164.7505 C   0  0  0  0  0  0  0  0  0  0  0  0
  127.1270  139.4107  163.6960 C   0  0  0  0  0  0  0  0  0  0  0  0
  126.6956  138.1027  163.8777 C   0  0  0  0  0  0  0  0  0  0  0  0
  126.1274  137.3986  162.8131 N   0  0  0  0  0  0  0  0  0  0  0  0
  126.9384  136.6413  161.9642 C   0  0  0  0  0  0  0  0  0  0  0  0
  126.3749  135.9400  160.9055 C   0  0  0  0  0  0  0  0  0  0  0  0
  127.1795  135.1921  160.0687 C   0  0  0  0  0  0  0  0  0  0  0  0
  128.5445  135.1404  160.2838 C   0  0  0  0  0  0  0  0  0  0  0  0
  129.4193  134.3223  159.3689 C   0  0  1  0  0  0  0  0  0  0  0  0
  130.8763  134.4297  159.8233 C   0  0  0  0  0  0  0  0  0  0  0  0
  128.9748  132.8575  159.4102 C   0  0  0  0  0  0  0  0  0  0  0  0
  129.8146  132.0472  158.4204 C   0  0  0  0  0  0  0  0  0  0  0  0
  129.6278  132.5787  157.0650 N   0  0  2  0  0  0  0  0  0  0  0  0
  128.6467  132.5597  156.8296 H   0  0  0  0  0  0  0  0  0  0  0  0
  130.3739  131.7503  156.1085 C   0  0  0  0  0  0  0  0  0  0  0  0
  129.8116  131.9638  154.7017 C   0  0  1  0  0  0  0  0  0  0  0  0
  128.7247  132.0293  154.7509 H   0  0  0  0  0  0  0  0  0  0  0  0
  130.3378  133.1759  154.1573 O   0  0  0  0  0  0  0  0  0  0  0  0
  130.2057  130.8054  153.8220 C   0  0  0  0  0  0  0  0  0  0  0  0
  129.3833  130.4169  152.7811 C   0  0  0  0  0  0  0  0  0  0  0  0
  129.7470  129.3570  151.9716 C   0  0  0  0  0  0  0  0  0  0  0  0
  130.9286  128.6804  152.2079 C   0  0  0  0  0  0  0  0  0  0  0  0
  131.7485  129.0652  153.2526 C   0  0  0  0  0  0  0  0  0  0  0  0
  131.3869  130.1278  154.0596 C   0  0  0  0  0  0  0  0  0  0  0  0
  130.1183  133.9606  156.9999 C   0  0  0  0  0  0  0  0  0  0  0  0
  129.2903  134.8444  157.9350 C   0  0  0  0  0  0  0  0  0  0  0  0
  129.1082  135.8329  161.3398 C   0  0  0  0  0  0  0  0  0  0  0  0
  128.3102  136.5873  162.1772 C   0  0  0  0  0  0  0  0  0  0  0  0
  126.8252  137.4984  165.1219 C   0  0  0  0  0  0  0  0  0  0  0  0
  127.3918  138.1956  166.1706 C   0  0  0  0  0  0  0  0  0  0  0  0
  127.6507  140.7846  167.6800 H   0  0  0  0  0  0  0  0  0  0  0  0
  128.9359  139.5594  167.8044 H   0  0  0  0  0  0  0  0  0  0  0  0
  129.1560  140.9764  166.7498 H   0  0  0  0  0  0  0  0  0  0  0  0
  128.0229  141.1210  164.6100 H   0  0  0  0  0  0  0  0  0  0  0  0
  127.0242  139.8848  162.7310 H   0  0  0  0  0  0  0  0  0  0  0  0
  125.1697  137.4355  162.6633 H   0  0  0  0  0  0  0  0  0  0  0  0
  125.3089  135.9802  160.7369 H   0  0  0  0  0  0  0  0  0  0  0  0
  126.7421  134.6469  159.2454 H   0  0  0  0  0  0  0  0  0  0  0  0
  131.1924  135.4722  159.7871 H   0  0  0  0  0  0  0  0  0  0  0  0
  130.9669  134.0579  160.8439 H   0  0  0  0  0  0  0  0  0  0  0  0
  131.5077  133.8354  159.1628 H   0  0  0  0  0  0  0  0  0  0  0  0
  127.9222  132.7886  159.1362 H   0  0  0  0  0  0  0  0  0  0  0  0
  129.1163  132.4624  160.4163 H   0  0  0  0  0  0  0  0  0  0  0  0
  129.5009  131.0037  158.4473 H   0  0  0  0  0  0  0  0  0  0  0  0
  130.8671  132.1166  158.6955 H   0  0  0  0  0  0  0  0  0  0  0  0
  131.4263  132.0335  156.1261 H   0  0  0  0  0  0  0  0  0  0  0  0
  130.2757  130.7000  156.3835 H   0  0  0  0  0  0  0  0  0  0  0  0
  131.3020  133.1882  154.0842 H   0  0  0  0  0  0  0  0  0  0  0  0
  128.4583  130.9433  152.5984 H   0  0  0  0  0  0  0  0  0  0  0  0
  129.1066  129.0562  151.1555 H   0  0  0  0  0  0  0  0  0  0  0  0
  131.2113  127.8499  151.5781 H   0  0  0  0  0  0  0  0  0  0  0  0
  132.6718  128.5363  153.4377 H   0  0  0  0  0  0  0  0  0  0  0  0
  132.0276  130.4288  154.8753 H   0  0  0  0  0  0  0  0  0  0  0  0
  131.1643  133.9891  157.3052 H   0  0  0  0  0  0  0  0  0  0  0  0
  130.0289  134.3297  155.9782 H   0  0  0  0  0  0  0  0  0  0  0  0
  129.6573  135.8696  157.8866 H   0  0  0  0  0  0  0  0  0  0  0  0
  128.2441  134.8169  157.6304 H   0  0  0  0  0  0  0  0  0  0  0  0
  130.1741  135.7869  161.5074 H   0  0  0  0  0  0  0  0  0  0  0  0
  128.7516  137.1314  162.9991 H   0  0  0  0  0  0  0  0  0  0  0  0
  126.4872  136.4830  165.2676 H   0  0  0  0  0  0  0  0  0  0  0  0
  127.4967  137.7250  167.1371 H   0  0  0  0  0  0  0  0  0  0  0  0
  1  2  1  0
  1 33  1  0
  1 34  1  0
  1 35  1  0
  2 32  2  0
  2  3  1  0
  3  4  2  0
  3 36  1  0
  4  5  1  0
  4 37  1  0
  5  6  1  0
  5 31  2  0
  6  7  1  0
  6 38  1  0
  7 30  1  0
  7  8  2  0
  8  9  1  0
  8 39  1  0
  9 10  2  0
  9 40  1  0
 10 11  1  0
 10 29  1  0
 11 28  1  0
 11 12  1  1
 11 13  1  0
 12 41  1  0
 12 42  1  0
 12 43  1  0
 13 14  1  0
 13 44  1  0
 13 45  1  0
 14 15  1  0
 14 46  1  0
 14 47  1  0
 15 16  1  6
 15 17  1  0
 15 27  1  0
 17 18  1  0
 17 48  1  0
 17 49  1  0
 18 19  1  1
 18 20  1  0
 18 21  1  0
 20 50  1  0
 21 26  1  0
 21 22  2  0
 22 23  1  0
 22 51  1  0
 23 24  2  0
 23 52  1  0
 24 25  1  0
 24 53  1  0
 25 26  2  0
 25 54  1  0
 26 55  1  0
 27 28  1  0
 27 56  1  0
 27 57  1  0
 28 58  1  0
 28 59  1  0
 29 30  2  0
 29 60  1  0
 30 61  1  0
 31 32  1  0
 31 62  1  0
 32 63  1  0
M  CHG  1  15   1
M  END
>  <DOCK_score>  (1) 
-41.634346

>  <SMILES>  (1) 
Cc1ccc(Nc2ccc(C3(C)CC[NH+](C[C@@H](O)c4ccccc4)CC3)cc2)cc1

$$$$
