CCC=C(C[C@H](Nc1[nH]cc(-c2ccc(N)cc2)[nH+]1)c1ccccc1)c1ccccc1
     RDKit          3D

 60 63  0  0  1  0  0  0  0  0999 V2000
  133.9809  138.5935  159.5199 C   0  0  0  0  0  0  0  0  0  0  0  0
  133.4009  138.8756  160.9074 C   0  0  0  0  0  0  0  0  0  0  0  0
  131.9083  138.6699  160.8791 C   0  0  0  0  0  0  0  0  0  0  0  0
  131.3984  137.4770  161.1521 C   0  0  0  0  0  0  0  0  0  0  0  0
  129.9058  137.2712  161.1239 C   0  0  0  0  0  0  0  0  0  0  0  0
  129.5976  135.8262  160.7264 C   0  0  2  0  0  0  0  0  0  0  0  0
  130.0444  135.1466  161.4520 H   0  0  0  0  0  0  0  0  0  0  0  0
  130.1531  135.5562  159.3980 N   0  0  0  0  0  0  0  0  0  0  0  0
  129.9987  134.3056  158.8242 C   0  0  0  0  0  0  0  0  0  0  0  0
  129.3498  133.2502  159.3869 N   0  0  0  0  0  0  0  0  0  0  0  0
  128.9165  133.2383  160.2546 H   0  0  0  0  0  0  0  0  0  0  0  0
  129.4224  132.2035  158.4984 C   0  0  0  0  0  0  0  0  0  0  0  0
  130.1128  132.6502  157.4202 C   0  0  0  0  0  0  0  0  0  0  0  0
  130.4378  131.8642  156.2048 C   0  0  0  0  0  0  0  0  0  0  0  0
  129.9763  132.2836  154.9581 C   0  0  0  0  0  0  0  0  0  0  0  0
  130.2845  131.5546  153.8290 C   0  0  0  0  0  0  0  0  0  0  0  0
  131.0448  130.3960  153.9346 C   0  0  0  0  0  0  0  0  0  0  0  0
  131.3510  129.6556  152.7903 N   0  0  0  0  0  0  0  0  0  0  0  0
  131.5013  129.9728  155.1773 C   0  0  0  0  0  0  0  0  0  0  0  0
  131.2005  130.7018  156.3084 C   0  0  0  0  0  0  0  0  0  0  0  0
  130.4487  133.9449  157.6471 N   0  0  0  0  0  0  0  0  0  0  0  0
  130.9446  134.5125  157.0365 H   0  0  0  0  0  0  0  0  0  0  0  0
  128.1050  135.6204  160.6981 C   0  0  0  0  0  0  0  0  0  0  0  0
  127.4434  135.2015  161.8372 C   0  0  0  0  0  0  0  0  0  0  0  0
  126.0742  135.0124  161.8112 C   0  0  0  0  0  0  0  0  0  0  0  0
  125.3670  135.2408  160.6456 C   0  0  0  0  0  0  0  0  0  0  0  0
  126.0288  135.6584  159.5062 C   0  0  0  0  0  0  0  0  0  0  0  0
  127.3979  135.8479  159.5323 C   0  0  0  0  0  0  0  0  0  0  0  0
  132.2939  136.3488  161.4842 C   0  0  0  0  0  0  0  0  0  0  0  0
  132.7765  135.5164  160.4736 C   0  0  0  0  0  0  0  0  0  0  0  0
  133.6162  134.4683  160.7898 C   0  0  0  0  0  0  0  0  0  0  0  0
  133.9715  134.2355  162.1064 C   0  0  0  0  0  0  0  0  0  0  0  0
  133.4918  135.0537  163.1136 C   0  0  0  0  0  0  0  0  0  0  0  0
  132.6555  136.1084  162.8103 C   0  0  0  0  0  0  0  0  0  0  0  0
  133.7614  137.5641  159.2368 H   0  0  0  0  0  0  0  0  0  0  0  0
  133.5340  139.2730  158.7942 H   0  0  0  0  0  0  0  0  0  0  0  0
  135.0604  138.7423  159.5403 H   0  0  0  0  0  0  0  0  0  0  0  0
  133.6204  139.9050  161.1904 H   0  0  0  0  0  0  0  0  0  0  0  0
  133.8478  138.1961  161.6330 H   0  0  0  0  0  0  0  0  0  0  0  0
  131.2539  139.4941  160.6365 H   0  0  0  0  0  0  0  0  0  0  0  0
  129.4589  137.9509  160.3982 H   0  0  0  0  0  0  0  0  0  0  0  0
  129.4925  137.4721  162.1123 H   0  0  0  0  0  0  0  0  0  0  0  0
  130.6290  136.2534  158.9203 H   0  0  0  0  0  0  0  0  0  0  0  0
  129.0088  131.2151  158.6332 H   0  0  0  0  0  0  0  0  0  0  0  0
  129.3813  133.1812  154.8762 H   0  0  0  0  0  0  0  0  0  0  0  0
  129.9306  131.8813  152.8624 H   0  0  0  0  0  0  0  0  0  0  0  0
  131.8823  128.8475  152.8629 H   0  0  0  0  0  0  0  0  0  0  0  0
  131.0332  129.9507  151.9224 H   0  0  0  0  0  0  0  0  0  0  0  0
  132.0918  129.0719  155.2573 H   0  0  0  0  0  0  0  0  0  0  0  0
  131.5556  130.3728  157.2738 H   0  0  0  0  0  0  0  0  0  0  0  0
  127.9958  135.0234  162.7480 H   0  0  0  0  0  0  0  0  0  0  0  0
  125.5566  134.6904  162.7027 H   0  0  0  0  0  0  0  0  0  0  0  0
  124.2974  135.0926  160.6252 H   0  0  0  0  0  0  0  0  0  0  0  0
  125.4764  135.8361  158.5953 H   0  0  0  0  0  0  0  0  0  0  0  0
  127.9151  136.1736  158.6418 H   0  0  0  0  0  0  0  0  0  0  0  0
  132.4965  135.6946  159.4460 H   0  0  0  0  0  0  0  0  0  0  0  0
  133.9937  133.8257  160.0081 H   0  0  0  0  0  0  0  0  0  0  0  0
  134.6258  133.4112  162.3491 H   0  0  0  0  0  0  0  0  0  0  0  0
  133.7723  134.8662  164.1396 H   0  0  0  0  0  0  0  0  0  0  0  0
  132.2816  136.7461  163.5974 H   0  0  0  0  0  0  0  0  0  0  0  0
  1  2  1  0
  1 35  1  0
  1 36  1  0
  1 37  1  0
  2  3  1  0
  2 38  1  0
  2 39  1  0
  3  4  2  0
  3 40  1  0
  4  5  1  0
  4 29  1  0
  5  6  1  0
  5 41  1  0
  5 42  1  0
  6  7  1  1
  6  8  1  0
  6 23  1  0
  8 43  1  0
  9  8  1  0
  9 21  2  0
  9 10  1  0
 10 11  1  0
 10 12  1  0
 12 13  2  0
 12 44  1  0
 13 14  1  0
 13 21  1  0
 14 20  1  0
 14 15  2  0
 15 16  1  0
 15 45  1  0
 16 17  2  0
 16 46  1  0
 17 18  1  0
 17 19  1  0
 18 47  1  0
 18 48  1  0
 19 20  2  0
 19 49  1  0
 20 50  1  0
 21 22  1  0
 23 28  1  0
 23 24  2  0
 24 25  1  0
 24 51  1  0
 25 26  2  0
 25 52  1  0
 26 27  1  0
 26 53  1  0
 27 28  2  0
 27 54  1  0
 28 55  1  0
 29 34  1  0
 29 30  2  0
 30 31  1  0
 30 56  1  0
 31 32  2  0
 31 57  1  0
 32 33  1  0
 32 58  1  0
 33 34  2  0
 33 59  1  0
 34 60  1  0
M  CHG  1  21   1
M  END
>  <DOCK_score>  (1) 
-59.752178

>  <SMILES>  (1) 
CCC=C(C[C@H](Nc1[nH]cc(-c2ccc(N)cc2)[nH+]1)c1ccccc1)c1ccccc1

$$$$
