CCc1ccc(N2CCC(NC(NC3CC=CC3)=[NH+][C@H]3CCC(=O)NC3)CC2)cc1
     RDKit          3D

 66 69  0  0  1  0  0  0  0  0999 V2000
  136.1066  140.0069  166.2621 C   0  0  0  0  0  0  0  0  0  0  0  0
  136.2325  138.4961  166.4681 C   0  0  0  0  0  0  0  0  0  0  0  0
  135.6257  137.7763  165.2913 C   0  0  0  0  0  0  0  0  0  0  0  0
  136.4099  137.4597  164.1972 C   0  0  0  0  0  0  0  0  0  0  0  0
  135.8583  136.7950  163.1196 C   0  0  0  0  0  0  0  0  0  0  0  0
  134.5116  136.4547  163.1306 C   0  0  0  0  0  0  0  0  0  0  0  0
  133.9492  135.7880  162.0398 N   0  0  0  0  0  0  0  0  0  0  0  0
  133.4864  134.4482  162.4233 C   0  0  0  0  0  0  0  0  0  0  0  0
  133.0116  133.6952  161.1786 C   0  0  0  0  0  0  0  0  0  0  0  0
  131.8743  134.4785  160.5171 C   0  0  0  0  0  0  0  0  0  0  0  0
  131.4547  133.7922  159.2926 N   0  0  0  0  0  0  0  0  0  0  0  0
  130.1521  133.8869  158.8633 C   0  0  0  0  0  0  0  0  0  0  0  0
  129.7586  133.2428  157.7141 N   0  0  0  0  0  0  0  0  0  0  0  0
  130.7275  132.4557  156.9473 C   0  0  0  0  0  0  0  0  0  0  0  0
  130.2696  132.2887  155.4798 C   0  0  0  0  0  0  0  0  0  0  0  0
  130.6809  130.8826  155.1075 C   0  0  0  0  0  0  0  0  0  0  0  0
  130.9458  130.1728  156.1705 C   0  0  0  0  0  0  0  0  0  0  0  0
  130.7548  130.9866  157.4293 C   0  0  0  0  0  0  0  0  0  0  0  0
  129.2902  134.5872  159.5456 N   0  0  0  0  0  0  0  0  0  0  0  0
  129.5865  135.3564  160.0569 H   0  0  0  0  0  0  0  0  0  0  0  0
  127.8739  134.2127  159.5402 C   0  0  1  0  0  0  0  0  0  0  0  0
  127.4905  134.2471  158.5205 H   0  0  0  0  0  0  0  0  0  0  0  0
  127.7145  132.7949  160.1024 C   0  0  0  0  0  0  0  0  0  0  0  0
  126.2582  132.3616  159.9164 C   0  0  0  0  0  0  0  0  0  0  0  0
  125.3373  133.4395  160.4118 C   0  0  0  0  0  0  0  0  0  0  0  0
  124.1829  133.1471  160.6415 O   0  0  0  0  0  0  0  0  0  0  0  0
  125.7208  134.7009  160.6122 N   0  0  0  0  0  0  0  0  0  0  0  0
  127.0839  135.1806  160.4220 C   0  0  0  0  0  0  0  0  0  0  0  0
  132.3680  135.8861  160.1714 C   0  0  0  0  0  0  0  0  0  0  0  0
  132.8615  136.5754  161.4454 C   0  0  0  0  0  0  0  0  0  0  0  0
  133.7254  136.7795  164.2289 C   0  0  0  0  0  0  0  0  0  0  0  0
  134.2847  137.4391  165.3057 C   0  0  0  0  0  0  0  0  0  0  0  0
  136.5454  140.5275  167.1133 H   0  0  0  0  0  0  0  0  0  0  0  0
  136.6309  140.2943  165.3507 H   0  0  0  0  0  0  0  0  0  0  0  0
  135.0537  140.2753  166.1755 H   0  0  0  0  0  0  0  0  0  0  0  0
  135.7081  138.2087  167.3795 H   0  0  0  0  0  0  0  0  0  0  0  0
  137.2853  138.2277  166.5547 H   0  0  0  0  0  0  0  0  0  0  0  0
  137.4557  137.7287  164.1872 H   0  0  0  0  0  0  0  0  0  0  0  0
  136.4724  136.5440  162.2672 H   0  0  0  0  0  0  0  0  0  0  0  0
  134.3059  133.9004  162.8887 H   0  0  0  0  0  0  0  0  0  0  0  0
  132.6618  134.5374  163.1304 H   0  0  0  0  0  0  0  0  0  0  0  0
  132.6537  132.7065  161.4657 H   0  0  0  0  0  0  0  0  0  0  0  0
  133.8396  133.5935  160.4769 H   0  0  0  0  0  0  0  0  0  0  0  0
  131.0305  134.5468  161.2038 H   0  0  0  0  0  0  0  0  0  0  0  0
  132.0961  133.2710  158.7848 H   0  0  0  0  0  0  0  0  0  0  0  0
  128.8395  133.3095  157.4111 H   0  0  0  0  0  0  0  0  0  0  0  0
  131.7201  132.9030  156.9989 H   0  0  0  0  0  0  0  0  0  0  0  0
  129.1880  132.4004  155.4044 H   0  0  0  0  0  0  0  0  0  0  0  0
  130.7725  133.0141  154.8402 H   0  0  0  0  0  0  0  0  0  0  0  0
  130.7471  130.5135  154.0947 H   0  0  0  0  0  0  0  0  0  0  0  0
  131.2597  129.1398  156.1527 H   0  0  0  0  0  0  0  0  0  0  0  0
  131.5874  130.8273  158.1145 H   0  0  0  0  0  0  0  0  0  0  0  0
  129.8115  130.7271  157.9098 H   0  0  0  0  0  0  0  0  0  0  0  0
  128.3722  132.1112  159.5654 H   0  0  0  0  0  0  0  0  0  0  0  0
  127.9663  132.7901  161.1629 H   0  0  0  0  0  0  0  0  0  0  0  0
  126.0669  132.1796  158.8589 H   0  0  0  0  0  0  0  0  0  0  0  0
  126.0782  131.4460  160.4798 H   0  0  0  0  0  0  0  0  0  0  0  0
  125.0506  135.3390  160.9027 H   0  0  0  0  0  0  0  0  0  0  0  0
  127.5742  135.2666  161.3917 H   0  0  0  0  0  0  0  0  0  0  0  0
  127.0577  136.1613  159.9468 H   0  0  0  0  0  0  0  0  0  0  0  0
  131.5502  136.4626  159.7390 H   0  0  0  0  0  0  0  0  0  0  0  0
  133.1856  135.8195  159.4536 H   0  0  0  0  0  0  0  0  0  0  0  0
  132.0397  136.6546  162.1571 H   0  0  0  0  0  0  0  0  0  0  0  0
  133.2270  137.5727  161.2005 H   0  0  0  0  0  0  0  0  0  0  0  0
  132.6780  136.5167  164.2405 H   0  0  0  0  0  0  0  0  0  0  0  0
  133.6740  137.6921  166.1597 H   0  0  0  0  0  0  0  0  0  0  0  0
  1  2  1  0
  1 33  1  0
  1 34  1  0
  1 35  1  0
  2  3  1  0
  2 36  1  0
  2 37  1  0
  3 32  2  0
  3  4  1  0
  4  5  2  0
  4 38  1  0
  5  6  1  0
  5 39  1  0
  6  7  1  0
  6 31  2  0
  7 30  1  0
  7  8  1  0
  8  9  1  0
  8 40  1  0
  8 41  1  0
  9 10  1  0
  9 42  1  0
  9 43  1  0
 10 11  1  0
 10 29  1  0
 10 44  1  0
 11 45  1  0
 12 11  1  0
 12 13  1  0
 12 19  2  0
 13 14  1  0
 13 46  1  0
 14 18  1  0
 14 15  1  0
 14 47  1  0
 15 16  1  0
 15 48  1  0
 15 49  1  0
 16 17  2  0
 16 50  1  0
 17 18  1  0
 17 51  1  0
 18 52  1  0
 18 53  1  0
 19 20  1  0
 19 21  1  0
 21 22  1  6
 21 28  1  0
 21 23  1  0
 23 24  1  0
 23 54  1  0
 23 55  1  0
 24 25  1  0
 24 56  1  0
 24 57  1  0
 25 26  2  0
 25 27  1  0
 27 28  1  0
 27 58  1  0
 28 59  1  0
 28 60  1  0
 29 30  1  0
 29 61  1  0
 29 62  1  0
 30 63  1  0
 30 64  1  0
 31 32  1  0
 31 65  1  0
 32 66  1  0
M  CHG  1  19   1
M  END
>  <DOCK_score>  (1) 
-42.177891

>  <SMILES>  (1) 
CCc1ccc(N2CCC(NC(NC3CC=CC3)=[NH+][C@H]3CCC(=O)NC3)CC2)cc1

$$$$
