Nc1ccc(-c2c[nH]c(N[C@@H]3[C@@H](O)[C@@H](O)[C@@H](CO)O[C@@H]3O)[nH+]2)cc1
     RDKit          3D

 45 47  0  0  1  0  0  0  0  0999 V2000
  130.8881  129.8440  150.4430 N   0  0  0  0  0  0  0  0  0  0  0  0
  130.8150  130.3425  151.7458 C   0  0  0  0  0  0  0  0  0  0  0  0
  130.3809  131.6444  151.9673 C   0  0  0  0  0  0  0  0  0  0  0  0
  130.3080  132.1386  153.2525 C   0  0  0  0  0  0  0  0  0  0  0  0
  130.6697  131.3316  154.3301 C   0  0  0  0  0  0  0  0  0  0  0  0
  130.5920  131.8612  155.7137 C   0  0  0  0  0  0  0  0  0  0  0  0
  129.8363  131.3565  156.7201 C   0  0  0  0  0  0  0  0  0  0  0  0
  130.0585  132.1488  157.8214 N   0  0  0  0  0  0  0  0  0  0  0  0
  129.6554  132.0416  158.6972 H   0  0  0  0  0  0  0  0  0  0  0  0
  130.9506  133.1094  157.4567 C   0  0  0  0  0  0  0  0  0  0  0  0
  131.4416  134.1083  158.2801 N   0  0  0  0  0  0  0  0  0  0  0  0
  131.5729  133.8721  159.7200 C   0  0  2  0  0  0  0  0  0  0  0  0
  131.9379  132.8594  159.8911 H   0  0  0  0  0  0  0  0  0  0  0  0
  130.2083  134.0453  160.3937 C   0  0  1  0  0  0  0  0  0  0  0  0
  129.8200  135.0411  160.1802 H   0  0  0  0  0  0  0  0  0  0  0  0
  129.3010  133.0598  159.8960 O   0  0  0  0  0  0  0  0  0  0  0  0
  130.3726  133.8728  161.9068 C   0  0  1  0  0  0  0  0  0  0  0  0
  129.4164  134.0491  162.3996 H   0  0  0  0  0  0  0  0  0  0  0  0
  130.8198  132.5455  162.1904 O   0  0  0  0  0  0  0  0  0  0  0  0
  131.4051  134.8809  162.4182 C   0  0  1  0  0  0  0  0  0  0  0  0
  131.0446  135.8937  162.2381 H   0  0  0  0  0  0  0  0  0  0  0  0
  131.6193  134.6748  163.9192 C   0  0  0  0  0  0  0  0  0  0  0  0
  132.5831  135.6158  164.3963 O   0  0  0  0  0  0  0  0  0  0  0  0
  132.6416  134.6853  161.7292 O   0  0  0  0  0  0  0  0  0  0  0  0
  132.5591  134.8801  160.3158 C   0  0  2  0  0  0  0  0  0  0  0  0
  133.5430  134.7328  159.8705 H   0  0  0  0  0  0  0  0  0  0  0  0
  132.1064  136.2078  160.0434 O   0  0  0  0  0  0  0  0  0  0  0  0
  131.2646  132.9362  156.1959 N   0  0  0  0  0  0  0  0  0  0  0  0
  131.8794  133.4888  155.6884 H   0  0  0  0  0  0  0  0  0  0  0  0
  131.1099  130.0282  154.1052 C   0  0  0  0  0  0  0  0  0  0  0  0
  131.1762  129.5363  152.8188 C   0  0  0  0  0  0  0  0  0  0  0  0
  130.6359  130.4061  149.6937 H   0  0  0  0  0  0  0  0  0  0  0  0
  131.1903  128.9356  150.2876 H   0  0  0  0  0  0  0  0  0  0  0  0
  130.1012  132.2693  151.1321 H   0  0  0  0  0  0  0  0  0  0  0  0
  129.9713  133.1503  153.4241 H   0  0  0  0  0  0  0  0  0  0  0  0
  129.1817  130.4992  156.6655 H   0  0  0  0  0  0  0  0  0  0  0  0
  131.6986  134.9645  157.9037 H   0  0  0  0  0  0  0  0  0  0  0  0
  128.4152  133.1108  160.2806 H   0  0  0  0  0  0  0  0  0  0  0  0
  131.6682  132.3212  161.7843 H   0  0  0  0  0  0  0  0  0  0  0  0
  130.6758  134.8230  164.4445 H   0  0  0  0  0  0  0  0  0  0  0  0
  131.9802  133.6621  164.0990 H   0  0  0  0  0  0  0  0  0  0  0  0
  133.4487  135.5417  163.9716 H   0  0  0  0  0  0  0  0  0  0  0  0
  132.0259  136.4105  159.1013 H   0  0  0  0  0  0  0  0  0  0  0  0
  131.3952  129.4029  154.9382 H   0  0  0  0  0  0  0  0  0  0  0  0
  131.5134  128.5253  152.6443 H   0  0  0  0  0  0  0  0  0  0  0  0
  1  2  1  0
  1 32  1  0
  1 33  1  0
  2 31  2  0
  2  3  1  0
  3  4  2  0
  3 34  1  0
  4  5  1  0
  4 35  1  0
  5  6  1  0
  5 30  2  0
  6 28  1  0
  6  7  2  0
  7  8  1  0
  7 36  1  0
  8  9  1  0
  8 10  1  0
 10 11  1  0
 10 28  2  0
 11 12  1  0
 11 37  1  0
 12 13  1  6
 12 25  1  0
 12 14  1  0
 14 15  1  1
 14 16  1  0
 14 17  1  0
 16 38  1  0
 17 18  1  1
 17 19  1  0
 17 20  1  0
 19 39  1  0
 20 21  1  1
 20 22  1  0
 20 24  1  0
 22 23  1  0
 22 40  1  0
 22 41  1  0
 23 42  1  0
 24 25  1  0
 25 26  1  6
 25 27  1  0
 27 43  1  0
 28 29  1  0
 30 31  1  0
 30 44  1  0
 31 45  1  0
M  CHG  1  28   1
M  END
>  <DOCK_score>  (1) 
-59.464302

>  <SMILES>  (1) 
Nc1ccc(-c2c[nH]c(N[C@@H]3[C@@H](O)[C@@H](O)[C@@H](CO)O[C@@H]3O)[nH+]2)cc1

$$$$
