Cc1ccc([N+](=O)[O-])cc1C[NH+]=C(NCCc1ccc(F)cc1F)N[C@H]1C[C@@H](O)C1
     RDKit          3D

 55 57  0  0  1  0  0  0  0  0999 V2000
  129.8180  140.0068  162.3298 C   0  0  0  0  0  0  0  0  0  0  0  0
  130.4670  138.7397  162.8239 C   0  0  0  0  0  0  0  0  0  0  0  0
  130.9886  138.6836  164.1031 C   0  0  0  0  0  0  0  0  0  0  0  0
  131.5836  137.5208  164.5565 C   0  0  0  0  0  0  0  0  0  0  0  0
  131.6569  136.4148  163.7310 C   0  0  0  0  0  0  0  0  0  0  0  0
  132.2935  135.1698  164.2168 N   0  0  0  0  0  0  0  0  0  0  0  0
  132.7525  135.1204  165.3438 O   0  0  0  0  0  0  0  0  0  0  0  0
  132.3583  134.1951  163.4893 O   0  0  0  0  0  0  0  0  0  0  0  0
  131.1319  136.4696  162.4535 C   0  0  0  0  0  0  0  0  0  0  0  0
  130.5412  137.6338  161.9983 C   0  0  0  0  0  0  0  0  0  0  0  0
  129.9728  137.6950  160.6039 C   0  0  0  0  0  0  0  0  0  0  0  0
  130.1750  136.4064  159.9373 N   0  0  0  0  0  0  0  0  0  0  0  0
  130.9836  136.2465  159.4258 H   0  0  0  0  0  0  0  0  0  0  0  0
  129.2682  135.4747  160.0309 C   0  0  0  0  0  0  0  0  0  0  0  0
  129.1014  134.5723  159.0072 N   0  0  0  0  0  0  0  0  0  0  0  0
  129.9426  134.6580  157.8109 C   0  0  0  0  0  0  0  0  0  0  0  0
  129.5551  133.5460  156.8340 C   0  0  0  0  0  0  0  0  0  0  0  0
  129.7549  132.2059  157.4935 C   0  0  0  0  0  0  0  0  0  0  0  0
  130.9732  131.5608  157.3924 C   0  0  0  0  0  0  0  0  0  0  0  0
  131.1582  130.3323  157.9974 C   0  0  0  0  0  0  0  0  0  0  0  0
  130.1226  129.7456  158.7056 C   0  0  0  0  0  0  0  0  0  0  0  0
  130.3035  128.5444  159.2966 F   0  0  0  0  0  0  0  0  0  0  0  0
  128.9022  130.3904  158.8072 C   0  0  0  0  0  0  0  0  0  0  0  0
  128.7199  131.6237  158.2054 C   0  0  0  0  0  0  0  0  0  0  0  0
  127.5307  132.2568  158.3085 F   0  0  0  0  0  0  0  0  0  0  0  0
  128.4789  135.3943  161.1537 N   0  0  0  0  0  0  0  0  0  0  0  0
  127.4598  134.3470  161.2590 C   0  0  1  0  0  0  0  0  0  0  0  0
  127.8788  133.3421  161.2081 H   0  0  0  0  0  0  0  0  0  0  0  0
  126.4868  134.5502  162.4324 C   0  0  0  0  0  0  0  0  0  0  0  0
  125.3706  134.0774  161.4861 C   0  0  1  0  0  0  0  0  0  0  0  0
  125.2173  132.9983  161.4965 H   0  0  0  0  0  0  0  0  0  0  0  0
  124.1529  134.8122  161.6250 O   0  0  0  0  0  0  0  0  0  0  0  0
  126.2563  134.5627  160.3264 C   0  0  0  0  0  0  0  0  0  0  0  0
  128.7541  139.9861  162.5660 H   0  0  0  0  0  0  0  0  0  0  0  0
  130.2812  140.8657  162.8154 H   0  0  0  0  0  0  0  0  0  0  0  0
  129.9492  140.0851  161.2506 H   0  0  0  0  0  0  0  0  0  0  0  0
  130.9308  139.5479  164.7482 H   0  0  0  0  0  0  0  0  0  0  0  0
  131.9909  137.4766  165.5558 H   0  0  0  0  0  0  0  0  0  0  0  0
  131.1860  135.6041  161.8099 H   0  0  0  0  0  0  0  0  0  0  0  0
  130.4776  138.4793  160.0399 H   0  0  0  0  0  0  0  0  0  0  0  0
  128.9063  137.9139  160.6557 H   0  0  0  0  0  0  0  0  0  0  0  0
  128.4267  133.8790  159.0769 H   0  0  0  0  0  0  0  0  0  0  0  0
  130.9892  134.5448  158.0936 H   0  0  0  0  0  0  0  0  0  0  0  0
  129.7980  135.6275  157.3337 H   0  0  0  0  0  0  0  0  0  0  0  0
  128.5086  133.6593  156.5511 H   0  0  0  0  0  0  0  0  0  0  0  0
  130.1810  133.6099  155.9439 H   0  0  0  0  0  0  0  0  0  0  0  0
  131.7814  132.0174  156.8402 H   0  0  0  0  0  0  0  0  0  0  0  0
  132.1107  129.8295  157.9184 H   0  0  0  0  0  0  0  0  0  0  0  0
  128.0940  129.9336  159.3593 H   0  0  0  0  0  0  0  0  0  0  0  0
  128.5966  136.0308  161.8760 H   0  0  0  0  0  0  0  0  0  0  0  0
  126.6649  133.8748  163.2692 H   0  0  0  0  0  0  0  0  0  0  0  0
  126.3872  135.5905  162.7420 H   0  0  0  0  0  0  0  0  0  0  0  0
  124.2423  135.7587  161.4484 H   0  0  0  0  0  0  0  0  0  0  0  0
  126.0925  135.6067  160.0591 H   0  0  0  0  0  0  0  0  0  0  0  0
  126.2482  133.8975  159.4629 H   0  0  0  0  0  0  0  0  0  0  0  0
  1  2  1  0
  1 34  1  0
  1 35  1  0
  1 36  1  0
  2 10  2  0
  2  3  1  0
  3  4  2  0
  3 37  1  0
  4  5  1  0
  4 38  1  0
  5  6  1  0
  5  9  2  0
  6  7  2  0
  6  8  1  0
  9 10  1  0
  9 39  1  0
 10 11  1  0
 11 12  1  0
 11 40  1  0
 11 41  1  0
 12 13  1  0
 14 12  2  0
 14 15  1  0
 14 26  1  0
 15 16  1  0
 15 42  1  0
 16 17  1  0
 16 43  1  0
 16 44  1  0
 17 18  1  0
 17 45  1  0
 17 46  1  0
 18 24  1  0
 18 19  2  0
 19 20  1  0
 19 47  1  0
 20 21  2  0
 20 48  1  0
 21 22  1  0
 21 23  1  0
 23 24  2  0
 23 49  1  0
 24 25  1  0
 26 27  1  0
 26 50  1  0
 27 28  1  1
 27 33  1  0
 27 29  1  0
 29 30  1  0
 29 51  1  0
 29 52  1  0
 30 31  1  6
 30 32  1  0
 30 33  1  0
 32 53  1  0
 33 54  1  0
 33 55  1  0
M  CHG  3   6   1   8  -1  12   1
M  END
>  <DOCK_score>  (1) 
-46.609333

>  <SMILES>  (1) 
Cc1ccc([N+](=O)[O-])cc1C[NH+]=C(NCCc1ccc(F)cc1F)N[C@H]1C[C@@H](O)C1

$$$$
