Cc1ccccc1C[NH+]1CCN([C@@H](Cc2ccc(Cl)cc2)C(F)F)CC1
     RDKit          3D

 52 54  0  0  1  0  0  0  0  0999 V2000
  130.9553  138.9094  158.7383 C   0  0  0  0  0  0  0  0  0  0  0  0
  132.0440  138.3832  159.6377 C   0  0  0  0  0  0  0  0  0  0  0  0
  133.2574  139.0417  159.7126 C   0  0  0  0  0  0  0  0  0  0  0  0
  134.2575  138.5563  160.5338 C   0  0  0  0  0  0  0  0  0  0  0  0
  134.0433  137.4144  161.2832 C   0  0  0  0  0  0  0  0  0  0  0  0
  132.8288  136.7586  161.2116 C   0  0  0  0  0  0  0  0  0  0  0  0
  131.8280  137.2447  160.3908 C   0  0  0  0  0  0  0  0  0  0  0  0
  130.5038  136.5295  160.3128 C   0  0  0  0  0  0  0  0  0  0  0  0
  130.5553  135.5183  159.2483 N   0  0  0  0  0  0  0  0  0  0  0  0
  131.0555  135.8908  158.4552 H   0  0  0  0  0  0  0  0  0  0  0  0
  131.2462  134.3207  159.7441 C   0  0  0  0  0  0  0  0  0  0  0  0
  131.3168  133.2742  158.6298 C   0  0  0  0  0  0  0  0  0  0  0  0
  129.9548  132.9312  158.1968 N   0  0  0  0  0  0  0  0  0  0  0  0
  129.9781  131.8858  157.1651 C   0  0  1  0  0  0  0  0  0  0  0  0
  129.0367  131.8963  156.6157 H   0  0  0  0  0  0  0  0  0  0  0  0
  131.1352  132.1484  156.1992 C   0  0  0  0  0  0  0  0  0  0  0  0
  130.8870  131.4143  154.9066 C   0  0  0  0  0  0  0  0  0  0  0  0
  131.3503  130.1219  154.7461 C   0  0  0  0  0  0  0  0  0  0  0  0
  131.1279  129.4502  153.5588 C   0  0  0  0  0  0  0  0  0  0  0  0
  130.4320  130.0676  152.5348 C   0  0  0  0  0  0  0  0  0  0  0  0
  130.1471  129.2225  151.0455 Cl  0  0  0  0  0  0  0  0  0  0  0  0
  129.9683  131.3611  152.6962 C   0  0  0  0  0  0  0  0  0  0  0  0
  130.1958  132.0337  153.8821 C   0  0  0  0  0  0  0  0  0  0  0  0
  130.1667  130.5196  157.8276 C   0  0  0  0  0  0  0  0  0  0  0  0
  131.5189  130.3325  158.1339 F   0  0  0  0  0  0  0  0  0  0  0  0
  129.4102  130.4628  159.0030 F   0  0  0  0  0  0  0  0  0  0  0  0
  129.2421  134.1252  157.7210 C   0  0  0  0  0  0  0  0  0  0  0  0
  129.1886  135.1646  158.8427 C   0  0  0  0  0  0  0  0  0  0  0  0
  130.3820  139.6700  159.2684 H   0  0  0  0  0  0  0  0  0  0  0  0
  131.4016  139.3474  157.8454 H   0  0  0  0  0  0  0  0  0  0  0  0
  130.2947  138.0916  158.4505 H   0  0  0  0  0  0  0  0  0  0  0  0
  133.4246  139.9339  159.1274 H   0  0  0  0  0  0  0  0  0  0  0  0
  135.2062  139.0692  160.5903 H   0  0  0  0  0  0  0  0  0  0  0  0
  134.8248  137.0352  161.9249 H   0  0  0  0  0  0  0  0  0  0  0  0
  132.6614  135.8665  161.7970 H   0  0  0  0  0  0  0  0  0  0  0  0
  129.7148  137.2486  160.0927 H   0  0  0  0  0  0  0  0  0  0  0  0
  130.2967  136.0432  161.2660 H   0  0  0  0  0  0  0  0  0  0  0  0
  130.6991  133.9110  160.5931 H   0  0  0  0  0  0  0  0  0  0  0  0
  132.2559  134.5870  160.0570 H   0  0  0  0  0  0  0  0  0  0  0  0
  131.8163  132.3798  159.0020 H   0  0  0  0  0  0  0  0  0  0  0  0
  131.8757  133.6788  157.7860 H   0  0  0  0  0  0  0  0  0  0  0  0
  132.0664  131.7968  156.6436 H   0  0  0  0  0  0  0  0  0  0  0  0
  131.2081  133.2178  156.0015 H   0  0  0  0  0  0  0  0  0  0  0  0
  131.8900  129.6384  155.5470 H   0  0  0  0  0  0  0  0  0  0  0  0
  131.4942  128.4421  153.4317 H   0  0  0  0  0  0  0  0  0  0  0  0
  129.4288  131.8452  151.8955 H   0  0  0  0  0  0  0  0  0  0  0  0
  129.8337  133.0432  154.0081 H   0  0  0  0  0  0  0  0  0  0  0  0
  129.8369  129.7363  157.1451 H   0  0  0  0  0  0  0  0  0  0  0  0
  129.7667  134.5438  156.8621 H   0  0  0  0  0  0  0  0  0  0  0  0
  128.2279  133.8516  157.4301 H   0  0  0  0  0  0  0  0  0  0  0  0
  128.6520  134.7507  159.6964 H   0  0  0  0  0  0  0  0  0  0  0  0
  128.6728  136.0566  158.4873 H   0  0  0  0  0  0  0  0  0  0  0  0
  1  2  1  0
  1 29  1  0
  1 30  1  0
  1 31  1  0
  2  7  2  0
  2  3  1  0
  3  4  2  0
  3 32  1  0
  4  5  1  0
  4 33  1  0
  5  6  2  0
  5 34  1  0
  6  7  1  0
  6 35  1  0
  7  8  1  0
  8  9  1  0
  8 36  1  0
  8 37  1  0
  9 10  1  0
  9 28  1  0
  9 11  1  0
 11 12  1  0
 11 38  1  0
 11 39  1  0
 12 13  1  0
 12 40  1  0
 12 41  1  0
 13 14  1  0
 13 27  1  0
 14 15  1  6
 14 16  1  0
 14 24  1  0
 16 17  1  0
 16 42  1  0
 16 43  1  0
 17 23  1  0
 17 18  2  0
 18 19  1  0
 18 44  1  0
 19 20  2  0
 19 45  1  0
 20 21  1  0
 20 22  1  0
 22 23  2  0
 22 46  1  0
 23 47  1  0
 24 25  1  0
 24 26  1  0
 24 48  1  0
 27 28  1  0
 27 49  1  0
 27 50  1  0
 28 51  1  0
 28 52  1  0
M  CHG  1   9   1
M  END
>  <DOCK_score>  (1) 
-56.198086

>  <SMILES>  (1) 
Cc1ccccc1C[NH+]1CCN([C@@H](Cc2ccc(Cl)cc2)C(F)F)CC1

$$$$
