CC1=CCC(Nc2cccc(-c3n[nH]cc3C[NH2+]C[C@@H]3CCCC3C)c2)CC1
     RDKit          3D

 63 66  0  0  1  0  0  0  0  0999 V2000
  128.4938  140.7780  166.8036 C   0  0  0  0  0  0  0  0  0  0  0  0
  128.1533  139.7700  165.7364 C   0  0  0  0  0  0  0  0  0  0  0  0
  127.1656  138.9628  165.9568 C   0  0  0  0  0  0  0  0  0  0  0  0
  126.7028  137.9156  164.9868 C   0  0  0  0  0  0  0  0  0  0  0  0
  127.7853  137.6545  163.9370 C   0  0  1  0  0  0  0  0  0  0  0  0
  127.2348  136.8338  162.8556 N   0  0  0  0  0  0  0  0  0  0  0  0
  127.7951  135.5863  162.5710 C   0  0  0  0  0  0  0  0  0  0  0  0
  127.8184  134.5956  163.5460 C   0  0  0  0  0  0  0  0  0  0  0  0
  128.3714  133.3605  163.2678 C   0  0  0  0  0  0  0  0  0  0  0  0
  128.8993  133.1013  162.0182 C   0  0  0  0  0  0  0  0  0  0  0  0
  128.8849  134.0900  161.0365 C   0  0  0  0  0  0  0  0  0  0  0  0
  129.4565  133.8145  159.6947 C   0  0  0  0  0  0  0  0  0  0  0  0
  128.8048  133.3254  158.6609 N   0  0  0  0  0  0  0  0  0  0  0  0
  129.7028  133.2179  157.5914 N   0  0  0  0  0  0  0  0  0  0  0  0
  129.4939  132.8868  156.7038 H   0  0  0  0  0  0  0  0  0  0  0  0
  130.9099  133.6550  158.0103 C   0  0  0  0  0  0  0  0  0  0  0  0
  130.7920  134.0300  159.3027 C   0  0  0  0  0  0  0  0  0  0  0  0
  131.8924  134.5863  160.1692 C   0  0  0  0  0  0  0  0  0  0  0  0
  131.9232  136.0494  160.0425 N   0  0  0  0  0  0  0  0  0  0  0  0
  132.0936  136.3002  159.0802 H   0  0  0  0  0  0  0  0  0  0  0  0
  131.0370  136.4314  160.3376 H   0  0  0  0  0  0  0  0  0  0  0  0
  132.9957  136.5916  160.8872 C   0  0  0  0  0  0  0  0  0  0  0  0
  133.0278  138.1156  160.7552 C   0  0  2  0  0  0  0  0  0  0  0  0
  132.0741  138.5377  161.0721 H   0  0  0  0  0  0  0  0  0  0  0  0
  133.3225  138.5134  159.2942 C   0  0  0  0  0  0  0  0  0  0  0  0
  134.2265  139.7651  159.4162 C   0  0  0  0  0  0  0  0  0  0  0  0
  135.1200  139.4240  160.6345 C   0  0  0  0  0  0  0  0  0  0  0  0
  134.1707  138.6945  161.6075 C   0  0  2  0  0  0  0  0  0  0  0  0
  134.9171  137.5649  162.3201 C   0  0  0  0  0  0  0  0  0  0  0  0
  128.3280  135.3351  161.3154 C   0  0  0  0  0  0  0  0  0  0  0  0
  128.2510  139.0034  163.3746 C   0  0  0  0  0  0  0  0  0  0  0  0
  128.9800  139.7647  164.4840 C   0  0  0  0  0  0  0  0  0  0  0  0
  127.9292  141.6944  166.6312 H   0  0  0  0  0  0  0  0  0  0  0  0
  128.2374  140.3720  167.7821 H   0  0  0  0  0  0  0  0  0  0  0  0
  129.5610  140.9969  166.7693 H   0  0  0  0  0  0  0  0  0  0  0  0
  126.6418  139.0487  166.8975 H   0  0  0  0  0  0  0  0  0  0  0  0
  125.7944  138.2583  164.4913 H   0  0  0  0  0  0  0  0  0  0  0  0
  126.4917  136.9920  165.5255 H   0  0  0  0  0  0  0  0  0  0  0  0
  128.6282  137.1381  164.3961 H   0  0  0  0  0  0  0  0  0  0  0  0
  126.4810  137.1566  162.3372 H   0  0  0  0  0  0  0  0  0  0  0  0
  127.4036  134.7922  164.5235 H   0  0  0  0  0  0  0  0  0  0  0  0
  128.3874  132.5940  164.0285 H   0  0  0  0  0  0  0  0  0  0  0  0
  129.3267  132.1330  161.8030 H   0  0  0  0  0  0  0  0  0  0  0  0
  131.8110  133.6975  157.4164 H   0  0  0  0  0  0  0  0  0  0  0  0
  131.7081  134.3154  161.2088 H   0  0  0  0  0  0  0  0  0  0  0  0
  132.8496  134.1737  159.8504 H   0  0  0  0  0  0  0  0  0  0  0  0
  132.8115  136.3208  161.9268 H   0  0  0  0  0  0  0  0  0  0  0  0
  133.9529  136.1791  160.5685 H   0  0  0  0  0  0  0  0  0  0  0  0
  133.8501  137.7105  158.7792 H   0  0  0  0  0  0  0  0  0  0  0  0
  132.3978  138.7576  158.7714 H   0  0  0  0  0  0  0  0  0  0  0  0
  134.8307  139.8943  158.5181 H   0  0  0  0  0  0  0  0  0  0  0  0
  133.6288  140.6559  159.6094 H   0  0  0  0  0  0  0  0  0  0  0  0
  135.9380  138.7682  160.3360 H   0  0  0  0  0  0  0  0  0  0  0  0
  135.5073  140.3350  161.0907 H   0  0  0  0  0  0  0  0  0  0  0  0
  133.7721  139.3983  162.3381 H   0  0  0  0  0  0  0  0  0  0  0  0
  135.3330  136.8810  161.5803 H   0  0  0  0  0  0  0  0  0  0  0  0
  135.7242  137.9850  162.9205 H   0  0  0  0  0  0  0  0  0  0  0  0
  134.2263  137.0245  162.9670 H   0  0  0  0  0  0  0  0  0  0  0  0
  128.3106  136.1031  160.5563 H   0  0  0  0  0  0  0  0  0  0  0  0
  128.9294  138.8369  162.5378 H   0  0  0  0  0  0  0  0  0  0  0  0
  127.3881  139.5778  163.0377 H   0  0  0  0  0  0  0  0  0  0  0  0
  129.9367  139.2826  164.6846 H   0  0  0  0  0  0  0  0  0  0  0  0
  129.1554  140.7913  164.1626 H   0  0  0  0  0  0  0  0  0  0  0  0
  1  2  1  0
  1 33  1  0
  1 34  1  0
  1 35  1  0
  2 32  1  0
  2  3  2  0
  3  4  1  0
  3 36  1  0
  4  5  1  0
  4 37  1  0
  4 38  1  0
  5  6  1  0
  5 31  1  0
  5 39  1  1
  6  7  1  0
  6 40  1  0
  7 30  1  0
  7  8  2  0
  8  9  1  0
  8 41  1  0
  9 10  2  0
  9 42  1  0
 10 11  1  0
 10 43  1  0
 11 12  1  0
 11 30  2  0
 12 17  1  0
 12 13  2  0
 13 14  1  0
 14 15  1  0
 14 16  1  0
 16 17  2  0
 16 44  1  0
 17 18  1  0
 18 19  1  0
 18 45  1  0
 18 46  1  0
 19 20  1  0
 19 21  1  0
 19 22  1  0
 22 23  1  0
 22 47  1  0
 22 48  1  0
 23 24  1  1
 23 28  1  0
 23 25  1  0
 25 26  1  0
 25 49  1  0
 25 50  1  0
 26 27  1  0
 26 51  1  0
 26 52  1  0
 27 28  1  0
 27 53  1  0
 27 54  1  0
 28 29  1  0
 28 55  1  1
 29 56  1  0
 29 57  1  0
 29 58  1  0
 30 59  1  0
 31 32  1  0
 31 60  1  0
 31 61  1  0
 32 62  1  0
 32 63  1  0
M  CHG  1  19   1
M  END
>  <DOCK_score>  (1) 
-42.412968

>  <SMILES>  (1) 
CC1=CCC(Nc2cccc(-c3n[nH]cc3C[NH2+]C[C@@H]3CCCC3C)c2)CC1

$$$$
