Oc1ccc2c(c1)[C@H](N1CCC([NH2+]C3CC3)CC1)c1cc(NC3CC=CC3)ccc1-2
     RDKit          3D

 62 67  0  0  1  0  0  0  0  0999 V2000
  125.3927  135.7374  164.3838 O   0  0  0  0  0  0  0  0  0  0  0  0
  126.6126  136.1956  163.9985 C   0  0  0  0  0  0  0  0  0  0  0  0
  127.5766  136.4912  164.9528 C   0  0  0  0  0  0  0  0  0  0  0  0
  128.8154  136.9554  164.5665 C   0  0  0  0  0  0  0  0  0  0  0  0
  129.1048  137.1305  163.2112 C   0  0  0  0  0  0  0  0  0  0  0  0
  128.1327  136.8324  162.2596 C   0  0  0  0  0  0  0  0  0  0  0  0
  126.8953  136.3685  162.6501 C   0  0  0  0  0  0  0  0  0  0  0  0
  128.7248  137.1155  160.9005 C   0  0  2  0  0  0  0  0  0  0  0  0
  128.1437  137.8841  160.3908 H   0  0  0  0  0  0  0  0  0  0  0  0
  128.7536  135.8871  160.0955 N   0  0  0  0  0  0  0  0  0  0  0  0
  128.7649  136.1986  158.6605 C   0  0  0  0  0  0  0  0  0  0  0  0
  128.6479  134.9025  157.8552 C   0  0  0  0  0  0  0  0  0  0  0  0
  129.8201  133.9819  158.2057 C   0  0  0  0  0  0  0  0  0  0  0  0
  129.6834  132.7124  157.4793 N   0  0  0  0  0  0  0  0  0  0  0  0
  129.0199  132.1211  157.9574 H   0  0  0  0  0  0  0  0  0  0  0  0
  129.3571  132.8948  156.5421 H   0  0  0  0  0  0  0  0  0  0  0  0
  130.9872  132.0383  157.4214 C   0  0  0  0  0  0  0  0  0  0  0  0
  130.9917  130.5085  157.4081 C   0  0  0  0  0  0  0  0  0  0  0  0
  131.4382  131.2645  158.6619 C   0  0  0  0  0  0  0  0  0  0  0  0
  129.8139  133.7123  159.7130 C   0  0  0  0  0  0  0  0  0  0  0  0
  129.8969  135.0427  160.4646 C   0  0  0  0  0  0  0  0  0  0  0  0
  130.1299  137.6063  161.1500 C   0  0  0  0  0  0  0  0  0  0  0  0
  131.1321  138.0103  160.2964 C   0  0  0  0  0  0  0  0  0  0  0  0
  132.3575  138.4224  160.8089 C   0  0  0  0  0  0  0  0  0  0  0  0
  133.3745  138.8318  159.9444 N   0  0  0  0  0  0  0  0  0  0  0  0
  134.6650  139.2657  160.4851 C   0  0  0  0  0  0  0  0  0  0  0  0
  134.5233  140.5970  161.2588 C   0  0  0  0  0  0  0  0  0  0  0  0
  135.7873  141.3624  160.9397 C   0  0  0  0  0  0  0  0  0  0  0  0
  136.3929  140.8575  159.8995 C   0  0  0  0  0  0  0  0  0  0  0  0
  135.6339  139.6719  159.3504 C   0  0  0  0  0  0  0  0  0  0  0  0
  132.5690  138.4259  162.1826 C   0  0  0  0  0  0  0  0  0  0  0  0
  131.5657  138.0206  163.0417 C   0  0  0  0  0  0  0  0  0  0  0  0
  130.3335  137.6063  162.5291 C   0  0  0  0  0  0  0  0  0  0  0  0
  124.7894  135.5598  163.6492 H   0  0  0  0  0  0  0  0  0  0  0  0
  127.3551  136.3567  166.0014 H   0  0  0  0  0  0  0  0  0  0  0  0
  129.5628  137.1835  165.3120 H   0  0  0  0  0  0  0  0  0  0  0  0
  126.1454  136.1395  161.9074 H   0  0  0  0  0  0  0  0  0  0  0  0
  127.9240  136.8504  158.4237 H   0  0  0  0  0  0  0  0  0  0  0  0
  129.6975  136.7017  158.4053 H   0  0  0  0  0  0  0  0  0  0  0  0
  127.7091  134.4056  158.0997 H   0  0  0  0  0  0  0  0  0  0  0  0
  128.6719  135.1325  156.7900 H   0  0  0  0  0  0  0  0  0  0  0  0
  130.7575  134.4626  157.9256 H   0  0  0  0  0  0  0  0  0  0  0  0
  131.7551  132.5490  156.8401 H   0  0  0  0  0  0  0  0  0  0  0  0
  130.0271  130.0021  157.4422 H   0  0  0  0  0  0  0  0  0  0  0  0
  131.7625  130.0125  156.8183 H   0  0  0  0  0  0  0  0  0  0  0  0
  132.5025  131.2657  158.8965 H   0  0  0  0  0  0  0  0  0  0  0  0
  130.7673  131.2556  159.5209 H   0  0  0  0  0  0  0  0  0  0  0  0
  130.6709  133.0920  159.9753 H   0  0  0  0  0  0  0  0  0  0  0  0
  128.8937  133.1962  159.9872 H   0  0  0  0  0  0  0  0  0  0  0  0
  130.8241  135.5514  160.2011 H   0  0  0  0  0  0  0  0  0  0  0  0
  129.8782  134.8550  161.5382 H   0  0  0  0  0  0  0  0  0  0  0  0
  130.9666  138.0070  159.2292 H   0  0  0  0  0  0  0  0  0  0  0  0
  133.2264  138.8290  158.9857 H   0  0  0  0  0  0  0  0  0  0  0  0
  135.1029  138.4916  161.1152 H   0  0  0  0  0  0  0  0  0  0  0  0
  133.6487  141.1469  160.9114 H   0  0  0  0  0  0  0  0  0  0  0  0
  134.4533  140.4081  162.3300 H   0  0  0  0  0  0  0  0  0  0  0  0
  136.1427  142.2148  161.4994 H   0  0  0  0  0  0  0  0  0  0  0  0
  137.3150  141.2375  159.4853 H   0  0  0  0  0  0  0  0  0  0  0  0
  136.3185  138.8542  159.1249 H   0  0  0  0  0  0  0  0  0  0  0  0
  135.0759  139.9561  158.4582 H   0  0  0  0  0  0  0  0  0  0  0  0
  133.5207  138.7460  162.5801 H   0  0  0  0  0  0  0  0  0  0  0  0
  131.7326  138.0244  164.1087 H   0  0  0  0  0  0  0  0  0  0  0  0
  1  2  1  0
  1 34  1  0
  2  7  2  0
  2  3  1  0
  3  4  2  0
  3 35  1  0
  4  5  1  0
  4 36  1  0
  5 33  1  0
  5  6  2  0
  6  7  1  0
  6  8  1  0
  7 37  1  0
  8  9  1  6
  8 10  1  0
  8 22  1  0
 10 21  1  0
 10 11  1  0
 11 12  1  0
 11 38  1  0
 11 39  1  0
 12 13  1  0
 12 40  1  0
 12 41  1  0
 13 14  1  0
 13 20  1  0
 13 42  1  0
 14 15  1  0
 14 16  1  0
 14 17  1  0
 17 19  1  0
 17 18  1  0
 17 43  1  0
 18 19  1  0
 18 44  1  0
 18 45  1  0
 19 46  1  0
 19 47  1  0
 20 21  1  0
 20 48  1  0
 20 49  1  0
 21 50  1  0
 21 51  1  0
 22 33  2  0
 22 23  1  0
 23 24  2  0
 23 52  1  0
 24 25  1  0
 24 31  1  0
 25 26  1  0
 25 53  1  0
 26 30  1  0
 26 27  1  0
 26 54  1  0
 27 28  1  0
 27 55  1  0
 27 56  1  0
 28 29  2  0
 28 57  1  0
 29 30  1  0
 29 58  1  0
 30 59  1  0
 30 60  1  0
 31 32  2  0
 31 61  1  0
 32 33  1  0
 32 62  1  0
M  CHG  1  14   1
M  END
>  <DOCK_score>  (1) 
-44.841625

>  <SMILES>  (1) 
Oc1ccc2c(c1)[C@H](N1CCC([NH2+]C3CC3)CC1)c1cc(NC3CC=CC3)ccc1-2

$$$$
