Cc1cccc(Oc2cccc([C@@H]([NH3+])C(=O)Nc3cccc(O)c3)c2)c1
     RDKit          3D

 47 49  0  0  1  0  0  0  0  0999 V2000
  132.0482  140.0114  164.0927 C   0  0  0  0  0  0  0  0  0  0  0  0
  132.5597  139.3764  162.8252 C   0  0  0  0  0  0  0  0  0  0  0  0
  132.6854  140.1337  161.6750 C   0  0  0  0  0  0  0  0  0  0  0  0
  133.1539  139.5541  160.5105 C   0  0  0  0  0  0  0  0  0  0  0  0
  133.5038  138.2177  160.4951 C   0  0  0  0  0  0  0  0  0  0  0  0
  133.3743  137.4545  161.6464 C   0  0  0  0  0  0  0  0  0  0  0  0
  133.7133  136.1387  161.6324 O   0  0  0  0  0  0  0  0  0  0  0  0
  132.7507  135.2353  161.3103 C   0  0  0  0  0  0  0  0  0  0  0  0
  132.6036  134.0784  162.0624 C   0  0  0  0  0  0  0  0  0  0  0  0
  131.6241  133.1620  161.7331 C   0  0  0  0  0  0  0  0  0  0  0  0
  130.7869  133.3990  160.6581 C   0  0  0  0  0  0  0  0  0  0  0  0
  130.9347  134.5484  159.9041 C   0  0  0  0  0  0  0  0  0  0  0  0
  130.0240  134.8009  158.7303 C   0  0  1  0  0  0  0  0  0  0  0  0
  129.8945  135.8747  158.5953 H   0  0  0  0  0  0  0  0  0  0  0  0
  130.6173  134.2229  157.5170 N   0  0  0  0  0  0  0  0  0  0  0  0
  130.0076  134.3919  156.7311 H   0  0  0  0  0  0  0  0  0  0  0  0
  131.5146  134.6507  157.3447 H   0  0  0  0  0  0  0  0  0  0  0  0
  130.7371  133.2289  157.6420 H   0  0  0  0  0  0  0  0  0  0  0  0
  128.6837  134.1617  158.9877 C   0  0  0  0  0  0  0  0  0  0  0  0
  128.2640  133.3088  158.2346 O   0  0  0  0  0  0  0  0  0  0  0  0
  127.9515  134.5381  160.0548 N   0  0  0  0  0  0  0  0  0  0  0  0
  126.7072  133.9446  160.2939 C   0  0  0  0  0  0  0  0  0  0  0  0
  126.4737  132.6341  159.8961 C   0  0  0  0  0  0  0  0  0  0  0  0
  125.2453  132.0483  160.1321 C   0  0  0  0  0  0  0  0  0  0  0  0
  124.2478  132.7614  160.7701 C   0  0  0  0  0  0  0  0  0  0  0  0
  124.4735  134.0725  161.1645 C   0  0  0  0  0  0  0  0  0  0  0  0
  123.4899  134.7744  161.7862 O   0  0  0  0  0  0  0  0  0  0  0  0
  125.7050  134.6640  160.9289 C   0  0  0  0  0  0  0  0  0  0  0  0
  131.9130  135.4682  160.2292 C   0  0  0  0  0  0  0  0  0  0  0  0
  132.9032  138.0387  162.8138 C   0  0  0  0  0  0  0  0  0  0  0  0
  132.8869  140.4091  164.6640 H   0  0  0  0  0  0  0  0  0  0  0  0
  131.3626  140.8209  163.8423 H   0  0  0  0  0  0  0  0  0  0  0  0
  131.5250  139.2633  164.6883 H   0  0  0  0  0  0  0  0  0  0  0  0
  132.4166  141.1797  161.6862 H   0  0  0  0  0  0  0  0  0  0  0  0
  133.2511  140.1479  159.6137 H   0  0  0  0  0  0  0  0  0  0  0  0
  133.8745  137.7665  159.5865 H   0  0  0  0  0  0  0  0  0  0  0  0
  133.2543  133.8948  162.9046 H   0  0  0  0  0  0  0  0  0  0  0  0
  131.5091  132.2614  162.3182 H   0  0  0  0  0  0  0  0  0  0  0  0
  130.0187  132.6834  160.4051 H   0  0  0  0  0  0  0  0  0  0  0  0
  128.2872  135.2203  160.6570 H   0  0  0  0  0  0  0  0  0  0  0  0
  127.2530  132.0732  159.4017 H   0  0  0  0  0  0  0  0  0  0  0  0
  125.0655  131.0296  159.8219 H   0  0  0  0  0  0  0  0  0  0  0  0
  123.2901  132.2990  160.9579 H   0  0  0  0  0  0  0  0  0  0  0  0
  123.7406  135.6780  162.0225 H   0  0  0  0  0  0  0  0  0  0  0  0
  125.8838  135.6831  161.2388 H   0  0  0  0  0  0  0  0  0  0  0  0
  132.0252  136.3680  159.6425 H   0  0  0  0  0  0  0  0  0  0  0  0
  132.8049  137.4476  163.7123 H   0  0  0  0  0  0  0  0  0  0  0  0
  1  2  1  0
  1 31  1  0
  1 32  1  0
  1 33  1  0
  2 30  2  0
  2  3  1  0
  3  4  2  0
  3 34  1  0
  4  5  1  0
  4 35  1  0
  5  6  2  0
  5 36  1  0
  6  7  1  0
  6 30  1  0
  7  8  1  0
  8 29  1  0
  8  9  2  0
  9 10  1  0
  9 37  1  0
 10 11  2  0
 10 38  1  0
 11 12  1  0
 11 39  1  0
 12 13  1  0
 12 29  2  0
 13 14  1  6
 13 15  1  0
 13 19  1  0
 15 16  1  0
 15 17  1  0
 15 18  1  0
 19 20  2  0
 19 21  1  0
 21 22  1  0
 21 40  1  0
 22 28  1  0
 22 23  2  0
 23 24  1  0
 23 41  1  0
 24 25  2  0
 24 42  1  0
 25 26  1  0
 25 43  1  0
 26 27  1  0
 26 28  2  0
 27 44  1  0
 28 45  1  0
 29 46  1  0
 30 47  1  0
M  CHG  1  15   1
M  END
>  <DOCK_score>  (1) 
-46.472656

>  <SMILES>  (1) 
Cc1cccc(Oc2cccc([C@@H]([NH3+])C(=O)Nc3cccc(O)c3)c2)c1

$$$$
