Cc1ccn(-c2ccccc2NC2CCCC[C@H]2[NH2+]CC2CC(c3ccccc3)C2)n1
     RDKit          3D

 66 70  0  0  1  0  0  0  0  0999 V2000
  126.3682  136.1589  164.9786 C   0  0  0  0  0  0  0  0  0  0  0  0
  126.7389  135.6405  163.6131 C   0  0  0  0  0  0  0  0  0  0  0  0
  127.7495  134.7144  163.3342 C   0  0  0  0  0  0  0  0  0  0  0  0
  127.7669  134.5065  161.9968 C   0  0  0  0  0  0  0  0  0  0  0  0
  126.8052  135.2815  161.4476 N   0  0  0  0  0  0  0  0  0  0  0  0
  126.4934  135.3672  160.0823 C   0  0  0  0  0  0  0  0  0  0  0  0
  125.1959  135.6482  159.6816 C   0  0  0  0  0  0  0  0  0  0  0  0
  124.8921  135.7374  158.3363 C   0  0  0  0  0  0  0  0  0  0  0  0
  125.8767  135.5368  157.3858 C   0  0  0  0  0  0  0  0  0  0  0  0
  127.1710  135.2508  157.7756 C   0  0  0  0  0  0  0  0  0  0  0  0
  127.4863  135.1646  159.1243 C   0  0  0  0  0  0  0  0  0  0  0  0
  128.7948  134.8749  159.5212 N   0  0  0  0  0  0  0  0  0  0  0  0
  129.6538  134.0507  158.6673 C   0  0  2  0  0  0  0  0  0  0  0  0
  129.0126  132.6747  158.4754 C   0  0  0  0  0  0  0  0  0  0  0  0
  129.9097  131.8139  157.5838 C   0  0  0  0  0  0  0  0  0  0  0  0
  131.2798  131.6504  158.2448 C   0  0  0  0  0  0  0  0  0  0  0  0
  131.9209  133.0262  158.4367 C   0  0  0  0  0  0  0  0  0  0  0  0
  131.0239  133.8870  159.3285 C   0  0  1  0  0  0  0  0  0  0  0  0
  130.9041  133.4037  160.2980 H   0  0  0  0  0  0  0  0  0  0  0  0
  131.6395  135.2081  159.5127 N   0  0  0  0  0  0  0  0  0  0  0  0
  132.0475  135.5134  158.6418 H   0  0  0  0  0  0  0  0  0  0  0  0
  130.9357  135.8694  159.8046 H   0  0  0  0  0  0  0  0  0  0  0  0
  132.6861  135.1216  160.5399 C   0  0  0  0  0  0  0  0  0  0  0  0
  133.3273  136.4974  160.7318 C   0  0  2  0  0  0  0  0  0  0  0  0
  134.3991  136.5292  161.8342 C   0  0  0  0  0  0  0  0  0  0  0  0
  133.2650  136.8615  162.8181 C   0  0  1  0  0  0  0  0  0  0  0  0
  133.6438  137.8921  163.8503 C   0  0  0  0  0  0  0  0  0  0  0  0
  132.6812  138.7382  164.3679 C   0  0  0  0  0  0  0  0  0  0  0  0
  133.0279  139.6803  165.3183 C   0  0  0  0  0  0  0  0  0  0  0  0
  134.3392  139.7829  165.7436 C   0  0  0  0  0  0  0  0  0  0  0  0
  135.3031  138.9405  165.2216 C   0  0  0  0  0  0  0  0  0  0  0  0
  134.9553  137.9949  164.2751 C   0  0  0  0  0  0  0  0  0  0  0  0
  132.5004  137.4442  161.6177 C   0  0  0  0  0  0  0  0  0  0  0  0
  126.1743  135.9834  162.4828 N   0  0  0  0  0  0  0  0  0  0  0  0
  125.6013  135.5186  165.4145 H   0  0  0  0  0  0  0  0  0  0  0  0
  125.9853  137.1755  164.8897 H   0  0  0  0  0  0  0  0  0  0  0  0
  127.2500  136.1576  165.6194 H   0  0  0  0  0  0  0  0  0  0  0  0
  128.3998  134.2464  164.0584 H   0  0  0  0  0  0  0  0  0  0  0  0
  128.4323  133.8435  161.4639 H   0  0  0  0  0  0  0  0  0  0  0  0
  124.4237  135.8012  160.4209 H   0  0  0  0  0  0  0  0  0  0  0  0
  123.8817  135.9599  158.0262 H   0  0  0  0  0  0  0  0  0  0  0  0
  125.6329  135.6036  156.3358 H   0  0  0  0  0  0  0  0  0  0  0  0
  127.9374  135.0949  157.0307 H   0  0  0  0  0  0  0  0  0  0  0  0
  129.1342  135.2197  160.3619 H   0  0  0  0  0  0  0  0  0  0  0  0
  129.7737  134.5340  157.6978 H   0  0  0  0  0  0  0  0  0  0  0  0
  128.8929  132.1914  159.4451 H   0  0  0  0  0  0  0  0  0  0  0  0
  128.0365  132.7913  158.0045 H   0  0  0  0  0  0  0  0  0  0  0  0
  130.0295  132.2974  156.6142 H   0  0  0  0  0  0  0  0  0  0  0  0
  129.4529  130.8338  157.4470 H   0  0  0  0  0  0  0  0  0  0  0  0
  131.9188  131.0371  157.6096 H   0  0  0  0  0  0  0  0  0  0  0  0
  131.1599  131.1670  159.2145 H   0  0  0  0  0  0  0  0  0  0  0  0
  132.0408  133.5096  157.4672 H   0  0  0  0  0  0  0  0  0  0  0  0
  132.8970  132.9097  158.9077 H   0  0  0  0  0  0  0  0  0  0  0  0
  132.2455  134.7917  161.4807 H   0  0  0  0  0  0  0  0  0  0  0  0
  133.4465  134.4072  160.2245 H   0  0  0  0  0  0  0  0  0  0  0  0
  133.6506  136.9484  159.7935 H   0  0  0  0  0  0  0  0  0  0  0  0
  134.8662  135.5615  162.0169 H   0  0  0  0  0  0  0  0  0  0  0  0
  135.1240  137.3346  161.7153 H   0  0  0  0  0  0  0  0  0  0  0  0
  132.7902  135.9818  163.2526 H   0  0  0  0  0  0  0  0  0  0  0  0
  131.6574  138.6608  164.0328 H   0  0  0  0  0  0  0  0  0  0  0  0
  132.2750  140.3387  165.7258 H   0  0  0  0  0  0  0  0  0  0  0  0
  134.6108  140.5214  166.4833 H   0  0  0  0  0  0  0  0  0  0  0  0
  136.3276  139.0209  165.5535 H   0  0  0  0  0  0  0  0  0  0  0  0
  135.7083  137.3367  163.8674 H   0  0  0  0  0  0  0  0  0  0  0  0
  132.7063  138.4997  161.4396 H   0  0  0  0  0  0  0  0  0  0  0  0
  131.4347  137.2161  161.6245 H   0  0  0  0  0  0  0  0  0  0  0  0
  1  2  1  0
  1 35  1  0
  1 36  1  0
  1 37  1  0
  2 34  2  0
  2  3  1  0
  3  4  2  0
  3 38  1  0
  4  5  1  0
  4 39  1  0
  5  6  1  0
  5 34  1  0
  6 11  1  0
  6  7  2  0
  7  8  1  0
  7 40  1  0
  8  9  2  0
  8 41  1  0
  9 10  1  0
  9 42  1  0
 10 11  2  0
 10 43  1  0
 11 12  1  0
 12 13  1  0
 12 44  1  0
 13 18  1  0
 13 14  1  0
 13 45  1  6
 14 15  1  0
 14 46  1  0
 14 47  1  0
 15 16  1  0
 15 48  1  0
 15 49  1  0
 16 17  1  0
 16 50  1  0
 16 51  1  0
 17 18  1  0
 17 52  1  0
 17 53  1  0
 18 19  1  1
 18 20  1  0
 20 21  1  0
 20 22  1  0
 20 23  1  0
 23 24  1  0
 23 54  1  0
 23 55  1  0
 24 33  1  0
 24 25  1  0
 24 56  1  6
 25 26  1  0
 25 57  1  0
 25 58  1  0
 26 27  1  0
 26 33  1  0
 26 59  1  1
 27 32  1  0
 27 28  2  0
 28 29  1  0
 28 60  1  0
 29 30  2  0
 29 61  1  0
 30 31  1  0
 30 62  1  0
 31 32  2  0
 31 63  1  0
 32 64  1  0
 33 65  1  0
 33 66  1  0
M  CHG  1  20   1
M  END
>  <DOCK_score>  (1) 
-41.869633

>  <SMILES>  (1) 
Cc1ccn(-c2ccccc2NC2CCCC[C@H]2[NH2+]CC2CC(c3ccccc3)C2)n1

$$$$
