[NH3+][C@@H](C(=O)Nc1cccc(O)c1)c1cccc(-c2ccc(-c3ccccc3)cc2)c1
     RDKit          3D

 53 56  0  0  1  0  0  0  0  0999 V2000
  131.4477  133.9845  158.3434 N   0  0  0  0  0  0  0  0  0  0  0  0
  130.9973  133.8408  157.4520 H   0  0  0  0  0  0  0  0  0  0  0  0
  132.2977  134.5115  158.2097 H   0  0  0  0  0  0  0  0  0  0  0  0
  131.6678  133.0907  158.7569 H   0  0  0  0  0  0  0  0  0  0  0  0
  130.5457  134.7272  159.2337 C   0  0  1  0  0  0  0  0  0  0  0  0
  130.3080  135.6927  158.7868 H   0  0  0  0  0  0  0  0  0  0  0  0
  129.2763  133.9400  159.4332 C   0  0  0  0  0  0  0  0  0  0  0  0
  129.3007  132.7282  159.3874 O   0  0  0  0  0  0  0  0  0  0  0  0
  128.1139  134.5824  159.6627 N   0  0  0  0  0  0  0  0  0  0  0  0
  126.9353  133.8514  159.8479 C   0  0  0  0  0  0  0  0  0  0  0  0
  126.7722  132.6236  159.2185 C   0  0  0  0  0  0  0  0  0  0  0  0
  125.6110  131.8994  159.4059 C   0  0  0  0  0  0  0  0  0  0  0  0
  124.6041  132.3991  160.2102 C   0  0  0  0  0  0  0  0  0  0  0  0
  124.7592  133.6275  160.8368 C   0  0  0  0  0  0  0  0  0  0  0  0
  123.7683  134.1176  161.6269 O   0  0  0  0  0  0  0  0  0  0  0  0
  125.9255  134.3545  160.6557 C   0  0  0  0  0  0  0  0  0  0  0  0
  131.2184  134.9419  160.5651 C   0  0  0  0  0  0  0  0  0  0  0  0
  132.5958  135.0525  160.6328 C   0  0  0  0  0  0  0  0  0  0  0  0
  133.2199  135.2495  161.8513 C   0  0  0  0  0  0  0  0  0  0  0  0
  132.4707  135.3371  163.0072 C   0  0  0  0  0  0  0  0  0  0  0  0
  131.0828  135.2263  162.9449 C   0  0  0  0  0  0  0  0  0  0  0  0
  130.2724  135.3195  164.1836 C   0  0  0  0  0  0  0  0  0  0  0  0
  129.0631  134.6318  164.2788 C   0  0  0  0  0  0  0  0  0  0  0  0
  128.3101  134.7188  165.4291 C   0  0  0  0  0  0  0  0  0  0  0  0
  128.7572  135.4945  166.4982 C   0  0  0  0  0  0  0  0  0  0  0  0
  127.9465  135.5881  167.7366 C   0  0  0  0  0  0  0  0  0  0  0  0
  127.9950  136.7406  168.5190 C   0  0  0  0  0  0  0  0  0  0  0  0
  127.2352  136.8238  169.6681 C   0  0  0  0  0  0  0  0  0  0  0  0
  126.4339  135.7624  170.0489 C   0  0  0  0  0  0  0  0  0  0  0  0
  126.3859  134.6142  169.2791 C   0  0  0  0  0  0  0  0  0  0  0  0
  127.1377  134.5216  168.1255 C   0  0  0  0  0  0  0  0  0  0  0  0
  129.9639  136.1868  166.4007 C   0  0  0  0  0  0  0  0  0  0  0  0
  130.7195  136.0952  165.2526 C   0  0  0  0  0  0  0  0  0  0  0  0
  130.4597  135.0220  161.7148 C   0  0  0  0  0  0  0  0  0  0  0  0
  128.0944  135.5515  159.6993 H   0  0  0  0  0  0  0  0  0  0  0  0
  127.5555  132.2331  158.5859 H   0  0  0  0  0  0  0  0  0  0  0  0
  125.4876  130.9433  158.9192 H   0  0  0  0  0  0  0  0  0  0  0  0
  123.6957  131.8324  160.3517 H   0  0  0  0  0  0  0  0  0  0  0  0
  123.9678  134.9785  162.0195 H   0  0  0  0  0  0  0  0  0  0  0  0
  126.0482  135.3107  161.1428 H   0  0  0  0  0  0  0  0  0  0  0  0
  133.1858  134.9851  159.7308 H   0  0  0  0  0  0  0  0  0  0  0  0
  134.2955  135.3348  161.8983 H   0  0  0  0  0  0  0  0  0  0  0  0
  132.9591  135.4905  163.9581 H   0  0  0  0  0  0  0  0  0  0  0  0
  128.7165  134.0313  163.4507 H   0  0  0  0  0  0  0  0  0  0  0  0
  127.3732  134.1864  165.5028 H   0  0  0  0  0  0  0  0  0  0  0  0
  128.6235  137.5682  168.2248 H   0  0  0  0  0  0  0  0  0  0  0  0
  127.2689  137.7180  170.2728 H   0  0  0  0  0  0  0  0  0  0  0  0
  125.8439  135.8305  170.9509 H   0  0  0  0  0  0  0  0  0  0  0  0
  125.7591  133.7883  169.5816 H   0  0  0  0  0  0  0  0  0  0  0  0
  127.0998  133.6245  167.5255 H   0  0  0  0  0  0  0  0  0  0  0  0
  130.3078  136.7913  167.2269 H   0  0  0  0  0  0  0  0  0  0  0  0
  131.6564  136.6275  165.1790 H   0  0  0  0  0  0  0  0  0  0  0  0
  129.3849  134.9311  161.6613 H   0  0  0  0  0  0  0  0  0  0  0  0
  1  2  1  0
  1  3  1  0
  1  4  1  0
  1  5  1  0
  5  6  1  6
  5  7  1  0
  5 17  1  0
  7  8  2  0
  7  9  1  0
  9 10  1  0
  9 35  1  0
 10 16  1  0
 10 11  2  0
 11 12  1  0
 11 36  1  0
 12 13  2  0
 12 37  1  0
 13 14  1  0
 13 38  1  0
 14 15  1  0
 14 16  2  0
 15 39  1  0
 16 40  1  0
 17 34  1  0
 17 18  2  0
 18 19  1  0
 18 41  1  0
 19 20  2  0
 19 42  1  0
 20 21  1  0
 20 43  1  0
 21 22  1  0
 21 34  2  0
 22 33  1  0
 22 23  2  0
 23 24  1  0
 23 44  1  0
 24 25  2  0
 24 45  1  0
 25 26  1  0
 25 32  1  0
 26 31  1  0
 26 27  2  0
 27 28  1  0
 27 46  1  0
 28 29  2  0
 28 47  1  0
 29 30  1  0
 29 48  1  0
 30 31  2  0
 30 49  1  0
 31 50  1  0
 32 33  2  0
 32 51  1  0
 33 52  1  0
 34 53  1  0
M  CHG  1   1   1
M  END
>  <DOCK_score>  (1) 
-42.889004

>  <SMILES>  (1) 
[NH3+][C@@H](C(=O)Nc1cccc(O)c1)c1cccc(-c2ccc(-c3ccccc3)cc2)c1

$$$$
