Oc1cc(C[NH+]=C(NCc2cccs2)NC2CC=CC2)cc(OC2CC2)c1
     RDKit          3D

 53 56  0  0  1  0  0  0  0  0999 V2000
  124.7751  135.6613  163.2567 O   0  0  0  0  0  0  0  0  0  0  0  0
  126.0018  135.6994  163.8402 C   0  0  0  0  0  0  0  0  0  0  0  0
  127.1000  136.1480  163.1196 C   0  0  0  0  0  0  0  0  0  0  0  0
  128.3474  136.1868  163.7120 C   0  0  0  0  0  0  0  0  0  0  0  0
  129.5380  136.6742  162.9273 C   0  0  0  0  0  0  0  0  0  0  0  0
  129.5235  136.0706  161.5924 N   0  0  0  0  0  0  0  0  0  0  0  0
  128.8117  135.4603  161.3439 H   0  0  0  0  0  0  0  0  0  0  0  0
  130.4670  136.3538  160.7388 C   0  0  0  0  0  0  0  0  0  0  0  0
  131.4757  137.2189  161.0914 N   0  0  0  0  0  0  0  0  0  0  0  0
  132.5363  137.5373  160.1320 C   0  0  0  0  0  0  0  0  0  0  0  0
  133.5098  138.5005  160.7607 C   0  0  0  0  0  0  0  0  0  0  0  0
  133.4148  139.8301  160.7139 C   0  0  0  0  0  0  0  0  0  0  0  0
  134.4286  140.5106  161.3659 C   0  0  0  0  0  0  0  0  0  0  0  0
  135.3470  139.7336  161.9422 C   0  0  0  0  0  0  0  0  0  0  0  0
  134.9410  138.0433  161.6751 S   0  0  0  0  0  0  0  0  0  0  0  0
  130.4534  135.7874  159.4863 N   0  0  0  0  0  0  0  0  0  0  0  0
  129.3785  134.8655  159.1107 C   0  0  0  0  0  0  0  0  0  0  0  0
  129.4706  133.5482  159.9152 C   0  0  0  0  0  0  0  0  0  0  0  0
  129.0717  132.4704  158.9343 C   0  0  0  0  0  0  0  0  0  0  0  0
  129.1238  132.9098  157.7063 C   0  0  0  0  0  0  0  0  0  0  0  0
  129.5662  134.3539  157.6636 C   0  0  0  0  0  0  0  0  0  0  0  0
  128.5052  135.7789  165.0230 C   0  0  0  0  0  0  0  0  0  0  0  0
  127.4106  135.3297  165.7476 C   0  0  0  0  0  0  0  0  0  0  0  0
  127.5664  134.9283  167.0365 O   0  0  0  0  0  0  0  0  0  0  0  0
  126.8240  135.6366  168.0310 C   0  0  0  0  0  0  0  0  0  0  0  0
  127.1393  135.3337  169.4972 C   0  0  0  0  0  0  0  0  0  0  0  0
  125.8326  134.8350  168.8768 C   0  0  0  0  0  0  0  0  0  0  0  0
  126.1584  135.2853  165.1537 C   0  0  0  0  0  0  0  0  0  0  0  0
  124.7658  135.9694  162.3402 H   0  0  0  0  0  0  0  0  0  0  0  0
  126.9790  136.4673  162.0949 H   0  0  0  0  0  0  0  0  0  0  0  0
  129.4933  137.7594  162.8358 H   0  0  0  0  0  0  0  0  0  0  0  0
  130.4548  136.3905  163.4443 H   0  0  0  0  0  0  0  0  0  0  0  0
  131.4854  137.6183  161.9751 H   0  0  0  0  0  0  0  0  0  0  0  0
  133.0593  136.6229  159.8519 H   0  0  0  0  0  0  0  0  0  0  0  0
  132.0978  137.9918  159.2435 H   0  0  0  0  0  0  0  0  0  0  0  0
  132.6082  140.3373  160.2054 H   0  0  0  0  0  0  0  0  0  0  0  0
  134.4727  141.5891  161.4053 H   0  0  0  0  0  0  0  0  0  0  0  0
  136.2057  140.0882  162.4930 H   0  0  0  0  0  0  0  0  0  0  0  0
  131.1556  135.9980  158.8510 H   0  0  0  0  0  0  0  0  0  0  0  0
  128.4024  135.3341  159.2365 H   0  0  0  0  0  0  0  0  0  0  0  0
  130.4909  133.3863  160.2631 H   0  0  0  0  0  0  0  0  0  0  0  0
  128.7799  133.5689  160.7583 H   0  0  0  0  0  0  0  0  0  0  0  0
  128.7812  131.4681  159.2127 H   0  0  0  0  0  0  0  0  0  0  0  0
  128.8820  132.3189  156.8352 H   0  0  0  0  0  0  0  0  0  0  0  0
  128.9406  134.9225  156.9756 H   0  0  0  0  0  0  0  0  0  0  0  0
  130.6134  134.4235  157.3691 H   0  0  0  0  0  0  0  0  0  0  0  0
  129.4814  135.8101  165.4839 H   0  0  0  0  0  0  0  0  0  0  0  0
  126.5542  136.6612  167.7755 H   0  0  0  0  0  0  0  0  0  0  0  0
  127.0770  136.1593  170.2063 H   0  0  0  0  0  0  0  0  0  0  0  0
  127.9131  134.5941  169.7033 H   0  0  0  0  0  0  0  0  0  0  0  0
  125.7468  133.7673  168.6748 H   0  0  0  0  0  0  0  0  0  0  0  0
  124.9106  135.3321  169.1782 H   0  0  0  0  0  0  0  0  0  0  0  0
  125.3059  134.9322  165.7148 H   0  0  0  0  0  0  0  0  0  0  0  0
  1  2  1  0
  1 29  1  0
  2 28  2  0
  2  3  1  0
  3  4  2  0
  3 30  1  0
  4  5  1  0
  4 22  1  0
  5  6  1  0
  5 31  1  0
  5 32  1  0
  6  7  1  0
  8  6  2  0
  8  9  1  0
  8 16  1  0
  9 10  1  0
  9 33  1  0
 10 11  1  0
 10 34  1  0
 10 35  1  0
 11 15  1  0
 11 12  2  0
 12 13  1  0
 12 36  1  0
 13 14  2  0
 13 37  1  0
 14 15  1  0
 14 38  1  0
 16 17  1  0
 16 39  1  0
 17 21  1  0
 17 18  1  0
 17 40  1  0
 18 19  1  0
 18 41  1  0
 18 42  1  0
 19 20  2  0
 19 43  1  0
 20 21  1  0
 20 44  1  0
 21 45  1  0
 21 46  1  0
 22 23  2  0
 22 47  1  0
 23 24  1  0
 23 28  1  0
 24 25  1  0
 25 27  1  0
 25 26  1  0
 25 48  1  0
 26 27  1  0
 26 49  1  0
 26 50  1  0
 27 51  1  0
 27 52  1  0
 28 53  1  0
M  CHG  1   6   1
M  END
>  <DOCK_score>  (1) 
-44.169071

>  <SMILES>  (1) 
Oc1cc(C[NH+]=C(NCc2cccs2)NC2CC=CC2)cc(OC2CC2)c1

$$$$
