Nc1ccc(-c2c[nH]c(N[C@H](c3ccnn3C3CCCC3)C3CC(=O)CCC3=O)[nH+]2)cc1
     RDKit          3D

 61 65  0  0  1  0  0  0  0  0999 V2000
  131.4203  129.3401  151.3442 N   0  0  0  0  0  0  0  0  0  0  0  0
  131.1592  129.9975  152.5488 C   0  0  0  0  0  0  0  0  0  0  0  0
  130.2895  131.0814  152.5733 C   0  0  0  0  0  0  0  0  0  0  0  0
  130.0303  131.7321  153.7611 C   0  0  0  0  0  0  0  0  0  0  0  0
  130.6413  131.3018  154.9379 C   0  0  0  0  0  0  0  0  0  0  0  0
  130.3641  132.0004  156.2171 C   0  0  0  0  0  0  0  0  0  0  0  0
  129.8242  131.4439  157.3294 C   0  0  0  0  0  0  0  0  0  0  0  0
  129.7482  132.4383  158.2759 N   0  0  0  0  0  0  0  0  0  0  0  0
  129.4076  132.3467  159.1794 H   0  0  0  0  0  0  0  0  0  0  0  0
  130.2361  133.5753  157.7097 C   0  0  0  0  0  0  0  0  0  0  0  0
  130.3314  134.8089  158.3309 N   0  0  0  0  0  0  0  0  0  0  0  0
  129.3691  135.1813  159.3711 C   0  0  2  0  0  0  0  0  0  0  0  0
  129.4276  134.4675  160.1926 H   0  0  0  0  0  0  0  0  0  0  0  0
  127.9768  135.1706  158.7944 C   0  0  0  0  0  0  0  0  0  0  0  0
  127.5346  135.9269  157.7632 C   0  0  0  0  0  0  0  0  0  0  0  0
  126.1877  135.6169  157.5486 C   0  0  0  0  0  0  0  0  0  0  0  0
  125.8367  134.7000  158.4135 N   0  0  0  0  0  0  0  0  0  0  0  0
  126.9480  134.4046  159.2136 N   0  0  0  0  0  0  0  0  0  0  0  0
  126.9866  133.4350  160.3111 C   0  0  0  0  0  0  0  0  0  0  0  0
  126.5753  132.0396  159.7981 C   0  0  0  0  0  0  0  0  0  0  0  0
  125.7583  131.4315  160.9650 C   0  0  0  0  0  0  0  0  0  0  0  0
  124.9685  132.6512  161.5014 C   0  0  0  0  0  0  0  0  0  0  0  0
  125.9650  133.8239  161.3942 C   0  0  0  0  0  0  0  0  0  0  0  0
  129.6957  136.5833  159.8894 C   0  0  1  0  0  0  0  0  0  0  0  0
  128.7007  136.9698  160.9910 C   0  0  0  0  0  0  0  0  0  0  0  0
  129.1955  138.2276  161.6683 C   0  0  0  0  0  0  0  0  0  0  0  0
  128.4890  139.2041  161.7423 O   0  0  0  0  0  0  0  0  0  0  0  0
  130.5901  138.2409  162.2516 C   0  0  0  0  0  0  0  0  0  0  0  0
  131.5851  137.8544  161.1499 C   0  0  0  0  0  0  0  0  0  0  0  0
  131.0919  136.5978  160.4686 C   0  0  0  0  0  0  0  0  0  0  0  0
  131.7988  135.6217  160.3927 O   0  0  0  0  0  0  0  0  0  0  0  0
  130.6064  133.3089  156.4807 N   0  0  0  0  0  0  0  0  0  0  0  0
  130.9920  133.9458  155.8590 H   0  0  0  0  0  0  0  0  0  0  0  0
  131.5173  130.2179  154.9100 C   0  0  0  0  0  0  0  0  0  0  0  0
  131.7690  129.5667  153.7209 C   0  0  0  0  0  0  0  0  0  0  0  0
  130.9950  129.6402  150.5257 H   0  0  0  0  0  0  0  0  0  0  0  0
  132.0274  128.5836  151.3262 H   0  0  0  0  0  0  0  0  0  0  0  0
  129.8164  131.4143  151.6613 H   0  0  0  0  0  0  0  0  0  0  0  0
  129.3544  132.5742  153.7797 H   0  0  0  0  0  0  0  0  0  0  0  0
  129.5167  130.4158  157.4501 H   0  0  0  0  0  0  0  0  0  0  0  0
  131.0351  135.4264  158.0777 H   0  0  0  0  0  0  0  0  0  0  0  0
  128.1174  136.6464  157.2071 H   0  0  0  0  0  0  0  0  0  0  0  0
  125.5487  136.0561  156.7968 H   0  0  0  0  0  0  0  0  0  0  0  0
  127.9881  133.3959  160.7394 H   0  0  0  0  0  0  0  0  0  0  0  0
  125.9566  132.1285  158.9050 H   0  0  0  0  0  0  0  0  0  0  0  0
  127.4575  131.4331  159.5934 H   0  0  0  0  0  0  0  0  0  0  0  0
  126.4204  131.0319  161.7331 H   0  0  0  0  0  0  0  0  0  0  0  0
  125.0786  130.6611  160.6007 H   0  0  0  0  0  0  0  0  0  0  0  0
  124.6782  132.4910  162.5398 H   0  0  0  0  0  0  0  0  0  0  0  0
  124.0894  132.8399  160.8852 H   0  0  0  0  0  0  0  0  0  0  0  0
  126.4707  133.9728  162.3481 H   0  0  0  0  0  0  0  0  0  0  0  0
  125.4411  134.7345  161.1035 H   0  0  0  0  0  0  0  0  0  0  0  0
  129.6318  137.3001  159.0707 H   0  0  0  0  0  0  0  0  0  0  0  0
  127.7203  137.1526  160.5510 H   0  0  0  0  0  0  0  0  0  0  0  0
  128.6321  136.1637  161.7215 H   0  0  0  0  0  0  0  0  0  0  0  0
  130.8228  139.2396  162.6209 H   0  0  0  0  0  0  0  0  0  0  0  0
  130.6517  137.5223  163.0690 H   0  0  0  0  0  0  0  0  0  0  0  0
  131.6537  138.6604  160.4196 H   0  0  0  0  0  0  0  0  0  0  0  0
  132.5654  137.6715  161.5901 H   0  0  0  0  0  0  0  0  0  0  0  0
  131.9954  129.8859  155.8198 H   0  0  0  0  0  0  0  0  0  0  0  0
  132.4442  128.7240  153.6997 H   0  0  0  0  0  0  0  0  0  0  0  0
  1  2  1  0
  1 36  1  0
  1 37  1  0
  2 35  2  0
  2  3  1  0
  3  4  2  0
  3 38  1  0
  4  5  1  0
  4 39  1  0
  5  6  1  0
  5 34  2  0
  6 32  1  0
  6  7  2  0
  7  8  1  0
  7 40  1  0
  8  9  1  0
  8 10  1  0
 10 11  1  0
 10 32  2  0
 11 12  1  0
 11 41  1  0
 12 13  1  1
 12 14  1  0
 12 24  1  0
 14 18  1  0
 14 15  2  0
 15 16  1  0
 15 42  1  0
 16 17  2  0
 16 43  1  0
 17 18  1  0
 18 19  1  0
 19 23  1  0
 19 20  1  0
 19 44  1  0
 20 21  1  0
 20 45  1  0
 20 46  1  0
 21 22  1  0
 21 47  1  0
 21 48  1  0
 22 23  1  0
 22 49  1  0
 22 50  1  0
 23 51  1  0
 23 52  1  0
 24 30  1  0
 24 25  1  0
 24 53  1  6
 25 26  1  0
 25 54  1  0
 25 55  1  0
 26 27  2  0
 26 28  1  0
 28 29  1  0
 28 56  1  0
 28 57  1  0
 29 30  1  0
 29 58  1  0
 29 59  1  0
 30 31  2  0
 32 33  1  0
 34 35  1  0
 34 60  1  0
 35 61  1  0
M  CHG  1  32   1
M  END
>  <DOCK_score>  (1) 
-65.464859

>  <SMILES>  (1) 
Nc1ccc(-c2c[nH]c(N[C@H](c3ccnn3C3CCCC3)C3CC(=O)CCC3=O)[nH+]2)cc1

$$$$
