COc1c(COC(=O)c2c[nH]nc2[C@H]2CCC[NH2+]C2)cccc1-c1ccccc1
     RDKit          3D

 55 58  0  0  1  0  0  0  0  0999 V2000
  133.0484  135.1805  159.8845 C   0  0  0  0  0  0  0  0  0  0  0  0
  132.2575  136.1095  160.6285 O   0  0  0  0  0  0  0  0  0  0  0  0
  132.8074  136.6187  161.7615 C   0  0  0  0  0  0  0  0  0  0  0  0
  132.6219  135.9749  162.9746 C   0  0  0  0  0  0  0  0  0  0  0  0
  131.8140  134.7042  163.0367 C   0  0  0  0  0  0  0  0  0  0  0  0
  130.6016  134.8627  162.2537 O   0  0  0  0  0  0  0  0  0  0  0  0
  129.5173  135.3414  162.8949 C   0  0  0  0  0  0  0  0  0  0  0  0
  129.5833  135.6188  164.0762 O   0  0  0  0  0  0  0  0  0  0  0  0
  128.2523  135.5282  162.1641 C   0  0  0  0  0  0  0  0  0  0  0  0
  127.0681  136.0125  162.6848 C   0  0  0  0  0  0  0  0  0  0  0  0
  126.1671  136.0243  161.6899 N   0  0  0  0  0  0  0  0  0  0  0  0
  125.2451  136.3164  161.7639 H   0  0  0  0  0  0  0  0  0  0  0  0
  126.7818  135.5444  160.5281 N   0  0  0  0  0  0  0  0  0  0  0  0
  128.0240  135.2515  160.7969 C   0  0  0  0  0  0  0  0  0  0  0  0
  129.0370  134.7091  159.8219 C   0  0  1  0  0  0  0  0  0  0  0  0
  130.0345  135.0400  160.1116 H   0  0  0  0  0  0  0  0  0  0  0  0
  128.9842  133.1787  159.8280 C   0  0  0  0  0  0  0  0  0  0  0  0
  129.9608  132.6399  158.7785 C   0  0  0  0  0  0  0  0  0  0  0  0
  129.6063  133.2270  157.4106 C   0  0  0  0  0  0  0  0  0  0  0  0
  129.7007  134.6908  157.4633 N   0  0  0  0  0  0  0  0  0  0  0  0
  130.6286  134.9566  157.7574 H   0  0  0  0  0  0  0  0  0  0  0  0
  129.5175  135.0718  156.5470 H   0  0  0  0  0  0  0  0  0  0  0  0
  128.7174  135.2206  158.4156 C   0  0  0  0  0  0  0  0  0  0  0  0
  133.1772  136.4968  164.1274 C   0  0  0  0  0  0  0  0  0  0  0  0
  133.9198  137.6635  164.0785 C   0  0  0  0  0  0  0  0  0  0  0  0
  134.1124  138.3149  162.8771 C   0  0  0  0  0  0  0  0  0  0  0  0
  133.5574  137.7972  161.7089 C   0  0  0  0  0  0  0  0  0  0  0  0
  133.7618  138.4932  160.4150 C   0  0  0  0  0  0  0  0  0  0  0  0
  135.0507  138.6909  159.9232 C   0  0  0  0  0  0  0  0  0  0  0  0
  135.2346  139.3348  158.7165 C   0  0  0  0  0  0  0  0  0  0  0  0
  134.1433  139.7930  158.0006 C   0  0  0  0  0  0  0  0  0  0  0  0
  132.8620  139.6040  158.4865 C   0  0  0  0  0  0  0  0  0  0  0  0
  132.6659  138.9568  159.6895 C   0  0  0  0  0  0  0  0  0  0  0  0
  134.0100  135.6335  159.6433 H   0  0  0  0  0  0  0  0  0  0  0  0
  133.2092  134.2817  160.4798 H   0  0  0  0  0  0  0  0  0  0  0  0
  132.5291  134.9177  158.9629 H   0  0  0  0  0  0  0  0  0  0  0  0
  132.4019  133.8798  162.6332 H   0  0  0  0  0  0  0  0  0  0  0  0
  131.5519  134.4906  164.0730 H   0  0  0  0  0  0  0  0  0  0  0  0
  126.8985  136.3243  163.7048 H   0  0  0  0  0  0  0  0  0  0  0  0
  129.2669  132.8081  160.8132 H   0  0  0  0  0  0  0  0  0  0  0  0
  127.9734  132.8479  159.5890 H   0  0  0  0  0  0  0  0  0  0  0  0
  130.9775  132.9277  159.0458 H   0  0  0  0  0  0  0  0  0  0  0  0
  129.8888  131.5530  158.7386 H   0  0  0  0  0  0  0  0  0  0  0  0
  130.2995  132.8452  156.6612 H   0  0  0  0  0  0  0  0  0  0  0  0
  128.5892  132.9388  157.1446 H   0  0  0  0  0  0  0  0  0  0  0  0
  127.7195  134.8900  158.1274 H   0  0  0  0  0  0  0  0  0  0  0  0
  128.7545  136.3099  158.4084 H   0  0  0  0  0  0  0  0  0  0  0  0
  133.0307  135.9920  165.0708 H   0  0  0  0  0  0  0  0  0  0  0  0
  134.3505  138.0656  164.9835 H   0  0  0  0  0  0  0  0  0  0  0  0
  134.6932  139.2248  162.8427 H   0  0  0  0  0  0  0  0  0  0  0  0
  135.9037  138.3376  160.4836 H   0  0  0  0  0  0  0  0  0  0  0  0
  136.2328  139.4850  158.3324 H   0  0  0  0  0  0  0  0  0  0  0  0
  134.2922  140.2996  157.0584 H   0  0  0  0  0  0  0  0  0  0  0  0
  132.0135  139.9640  157.9235 H   0  0  0  0  0  0  0  0  0  0  0  0
  131.6651  138.8096  160.0678 H   0  0  0  0  0  0  0  0  0  0  0  0
  1  2  1  0
  1 34  1  0
  1 35  1  0
  1 36  1  0
  2  3  1  0
  3 27  2  0
  3  4  1  0
  4  5  1  0
  4 24  2  0
  5  6  1  0
  5 37  1  0
  5 38  1  0
  6  7  1  0
  7  8  2  0
  7  9  1  0
  9 14  1  0
  9 10  2  0
 10 11  1  0
 10 39  1  0
 11 12  1  0
 11 13  1  0
 13 14  2  0
 14 15  1  0
 15 16  1  1
 15 23  1  0
 15 17  1  0
 17 18  1  0
 17 40  1  0
 17 41  1  0
 18 19  1  0
 18 42  1  0
 18 43  1  0
 19 20  1  0
 19 44  1  0
 19 45  1  0
 20 21  1  0
 20 22  1  0
 20 23  1  0
 23 46  1  0
 23 47  1  0
 24 25  1  0
 24 48  1  0
 25 26  2  0
 25 49  1  0
 26 27  1  0
 26 50  1  0
 27 28  1  0
 28 33  1  0
 28 29  2  0
 29 30  1  0
 29 51  1  0
 30 31  2  0
 30 52  1  0
 31 32  1  0
 31 53  1  0
 32 33  2  0
 32 54  1  0
 33 55  1  0
M  CHG  1  20   1
M  END
>  <DOCK_score>  (1) 
-41.238617

>  <SMILES>  (1) 
COc1c(COC(=O)c2c[nH]nc2[C@H]2CCC[NH2+]C2)cccc1-c1ccccc1

$$$$
