Cc1cccc(N2CC[NH+](C(c3ccccc3)c3ccccc3)CC2)c1C[C@H](C)C1CCC1
     RDKit          3D

 72 76  0  0  1  0  0  0  0  0999 V2000
  135.9637  141.0538  162.8948 C   0  0  0  0  0  0  0  0  0  0  0  0
  135.3424  140.4545  161.6595 C   0  0  0  0  0  0  0  0  0  0  0  0
  135.6681  140.9529  160.4112 C   0  0  0  0  0  0  0  0  0  0  0  0
  135.1004  140.4058  159.2753 C   0  0  0  0  0  0  0  0  0  0  0  0
  134.2099  139.3556  159.3837 C   0  0  0  0  0  0  0  0  0  0  0  0
  133.8763  138.8564  160.6361 C   0  0  0  0  0  0  0  0  0  0  0  0
  132.9720  137.7980  160.7496 N   0  0  0  0  0  0  0  0  0  0  0  0
  133.5016  136.5825  160.1155 C   0  0  0  0  0  0  0  0  0  0  0  0
  132.5098  135.4340  160.3134 C   0  0  0  0  0  0  0  0  0  0  0  0
  131.2172  135.7948  159.7166 N   0  0  0  0  0  0  0  0  0  0  0  0
  131.3412  135.9792  158.7322 H   0  0  0  0  0  0  0  0  0  0  0  0
  130.2708  134.6848  159.8907 C   0  0  0  0  0  0  0  0  0  0  0  0
  128.9445  135.0547  159.2785 C   0  0  0  0  0  0  0  0  0  0  0  0
  127.7742  134.5316  159.7962 C   0  0  0  0  0  0  0  0  0  0  0  0
  126.5573  134.8747  159.2376 C   0  0  0  0  0  0  0  0  0  0  0  0
  126.5107  135.7329  158.1555 C   0  0  0  0  0  0  0  0  0  0  0  0
  127.6816  136.2519  157.6338 C   0  0  0  0  0  0  0  0  0  0  0  0
  128.8982  135.9128  158.1957 C   0  0  0  0  0  0  0  0  0  0  0  0
  130.8112  133.4527  159.2120 C   0  0  0  0  0  0  0  0  0  0  0  0
  130.4992  133.1990  157.8894 C   0  0  0  0  0  0  0  0  0  0  0  0
  130.9989  132.0712  157.2654 C   0  0  0  0  0  0  0  0  0  0  0  0
  131.8020  131.1916  157.9671 C   0  0  0  0  0  0  0  0  0  0  0  0
  132.1096  131.4426  159.2912 C   0  0  0  0  0  0  0  0  0  0  0  0
  131.6143  132.5731  159.9137 C   0  0  0  0  0  0  0  0  0  0  0  0
  130.6894  136.9960  160.3767 C   0  0  0  0  0  0  0  0  0  0  0  0
  131.6660  138.1575  160.1794 C   0  0  0  0  0  0  0  0  0  0  0  0
  134.4485  139.4086  161.7753 C   0  0  0  0  0  0  0  0  0  0  0  0
  134.0935  138.8668  163.1360 C   0  0  0  0  0  0  0  0  0  0  0  0
  135.3579  138.3495  163.8250 C   0  0  2  0  0  0  0  0  0  0  0  0
  136.1854  139.0300  163.6240 H   0  0  0  0  0  0  0  0  0  0  0  0
  135.6992  136.9586  163.2870 C   0  0  0  0  0  0  0  0  0  0  0  0
  135.1195  138.2683  165.3342 C   0  0  0  0  0  0  0  0  0  0  0  0
  133.7004  137.8101  165.7098 C   0  0  0  0  0  0  0  0  0  0  0  0
  133.7442  138.8585  166.8340 C   0  0  0  0  0  0  0  0  0  0  0  0
  134.7677  139.6208  165.9759 C   0  0  0  0  0  0  0  0  0  0  0  0
  136.9350  140.5926  163.0735 H   0  0  0  0  0  0  0  0  0  0  0  0
  136.0916  142.1270  162.7529 H   0  0  0  0  0  0  0  0  0  0  0  0
  135.3137  140.8757  163.7513 H   0  0  0  0  0  0  0  0  0  0  0  0
  136.3677  141.7710  160.3234 H   0  0  0  0  0  0  0  0  0  0  0  0
  135.3569  140.7974  158.3020 H   0  0  0  0  0  0  0  0  0  0  0  0
  133.7702  138.9257  158.4958 H   0  0  0  0  0  0  0  0  0  0  0  0
  133.6437  136.7606  159.0496 H   0  0  0  0  0  0  0  0  0  0  0  0
  134.4565  136.3209  160.5713 H   0  0  0  0  0  0  0  0  0  0  0  0
  132.3784  135.2470  161.3792 H   0  0  0  0  0  0  0  0  0  0  0  0
  132.8942  134.5349  159.8315 H   0  0  0  0  0  0  0  0  0  0  0  0
  130.1370  134.4849  160.9538 H   0  0  0  0  0  0  0  0  0  0  0  0
  127.8106  133.8576  160.6393 H   0  0  0  0  0  0  0  0  0  0  0  0
  125.6427  134.4688  159.6443 H   0  0  0  0  0  0  0  0  0  0  0  0
  125.5606  135.9975  157.7156 H   0  0  0  0  0  0  0  0  0  0  0  0
  127.6454  136.9221  156.7877 H   0  0  0  0  0  0  0  0  0  0  0  0
  129.8127  136.3181  157.7885 H   0  0  0  0  0  0  0  0  0  0  0  0
  129.8681  133.8840  157.3426 H   0  0  0  0  0  0  0  0  0  0  0  0
  130.7581  131.8750  156.2311 H   0  0  0  0  0  0  0  0  0  0  0  0
  132.1886  130.3082  157.4809 H   0  0  0  0  0  0  0  0  0  0  0  0
  132.7368  130.7552  159.8394 H   0  0  0  0  0  0  0  0  0  0  0  0
  131.8544  132.7690  160.9482 H   0  0  0  0  0  0  0  0  0  0  0  0
  130.5672  136.8012  161.4422 H   0  0  0  0  0  0  0  0  0  0  0  0
  129.7240  137.2552  159.9418 H   0  0  0  0  0  0  0  0  0  0  0  0
  131.2818  139.0452  160.6818 H   0  0  0  0  0  0  0  0  0  0  0  0
  131.7778  138.3617  159.1145 H   0  0  0  0  0  0  0  0  0  0  0  0
  133.6499  139.6595  163.7384 H   0  0  0  0  0  0  0  0  0  0  0  0
  133.3794  138.0505  163.0270 H   0  0  0  0  0  0  0  0  0  0  0  0
  136.5549  136.5585  163.8309 H   0  0  0  0  0  0  0  0  0  0  0  0
  134.8430  136.2974  163.4198 H   0  0  0  0  0  0  0  0  0  0  0  0
  135.9431  137.0288  162.2270 H   0  0  0  0  0  0  0  0  0  0  0  0
  135.9075  137.7279  165.8587 H   0  0  0  0  0  0  0  0  0  0  0  0
  132.9554  138.0229  164.9430 H   0  0  0  0  0  0  0  0  0  0  0  0
  133.6548  136.7830  166.0721 H   0  0  0  0  0  0  0  0  0  0  0  0
  134.1553  138.4789  167.7694 H   0  0  0  0  0  0  0  0  0  0  0  0
  132.8045  139.3934  166.9708 H   0  0  0  0  0  0  0  0  0  0  0  0
  135.5837  140.0556  166.5530 H   0  0  0  0  0  0  0  0  0  0  0  0
  134.3145  140.3288  165.2820 H   0  0  0  0  0  0  0  0  0  0  0  0
  1  2  1  0
  1 36  1  0
  1 37  1  0
  1 38  1  0
  2 27  2  0
  2  3  1  0
  3  4  2  0
  3 39  1  0
  4  5  1  0
  4 40  1  0
  5  6  2  0
  5 41  1  0
  6  7  1  0
  6 27  1  0
  7 26  1  0
  7  8  1  0
  8  9  1  0
  8 42  1  0
  8 43  1  0
  9 10  1  0
  9 44  1  0
  9 45  1  0
 10 11  1  0
 10 12  1  0
 10 25  1  0
 12 13  1  0
 12 19  1  0
 12 46  1  0
 13 18  1  0
 13 14  2  0
 14 15  1  0
 14 47  1  0
 15 16  2  0
 15 48  1  0
 16 17  1  0
 16 49  1  0
 17 18  2  0
 17 50  1  0
 18 51  1  0
 19 24  1  0
 19 20  2  0
 20 21  1  0
 20 52  1  0
 21 22  2  0
 21 53  1  0
 22 23  1  0
 22 54  1  0
 23 24  2  0
 23 55  1  0
 24 56  1  0
 25 26  1  0
 25 57  1  0
 25 58  1  0
 26 59  1  0
 26 60  1  0
 27 28  1  0
 28 29  1  0
 28 61  1  0
 28 62  1  0
 29 30  1  1
 29 31  1  0
 29 32  1  0
 31 63  1  0
 31 64  1  0
 31 65  1  0
 32 35  1  0
 32 33  1  0
 32 66  1  0
 33 34  1  0
 33 67  1  0
 33 68  1  0
 34 35  1  0
 34 69  1  0
 34 70  1  0
 35 71  1  0
 35 72  1  0
M  CHG  1  10   1
M  END
>  <DOCK_score>  (1) 
-57.378529

>  <SMILES>  (1) 
Cc1cccc(N2CC[NH+](C(c3ccccc3)c3ccccc3)CC2)c1C[C@H](C)C1CCC1

$$$$
