Nc1ccc(Nc2[nH]cc(-c3ccccc3)[nH+]2)c(SC2CCCCC2)c1
     RDKit          3D

 51 54  0  0  1  0  0  0  0  0999 V2000
  126.2000  136.2918  162.6864 N   0  0  0  0  0  0  0  0  0  0  0  0
  127.1333  135.9799  161.6915 C   0  0  0  0  0  0  0  0  0  0  0  0
  126.8200  136.1918  160.3551 C   0  0  0  0  0  0  0  0  0  0  0  0
  127.7417  135.8902  159.3700 C   0  0  0  0  0  0  0  0  0  0  0  0
  128.9778  135.3643  159.7127 C   0  0  0  0  0  0  0  0  0  0  0  0
  129.9107  135.0535  158.7115 N   0  0  0  0  0  0  0  0  0  0  0  0
  129.9203  133.7916  158.1419 C   0  0  0  0  0  0  0  0  0  0  0  0
  129.5456  132.6387  158.7617 N   0  0  0  0  0  0  0  0  0  0  0  0
  129.2269  132.5543  159.6740 H   0  0  0  0  0  0  0  0  0  0  0  0
  129.7021  131.6176  157.8568 C   0  0  0  0  0  0  0  0  0  0  0  0
  130.1675  132.1745  156.7111 C   0  0  0  0  0  0  0  0  0  0  0  0
  130.4849  131.4515  155.4553 C   0  0  0  0  0  0  0  0  0  0  0  0
  129.8119  131.7682  154.2766 C   0  0  0  0  0  0  0  0  0  0  0  0
  130.1155  131.0963  153.1100 C   0  0  0  0  0  0  0  0  0  0  0  0
  131.0775  130.1022  153.1117 C   0  0  0  0  0  0  0  0  0  0  0  0
  131.7444  129.7798  154.2797 C   0  0  0  0  0  0  0  0  0  0  0  0
  131.4532  130.4490  155.4510 C   0  0  0  0  0  0  0  0  0  0  0  0
  130.2863  133.5103  156.9149 N   0  0  0  0  0  0  0  0  0  0  0  0
  130.5947  134.1542  156.2583 H   0  0  0  0  0  0  0  0  0  0  0  0
  129.2937  135.1449  161.0538 C   0  0  0  0  0  0  0  0  0  0  0  0
  130.8642  134.4771  161.4928 S   0  0  0  0  0  0  0  0  0  0  0  0
  131.8915  135.9569  161.7056 C   0  0  0  0  0  0  0  0  0  0  0  0
  132.3452  136.4641  160.3354 C   0  0  0  0  0  0  0  0  0  0  0  0
  133.2118  137.7122  160.5149 C   0  0  0  0  0  0  0  0  0  0  0  0
  134.4379  137.3644  161.3614 C   0  0  0  0  0  0  0  0  0  0  0  0
  133.9842  136.8570  162.7317 C   0  0  0  0  0  0  0  0  0  0  0  0
  133.1175  135.6090  162.5522 C   0  0  0  0  0  0  0  0  0  0  0  0
  128.3694  135.4537  162.0408 C   0  0  0  0  0  0  0  0  0  0  0  0
  126.4169  136.1404  163.6196 H   0  0  0  0  0  0  0  0  0  0  0  0
  125.3360  136.6597  162.4427 H   0  0  0  0  0  0  0  0  0  0  0  0
  125.8560  136.5972  160.0852 H   0  0  0  0  0  0  0  0  0  0  0  0
  127.4968  136.0602  158.3319 H   0  0  0  0  0  0  0  0  0  0  0  0
  130.5488  135.7227  158.4186 H   0  0  0  0  0  0  0  0  0  0  0  0
  129.4942  130.5712  158.0253 H   0  0  0  0  0  0  0  0  0  0  0  0
  129.0575  132.5411  154.2753 H   0  0  0  0  0  0  0  0  0  0  0  0
  129.5977  131.3440  152.1950 H   0  0  0  0  0  0  0  0  0  0  0  0
  131.3090  129.5760  152.1974 H   0  0  0  0  0  0  0  0  0  0  0  0
  132.4948  129.0031  154.2751 H   0  0  0  0  0  0  0  0  0  0  0  0
  131.9748  130.1967  156.3624 H   0  0  0  0  0  0  0  0  0  0  0  0
  131.3123  136.7324  162.2066 H   0  0  0  0  0  0  0  0  0  0  0  0
  132.9245  135.6886  159.8343 H   0  0  0  0  0  0  0  0  0  0  0  0
  131.4717  136.7121  159.7323 H   0  0  0  0  0  0  0  0  0  0  0  0
  132.6325  138.4879  161.0159 H   0  0  0  0  0  0  0  0  0  0  0  0
  133.5350  138.0737  159.5386 H   0  0  0  0  0  0  0  0  0  0  0  0
  135.0553  138.2535  161.4893 H   0  0  0  0  0  0  0  0  0  0  0  0
  135.0171  136.5888  160.8603 H   0  0  0  0  0  0  0  0  0  0  0  0
  133.4049  137.6326  163.2328 H   0  0  0  0  0  0  0  0  0  0  0  0
  134.8578  136.6093  163.3348 H   0  0  0  0  0  0  0  0  0  0  0  0
  132.7945  135.2475  163.5284 H   0  0  0  0  0  0  0  0  0  0  0  0
  133.6969  134.8335  162.0511 H   0  0  0  0  0  0  0  0  0  0  0  0
  128.6109  135.2846  163.0797 H   0  0  0  0  0  0  0  0  0  0  0  0
  1  2  1  0
  1 29  1  0
  1 30  1  0
  2 28  2  0
  2  3  1  0
  3  4  2  0
  3 31  1  0
  4  5  1  0
  4 32  1  0
  5  6  1  0
  5 20  2  0
  6 33  1  0
  7  6  1  0
  7 18  2  0
  7  8  1  0
  8  9  1  0
  8 10  1  0
 10 11  2  0
 10 34  1  0
 11 12  1  0
 11 18  1  0
 12 17  1  0
 12 13  2  0
 13 14  1  0
 13 35  1  0
 14 15  2  0
 14 36  1  0
 15 16  1  0
 15 37  1  0
 16 17  2  0
 16 38  1  0
 17 39  1  0
 18 19  1  0
 20 21  1  0
 20 28  1  0
 21 22  1  0
 22 27  1  0
 22 23  1  0
 22 40  1  0
 23 24  1  0
 23 41  1  0
 23 42  1  0
 24 25  1  0
 24 43  1  0
 24 44  1  0
 25 26  1  0
 25 45  1  0
 25 46  1  0
 26 27  1  0
 26 47  1  0
 26 48  1  0
 27 49  1  0
 27 50  1  0
 28 51  1  0
M  CHG  1  18   1
M  END
>  <DOCK_score>  (1) 
-53.558784

>  <SMILES>  (1) 
Nc1ccc(Nc2[nH]cc(-c3ccccc3)[nH+]2)c(SC2CCCCC2)c1

$$$$
