[NH3+][C@@H](C(=O)Nc1cc(O)cc(O)c1)c1cc(O)cc(OC2CCC=CC(=O)C2)c1
     RDKit          3D

 52 54  0  0  1  0  0  0  0  0999 V2000
  131.0463  133.5660  158.0319 N   0  0  0  0  0  0  0  0  0  0  0  0
  131.1594  132.7705  158.6420 H   0  0  0  0  0  0  0  0  0  0  0  0
  130.6170  133.2695  157.1682 H   0  0  0  0  0  0  0  0  0  0  0  0
  131.9497  133.9711  157.8366 H   0  0  0  0  0  0  0  0  0  0  0  0
  130.1920  134.5668  158.6850 C   0  0  1  0  0  0  0  0  0  0  0  0
  130.0699  135.4263  158.0257 H   0  0  0  0  0  0  0  0  0  0  0  0
  128.8429  133.9618  158.9766 C   0  0  0  0  0  0  0  0  0  0  0  0
  128.4003  133.0911  158.2575 O   0  0  0  0  0  0  0  0  0  0  0  0
  128.1280  134.3884  160.0366 N   0  0  0  0  0  0  0  0  0  0  0  0
  126.8754  133.8269  160.3073 C   0  0  0  0  0  0  0  0  0  0  0  0
  126.6126  132.5110  159.9516 C   0  0  0  0  0  0  0  0  0  0  0  0
  125.3733  131.9534  160.2257 C   0  0  0  0  0  0  0  0  0  0  0  0
  125.1179  130.6634  159.8830 O   0  0  0  0  0  0  0  0  0  0  0  0
  124.3918  132.7137  160.8439 C   0  0  0  0  0  0  0  0  0  0  0  0
  124.6517  134.0302  161.1943 C   0  0  0  0  0  0  0  0  0  0  0  0
  123.6894  134.7745  161.8000 O   0  0  0  0  0  0  0  0  0  0  0  0
  125.8927  134.5872  160.9264 C   0  0  0  0  0  0  0  0  0  0  0  0
  130.8331  135.0099  159.9747 C   0  0  0  0  0  0  0  0  0  0  0  0
  131.0886  134.0867  160.9709 C   0  0  0  0  0  0  0  0  0  0  0  0
  131.6786  134.4924  162.1594 C   0  0  0  0  0  0  0  0  0  0  0  0
  131.9286  133.5842  163.1391 O   0  0  0  0  0  0  0  0  0  0  0  0
  132.0121  135.8250  162.3471 C   0  0  0  0  0  0  0  0  0  0  0  0
  131.7554  136.7489  161.3463 C   0  0  0  0  0  0  0  0  0  0  0  0
  132.0808  138.0559  161.5274 O   0  0  0  0  0  0  0  0  0  0  0  0
  133.3881  138.4617  161.1170 C   0  0  1  0  0  0  0  0  0  0  0  0
  133.2529  139.4715  159.9837 C   0  0  0  0  0  0  0  0  0  0  0  0
  134.5960  139.7389  159.3181 C   0  0  0  0  0  0  0  0  0  0  0  0
  135.3186  140.8561  160.0541 C   0  0  0  0  0  0  0  0  0  0  0  0
  135.7833  140.6355  161.2791 C   0  0  0  0  0  0  0  0  0  0  0  0
  135.5491  139.3490  161.9337 C   0  0  0  0  0  0  0  0  0  0  0  0
  136.4641  138.5854  162.1612 O   0  0  0  0  0  0  0  0  0  0  0  0
  134.1244  139.0019  162.3187 C   0  0  0  0  0  0  0  0  0  0  0  0
  131.1603  136.3391  160.1612 C   0  0  0  0  0  0  0  0  0  0  0  0
  128.4819  135.0847  160.6117 H   0  0  0  0  0  0  0  0  0  0  0  0
  127.3752  131.9204  159.4656 H   0  0  0  0  0  0  0  0  0  0  0  0
  124.2281  130.3638  160.1140 H   0  0  0  0  0  0  0  0  0  0  0  0
  123.4249  132.2803  161.0527 H   0  0  0  0  0  0  0  0  0  0  0  0
  123.9629  135.6789  162.0058 H   0  0  0  0  0  0  0  0  0  0  0  0
  126.0950  135.6124  161.1996 H   0  0  0  0  0  0  0  0  0  0  0  0
  130.8286  133.0487  160.8243 H   0  0  0  0  0  0  0  0  0  0  0  0
  132.3409  133.9607  163.9286 H   0  0  0  0  0  0  0  0  0  0  0  0
  132.4718  136.1425  163.2714 H   0  0  0  0  0  0  0  0  0  0  0  0
  133.9216  137.5874  160.7442 H   0  0  0  0  0  0  0  0  0  0  0  0
  132.8607  140.4064  160.3839 H   0  0  0  0  0  0  0  0  0  0  0  0
  132.5574  139.0823  159.2402 H   0  0  0  0  0  0  0  0  0  0  0  0
  135.2022  138.8336  159.3478 H   0  0  0  0  0  0  0  0  0  0  0  0
  134.4346  140.0334  158.2811 H   0  0  0  0  0  0  0  0  0  0  0  0
  135.4530  141.8199  159.5854 H   0  0  0  0  0  0  0  0  0  0  0  0
  136.3360  141.4083  161.7927 H   0  0  0  0  0  0  0  0  0  0  0  0
  134.1353  138.2488  163.1066 H   0  0  0  0  0  0  0  0  0  0  0  0
  133.6185  139.8972  162.6803 H   0  0  0  0  0  0  0  0  0  0  0  0
  130.9560  137.0594  159.3828 H   0  0  0  0  0  0  0  0  0  0  0  0
  1  2  1  0
  1  3  1  0
  1  4  1  0
  1  5  1  0
  5  6  1  6
  5  7  1  0
  5 18  1  0
  7  8  2  0
  7  9  1  0
  9 10  1  0
  9 34  1  0
 10 17  1  0
 10 11  2  0
 11 12  1  0
 11 35  1  0
 12 13  1  0
 12 14  2  0
 13 36  1  0
 14 15  1  0
 14 37  1  0
 15 16  1  0
 15 17  2  0
 16 38  1  0
 17 39  1  0
 18 33  1  0
 18 19  2  0
 19 20  1  0
 19 40  1  0
 20 21  1  0
 20 22  2  0
 21 41  1  0
 22 23  1  0
 22 42  1  0
 23 24  1  0
 23 33  2  0
 24 25  1  0
 25 32  1  0
 25 26  1  0
 25 43  1  6
 26 27  1  0
 26 44  1  0
 26 45  1  0
 27 28  1  0
 27 46  1  0
 27 47  1  0
 28 29  2  0
 28 48  1  0
 29 30  1  0
 29 49  1  0
 30 31  2  0
 30 32  1  0
 32 50  1  0
 32 51  1  0
 33 52  1  0
M  CHG  1   1   1
M  END
>  <DOCK_score>  (1) 
-42.978893

>  <SMILES>  (1) 
[NH3+][C@@H](C(=O)Nc1cc(O)cc(O)c1)c1cc(O)cc(OC2CCC=CC(=O)C2)c1

$$$$
