C=C(c1cccc2ccccc12)[C@@H](Nc1[nH]cc(-c2ccc(CC)cc2)[nH+]1)C1=CCCC1
     RDKit          3D

 62 66  0  0  1  0  0  0  0  0999 V2000
  129.6096  138.1000  160.1288 C   0  0  0  0  0  0  0  0  0  0  0  0
  130.1689  137.1118  160.8172 C   0  0  0  0  0  0  0  0  0  0  0  0
  131.0318  137.4151  161.9743 C   0  0  0  0  0  0  0  0  0  0  0  0
  130.4876  137.5274  163.2441 C   0  0  0  0  0  0  0  0  0  0  0  0
  131.2957  137.8081  164.3391 C   0  0  0  0  0  0  0  0  0  0  0  0
  132.6384  137.9903  164.1964 C   0  0  0  0  0  0  0  0  0  0  0  0
  133.2324  137.8909  162.9264 C   0  0  0  0  0  0  0  0  0  0  0  0
  134.6152  138.0756  162.7534 C   0  0  0  0  0  0  0  0  0  0  0  0
  135.1579  137.9733  161.5094 C   0  0  0  0  0  0  0  0  0  0  0  0
  134.3625  137.6878  160.4018 C   0  0  0  0  0  0  0  0  0  0  0  0
  133.0192  137.5031  160.5332 C   0  0  0  0  0  0  0  0  0  0  0  0
  132.4256  137.6008  161.7993 C   0  0  0  0  0  0  0  0  0  0  0  0
  129.9220  135.6803  160.4161 C   0  0  1  0  0  0  0  0  0  0  0  0
  128.8545  135.4670  160.4694 H   0  0  0  0  0  0  0  0  0  0  0  0
  130.3944  135.4688  159.0456 N   0  0  0  0  0  0  0  0  0  0  0  0
  130.2726  134.2221  158.4561 C   0  0  0  0  0  0  0  0  0  0  0  0
  129.7395  133.1162  159.0434 N   0  0  0  0  0  0  0  0  0  0  0  0
  129.3794  133.0602  159.9424 H   0  0  0  0  0  0  0  0  0  0  0  0
  129.8049  132.0940  158.1281 C   0  0  0  0  0  0  0  0  0  0  0  0
  130.3756  132.6041  157.0087 C   0  0  0  0  0  0  0  0  0  0  0  0
  130.6502  131.8631  155.7535 C   0  0  0  0  0  0  0  0  0  0  0  0
  130.6380  132.5307  154.5300 C   0  0  0  0  0  0  0  0  0  0  0  0
  130.8946  131.8362  153.3653 C   0  0  0  0  0  0  0  0  0  0  0  0
  131.1636  130.4800  153.4107 C   0  0  0  0  0  0  0  0  0  0  0  0
  131.4430  129.7272  152.1354 C   0  0  0  0  0  0  0  0  0  0  0  0
  130.1296  129.1942  151.5593 C   0  0  0  0  0  0  0  0  0  0  0  0
  131.1715  129.8111  154.6214 C   0  0  0  0  0  0  0  0  0  0  0  0
  130.9218  130.4966  155.7929 C   0  0  0  0  0  0  0  0  0  0  0  0
  130.6562  133.9109  157.2420 N   0  0  0  0  0  0  0  0  0  0  0  0
  131.0723  134.5183  156.6106 H   0  0  0  0  0  0  0  0  0  0  0  0
  130.6652  134.7612  161.3512 C   0  0  0  0  0  0  0  0  0  0  0  0
  131.8875  134.3449  161.1602 C   0  0  0  0  0  0  0  0  0  0  0  0
  132.3355  133.4397  162.2842 C   0  0  0  0  0  0  0  0  0  0  0  0
  131.3188  133.6907  163.4219 C   0  0  0  0  0  0  0  0  0  0  0  0
  130.0910  134.1957  162.6292 C   0  0  0  0  0  0  0  0  0  0  0  0
  129.7184  139.1209  160.4645 H   0  0  0  0  0  0  0  0  0  0  0  0
  129.0460  137.8831  159.2336 H   0  0  0  0  0  0  0  0  0  0  0  0
  129.4253  137.3919  163.3843 H   0  0  0  0  0  0  0  0  0  0  0  0
  130.8509  137.8873  165.3201 H   0  0  0  0  0  0  0  0  0  0  0  0
  133.2473  138.2118  165.0605 H   0  0  0  0  0  0  0  0  0  0  0  0
  135.2437  138.2970  163.6033 H   0  0  0  0  0  0  0  0  0  0  0  0
  136.2205  138.1159  161.3789 H   0  0  0  0  0  0  0  0  0  0  0  0
  134.8173  137.6117  159.4252 H   0  0  0  0  0  0  0  0  0  0  0  0
  132.4145  137.2819  159.6661 H   0  0  0  0  0  0  0  0  0  0  0  0
  130.7927  136.2021  158.5512 H   0  0  0  0  0  0  0  0  0  0  0  0
  129.4664  131.0787  158.2722 H   0  0  0  0  0  0  0  0  0  0  0  0
  130.4277  133.5893  154.4935 H   0  0  0  0  0  0  0  0  0  0  0  0
  130.8850  132.3523  152.4168 H   0  0  0  0  0  0  0  0  0  0  0  0
  132.1126  128.8932  152.3453 H   0  0  0  0  0  0  0  0  0  0  0  0
  131.9113  130.3964  151.4137 H   0  0  0  0  0  0  0  0  0  0  0  0
  130.3318  128.6498  150.6370 H   0  0  0  0  0  0  0  0  0  0  0  0
  129.6613  128.5252  152.2812 H   0  0  0  0  0  0  0  0  0  0  0  0
  129.4600  130.0285  151.3495 H   0  0  0  0  0  0  0  0  0  0  0  0
  131.3775  128.7514  154.6504 H   0  0  0  0  0  0  0  0  0  0  0  0
  130.9330  129.9743  156.7382 H   0  0  0  0  0  0  0  0  0  0  0  0
  132.4990  134.6137  160.3118 H   0  0  0  0  0  0  0  0  0  0  0  0
  133.3419  133.7034  162.6092 H   0  0  0  0  0  0  0  0  0  0  0  0
  132.2992  132.3980  161.9656 H   0  0  0  0  0  0  0  0  0  0  0  0
  131.6818  134.4545  164.1096 H   0  0  0  0  0  0  0  0  0  0  0  0
  131.0890  132.7665  163.9522 H   0  0  0  0  0  0  0  0  0  0  0  0
  129.5714  134.9735  163.1888 H   0  0  0  0  0  0  0  0  0  0  0  0
  129.4136  133.3707  162.4087 H   0  0  0  0  0  0  0  0  0  0  0  0
  1  2  2  0
  1 36  1  0
  1 37  1  0
  2  3  1  0
  2 13  1  0
  3 12  1  0
  3  4  2  0
  4  5  1  0
  4 38  1  0
  5  6  2  0
  5 39  1  0
  6  7  1  0
  6 40  1  0
  7 12  2  0
  7  8  1  0
  8  9  2  0
  8 41  1  0
  9 10  1  0
  9 42  1  0
 10 11  2  0
 10 43  1  0
 11 12  1  0
 11 44  1  0
 13 14  1  6
 13 15  1  0
 13 31  1  0
 15 45  1  0
 16 15  1  0
 16 29  2  0
 16 17  1  0
 17 18  1  0
 17 19  1  0
 19 20  2  0
 19 46  1  0
 20 21  1  0
 20 29  1  0
 21 28  1  0
 21 22  2  0
 22 23  1  0
 22 47  1  0
 23 24  2  0
 23 48  1  0
 24 25  1  0
 24 27  1  0
 25 26  1  0
 25 49  1  0
 25 50  1  0
 26 51  1  0
 26 52  1  0
 26 53  1  0
 27 28  2  0
 27 54  1  0
 28 55  1  0
 29 30  1  0
 31 35  1  0
 31 32  2  0
 32 33  1  0
 32 56  1  0
 33 34  1  0
 33 57  1  0
 33 58  1  0
 34 35  1  0
 34 59  1  0
 34 60  1  0
 35 61  1  0
 35 62  1  0
M  CHG  1  29   1
M  END
>  <DOCK_score>  (1) 
-57.889061

>  <SMILES>  (1) 
C=C(c1cccc2ccccc12)[C@@H](Nc1[nH]cc(-c2ccc(CC)cc2)[nH+]1)C1=CCCC1

$$$$
