OC[C@H](Cc1c[nH]c2ccc(O)cc12)Nc1ccc(O)cc1C[NH2+]C=Cc1ccccc1
     RDKit          3D

 60 63  0  0  1  0  0  0  0  0999 V2000
  133.1056  136.9493  160.4108 O   0  0  0  0  0  0  0  0  0  0  0  0
  133.1407  137.8802  161.4943 C   0  0  0  0  0  0  0  0  0  0  0  0
  131.8704  137.7332  162.3344 C   0  0  2  0  0  0  0  0  0  0  0  0
  131.8972  138.4433  163.1608 H   0  0  0  0  0  0  0  0  0  0  0  0
  131.7871  136.3092  162.8879 C   0  0  0  0  0  0  0  0  0  0  0  0
  132.6791  136.1872  164.0964 C   0  0  0  0  0  0  0  0  0  0  0  0
  132.3325  136.4234  165.3716 C   0  0  0  0  0  0  0  0  0  0  0  0
  133.4037  136.2056  166.1941 N   0  0  0  0  0  0  0  0  0  0  0  0
  133.3961  136.3094  167.1585 H   0  0  0  0  0  0  0  0  0  0  0  0
  134.4977  135.8224  165.4469 C   0  0  0  0  0  0  0  0  0  0  0  0
  135.8084  135.4911  165.7734 C   0  0  0  0  0  0  0  0  0  0  0  0
  136.6969  135.1390  164.7822 C   0  0  0  0  0  0  0  0  0  0  0  0
  136.2966  135.1104  163.4485 C   0  0  0  0  0  0  0  0  0  0  0  0
  137.1868  134.7605  162.4818 O   0  0  0  0  0  0  0  0  0  0  0  0
  135.0003  135.4362  163.1039 C   0  0  0  0  0  0  0  0  0  0  0  0
  134.0905  135.7945  164.1013 C   0  0  0  0  0  0  0  0  0  0  0  0
  130.6980  138.0014  161.4979 N   0  0  0  0  0  0  0  0  0  0  0  0
  129.4138  137.9275  162.0490 C   0  0  0  0  0  0  0  0  0  0  0  0
  129.0634  138.7546  163.1081 C   0  0  0  0  0  0  0  0  0  0  0  0
  127.7959  138.6815  163.6509 C   0  0  0  0  0  0  0  0  0  0  0  0
  126.8741  137.7782  163.1421 C   0  0  0  0  0  0  0  0  0  0  0  0
  125.6277  137.7027  163.6811 O   0  0  0  0  0  0  0  0  0  0  0  0
  127.2214  136.9554  162.0810 C   0  0  0  0  0  0  0  0  0  0  0  0
  128.4888  137.0275  161.5369 C   0  0  0  0  0  0  0  0  0  0  0  0
  128.8680  136.1290  160.3878 C   0  0  0  0  0  0  0  0  0  0  0  0
  130.1971  135.5537  160.6341 N   0  0  0  0  0  0  0  0  0  0  0  0
  130.8748  136.2964  160.7180 H   0  0  0  0  0  0  0  0  0  0  0  0
  130.1784  135.0172  161.4884 H   0  0  0  0  0  0  0  0  0  0  0  0
  130.5488  134.7203  159.5682 C   0  0  0  0  0  0  0  0  0  0  0  0
  129.7956  133.6706  159.2709 C   0  0  0  0  0  0  0  0  0  0  0  0
  130.2291  132.7229  158.2228 C   0  0  0  0  0  0  0  0  0  0  0  0
  130.4463  131.3811  158.5378 C   0  0  0  0  0  0  0  0  0  0  0  0
  130.8464  130.5005  157.5538 C   0  0  0  0  0  0  0  0  0  0  0  0
  131.0419  130.9476  156.2592 C   0  0  0  0  0  0  0  0  0  0  0  0
  130.8335  132.2778  155.9415 C   0  0  0  0  0  0  0  0  0  0  0  0
  130.4286  133.1675  156.9153 C   0  0  0  0  0  0  0  0  0  0  0  0
  133.8815  136.9865  159.8349 H   0  0  0  0  0  0  0  0  0  0  0  0
  133.2000  138.8947  161.0998 H   0  0  0  0  0  0  0  0  0  0  0  0
  134.0130  137.6808  162.1166 H   0  0  0  0  0  0  0  0  0  0  0  0
  130.7580  136.0897  163.1723 H   0  0  0  0  0  0  0  0  0  0  0  0
  132.1116  135.6028  162.1239 H   0  0  0  0  0  0  0  0  0  0  0  0
  131.3522  136.7362  165.6998 H   0  0  0  0  0  0  0  0  0  0  0  0
  136.1296  135.5103  166.8044 H   0  0  0  0  0  0  0  0  0  0  0  0
  137.7136  134.8831  165.0412 H   0  0  0  0  0  0  0  0  0  0  0  0
  136.8196  134.7690  161.5874 H   0  0  0  0  0  0  0  0  0  0  0  0
  134.6913  135.4140  162.0693 H   0  0  0  0  0  0  0  0  0  0  0  0
  130.8119  138.2302  160.5622 H   0  0  0  0  0  0  0  0  0  0  0  0
  129.7821  139.4554  163.5069 H   0  0  0  0  0  0  0  0  0  0  0  0
  127.5235  139.3243  164.4749 H   0  0  0  0  0  0  0  0  0  0  0  0
  125.0568  137.0450  163.2609 H   0  0  0  0  0  0  0  0  0  0  0  0
  126.5018  136.2554  161.6828 H   0  0  0  0  0  0  0  0  0  0  0  0
  128.1359  135.3266  160.2971 H   0  0  0  0  0  0  0  0  0  0  0  0
  128.8883  136.7085  159.4649 H   0  0  0  0  0  0  0  0  0  0  0  0
  131.4342  134.9315  158.9869 H   0  0  0  0  0  0  0  0  0  0  0  0
  128.8653  133.5079  159.7947 H   0  0  0  0  0  0  0  0  0  0  0  0
  130.2983  131.0318  159.5490 H   0  0  0  0  0  0  0  0  0  0  0  0
  131.0112  129.4609  157.7955 H   0  0  0  0  0  0  0  0  0  0  0  0
  131.3591  130.2552  155.4934 H   0  0  0  0  0  0  0  0  0  0  0  0
  130.9883  132.6206  154.9291 H   0  0  0  0  0  0  0  0  0  0  0  0
  130.2669  134.2059  156.6661 H   0  0  0  0  0  0  0  0  0  0  0  0
  1  2  1  0
  1 37  1  0
  2  3  1  0
  2 38  1  0
  2 39  1  0
  3  4  1  1
  3  5  1  0
  3 17  1  0
  5  6  1  0
  5 40  1  0
  5 41  1  0
  6 16  1  0
  6  7  2  0
  7  8  1  0
  7 42  1  0
  8  9  1  0
  8 10  1  0
 10 16  2  0
 10 11  1  0
 11 12  2  0
 11 43  1  0
 12 13  1  0
 12 44  1  0
 13 14  1  0
 13 15  2  0
 14 45  1  0
 15 16  1  0
 15 46  1  0
 17 18  1  0
 17 47  1  0
 18 24  1  0
 18 19  2  0
 19 20  1  0
 19 48  1  0
 20 21  2  0
 20 49  1  0
 21 22  1  0
 21 23  1  0
 22 50  1  0
 23 24  2  0
 23 51  1  0
 24 25  1  0
 25 26  1  0
 25 52  1  0
 25 53  1  0
 26 27  1  0
 26 28  1  0
 26 29  1  0
 29 30  2  0
 29 54  1  0
 30 31  1  0
 30 55  1  0
 31 36  1  0
 31 32  2  0
 32 33  1  0
 32 56  1  0
 33 34  2  0
 33 57  1  0
 34 35  1  0
 34 58  1  0
 35 36  2  0
 35 59  1  0
 36 60  1  0
M  CHG  1  26   1
M  END
>  <DOCK_score>  (1) 
-43.593716

>  <SMILES>  (1) 
OC[C@H](Cc1c[nH]c2ccc(O)cc12)Nc1ccc(O)cc1C[NH2+]C=Cc1ccccc1

$$$$
