c1ccc2c(Nc3ccc(-c4n[nH]cc4C[NH2+]C[C@@H]4C[C@H]5CC[C@H]5C4)o3)c[nH]c2c1
     RDKit          3D

 58 63  0  0  1  0  0  0  0  0999 V2000
  130.3303  135.6221  165.6693 C   0  0  0  0  0  0  0  0  0  0  0  0
  129.9394  134.6601  164.7475 C   0  0  0  0  0  0  0  0  0  0  0  0
  128.9200  134.9108  163.8732 C   0  0  0  0  0  0  0  0  0  0  0  0
  128.2653  136.1431  163.9062 C   0  0  0  0  0  0  0  0  0  0  0  0
  127.1631  136.7314  163.1359 C   0  0  0  0  0  0  0  0  0  0  0  0
  126.4526  136.1178  162.0893 N   0  0  0  0  0  0  0  0  0  0  0  0
  127.0799  135.1780  161.2812 C   0  0  0  0  0  0  0  0  0  0  0  0
  126.4750  134.1295  160.6680 C   0  0  0  0  0  0  0  0  0  0  0  0
  127.4731  133.4405  159.9520 C   0  0  0  0  0  0  0  0  0  0  0  0
  128.6416  134.0991  160.1721 C   0  0  0  0  0  0  0  0  0  0  0  0
  129.9613  133.7278  159.6213 C   0  0  0  0  0  0  0  0  0  0  0  0
  130.2115  132.7052  158.8274 N   0  0  0  0  0  0  0  0  0  0  0  0
  131.5815  132.7063  158.5357 N   0  0  0  0  0  0  0  0  0  0  0  0
  132.0437  132.0658  157.9728 H   0  0  0  0  0  0  0  0  0  0  0  0
  132.1475  133.7539  159.1735 C   0  0  0  0  0  0  0  0  0  0  0  0
  131.1768  134.4078  159.8467 C   0  0  0  0  0  0  0  0  0  0  0  0
  131.3597  135.6425  160.6911 C   0  0  0  0  0  0  0  0  0  0  0  0
  132.2077  136.6046  159.9747 N   0  0  0  0  0  0  0  0  0  0  0  0
  133.1075  136.1872  159.7898 H   0  0  0  0  0  0  0  0  0  0  0  0
  131.7679  136.8560  159.1022 H   0  0  0  0  0  0  0  0  0  0  0  0
  132.3860  137.8081  160.7980 C   0  0  0  0  0  0  0  0  0  0  0  0
  133.2692  138.8101  160.0518 C   0  0  2  0  0  0  0  0  0  0  0  0
  132.8001  139.0865  159.1076 H   0  0  0  0  0  0  0  0  0  0  0  0
  134.6499  138.1940  159.7881 C   0  0  0  0  0  0  0  0  0  0  0  0
  135.6913  139.0870  160.4820 C   0  0  1  0  0  0  0  0  0  0  0  0
  136.2113  138.6199  161.3184 H   0  0  0  0  0  0  0  0  0  0  0  0
  136.5770  139.8571  159.4858 C   0  0  0  0  0  0  0  0  0  0  0  0
  135.3852  140.8659  159.3684 C   0  0  0  0  0  0  0  0  0  0  0  0
  134.9740  140.4234  160.7794 C   0  0  1  0  0  0  0  0  0  0  0  0
  135.3840  141.0164  161.5970 H   0  0  0  0  0  0  0  0  0  0  0  0
  133.4871  140.0603  160.9168 C   0  0  0  0  0  0  0  0  0  0  0  0
  128.3896  135.1508  160.9796 O   0  0  0  0  0  0  0  0  0  0  0  0
  126.9617  137.9708  163.6228 C   0  0  0  0  0  0  0  0  0  0  0  0
  127.8494  138.2189  164.6435 N   0  0  0  0  0  0  0  0  0  0  0  0
  127.8990  139.0443  165.1507 H   0  0  0  0  0  0  0  0  0  0  0  0
  128.6608  137.1234  164.8342 C   0  0  0  0  0  0  0  0  0  0  0  0
  129.6982  136.8448  165.7192 C   0  0  0  0  0  0  0  0  0  0  0  0
  131.1378  135.4094  166.3542 H   0  0  0  0  0  0  0  0  0  0  0  0
  130.4454  133.7063  164.7215 H   0  0  0  0  0  0  0  0  0  0  0  0
  128.6219  134.1578  163.1585 H   0  0  0  0  0  0  0  0  0  0  0  0
  125.5242  136.3505  161.9315 H   0  0  0  0  0  0  0  0  0  0  0  0
  125.4269  133.8733  160.7177 H   0  0  0  0  0  0  0  0  0  0  0  0
  127.3370  132.5557  159.3478 H   0  0  0  0  0  0  0  0  0  0  0  0
  133.1927  134.0241  159.1456 H   0  0  0  0  0  0  0  0  0  0  0  0
  130.3877  136.0933  160.8910 H   0  0  0  0  0  0  0  0  0  0  0  0
  131.8349  135.3707  161.6338 H   0  0  0  0  0  0  0  0  0  0  0  0
  131.4140  138.2589  160.9977 H   0  0  0  0  0  0  0  0  0  0  0  0
  132.8611  137.5364  161.7406 H   0  0  0  0  0  0  0  0  0  0  0  0
  134.6912  137.1866  160.2021 H   0  0  0  0  0  0  0  0  0  0  0  0
  134.8425  138.1617  158.7157 H   0  0  0  0  0  0  0  0  0  0  0  0
  137.4688  140.2902  159.9389 H   0  0  0  0  0  0  0  0  0  0  0  0
  136.7921  139.3017  158.5731 H   0  0  0  0  0  0  0  0  0  0  0  0
  134.6628  140.5958  158.5981 H   0  0  0  0  0  0  0  0  0  0  0  0
  135.6950  141.9094  159.3110 H   0  0  0  0  0  0  0  0  0  0  0  0
  132.8663  140.8796  160.5544 H   0  0  0  0  0  0  0  0  0  0  0  0
  133.2495  139.8416  161.9579 H   0  0  0  0  0  0  0  0  0  0  0  0
  126.2152  138.6649  163.2660 H   0  0  0  0  0  0  0  0  0  0  0  0
  130.0093  137.5865  166.4401 H   0  0  0  0  0  0  0  0  0  0  0  0
  1 37  2  0
  1  2  1  0
  1 38  1  0
  2  3  2  0
  2 39  1  0
  3  4  1  0
  3 40  1  0
  4 36  2  0
  4  5  1  0
  5  6  1  0
  5 33  2  0
  6  7  1  0
  6 41  1  0
  7 32  1  0
  7  8  2  0
  8  9  1  0
  8 42  1  0
  9 10  2  0
  9 43  1  0
 10 11  1  0
 10 32  1  0
 11 16  1  0
 11 12  2  0
 12 13  1  0
 13 14  1  0
 13 15  1  0
 15 16  2  0
 15 44  1  0
 16 17  1  0
 17 18  1  0
 17 45  1  0
 17 46  1  0
 18 19  1  0
 18 20  1  0
 18 21  1  0
 21 22  1  0
 21 47  1  0
 21 48  1  0
 22 23  1  6
 22 31  1  0
 22 24  1  0
 24 25  1  0
 24 49  1  0
 24 50  1  0
 25 26  1  1
 25 29  1  0
 25 27  1  0
 27 28  1  0
 27 51  1  0
 27 52  1  0
 28 29  1  0
 28 53  1  0
 28 54  1  0
 29 30  1  1
 29 31  1  0
 31 55  1  0
 31 56  1  0
 33 34  1  0
 33 57  1  0
 34 35  1  0
 34 36  1  0
 36 37  1  0
 37 58  1  0
M  CHG  1  18   1
M  END
>  <DOCK_score>  (1) 
-50.069851

>  <SMILES>  (1) 
c1ccc2c(Nc3ccc(-c4n[nH]cc4C[NH2+]C[C@@H]4C[C@H]5CC[C@H]5C4)o3)c[nH]c2c1

$$$$
