CC(C)[C@@H](CSc1ccccc1)Nc1[nH]cc(-c2ccc(N)cc2)[nH+]1
     RDKit          3D

 50 52  0  0  1  0  0  0  0  0999 V2000
  132.4880  134.2025  161.6846 C   0  0  0  0  0  0  0  0  0  0  0  0
  131.7934  135.5328  161.3858 C   0  0  0  0  0  0  0  0  0  0  0  0
  132.7420  136.4373  160.5965 C   0  0  0  0  0  0  0  0  0  0  0  0
  130.5308  135.2749  160.5612 C   0  0  1  0  0  0  0  0  0  0  0  0
  130.0288  134.3822  160.9347 H   0  0  0  0  0  0  0  0  0  0  0  0
  129.5903  136.4760  160.6794 C   0  0  0  0  0  0  0  0  0  0  0  0
  128.0932  136.1703  159.7018 S   0  0  0  0  0  0  0  0  0  0  0  0
  127.0193  135.3842  160.8565 C   0  0  0  0  0  0  0  0  0  0  0  0
  126.5407  134.1042  160.6030 C   0  0  0  0  0  0  0  0  0  0  0  0
  125.7032  133.4895  161.5125 C   0  0  0  0  0  0  0  0  0  0  0  0
  125.3327  134.1496  162.6700 C   0  0  0  0  0  0  0  0  0  0  0  0
  125.8029  135.4252  162.9232 C   0  0  0  0  0  0  0  0  0  0  0  0
  126.6445  136.0446  162.0205 C   0  0  0  0  0  0  0  0  0  0  0  0
  130.8966  135.0776  159.1564 N   0  0  0  0  0  0  0  0  0  0  0  0
  130.5898  133.8860  158.5220 C   0  0  0  0  0  0  0  0  0  0  0  0
  129.9545  132.8258  159.0912 N   0  0  0  0  0  0  0  0  0  0  0  0
  129.6375  132.7694  160.0062 H   0  0  0  0  0  0  0  0  0  0  0  0
  129.8451  131.8492  158.1297 C   0  0  0  0  0  0  0  0  0  0  0  0
  130.4112  132.3434  157.0010 C   0  0  0  0  0  0  0  0  0  0  0  0
  130.5195  131.6409  155.6990 C   0  0  0  0  0  0  0  0  0  0  0  0
  129.9221  132.1824  154.5618 C   0  0  0  0  0  0  0  0  0  0  0  0
  130.0290  131.5307  153.3513 C   0  0  0  0  0  0  0  0  0  0  0  0
  130.7217  130.3289  153.2668 C   0  0  0  0  0  0  0  0  0  0  0  0
  130.8231  129.6668  152.0409 N   0  0  0  0  0  0  0  0  0  0  0  0
  131.3133  129.7841  154.4004 C   0  0  0  0  0  0  0  0  0  0  0  0
  131.2139  130.4353  155.6117 C   0  0  0  0  0  0  0  0  0  0  0  0
  130.8642  133.5926  157.2742 N   0  0  0  0  0  0  0  0  0  0  0  0
  131.3154  134.1772  156.6453 H   0  0  0  0  0  0  0  0  0  0  0  0
  132.7589  133.7156  160.7478 H   0  0  0  0  0  0  0  0  0  0  0  0
  133.3874  134.3863  162.2721 H   0  0  0  0  0  0  0  0  0  0  0  0
  131.8122  133.5581  162.2468 H   0  0  0  0  0  0  0  0  0  0  0  0
  131.5225  136.0196  162.3226 H   0  0  0  0  0  0  0  0  0  0  0  0
  132.2472  137.3848  160.3837 H   0  0  0  0  0  0  0  0  0  0  0  0
  133.6416  136.6210  161.1840 H   0  0  0  0  0  0  0  0  0  0  0  0
  133.0130  135.9504  159.6597 H   0  0  0  0  0  0  0  0  0  0  0  0
  129.3181  136.6228  161.7247 H   0  0  0  0  0  0  0  0  0  0  0  0
  130.0922  137.3686  160.3059 H   0  0  0  0  0  0  0  0  0  0  0  0
  126.8264  133.5898  159.6974 H   0  0  0  0  0  0  0  0  0  0  0  0
  125.3339  132.4934  161.3179 H   0  0  0  0  0  0  0  0  0  0  0  0
  124.6744  133.6678  163.3777 H   0  0  0  0  0  0  0  0  0  0  0  0
  125.5113  135.9380  163.8279 H   0  0  0  0  0  0  0  0  0  0  0  0
  127.0107  137.0411  162.2186 H   0  0  0  0  0  0  0  0  0  0  0  0
  131.3538  135.7818  158.6708 H   0  0  0  0  0  0  0  0  0  0  0  0
  129.3909  130.8766  158.2491 H   0  0  0  0  0  0  0  0  0  0  0  0
  129.3794  133.1139  154.6280 H   0  0  0  0  0  0  0  0  0  0  0  0
  129.5702  131.9522  152.4691 H   0  0  0  0  0  0  0  0  0  0  0  0
  131.3064  128.8280  151.9811 H   0  0  0  0  0  0  0  0  0  0  0  0
  130.4103  130.0462  151.2493 H   0  0  0  0  0  0  0  0  0  0  0  0
  131.8512  128.8501  154.3326 H   0  0  0  0  0  0  0  0  0  0  0  0
  131.6740  130.0118  156.4924 H   0  0  0  0  0  0  0  0  0  0  0  0
  1  2  1  0
  1 29  1  0
  1 30  1  0
  1 31  1  0
  2  3  1  0
  2  4  1  0
  2 32  1  0
  3 33  1  0
  3 34  1  0
  3 35  1  0
  4  5  1  1
  4  6  1  0
  4 14  1  0
  6  7  1  0
  6 36  1  0
  6 37  1  0
  7  8  1  0
  8 13  1  0
  8  9  2  0
  9 10  1  0
  9 38  1  0
 10 11  2  0
 10 39  1  0
 11 12  1  0
 11 40  1  0
 12 13  2  0
 12 41  1  0
 13 42  1  0
 14 43  1  0
 15 14  1  0
 15 27  2  0
 15 16  1  0
 16 17  1  0
 16 18  1  0
 18 19  2  0
 18 44  1  0
 19 20  1  0
 19 27  1  0
 20 26  1  0
 20 21  2  0
 21 22  1  0
 21 45  1  0
 22 23  2  0
 22 46  1  0
 23 24  1  0
 23 25  1  0
 24 47  1  0
 24 48  1  0
 25 26  2  0
 25 49  1  0
 26 50  1  0
 27 28  1  0
M  CHG  1  27   1
M  END
>  <DOCK_score>  (1) 
-57.12112

>  <SMILES>  (1) 
CC(C)[C@@H](CSc1ccccc1)Nc1[nH]cc(-c2ccc(N)cc2)[nH+]1

$$$$
