C1=CCC(NC(NC2CC=CC2)=[NH+][C@@H]2C=C(c3ccc(Cc4ccccc4)cc3)CC2)CC1
     RDKit          3D

 69 73  0  0  1  0  0  0  0  0999 V2000
  131.0692  139.3695  161.6104 C   0  0  0  0  0  0  0  0  0  0  0  0
  131.9583  138.4312  161.6791 C   0  0  0  0  0  0  0  0  0  0  0  0
  131.8118  137.0849  161.0324 C   0  0  0  0  0  0  0  0  0  0  0  0
  130.3471  136.8318  160.6684 C   0  0  2  0  0  0  0  0  0  0  0  0
  130.2495  135.6428  159.8181 N   0  0  0  0  0  0  0  0  0  0  0  0
  129.1190  134.8614  159.8564 C   0  0  0  0  0  0  0  0  0  0  0  0
  127.9013  135.4278  160.1504 N   0  0  0  0  0  0  0  0  0  0  0  0
  126.6967  134.5950  160.1911 C   0  0  0  0  0  0  0  0  0  0  0  0
  125.4240  135.4496  159.9881 C   0  0  0  0  0  0  0  0  0  0  0  0
  124.3961  134.8312  160.9078 C   0  0  0  0  0  0  0  0  0  0  0  0
  124.9621  134.0555  161.7918 C   0  0  0  0  0  0  0  0  0  0  0  0
  126.4620  134.0275  161.6103 C   0  0  0  0  0  0  0  0  0  0  0  0
  129.2017  133.5833  159.6138 N   0  0  0  0  0  0  0  0  0  0  0  0
  128.4042  133.0320  159.6408 H   0  0  0  0  0  0  0  0  0  0  0  0
  130.4992  132.9797  159.3004 C   0  0  2  0  0  0  0  0  0  0  0  0
  131.3009  133.5260  159.7973 H   0  0  0  0  0  0  0  0  0  0  0  0
  130.7220  132.9578  157.8060 C   0  0  0  0  0  0  0  0  0  0  0  0
  130.5043  131.7498  157.3160 C   0  0  0  0  0  0  0  0  0  0  0  0
  130.6336  131.3875  155.8888 C   0  0  0  0  0  0  0  0  0  0  0  0
  131.5467  130.4090  155.4942 C   0  0  0  0  0  0  0  0  0  0  0  0
  131.6592  130.0721  154.1611 C   0  0  0  0  0  0  0  0  0  0  0  0
  130.8768  130.7092  153.2151 C   0  0  0  0  0  0  0  0  0  0  0  0
  131.0091  130.3409  151.7598 C   0  0  0  0  0  0  0  0  0  0  0  0
  130.0500  129.2245  151.4352 C   0  0  0  0  0  0  0  0  0  0  0  0
  130.4534  127.9083  151.5613 C   0  0  0  0  0  0  0  0  0  0  0  0
  129.5724  126.8844  151.2678 C   0  0  0  0  0  0  0  0  0  0  0  0
  128.2912  127.1766  150.8389 C   0  0  0  0  0  0  0  0  0  0  0  0
  127.8894  128.4928  150.7082 C   0  0  0  0  0  0  0  0  0  0  0  0
  128.7690  129.5168  151.0060 C   0  0  0  0  0  0  0  0  0  0  0  0
  129.9731  131.6843  153.5990 C   0  0  0  0  0  0  0  0  0  0  0  0
  129.8472  132.0267  154.9296 C   0  0  0  0  0  0  0  0  0  0  0  0
  130.1044  130.7893  158.4119 C   0  0  0  0  0  0  0  0  0  0  0  0
  130.5176  131.4933  159.7247 C   0  0  0  0  0  0  0  0  0  0  0  0
  129.8164  138.0566  159.9126 C   0  0  0  0  0  0  0  0  0  0  0  0
  129.7630  139.2385  160.8832 C   0  0  0  0  0  0  0  0  0  0  0  0
  131.2807  140.3047  162.1073 H   0  0  0  0  0  0  0  0  0  0  0  0
  132.8617  138.6295  162.2365 H   0  0  0  0  0  0  0  0  0  0  0  0
  132.1509  136.3133  161.7236 H   0  0  0  0  0  0  0  0  0  0  0  0
  132.4200  137.0500  160.1286 H   0  0  0  0  0  0  0  0  0  0  0  0
  129.7645  136.6811  161.5772 H   0  0  0  0  0  0  0  0  0  0  0  0
  130.9824  135.4069  159.2281 H   0  0  0  0  0  0  0  0  0  0  0  0
  127.8398  136.3790  160.3309 H   0  0  0  0  0  0  0  0  0  0  0  0
  126.7521  133.7944  159.4536 H   0  0  0  0  0  0  0  0  0  0  0  0
  125.6127  136.4851  160.2715 H   0  0  0  0  0  0  0  0  0  0  0  0
  125.0902  135.3934  158.9519 H   0  0  0  0  0  0  0  0  0  0  0  0
  123.3327  135.0077  160.8417 H   0  0  0  0  0  0  0  0  0  0  0  0
  124.4286  133.5056  162.5530 H   0  0  0  0  0  0  0  0  0  0  0  0
  126.8335  133.0049  161.6764 H   0  0  0  0  0  0  0  0  0  0  0  0
  126.9467  134.6575  162.3561 H   0  0  0  0  0  0  0  0  0  0  0  0
  131.0187  133.8136  157.2179 H   0  0  0  0  0  0  0  0  0  0  0  0
  132.1612  129.9135  156.2315 H   0  0  0  0  0  0  0  0  0  0  0  0
  132.3626  129.3119  153.8548 H   0  0  0  0  0  0  0  0  0  0  0  0
  130.7782  131.2091  151.1425 H   0  0  0  0  0  0  0  0  0  0  0  0
  132.0291  130.0134  151.5593 H   0  0  0  0  0  0  0  0  0  0  0  0
  131.4557  127.6801  151.8925 H   0  0  0  0  0  0  0  0  0  0  0  0
  129.8862  125.8560  151.3703 H   0  0  0  0  0  0  0  0  0  0  0  0
  127.6039  126.3766  150.6062 H   0  0  0  0  0  0  0  0  0  0  0  0
  126.8884  128.7211  150.3732 H   0  0  0  0  0  0  0  0  0  0  0  0
  128.4552  130.5451  150.9034 H   0  0  0  0  0  0  0  0  0  0  0  0
  129.3648  132.1780  152.8556 H   0  0  0  0  0  0  0  0  0  0  0  0
  129.1413  132.7876  155.2282 H   0  0  0  0  0  0  0  0  0  0  0  0
  130.6389  129.8456  158.3029 H   0  0  0  0  0  0  0  0  0  0  0  0
  129.0277  130.6208  158.3944 H   0  0  0  0  0  0  0  0  0  0  0  0
  131.5173  131.1877  160.0337 H   0  0  0  0  0  0  0  0  0  0  0  0
  129.7913  131.3035  160.5149 H   0  0  0  0  0  0  0  0  0  0  0  0
  130.4835  138.2930  159.0837 H   0  0  0  0  0  0  0  0  0  0  0  0
  128.8173  137.8467  159.5306 H   0  0  0  0  0  0  0  0  0  0  0  0
  129.5661  140.1547  160.3264 H   0  0  0  0  0  0  0  0  0  0  0  0
  128.9638  139.0762  161.6064 H   0  0  0  0  0  0  0  0  0  0  0  0
  1 35  1  0
  1  2  2  0
  1 36  1  0
  2  3  1  0
  2 37  1  0
  3  4  1  0
  3 38  1  0
  3 39  1  0
  4  5  1  0
  4 34  1  0
  4 40  1  1
  5 41  1  0
  6  5  1  0
  6  7  1  0
  6 13  2  0
  7  8  1  0
  7 42  1  0
  8 12  1  0
  8  9  1  0
  8 43  1  0
  9 10  1  0
  9 44  1  0
  9 45  1  0
 10 11  2  0
 10 46  1  0
 11 12  1  0
 11 47  1  0
 12 48  1  0
 12 49  1  0
 13 14  1  0
 13 15  1  0
 15 16  1  1
 15 33  1  0
 15 17  1  0
 17 18  2  0
 17 50  1  0
 18 19  1  0
 18 32  1  0
 19 31  1  0
 19 20  2  0
 20 21  1  0
 20 51  1  0
 21 22  2  0
 21 52  1  0
 22 23  1  0
 22 30  1  0
 23 24  1  0
 23 53  1  0
 23 54  1  0
 24 29  1  0
 24 25  2  0
 25 26  1  0
 25 55  1  0
 26 27  2  0
 26 56  1  0
 27 28  1  0
 27 57  1  0
 28 29  2  0
 28 58  1  0
 29 59  1  0
 30 31  2  0
 30 60  1  0
 31 61  1  0
 32 33  1  0
 32 62  1  0
 32 63  1  0
 33 64  1  0
 33 65  1  0
 34 35  1  0
 34 66  1  0
 34 67  1  0
 35 68  1  0
 35 69  1  0
M  CHG  1  13   1
M  END
>  <DOCK_score>  (1) 
-55.91713

>  <SMILES>  (1) 
C1=CCC(NC(NC2CC=CC2)=[NH+][C@@H]2C=C(c3ccc(Cc4ccccc4)cc3)CC2)CC1

$$$$
