Cc1cccc(-c2ccc([C@@H](C)CNc3[nH]cc(-c4ccc(Br)cc4)[nH+]3)cc2)c1
     RDKit          3D

 54 57  0  0  1  0  0  0  0  0999 V2000
  136.0355  141.7762  160.3530 C   0  0  0  0  0  0  0  0  0  0  0  0
  135.9872  140.3826  160.9244 C   0  0  0  0  0  0  0  0  0  0  0  0
  137.1311  139.8142  161.4557 C   0  0  0  0  0  0  0  0  0  0  0  0
  137.0936  138.5358  161.9822 C   0  0  0  0  0  0  0  0  0  0  0  0
  135.9137  137.8195  161.9791 C   0  0  0  0  0  0  0  0  0  0  0  0
  134.7589  138.3868  161.4447 C   0  0  0  0  0  0  0  0  0  0  0  0
  133.4875  137.6217  161.4386 C   0  0  0  0  0  0  0  0  0  0  0  0
  132.2681  138.2913  161.5157 C   0  0  0  0  0  0  0  0  0  0  0  0
  131.0885  137.5747  161.5092 C   0  0  0  0  0  0  0  0  0  0  0  0
  131.1155  136.1943  161.4263 C   0  0  0  0  0  0  0  0  0  0  0  0
  129.8243  135.4172  161.4195 C   0  0  1  0  0  0  0  0  0  0  0  0
  130.0420  134.3514  161.3495 H   0  0  0  0  0  0  0  0  0  0  0  0
  129.0540  135.6966  162.7116 C   0  0  0  0  0  0  0  0  0  0  0  0
  128.9781  135.8447  160.2187 C   0  0  0  0  0  0  0  0  0  0  0  0
  129.7157  135.5771  158.9815 N   0  0  0  0  0  0  0  0  0  0  0  0
  129.5817  134.3542  158.3465 C   0  0  0  0  0  0  0  0  0  0  0  0
  128.8047  133.3211  158.7719 N   0  0  0  0  0  0  0  0  0  0  0  0
  128.2497  133.3092  159.5673 H   0  0  0  0  0  0  0  0  0  0  0  0
  128.9488  132.2993  157.8649 C   0  0  0  0  0  0  0  0  0  0  0  0
  129.8156  132.7340  156.9169 C   0  0  0  0  0  0  0  0  0  0  0  0
  130.2764  131.9633  155.7362 C   0  0  0  0  0  0  0  0  0  0  0  0
  130.0304  132.4407  154.4501 C   0  0  0  0  0  0  0  0  0  0  0  0
  130.4659  131.7226  153.3551 C   0  0  0  0  0  0  0  0  0  0  0  0
  131.1363  130.5246  153.5323 C   0  0  0  0  0  0  0  0  0  0  0  0
  131.7238  129.5422  152.0271 Br  0  0  0  0  0  0  0  0  0  0  0  0
  131.3785  130.0435  154.8073 C   0  0  0  0  0  0  0  0  0  0  0  0
  130.9520  130.7565  155.9090 C   0  0  0  0  0  0  0  0  0  0  0  0
  130.1867  133.9985  157.2395 N   0  0  0  0  0  0  0  0  0  0  0  0
  130.8017  134.5508  156.7322 H   0  0  0  0  0  0  0  0  0  0  0  0
  132.3234  135.5240  161.3552 C   0  0  0  0  0  0  0  0  0  0  0  0
  133.5088  136.2310  161.3553 C   0  0  0  0  0  0  0  0  0  0  0  0
  134.8035  139.6734  160.9108 C   0  0  0  0  0  0  0  0  0  0  0  0
  136.2837  141.7259  159.2929 H   0  0  0  0  0  0  0  0  0  0  0  0
  135.0633  142.2534  160.4763 H   0  0  0  0  0  0  0  0  0  0  0  0
  136.7945  142.3574  160.8767 H   0  0  0  0  0  0  0  0  0  0  0  0
  138.0565  140.3710  161.4600 H   0  0  0  0  0  0  0  0  0  0  0  0
  137.9895  138.0970  162.3962 H   0  0  0  0  0  0  0  0  0  0  0  0
  135.8856  136.8213  162.3904 H   0  0  0  0  0  0  0  0  0  0  0  0
  132.2458  139.3692  161.5801 H   0  0  0  0  0  0  0  0  0  0  0  0
  130.1428  138.0928  161.5685 H   0  0  0  0  0  0  0  0  0  0  0  0
  128.8363  136.7624  162.7815 H   0  0  0  0  0  0  0  0  0  0  0  0
  128.1202  135.1346  162.7067 H   0  0  0  0  0  0  0  0  0  0  0  0
  129.6568  135.3920  163.5671 H   0  0  0  0  0  0  0  0  0  0  0  0
  128.7604  136.9106  160.2885 H   0  0  0  0  0  0  0  0  0  0  0  0
  128.0442  135.2827  160.2138 H   0  0  0  0  0  0  0  0  0  0  0  0
  130.3010  136.2552  158.6094 H   0  0  0  0  0  0  0  0  0  0  0  0
  128.4673  131.3332  157.9021 H   0  0  0  0  0  0  0  0  0  0  0  0
  129.5035  133.3731  154.3107 H   0  0  0  0  0  0  0  0  0  0  0  0
  130.2793  132.0938  152.3582 H   0  0  0  0  0  0  0  0  0  0  0  0
  131.9020  129.1082  154.9400 H   0  0  0  0  0  0  0  0  0  0  0  0
  131.1415  130.3802  156.9034 H   0  0  0  0  0  0  0  0  0  0  0  0
  132.3388  134.4458  161.2950 H   0  0  0  0  0  0  0  0  0  0  0  0
  134.4512  135.7070  161.2953 H   0  0  0  0  0  0  0  0  0  0  0  0
  133.9123  140.1160  160.4910 H   0  0  0  0  0  0  0  0  0  0  0  0
  1  2  1  0
  1 33  1  0
  1 34  1  0
  1 35  1  0
  2 32  2  0
  2  3  1  0
  3  4  2  0
  3 36  1  0
  4  5  1  0
  4 37  1  0
  5  6  2  0
  5 38  1  0
  6  7  1  0
  6 32  1  0
  7 31  1  0
  7  8  2  0
  8  9  1  0
  8 39  1  0
  9 10  2  0
  9 40  1  0
 10 11  1  0
 10 30  1  0
 11 12  1  6
 11 13  1  0
 11 14  1  0
 13 41  1  0
 13 42  1  0
 13 43  1  0
 14 15  1  0
 14 44  1  0
 14 45  1  0
 15 46  1  0
 16 15  1  0
 16 28  2  0
 16 17  1  0
 17 18  1  0
 17 19  1  0
 19 20  2  0
 19 47  1  0
 20 21  1  0
 20 28  1  0
 21 27  1  0
 21 22  2  0
 22 23  1  0
 22 48  1  0
 23 24  2  0
 23 49  1  0
 24 25  1  0
 24 26  1  0
 26 27  2  0
 26 50  1  0
 27 51  1  0
 28 29  1  0
 30 31  2  0
 30 52  1  0
 31 53  1  0
 32 54  1  0
M  CHG  1  28   1
M  END
>  <DOCK_score>  (1) 
-58.05788

>  <SMILES>  (1) 
Cc1cccc(-c2ccc([C@@H](C)CNc3[nH]cc(-c4ccc(Br)cc4)[nH+]3)cc2)c1

$$$$
