Oc1ccc2c(c1)C(Nc1[nH]cc(-c3ccc(-c4ccc5c(c4)C=CC5)cc3)[nH+]1)c1cc(O)ccc1-2
     RDKit          3D

 60 66  0  0  1  0  0  0  0  0999 V2000
  124.2115  134.8440  161.6720 O   0  0  0  0  0  0  0  0  0  0  0  0
  125.1494  134.0676  161.0685 C   0  0  0  0  0  0  0  0  0  0  0  0
  124.8684  132.7398  160.7767 C   0  0  0  0  0  0  0  0  0  0  0  0
  125.8164  131.9490  160.1638 C   0  0  0  0  0  0  0  0  0  0  0  0
  127.0645  132.4821  159.8344 C   0  0  0  0  0  0  0  0  0  0  0  0
  127.3395  133.8149  160.1305 C   0  0  0  0  0  0  0  0  0  0  0  0
  126.3870  134.6036  160.7381 C   0  0  0  0  0  0  0  0  0  0  0  0
  128.7455  134.1037  159.6643 C   0  0  0  0  0  0  0  0  0  0  0  0
  128.7346  135.1588  158.6480 N   0  0  0  0  0  0  0  0  0  0  0  0
  129.4254  136.3381  158.8675 C   0  0  0  0  0  0  0  0  0  0  0  0
  129.4978  137.3870  158.0032 N   0  0  0  0  0  0  0  0  0  0  0  0
  129.0781  137.4421  157.1304 H   0  0  0  0  0  0  0  0  0  0  0  0
  130.2721  138.3542  158.5959 C   0  0  0  0  0  0  0  0  0  0  0  0
  130.6578  137.8656  159.8013 C   0  0  0  0  0  0  0  0  0  0  0  0
  131.5124  138.5622  160.7923 C   0  0  0  0  0  0  0  0  0  0  0  0
  131.3475  138.3110  162.1545 C   0  0  0  0  0  0  0  0  0  0  0  0
  132.1456  138.9541  163.0748 C   0  0  0  0  0  0  0  0  0  0  0  0
  133.1103  139.8649  162.6455 C   0  0  0  0  0  0  0  0  0  0  0  0
  133.9657  140.5619  163.6366 C   0  0  0  0  0  0  0  0  0  0  0  0
  135.2625  140.9426  163.2922 C   0  0  0  0  0  0  0  0  0  0  0  0
  136.0586  141.5957  164.2141 C   0  0  0  0  0  0  0  0  0  0  0  0
  135.5774  141.8627  165.4762 C   0  0  0  0  0  0  0  0  0  0  0  0
  134.2831  141.4839  165.8411 C   0  0  0  0  0  0  0  0  0  0  0  0
  133.4756  140.8288  164.9107 C   0  0  0  0  0  0  0  0  0  0  0  0
  134.0413  141.8934  167.2372 C   0  0  0  0  0  0  0  0  0  0  0  0
  135.1016  142.4958  167.7460 C   0  0  0  0  0  0  0  0  0  0  0  0
  136.1778  142.5372  166.6864 C   0  0  0  0  0  0  0  0  0  0  0  0
  133.2714  140.1205  161.2840 C   0  0  0  0  0  0  0  0  0  0  0  0
  132.4776  139.4733  160.3631 C   0  0  0  0  0  0  0  0  0  0  0  0
  130.1224  136.6263  159.9394 N   0  0  0  0  0  0  0  0  0  0  0  0
  130.2370  136.0466  160.7086 H   0  0  0  0  0  0  0  0  0  0  0  0
  129.2607  132.8155  159.0705 C   0  0  0  0  0  0  0  0  0  0  0  0
  130.4665  132.4809  158.4939 C   0  0  0  0  0  0  0  0  0  0  0  0
  130.6759  131.1923  158.0204 C   0  0  0  0  0  0  0  0  0  0  0  0
  131.8648  130.8621  157.4514 O   0  0  0  0  0  0  0  0  0  0  0  0
  129.6699  130.2417  158.1282 C   0  0  0  0  0  0  0  0  0  0  0  0
  128.4622  130.5725  158.7043 C   0  0  0  0  0  0  0  0  0  0  0  0
  128.2469  131.8670  159.1820 C   0  0  0  0  0  0  0  0  0  0  0  0
  124.4973  135.7542  161.8305 H   0  0  0  0  0  0  0  0  0  0  0  0
  123.9039  132.3253  161.0304 H   0  0  0  0  0  0  0  0  0  0  0  0
  125.5940  130.9164  159.9383 H   0  0  0  0  0  0  0  0  0  0  0  0
  126.6044  135.6379  160.9610 H   0  0  0  0  0  0  0  0  0  0  0  0
  129.3668  134.4025  160.5086 H   0  0  0  0  0  0  0  0  0  0  0  0
  128.2436  135.0309  157.8215 H   0  0  0  0  0  0  0  0  0  0  0  0
  130.5284  139.3176  158.1802 H   0  0  0  0  0  0  0  0  0  0  0  0
  130.5973  137.6089  162.4873 H   0  0  0  0  0  0  0  0  0  0  0  0
  132.0210  138.7563  164.1292 H   0  0  0  0  0  0  0  0  0  0  0  0
  135.6433  140.7303  162.3041 H   0  0  0  0  0  0  0  0  0  0  0  0
  137.0612  141.8941  163.9453 H   0  0  0  0  0  0  0  0  0  0  0  0
  132.4731  140.5298  165.1791 H   0  0  0  0  0  0  0  0  0  0  0  0
  133.1191  141.7236  167.7731 H   0  0  0  0  0  0  0  0  0  0  0  0
  135.1848  142.8909  168.7477 H   0  0  0  0  0  0  0  0  0  0  0  0
  137.0597  141.9925  167.0232 H   0  0  0  0  0  0  0  0  0  0  0  0
  136.4388  143.5692  166.4523 H   0  0  0  0  0  0  0  0  0  0  0  0
  134.0188  140.8256  160.9517 H   0  0  0  0  0  0  0  0  0  0  0  0
  132.6025  139.6710  159.3087 H   0  0  0  0  0  0  0  0  0  0  0  0
  131.2488  133.2207  158.4103 H   0  0  0  0  0  0  0  0  0  0  0  0
  132.5016  131.5892  157.4208 H   0  0  0  0  0  0  0  0  0  0  0  0
  129.8341  129.2401  157.7592 H   0  0  0  0  0  0  0  0  0  0  0  0
  127.6823  129.8300  158.7866 H   0  0  0  0  0  0  0  0  0  0  0  0
  1  2  1  0
  1 39  1  0
  2  7  2  0
  2  3  1  0
  3  4  2  0
  3 40  1  0
  4  5  1  0
  4 41  1  0
  5 38  1  0
  5  6  2  0
  6  7  1  0
  6  8  1  0
  7 42  1  0
  8  9  1  0
  8 32  1  0
  8 43  1  0
  9 44  1  0
 10  9  1  0
 10 30  2  0
 10 11  1  0
 11 12  1  0
 11 13  1  0
 13 14  2  0
 13 45  1  0
 14 15  1  0
 14 30  1  0
 15 29  1  0
 15 16  2  0
 16 17  1  0
 16 46  1  0
 17 18  2  0
 17 47  1  0
 18 19  1  0
 18 28  1  0
 19 24  1  0
 19 20  2  0
 20 21  1  0
 20 48  1  0
 21 22  2  0
 21 49  1  0
 22 27  1  0
 22 23  1  0
 23 24  2  0
 23 25  1  0
 24 50  1  0
 25 26  2  0
 25 51  1  0
 26 27  1  0
 26 52  1  0
 27 53  1  0
 27 54  1  0
 28 29  2  0
 28 55  1  0
 29 56  1  0
 30 31  1  0
 32 38  2  0
 32 33  1  0
 33 34  2  0
 33 57  1  0
 34 35  1  0
 34 36  1  0
 35 58  1  0
 36 37  2  0
 36 59  1  0
 37 38  1  0
 37 60  1  0
M  CHG  1  30   1
M  END
>  <DOCK_score>  (1) 
-46.611168

>  <SMILES>  (1) 
Oc1ccc2c(c1)C(Nc1[nH]cc(-c3ccc(-c4ccc5c(c4)C=CC5)cc3)[nH+]1)c1cc(O)ccc1-2

$$$$
