O=C1CC[C@H](NC(NC2CCCC2)=[NH+]Cc2ccc(SC3=CCCC3)cc2)CN1
     RDKit          3D

 62 65  0  0  1  0  0  0  0  0999 V2000
  125.6207  135.0192  164.6671 O   0  0  0  0  0  0  0  0  0  0  0  0
  126.5771  135.3586  164.0029 C   0  0  0  0  0  0  0  0  0  0  0  0
  127.9362  134.8670  164.4107 C   0  0  0  0  0  0  0  0  0  0  0  0
  129.0196  135.7243  163.7519 C   0  0  0  0  0  0  0  0  0  0  0  0
  128.7002  135.8444  162.2569 C   0  0  2  0  0  0  0  0  0  0  0  0
  128.5523  134.8508  161.8335 H   0  0  0  0  0  0  0  0  0  0  0  0
  129.8086  136.5115  161.5694 N   0  0  0  0  0  0  0  0  0  0  0  0
  130.0802  136.2150  160.2547 C   0  0  0  0  0  0  0  0  0  0  0  0
  129.3117  135.2925  159.5851 N   0  0  0  0  0  0  0  0  0  0  0  0
  129.9005  134.4910  158.5095 C   0  0  0  0  0  0  0  0  0  0  0  0
  128.8609  133.4881  157.9679 C   0  0  0  0  0  0  0  0  0  0  0  0
  129.6875  132.2140  157.6604 C   0  0  0  0  0  0  0  0  0  0  0  0
  130.7066  132.1772  158.8262 C   0  0  0  0  0  0  0  0  0  0  0  0
  131.0738  133.6579  159.0546 C   0  0  0  0  0  0  0  0  0  0  0  0
  131.0663  136.8087  159.6431 N   0  0  0  0  0  0  0  0  0  0  0  0
  131.2581  136.5995  158.7154 H   0  0  0  0  0  0  0  0  0  0  0  0
  131.8852  137.7919  160.3565 C   0  0  0  0  0  0  0  0  0  0  0  0
  132.5373  137.1346  161.5456 C   0  0  0  0  0  0  0  0  0  0  0  0
  132.5420  137.7751  162.7713 C   0  0  0  0  0  0  0  0  0  0  0  0
  133.1386  137.1759  163.8629 C   0  0  0  0  0  0  0  0  0  0  0  0
  133.7347  135.9277  163.7288 C   0  0  0  0  0  0  0  0  0  0  0  0
  134.4977  135.1594  165.1189 S   0  0  0  0  0  0  0  0  0  0  0  0
  136.1587  135.7410  165.0310 C   0  0  0  0  0  0  0  0  0  0  0  0
  136.9427  135.9214  166.0736 C   0  0  0  0  0  0  0  0  0  0  0  0
  138.3005  136.4283  165.6459 C   0  0  0  0  0  0  0  0  0  0  0  0
  138.0951  136.9346  164.1996 C   0  0  0  0  0  0  0  0  0  0  0  0
  136.8741  136.1000  163.7495 C   0  0  0  0  0  0  0  0  0  0  0  0
  133.7327  135.2895  162.4944 C   0  0  0  0  0  0  0  0  0  0  0  0
  133.1300  135.8926  161.4082 C   0  0  0  0  0  0  0  0  0  0  0  0
  127.4237  136.6705  162.0937 C   0  0  0  0  0  0  0  0  0  0  0  0
  126.3656  136.1489  162.9497 N   0  0  0  0  0  0  0  0  0  0  0  0
  128.0550  133.8296  164.0974 H   0  0  0  0  0  0  0  0  0  0  0  0
  128.0339  134.9299  165.4945 H   0  0  0  0  0  0  0  0  0  0  0  0
  129.9925  135.2504  163.8824 H   0  0  0  0  0  0  0  0  0  0  0  0
  129.0297  136.7153  164.2057 H   0  0  0  0  0  0  0  0  0  0  0  0
  130.3509  137.1623  162.0419 H   0  0  0  0  0  0  0  0  0  0  0  0
  128.3795  135.1725  159.8249 H   0  0  0  0  0  0  0  0  0  0  0  0
  130.2460  135.1413  157.7058 H   0  0  0  0  0  0  0  0  0  0  0  0
  128.1037  133.2783  158.7234 H   0  0  0  0  0  0  0  0  0  0  0  0
  128.3980  133.8721  157.0588 H   0  0  0  0  0  0  0  0  0  0  0  0
  130.1994  132.3083  156.7027 H   0  0  0  0  0  0  0  0  0  0  0  0
  129.0544  131.3268  157.6725 H   0  0  0  0  0  0  0  0  0  0  0  0
  131.5897  131.6044  158.5429 H   0  0  0  0  0  0  0  0  0  0  0  0
  130.2501  131.7549  159.7213 H   0  0  0  0  0  0  0  0  0  0  0  0
  131.9885  133.9033  158.5150 H   0  0  0  0  0  0  0  0  0  0  0  0
  131.2052  133.8501  160.1195 H   0  0  0  0  0  0  0  0  0  0  0  0
  131.2536  138.6128  160.6961 H   0  0  0  0  0  0  0  0  0  0  0  0
  132.6543  138.1780  159.6876 H   0  0  0  0  0  0  0  0  0  0  0  0
  132.0789  138.7453  162.8748 H   0  0  0  0  0  0  0  0  0  0  0  0
  133.1422  137.6767  164.8198 H   0  0  0  0  0  0  0  0  0  0  0  0
  136.6542  135.7321  167.0970 H   0  0  0  0  0  0  0  0  0  0  0  0
  139.0308  135.6192  165.6646 H   0  0  0  0  0  0  0  0  0  0  0  0
  138.6214  137.2453  166.2921 H   0  0  0  0  0  0  0  0  0  0  0  0
  137.8661  138.0002  164.1875 H   0  0  0  0  0  0  0  0  0  0  0  0
  138.9667  136.7174  163.5821 H   0  0  0  0  0  0  0  0  0  0  0  0
  136.2250  136.6939  163.1060 H   0  0  0  0  0  0  0  0  0  0  0  0
  137.2008  135.1991  163.2301 H   0  0  0  0  0  0  0  0  0  0  0  0
  134.1985  134.3212  162.3855 H   0  0  0  0  0  0  0  0  0  0  0  0
  133.1250  135.3957  160.4493 H   0  0  0  0  0  0  0  0  0  0  0  0
  127.6281  137.7064  162.3640 H   0  0  0  0  0  0  0  0  0  0  0  0
  127.0988  136.6300  161.0540 H   0  0  0  0  0  0  0  0  0  0  0  0
  125.4502  136.3918  162.7402 H   0  0  0  0  0  0  0  0  0  0  0  0
  1  2  2  0
  2 31  1  0
  2  3  1  0
  3  4  1  0
  3 32  1  0
  3 33  1  0
  4  5  1  0
  4 34  1  0
  4 35  1  0
  5  6  1  6
  5  7  1  0
  5 30  1  0
  7 36  1  0
  8  7  1  0
  8  9  1  0
  8 15  2  0
  9 10  1  0
  9 37  1  0
 10 14  1  0
 10 11  1  0
 10 38  1  0
 11 12  1  0
 11 39  1  0
 11 40  1  0
 12 13  1  0
 12 41  1  0
 12 42  1  0
 13 14  1  0
 13 43  1  0
 13 44  1  0
 14 45  1  0
 14 46  1  0
 15 16  1  0
 15 17  1  0
 17 18  1  0
 17 47  1  0
 17 48  1  0
 18 29  1  0
 18 19  2  0
 19 20  1  0
 19 49  1  0
 20 21  2  0
 20 50  1  0
 21 22  1  0
 21 28  1  0
 22 23  1  0
 23 27  1  0
 23 24  2  0
 24 25  1  0
 24 51  1  0
 25 26  1  0
 25 52  1  0
 25 53  1  0
 26 27  1  0
 26 54  1  0
 26 55  1  0
 27 56  1  0
 27 57  1  0
 28 29  2  0
 28 58  1  0
 29 59  1  0
 30 31  1  0
 30 60  1  0
 30 61  1  0
 31 62  1  0
M  CHG  1  15   1
M  END
>  <DOCK_score>  (1) 
-41.434216

>  <SMILES>  (1) 
O=C1CC[C@H](NC(NC2CCCC2)=[NH+]Cc2ccc(SC3=CCCC3)cc2)CN1

$$$$
