[NH3+][C@H](Cc1cccc(CC2CCC(=O)NC2)c1)C(=O)Nc1cccc(O)c1
     RDKit          3D

 53 55  0  0  1  0  0  0  0  0999 V2000
  130.5686  133.3626  156.7543 N   0  0  0  0  0  0  0  0  0  0  0  0
  130.4799  132.3873  156.5110 H   0  0  0  0  0  0  0  0  0  0  0  0
  129.8698  133.8973  156.2603 H   0  0  0  0  0  0  0  0  0  0  0  0
  131.4874  133.6912  156.4971 H   0  0  0  0  0  0  0  0  0  0  0  0
  130.3775  133.5256  158.2016 C   0  0  2  0  0  0  0  0  0  0  0  0
  130.4732  134.5792  158.4643 H   0  0  0  0  0  0  0  0  0  0  0  0
  131.4371  132.7149  158.9504 C   0  0  0  0  0  0  0  0  0  0  0  0
  131.5710  133.2406  160.3564 C   0  0  0  0  0  0  0  0  0  0  0  0
  130.7878  132.7164  161.3680 C   0  0  0  0  0  0  0  0  0  0  0  0
  130.9112  133.1979  162.6576 C   0  0  0  0  0  0  0  0  0  0  0  0
  131.8183  134.2035  162.9363 C   0  0  0  0  0  0  0  0  0  0  0  0
  132.5977  134.7311  161.9240 C   0  0  0  0  0  0  0  0  0  0  0  0
  133.5819  135.8314  162.2265 C   0  0  0  0  0  0  0  0  0  0  0  0
  132.8981  137.1891  162.0533 C   0  0  1  0  0  0  0  0  0  0  0  0
  133.6910  138.2641  162.8065 C   0  0  0  0  0  0  0  0  0  0  0  0
  132.8918  139.5692  162.7701 C   0  0  0  0  0  0  0  0  0  0  0  0
  132.4460  139.8563  161.3650 C   0  0  0  0  0  0  0  0  0  0  0  0
  132.0922  140.9843  161.0943 O   0  0  0  0  0  0  0  0  0  0  0  0
  132.4190  138.9375  160.3990 N   0  0  0  0  0  0  0  0  0  0  0  0
  132.8594  137.5586  160.5700 C   0  0  0  0  0  0  0  0  0  0  0  0
  132.4772  134.2465  160.6348 C   0  0  0  0  0  0  0  0  0  0  0  0
  129.0054  133.0349  158.5854 C   0  0  0  0  0  0  0  0  0  0  0  0
  128.4803  132.1442  157.9512 O   0  0  0  0  0  0  0  0  0  0  0  0
  128.3615  133.5857  159.6336 N   0  0  0  0  0  0  0  0  0  0  0  0
  127.0876  133.1299  159.9902 C   0  0  0  0  0  0  0  0  0  0  0  0
  126.7276  131.8104  159.7468 C   0  0  0  0  0  0  0  0  0  0  0  0
  125.4720  131.3589  160.1042 C   0  0  0  0  0  0  0  0  0  0  0  0
  124.5670  132.2209  160.6941 C   0  0  0  0  0  0  0  0  0  0  0  0
  124.9190  133.5414  160.9345 C   0  0  0  0  0  0  0  0  0  0  0  0
  124.0279  134.3881  161.5142 O   0  0  0  0  0  0  0  0  0  0  0  0
  126.1802  133.9967  160.5825 C   0  0  0  0  0  0  0  0  0  0  0  0
  132.3939  132.8049  158.4363 H   0  0  0  0  0  0  0  0  0  0  0  0
  131.1383  131.6672  158.9813 H   0  0  0  0  0  0  0  0  0  0  0  0
  130.0797  131.9305  161.1505 H   0  0  0  0  0  0  0  0  0  0  0  0
  130.2994  132.7885  163.4478 H   0  0  0  0  0  0  0  0  0  0  0  0
  131.9149  134.5797  163.9440 H   0  0  0  0  0  0  0  0  0  0  0  0
  133.9354  135.7308  163.2526 H   0  0  0  0  0  0  0  0  0  0  0  0
  134.4276  135.7606  161.5423 H   0  0  0  0  0  0  0  0  0  0  0  0
  131.8830  137.1403  162.4472 H   0  0  0  0  0  0  0  0  0  0  0  0
  133.8396  137.9536  163.8407 H   0  0  0  0  0  0  0  0  0  0  0  0
  134.6576  138.4122  162.3249 H   0  0  0  0  0  0  0  0  0  0  0  0
  132.0182  139.4769  163.4154 H   0  0  0  0  0  0  0  0  0  0  0  0
  133.5182  140.3874  163.1256 H   0  0  0  0  0  0  0  0  0  0  0  0
  132.0852  139.2034  159.5279 H   0  0  0  0  0  0  0  0  0  0  0  0
  133.8559  137.4432  160.1438 H   0  0  0  0  0  0  0  0  0  0  0  0
  132.1696  136.8931  160.0509 H   0  0  0  0  0  0  0  0  0  0  0  0
  133.0892  134.6556  159.8446 H   0  0  0  0  0  0  0  0  0  0  0  0
  128.7813  134.2979  160.1409 H   0  0  0  0  0  0  0  0  0  0  0  0
  127.4314  131.1359  159.2819 H   0  0  0  0  0  0  0  0  0  0  0  0
  125.1954  130.3318  159.9178 H   0  0  0  0  0  0  0  0  0  0  0  0
  123.5845  131.8662  160.9687 H   0  0  0  0  0  0  0  0  0  0  0  0
  124.3637  135.2860  161.6409 H   0  0  0  0  0  0  0  0  0  0  0  0
  126.4562  135.0241  160.7690 H   0  0  0  0  0  0  0  0  0  0  0  0
  1  2  1  0
  1  3  1  0
  1  4  1  0
  1  5  1  0
  5  6  1  6
  5  7  1  0
  5 22  1  0
  7  8  1  0
  7 32  1  0
  7 33  1  0
  8 21  1  0
  8  9  2  0
  9 10  1  0
  9 34  1  0
 10 11  2  0
 10 35  1  0
 11 12  1  0
 11 36  1  0
 12 13  1  0
 12 21  2  0
 13 14  1  0
 13 37  1  0
 13 38  1  0
 14 20  1  0
 14 15  1  0
 14 39  1  1
 15 16  1  0
 15 40  1  0
 15 41  1  0
 16 17  1  0
 16 42  1  0
 16 43  1  0
 17 18  2  0
 17 19  1  0
 19 20  1  0
 19 44  1  0
 20 45  1  0
 20 46  1  0
 21 47  1  0
 22 23  2  0
 22 24  1  0
 24 25  1  0
 24 48  1  0
 25 31  1  0
 25 26  2  0
 26 27  1  0
 26 49  1  0
 27 28  2  0
 27 50  1  0
 28 29  1  0
 28 51  1  0
 29 30  1  0
 29 31  2  0
 30 52  1  0
 31 53  1  0
M  CHG  1   1   1
M  END
>  <DOCK_score>  (1) 
-47.031563

>  <SMILES>  (1) 
[NH3+][C@H](Cc1cccc(CC2CCC(=O)NC2)c1)C(=O)Nc1cccc(O)c1

$$$$
