ClC[C@@H](Cc1ccccc1)Nc1[nH]cc(-c2ccc(-c3ccccc3)cc2)[nH+]1
     RDKit          3D

 51 54  0  0  1  0  0  0  0  0999 V2000
  132.6154  138.3582  161.0063 Cl  0  0  0  0  0  0  0  0  0  0  0  0
  131.9871  136.9720  161.9731 C   0  0  0  0  0  0  0  0  0  0  0  0
  130.9962  136.1686  161.1282 C   0  0  1  0  0  0  0  0  0  0  0  0
  130.6164  135.3305  161.7126 H   0  0  0  0  0  0  0  0  0  0  0  0
  129.8319  137.0702  160.7130 C   0  0  0  0  0  0  0  0  0  0  0  0
  128.6506  136.2186  160.3255 C   0  0  0  0  0  0  0  0  0  0  0  0
  128.4928  135.8111  159.0140 C   0  0  0  0  0  0  0  0  0  0  0  0
  127.4118  135.0259  158.6595 C   0  0  0  0  0  0  0  0  0  0  0  0
  126.4828  134.6570  159.6144 C   0  0  0  0  0  0  0  0  0  0  0  0
  126.6378  135.0688  160.9249 C   0  0  0  0  0  0  0  0  0  0  0  0
  127.7217  135.8497  161.2803 C   0  0  0  0  0  0  0  0  0  0  0  0
  131.6729  135.6626  159.9315 N   0  0  0  0  0  0  0  0  0  0  0  0
  131.2613  134.4736  159.3542 C   0  0  0  0  0  0  0  0  0  0  0  0
  130.7073  133.4213  160.0161 N   0  0  0  0  0  0  0  0  0  0  0  0
  130.5310  133.3701  160.9685 H   0  0  0  0  0  0  0  0  0  0  0  0
  130.4440  132.4451  159.0866 C   0  0  0  0  0  0  0  0  0  0  0  0
  130.8399  132.9303  157.8830 C   0  0  0  0  0  0  0  0  0  0  0  0
  130.7437  132.2243  156.5831 C   0  0  0  0  0  0  0  0  0  0  0  0
  129.9878  132.7716  155.5463 C   0  0  0  0  0  0  0  0  0  0  0  0
  129.9029  132.1181  154.3368 C   0  0  0  0  0  0  0  0  0  0  0  0
  130.5639  130.9041  154.1523 C   0  0  0  0  0  0  0  0  0  0  0  0
  130.4677  130.1978  152.8517 C   0  0  0  0  0  0  0  0  0  0  0  0
  130.5512  128.8073  152.8030 C   0  0  0  0  0  0  0  0  0  0  0  0
  130.4563  128.1551  151.5904 C   0  0  0  0  0  0  0  0  0  0  0  0
  130.2889  128.8797  150.4235 C   0  0  0  0  0  0  0  0  0  0  0  0
  130.2109  130.2597  150.4656 C   0  0  0  0  0  0  0  0  0  0  0  0
  130.2992  130.9223  151.6729 C   0  0  0  0  0  0  0  0  0  0  0  0
  131.3151  130.3539  155.1906 C   0  0  0  0  0  0  0  0  0  0  0  0
  131.4045  131.0097  156.3984 C   0  0  0  0  0  0  0  0  0  0  0  0
  131.3419  134.1754  158.0805 N   0  0  0  0  0  0  0  0  0  0  0  0
  131.6992  134.7541  157.3889 H   0  0  0  0  0  0  0  0  0  0  0  0
  131.4836  137.3486  162.8635 H   0  0  0  0  0  0  0  0  0  0  0  0
  132.8166  136.3297  162.2689 H   0  0  0  0  0  0  0  0  0  0  0  0
  129.5565  137.7155  161.5473 H   0  0  0  0  0  0  0  0  0  0  0  0
  130.1322  137.6833  159.8633 H   0  0  0  0  0  0  0  0  0  0  0  0
  129.2162  136.1031  158.2671 H   0  0  0  0  0  0  0  0  0  0  0  0
  127.2905  134.7044  157.6356 H   0  0  0  0  0  0  0  0  0  0  0  0
  125.6359  134.0472  159.3365 H   0  0  0  0  0  0  0  0  0  0  0  0
  125.9118  134.7808  161.6708 H   0  0  0  0  0  0  0  0  0  0  0  0
  127.8425  136.1718  162.3041 H   0  0  0  0  0  0  0  0  0  0  0  0
  132.4093  136.1608  159.5435 H   0  0  0  0  0  0  0  0  0  0  0  0
  130.0026  131.4778  159.2768 H   0  0  0  0  0  0  0  0  0  0  0  0
  129.4725  133.7098  155.6908 H   0  0  0  0  0  0  0  0  0  0  0  0
  129.3212  132.5441  153.5327 H   0  0  0  0  0  0  0  0  0  0  0  0
  130.6859  128.2411  153.7128 H   0  0  0  0  0  0  0  0  0  0  0  0
  130.5164  127.0775  151.5519 H   0  0  0  0  0  0  0  0  0  0  0  0
  130.2195  128.3658  149.4762 H   0  0  0  0  0  0  0  0  0  0  0  0
  130.0807  130.8202  149.5515 H   0  0  0  0  0  0  0  0  0  0  0  0
  130.2383  132.0001  151.7043 H   0  0  0  0  0  0  0  0  0  0  0  0
  131.8264  129.4134  155.0476 H   0  0  0  0  0  0  0  0  0  0  0  0
  131.9865  130.5838  157.2023 H   0  0  0  0  0  0  0  0  0  0  0  0
  1  2  1  0
  2  3  1  0
  2 32  1  0
  2 33  1  0
  3  4  1  1
  3  5  1  0
  3 12  1  0
  5  6  1  0
  5 34  1  0
  5 35  1  0
  6 11  1  0
  6  7  2  0
  7  8  1  0
  7 36  1  0
  8  9  2  0
  8 37  1  0
  9 10  1  0
  9 38  1  0
 10 11  2  0
 10 39  1  0
 11 40  1  0
 12 41  1  0
 13 12  1  0
 13 30  2  0
 13 14  1  0
 14 15  1  0
 14 16  1  0
 16 17  2  0
 16 42  1  0
 17 18  1  0
 17 30  1  0
 18 29  1  0
 18 19  2  0
 19 20  1  0
 19 43  1  0
 20 21  2  0
 20 44  1  0
 21 22  1  0
 21 28  1  0
 22 27  1  0
 22 23  2  0
 23 24  1  0
 23 45  1  0
 24 25  2  0
 24 46  1  0
 25 26  1  0
 25 47  1  0
 26 27  2  0
 26 48  1  0
 27 49  1  0
 28 29  2  0
 28 50  1  0
 29 51  1  0
 30 31  1  0
M  CHG  1  30   1
M  END
>  <DOCK_score>  (1) 
-61.671982

>  <SMILES>  (1) 
ClC[C@@H](Cc1ccccc1)Nc1[nH]cc(-c2ccc(-c3ccccc3)cc2)[nH+]1

$$$$
