Cc1cccc(N2CC[NH+]([C@@H](c3ccccc3)c3ccc4nc[nH]c4c3)CC2)c1C
     RDKit          3D

 59 63  0  0  1  0  0  0  0  0999 V2000
  135.9289  140.7556  162.8763 C   0  0  0  0  0  0  0  0  0  0  0  0
  135.3271  140.0823  161.6698 C   0  0  0  0  0  0  0  0  0  0  0  0
  135.7330  140.4493  160.3997 C   0  0  0  0  0  0  0  0  0  0  0  0
  135.1832  139.8345  159.2900 C   0  0  0  0  0  0  0  0  0  0  0  0
  134.2263  138.8506  159.4468 C   0  0  0  0  0  0  0  0  0  0  0  0
  133.8163  138.4797  160.7209 C   0  0  0  0  0  0  0  0  0  0  0  0
  132.8486  137.4857  160.8831 N   0  0  0  0  0  0  0  0  0  0  0  0
  131.5632  137.9025  160.3049 C   0  0  0  0  0  0  0  0  0  0  0  0
  130.5176  136.8137  160.5555 C   0  0  0  0  0  0  0  0  0  0  0  0
  130.9643  135.5554  159.9434 N   0  0  0  0  0  0  0  0  0  0  0  0
  131.0922  135.6909  158.9517 H   0  0  0  0  0  0  0  0  0  0  0  0
  129.9518  134.5152  160.1686 C   0  0  1  0  0  0  0  0  0  0  0  0
  129.8130  134.3691  161.2399 H   0  0  0  0  0  0  0  0  0  0  0  0
  128.6469  134.9411  159.5466 C   0  0  0  0  0  0  0  0  0  0  0  0
  127.4501  134.5145  160.0906 C   0  0  0  0  0  0  0  0  0  0  0  0
  126.2530  134.9088  159.5226 C   0  0  0  0  0  0  0  0  0  0  0  0
  126.2532  135.7220  158.4047 C   0  0  0  0  0  0  0  0  0  0  0  0
  127.4503  136.1447  157.8577 C   0  0  0  0  0  0  0  0  0  0  0  0
  128.6472  135.7539  158.4283 C   0  0  0  0  0  0  0  0  0  0  0  0
  130.4099  133.2240  159.5408 C   0  0  0  0  0  0  0  0  0  0  0  0
  130.5861  132.0976  160.3318 C   0  0  0  0  0  0  0  0  0  0  0  0
  131.0008  130.9179  159.7819 C   0  0  0  0  0  0  0  0  0  0  0  0
  131.2515  130.8395  158.4093 C   0  0  0  0  0  0  0  0  0  0  0  0
  131.6627  129.8394  157.5882 N   0  0  0  0  0  0  0  0  0  0  0  0
  131.7457  130.2821  156.3675 C   0  0  0  0  0  0  0  0  0  0  0  0
  131.3937  131.5952  156.3214 N   0  0  0  0  0  0  0  0  0  0  0  0
  131.3717  132.1572  155.5311 H   0  0  0  0  0  0  0  0  0  0  0  0
  131.0733  131.9797  157.6081 C   0  0  0  0  0  0  0  0  0  0  0  0
  130.6511  133.1702  158.1845 C   0  0  0  0  0  0  0  0  0  0  0  0
  132.2363  135.1394  160.5486 C   0  0  0  0  0  0  0  0  0  0  0  0
  133.2964  136.2141  160.2976 C   0  0  0  0  0  0  0  0  0  0  0  0
  134.3668  139.1036  161.8335 C   0  0  0  0  0  0  0  0  0  0  0  0
  133.9206  138.7087  163.2177 C   0  0  0  0  0  0  0  0  0  0  0  0
  135.3352  141.6316  163.1373 H   0  0  0  0  0  0  0  0  0  0  0  0
  135.9368  140.0591  163.7147 H   0  0  0  0  0  0  0  0  0  0  0  0
  136.9497  141.0629  162.6494 H   0  0  0  0  0  0  0  0  0  0  0  0
  136.4809  141.2182  160.2743 H   0  0  0  0  0  0  0  0  0  0  0  0
  135.5024  140.1234  158.2995 H   0  0  0  0  0  0  0  0  0  0  0  0
  133.7971  138.3708  158.5796 H   0  0  0  0  0  0  0  0  0  0  0  0
  131.6795  138.0550  159.2319 H   0  0  0  0  0  0  0  0  0  0  0  0
  131.2391  138.8325  160.7719 H   0  0  0  0  0  0  0  0  0  0  0  0
  129.5671  137.1146  160.1151 H   0  0  0  0  0  0  0  0  0  0  0  0
  130.3917  136.6710  161.6288 H   0  0  0  0  0  0  0  0  0  0  0  0
  127.4499  133.8759  160.9615 H   0  0  0  0  0  0  0  0  0  0  0  0
  125.3178  134.5788  159.9501 H   0  0  0  0  0  0  0  0  0  0  0  0
  125.3182  136.0273  157.9589 H   0  0  0  0  0  0  0  0  0  0  0  0
  127.4504  136.7799  156.9843 H   0  0  0  0  0  0  0  0  0  0  0  0
  129.5824  136.0839  158.0008 H   0  0  0  0  0  0  0  0  0  0  0  0
  130.3936  132.1541  161.3931 H   0  0  0  0  0  0  0  0  0  0  0  0
  131.1351  130.0474  160.4068 H   0  0  0  0  0  0  0  0  0  0  0  0
  132.0497  129.6927  155.5150 H   0  0  0  0  0  0  0  0  0  0  0  0
  130.5168  134.0509  157.5741 H   0  0  0  0  0  0  0  0  0  0  0  0
  132.1015  135.0055  161.6219 H   0  0  0  0  0  0  0  0  0  0  0  0
  132.5603  134.1988  160.1029 H   0  0  0  0  0  0  0  0  0  0  0  0
  133.4413  136.3389  159.2245 H   0  0  0  0  0  0  0  0  0  0  0  0
  134.2366  135.9123  160.7592 H   0  0  0  0  0  0  0  0  0  0  0  0
  134.5518  137.9000  163.5861 H   0  0  0  0  0  0  0  0  0  0  0  0
  134.0033  139.5668  163.8848 H   0  0  0  0  0  0  0  0  0  0  0  0
  132.8839  138.3736  163.1835 H   0  0  0  0  0  0  0  0  0  0  0  0
  1  2  1  0
  1 34  1  0
  1 35  1  0
  1 36  1  0
  2 32  2  0
  2  3  1  0
  3  4  2  0
  3 37  1  0
  4  5  1  0
  4 38  1  0
  5  6  2  0
  5 39  1  0
  6  7  1  0
  6 32  1  0
  7 31  1  0
  7  8  1  0
  8  9  1  0
  8 40  1  0
  8 41  1  0
  9 10  1  0
  9 42  1  0
  9 43  1  0
 10 11  1  0
 10 12  1  0
 10 30  1  0
 12 13  1  1
 12 14  1  0
 12 20  1  0
 14 19  1  0
 14 15  2  0
 15 16  1  0
 15 44  1  0
 16 17  2  0
 16 45  1  0
 17 18  1  0
 17 46  1  0
 18 19  2  0
 18 47  1  0
 19 48  1  0
 20 29  1  0
 20 21  2  0
 21 22  1  0
 21 49  1  0
 22 23  2  0
 22 50  1  0
 23 28  1  0
 23 24  1  0
 24 25  2  0
 25 26  1  0
 25 51  1  0
 26 27  1  0
 26 28  1  0
 28 29  2  0
 29 52  1  0
 30 31  1  0
 30 53  1  0
 30 54  1  0
 31 55  1  0
 31 56  1  0
 32 33  1  0
 33 57  1  0
 33 58  1  0
 33 59  1  0
M  CHG  1  10   1
M  END
>  <DOCK_score>  (1) 
-57.53331

>  <SMILES>  (1) 
Cc1cccc(N2CC[NH+]([C@@H](c3ccccc3)c3ccc4nc[nH]c4c3)CC2)c1C

$$$$
