N#CC1=C(NC(=O)/C=C/[C@H](Nc2[nH]cc(-c3ccc(C(F)(F)F)cc3)[nH+]2)c2ccccc2)CCC1
     RDKit          3D

 58 61  0  0  1  0  0  0  0  0999 V2000
  125.7625  140.2343  165.3248 N   0  0  0  0  0  0  0  0  0  0  0  0
  126.7646  140.5829  164.9188 C   0  0  0  0  0  0  0  0  0  0  0  0
  128.0279  141.0222  164.4071 C   0  0  0  0  0  0  0  0  0  0  0  0
  128.7844  140.3310  163.5396 C   0  0  0  0  0  0  0  0  0  0  0  0
  128.4543  139.1021  163.0169 N   0  0  0  0  0  0  0  0  0  0  0  0
  129.2876  138.4922  162.1507 C   0  0  0  0  0  0  0  0  0  0  0  0
  130.3313  139.0285  161.8313 O   0  0  0  0  0  0  0  0  0  0  0  0
  128.9346  137.1790  161.5920 C   0  0  0  0  0  0  0  0  0  0  0  0
  129.3582  136.8371  160.3779 C   0  0  0  0  0  0  0  0  0  0  0  0
  128.9964  135.4910  159.8051 C   0  0  2  0  0  0  0  0  0  0  0  0
  128.8844  134.7698  160.6147 H   0  0  0  0  0  0  0  0  0  0  0  0
  130.0566  135.0454  158.8977 N   0  0  0  0  0  0  0  0  0  0  0  0
  129.9456  133.8279  158.2481 C   0  0  0  0  0  0  0  0  0  0  0  0
  129.2888  132.7340  158.7215 N   0  0  0  0  0  0  0  0  0  0  0  0
  128.8187  132.6674  159.5674 H   0  0  0  0  0  0  0  0  0  0  0  0
  129.4151  131.7411  157.7806 C   0  0  0  0  0  0  0  0  0  0  0  0
  130.1445  132.2563  156.7602 C   0  0  0  0  0  0  0  0  0  0  0  0
  130.5334  131.5442  155.5185 C   0  0  0  0  0  0  0  0  0  0  0  0
  130.1207  132.0258  154.2774 C   0  0  0  0  0  0  0  0  0  0  0  0
  130.4905  131.3627  153.1250 C   0  0  0  0  0  0  0  0  0  0  0  0
  131.2593  130.2146  153.2012 C   0  0  0  0  0  0  0  0  0  0  0  0
  131.6542  129.4910  151.9395 C   0  0  0  0  0  0  0  0  0  0  0  0
  131.1298  130.1657  150.8313 F   0  0  0  0  0  0  0  0  0  0  0  0
  133.0495  129.4506  151.8426 F   0  0  0  0  0  0  0  0  0  0  0  0
  131.1508  128.1868  151.9729 F   0  0  0  0  0  0  0  0  0  0  0  0
  131.6668  129.7291  154.4302 C   0  0  0  0  0  0  0  0  0  0  0  0
  131.3080  130.3876  155.5887 C   0  0  0  0  0  0  0  0  0  0  0  0
  130.4508  133.5405  157.0734 N   0  0  0  0  0  0  0  0  0  0  0  0
  130.9634  134.1480  156.5177 H   0  0  0  0  0  0  0  0  0  0  0  0
  127.6988  135.6001  159.0465 C   0  0  0  0  0  0  0  0  0  0  0  0
  126.4981  135.3825  159.6958 C   0  0  0  0  0  0  0  0  0  0  0  0
  125.3077  135.4865  159.0009 C   0  0  0  0  0  0  0  0  0  0  0  0
  125.3184  135.7999  157.6545 C   0  0  0  0  0  0  0  0  0  0  0  0
  126.5195  136.0123  157.0039 C   0  0  0  0  0  0  0  0  0  0  0  0
  127.7097  135.9122  157.6999 C   0  0  0  0  0  0  0  0  0  0  0  0
  130.0504  141.0922  163.2177 C   0  0  0  0  0  0  0  0  0  0  0  0
  130.1692  142.1553  164.3329 C   0  0  0  0  0  0  0  0  0  0  0  0
  128.6967  142.3283  164.7684 C   0  0  0  0  0  0  0  0  0  0  0  0
  127.6218  138.6745  163.2717 H   0  0  0  0  0  0  0  0  0  0  0  0
  128.3317  136.4919  162.1670 H   0  0  0  0  0  0  0  0  0  0  0  0
  129.9610  137.5242  159.8028 H   0  0  0  0  0  0  0  0  0  0  0  0
  130.8365  135.6035  158.7518 H   0  0  0  0  0  0  0  0  0  0  0  0
  129.0106  130.7415  157.8418 H   0  0  0  0  0  0  0  0  0  0  0  0
  129.5162  132.9188  154.2174 H   0  0  0  0  0  0  0  0  0  0  0  0
  130.1754  131.7376  152.1626 H   0  0  0  0  0  0  0  0  0  0  0  0
  132.2669  128.8329  154.4835 H   0  0  0  0  0  0  0  0  0  0  0  0
  131.6265  130.0072  156.5480 H   0  0  0  0  0  0  0  0  0  0  0  0
  126.4898  135.1344  160.7469 H   0  0  0  0  0  0  0  0  0  0  0  0
  124.3694  135.3202  159.5090 H   0  0  0  0  0  0  0  0  0  0  0  0
  124.3886  135.8784  157.1109 H   0  0  0  0  0  0  0  0  0  0  0  0
  126.5280  136.2567  155.9519 H   0  0  0  0  0  0  0  0  0  0  0  0
  128.6481  136.0780  157.1915 H   0  0  0  0  0  0  0  0  0  0  0  0
  129.9659  141.5731  162.2432 H   0  0  0  0  0  0  0  0  0  0  0  0
  130.9110  140.4236  163.2382 H   0  0  0  0  0  0  0  0  0  0  0  0
  130.5714  143.0890  163.9399 H   0  0  0  0  0  0  0  0  0  0  0  0
  130.7788  141.7876  165.1583 H   0  0  0  0  0  0  0  0  0  0  0  0
  128.6368  142.5002  165.8431 H   0  0  0  0  0  0  0  0  0  0  0  0
  128.2352  143.1533  164.2255 H   0  0  0  0  0  0  0  0  0  0  0  0
  1  2  3  0
  2  3  1  0
  3 38  1  0
  3  4  2  0
  4  5  1  0
  4 36  1  0
  5  6  1  0
  5 39  1  0
  6  7  2  0
  6  8  1  0
  8  9  2  0
  8 40  1  0
  9 10  1  0
  9 41  1  0
 10 11  1  1
 10 12  1  0
 10 30  1  0
 12 42  1  0
 13 12  1  0
 13 28  2  0
 13 14  1  0
 14 15  1  0
 14 16  1  0
 16 17  2  0
 16 43  1  0
 17 18  1  0
 17 28  1  0
 18 27  1  0
 18 19  2  0
 19 20  1  0
 19 44  1  0
 20 21  2  0
 20 45  1  0
 21 22  1  0
 21 26  1  0
 22 23  1  0
 22 24  1  0
 22 25  1  0
 26 27  2  0
 26 46  1  0
 27 47  1  0
 28 29  1  0
 30 35  1  0
 30 31  2  0
 31 32  1  0
 31 48  1  0
 32 33  2  0
 32 49  1  0
 33 34  1  0
 33 50  1  0
 34 35  2  0
 34 51  1  0
 35 52  1  0
 36 37  1  0
 36 53  1  0
 36 54  1  0
 37 38  1  0
 37 55  1  0
 37 56  1  0
 38 57  1  0
 38 58  1  0
M  CHG  1  28   1
M  END
>  <DOCK_score>  (1) 
-62.264423

>  <SMILES>  (1) 
N#CC1=C(NC(=O)/C=C/[C@H](Nc2[nH]cc(-c3ccc(C(F)(F)F)cc3)[nH+]2)c2ccccc2)CCC1

$$$$
