CC1=C(C)C[C@@H]2CC(NC(NC3CC=CC3)=[NH+]C[C@H](O)c3cccc(C#N)c3)CC2C1
     RDKit          3D

 66 69  0  0  1  0  0  0  0  0999 V2000
  131.4257  130.1867  156.7496 C   0  0  0  0  0  0  0  0  0  0  0  0
  130.7658  131.1481  157.7041 C   0  0  0  0  0  0  0  0  0  0  0  0
  130.3896  130.6933  158.8593 C   0  0  0  0  0  0  0  0  0  0  0  0
  130.6254  129.2337  159.1508 C   0  0  0  0  0  0  0  0  0  0  0  0
  129.7258  131.5271  159.9290 C   0  0  0  0  0  0  0  0  0  0  0  0
  130.0048  132.9914  159.6149 C   0  0  2  0  0  0  0  0  0  0  0  0
  131.0603  133.2364  159.7344 H   0  0  0  0  0  0  0  0  0  0  0  0
  129.1243  133.9995  160.3777 C   0  0  0  0  0  0  0  0  0  0  0  0
  129.1093  135.2460  159.4549 C   0  0  0  0  0  0  0  0  0  0  0  0
  130.1320  136.2031  159.8843 N   0  0  0  0  0  0  0  0  0  0  0  0
  130.0846  136.7380  161.1499 C   0  0  0  0  0  0  0  0  0  0  0  0
  131.2477  137.1029  161.7858 N   0  0  0  0  0  0  0  0  0  0  0  0
  132.5374  136.9219  161.1149 C   0  0  0  0  0  0  0  0  0  0  0  0
  133.6929  136.8613  162.1406 C   0  0  0  0  0  0  0  0  0  0  0  0
  134.8367  137.5903  161.4733 C   0  0  0  0  0  0  0  0  0  0  0  0
  134.4145  138.3075  160.4678 C   0  0  0  0  0  0  0  0  0  0  0  0
  132.9188  138.1775  160.2969 C   0  0  0  0  0  0  0  0  0  0  0  0
  128.9372  136.8990  161.7469 N   0  0  0  0  0  0  0  0  0  0  0  0
  128.1167  136.6414  161.2984 H   0  0  0  0  0  0  0  0  0  0  0  0
  128.8868  137.4693  163.0955 C   0  0  0  0  0  0  0  0  0  0  0  0
  127.4316  137.5493  163.5612 C   0  0  2  0  0  0  0  0  0  0  0  0
  126.8994  136.6519  163.2461 H   0  0  0  0  0  0  0  0  0  0  0  0
  126.8095  138.6994  162.9846 O   0  0  0  0  0  0  0  0  0  0  0  0
  127.3904  137.6562  165.0639 C   0  0  0  0  0  0  0  0  0  0  0  0
  127.4103  138.9009  165.6682 C   0  0  0  0  0  0  0  0  0  0  0  0
  127.3678  139.0084  167.0468 C   0  0  0  0  0  0  0  0  0  0  0  0
  127.3157  137.8731  167.8291 C   0  0  0  0  0  0  0  0  0  0  0  0
  127.3006  136.6140  167.2262 C   0  0  0  0  0  0  0  0  0  0  0  0
  127.2470  135.4313  168.0319 C   0  0  0  0  0  0  0  0  0  0  0  0
  127.2047  134.4931  168.6709 N   0  0  0  0  0  0  0  0  0  0  0  0
  127.3384  136.5131  165.8338 C   0  0  0  0  0  0  0  0  0  0  0  0
  129.4238  134.7374  158.0282 C   0  0  0  0  0  0  0  0  0  0  0  0
  129.5359  133.2181  158.1481 C   0  0  1  0  0  0  0  0  0  0  0  0
  130.5852  132.5782  157.2530 C   0  0  0  0  0  0  0  0  0  0  0  0
  130.7133  129.4131  156.4627 H   0  0  0  0  0  0  0  0  0  0  0  0
  131.7546  130.7252  155.8608 H   0  0  0  0  0  0  0  0  0  0  0  0
  132.2863  129.7262  157.2347 H   0  0  0  0  0  0  0  0  0  0  0  0
  131.0484  128.7509  158.2698 H   0  0  0  0  0  0  0  0  0  0  0  0
  131.3191  129.1374  159.9861 H   0  0  0  0  0  0  0  0  0  0  0  0
  129.6794  128.7569  159.4074 H   0  0  0  0  0  0  0  0  0  0  0  0
  128.6514  131.3438  159.9261 H   0  0  0  0  0  0  0  0  0  0  0  0
  130.1413  131.2747  160.9045 H   0  0  0  0  0  0  0  0  0  0  0  0
  129.5616  134.2428  161.3461 H   0  0  0  0  0  0  0  0  0  0  0  0
  128.1176  133.5999  160.5012 H   0  0  0  0  0  0  0  0  0  0  0  0
  128.1257  135.7154  159.4763 H   0  0  0  0  0  0  0  0  0  0  0  0
  130.8426  136.4593  159.2757 H   0  0  0  0  0  0  0  0  0  0  0  0
  131.2143  137.4805  162.6788 H   0  0  0  0  0  0  0  0  0  0  0  0
  132.5266  136.0326  160.4846 H   0  0  0  0  0  0  0  0  0  0  0  0
  133.4081  137.3662  163.0638 H   0  0  0  0  0  0  0  0  0  0  0  0
  133.9678  135.8260  162.3424 H   0  0  0  0  0  0  0  0  0  0  0  0
  135.8680  137.5258  161.7872 H   0  0  0  0  0  0  0  0  0  0  0  0
  135.0505  138.9145  159.8406 H   0  0  0  0  0  0  0  0  0  0  0  0
  132.6675  138.0366  159.2457 H   0  0  0  0  0  0  0  0  0  0  0  0
  132.4115  139.0573  160.6931 H   0  0  0  0  0  0  0  0  0  0  0  0
  129.4528  136.8363  163.7789 H   0  0  0  0  0  0  0  0  0  0  0  0
  129.3200  138.4695  163.0834 H   0  0  0  0  0  0  0  0  0  0  0  0
  127.2318  139.5359  163.2229 H   0  0  0  0  0  0  0  0  0  0  0  0
  127.4556  139.7927  165.0607 H   0  0  0  0  0  0  0  0  0  0  0  0
  127.3796  139.9830  167.5118 H   0  0  0  0  0  0  0  0  0  0  0  0
  127.2864  137.9582  168.9053 H   0  0  0  0  0  0  0  0  0  0  0  0
  127.3266  135.5421  165.3609 H   0  0  0  0  0  0  0  0  0  0  0  0
  130.3663  135.1581  157.6777 H   0  0  0  0  0  0  0  0  0  0  0  0
  128.6155  135.0029  157.3469 H   0  0  0  0  0  0  0  0  0  0  0  0
  128.5641  132.7527  157.9839 H   0  0  0  0  0  0  0  0  0  0  0  0
  131.5282  133.1167  157.3463 H   0  0  0  0  0  0  0  0  0  0  0  0
  130.2495  132.5986  156.2162 H   0  0  0  0  0  0  0  0  0  0  0  0
  1  2  1  0
  1 35  1  0
  1 36  1  0
  1 37  1  0
  2 34  1  0
  2  3  2  0
  3  4  1  0
  3  5  1  0
  4 38  1  0
  4 39  1  0
  4 40  1  0
  5  6  1  0
  5 41  1  0
  5 42  1  0
  6  7  1  6
  6 33  1  0
  6  8  1  0
  8  9  1  0
  8 43  1  0
  8 44  1  0
  9 10  1  0
  9 32  1  0
  9 45  1  0
 10 46  1  0
 11 10  1  0
 11 12  1  0
 11 18  2  0
 12 13  1  0
 12 47  1  0
 13 17  1  0
 13 14  1  0
 13 48  1  0
 14 15  1  0
 14 49  1  0
 14 50  1  0
 15 16  2  0
 15 51  1  0
 16 17  1  0
 16 52  1  0
 17 53  1  0
 17 54  1  0
 18 19  1  0
 18 20  1  0
 20 21  1  0
 20 55  1  0
 20 56  1  0
 21 22  1  1
 21 23  1  0
 21 24  1  0
 23 57  1  0
 24 31  1  0
 24 25  2  0
 25 26  1  0
 25 58  1  0
 26 27  2  0
 26 59  1  0
 27 28  1  0
 27 60  1  0
 28 29  1  0
 28 31  2  0
 29 30  3  0
 31 61  1  0
 32 33  1  0
 32 62  1  0
 32 63  1  0
 33 34  1  0
 33 64  1  1
 34 65  1  0
 34 66  1  0
M  CHG  1  18   1
M  END
>  <DOCK_score>  (1) 
-44.555553

>  <SMILES>  (1) 
CC1=C(C)C[C@@H]2CC(NC(NC3CC=CC3)=[NH+]C[C@H](O)c3cccc(C#N)c3)CC2C1

$$$$
