c1cc(-c2n[nH]cc2C[NH2+]C[C@H]2CC3CC2C3)oc1NC1CC(=C2CC2)C1
     RDKit          3D

 56 61  0  0  1  0  0  0  0  0999 V2000
  126.1514  134.3046  160.7202 C   0  0  0  0  0  0  0  0  0  0  0  0
  127.0778  133.6409  159.8919 C   0  0  0  0  0  0  0  0  0  0  0  0
  128.2516  134.3186  159.9921 C   0  0  0  0  0  0  0  0  0  0  0  0
  129.5088  133.9801  159.2936 C   0  0  0  0  0  0  0  0  0  0  0  0
  129.6888  132.9704  158.4647 N   0  0  0  0  0  0  0  0  0  0  0  0
  131.0173  133.0035  158.0219 N   0  0  0  0  0  0  0  0  0  0  0  0
  131.4264  132.3782  157.4033 H   0  0  0  0  0  0  0  0  0  0  0  0
  131.6286  134.0599  158.6003 C   0  0  0  0  0  0  0  0  0  0  0  0
  130.7295  134.6800  159.3943 C   0  0  0  0  0  0  0  0  0  0  0  0
  130.9833  135.9057  160.2335 C   0  0  0  0  0  0  0  0  0  0  0  0
  132.3788  136.3334  160.0664 N   0  0  0  0  0  0  0  0  0  0  0  0
  132.5505  136.5488  159.0958 H   0  0  0  0  0  0  0  0  0  0  0  0
  132.9955  135.5908  160.3604 H   0  0  0  0  0  0  0  0  0  0  0  0
  132.6262  137.5281  160.8845 C   0  0  0  0  0  0  0  0  0  0  0  0
  134.0795  137.9734  160.7104 C   0  0  1  0  0  0  0  0  0  0  0  0
  134.7724  137.1911  161.0201 H   0  0  0  0  0  0  0  0  0  0  0  0
  134.3620  138.4401  159.2501 C   0  0  0  0  0  0  0  0  0  0  0  0
  134.7346  139.9355  159.5338 C   0  0  2  0  0  0  0  0  0  0  0  0
  135.6266  139.9593  160.8123 C   0  0  0  0  0  0  0  0  0  0  0  0
  134.3618  139.3195  161.4614 C   0  0  1  0  0  0  0  0  0  0  0  0
  133.6577  140.3670  160.5616 C   0  0  0  0  0  0  0  0  0  0  0  0
  128.0735  135.3503  160.8438 O   0  0  0  0  0  0  0  0  0  0  0  0
  126.8037  135.3518  161.2838 C   0  0  0  0  0  0  0  0  0  0  0  0
  126.2530  136.2689  162.1714 N   0  0  0  0  0  0  0  0  0  0  0  0
  127.0982  136.9069  163.1837 C   0  0  0  0  0  0  0  0  0  0  0  0
  126.5392  138.2435  163.7014 C   0  0  0  0  0  0  0  0  0  0  0  0
  127.9645  138.7577  163.6577 C   0  0  0  0  0  0  0  0  0  0  0  0
  128.6445  139.6928  164.2735 C   0  0  0  0  0  0  0  0  0  0  0  0
  129.9433  140.4267  164.4868 C   0  0  0  0  0  0  0  0  0  0  0  0
  128.6953  140.8087  165.2851 C   0  0  0  0  0  0  0  0  0  0  0  0
  128.2619  137.7210  162.5924 C   0  0  0  0  0  0  0  0  0  0  0  0
  125.1184  134.0312  160.8771 H   0  0  0  0  0  0  0  0  0  0  0  0
  126.8910  132.7625  159.2919 H   0  0  0  0  0  0  0  0  0  0  0  0
  132.6571  134.3554  158.4551 H   0  0  0  0  0  0  0  0  0  0  0  0
  130.7978  135.6729  161.2821 H   0  0  0  0  0  0  0  0  0  0  0  0
  130.3171  136.7078  159.9160 H   0  0  0  0  0  0  0  0  0  0  0  0
  132.4406  137.2953  161.9330 H   0  0  0  0  0  0  0  0  0  0  0  0
  131.9598  138.3301  160.5670 H   0  0  0  0  0  0  0  0  0  0  0  0
  135.1995  137.8965  158.8127 H   0  0  0  0  0  0  0  0  0  0  0  0
  133.4711  138.3616  158.6270 H   0  0  0  0  0  0  0  0  0  0  0  0
  134.9751  140.5735  158.6833 H   0  0  0  0  0  0  0  0  0  0  0  0
  136.4925  139.2988  160.7687 H   0  0  0  0  0  0  0  0  0  0  0  0
  135.8624  140.9590  161.1773 H   0  0  0  0  0  0  0  0  0  0  0  0
  134.2283  139.3401  162.5429 H   0  0  0  0  0  0  0  0  0  0  0  0
  133.7578  141.3952  160.9095 H   0  0  0  0  0  0  0  0  0  0  0  0
  132.6385  140.1021  160.2799 H   0  0  0  0  0  0  0  0  0  0  0  0
  125.3090  136.4864  162.1206 H   0  0  0  0  0  0  0  0  0  0  0  0
  127.4015  136.2220  163.9756 H   0  0  0  0  0  0  0  0  0  0  0  0
  125.8728  138.7411  162.9969 H   0  0  0  0  0  0  0  0  0  0  0  0
  126.1261  138.1843  164.7083 H   0  0  0  0  0  0  0  0  0  0  0  0
  130.7370  139.9026  165.0194 H   0  0  0  0  0  0  0  0  0  0  0  0
  130.2724  141.1077  163.7020 H   0  0  0  0  0  0  0  0  0  0  0  0
  128.1956  141.7432  165.0303 H   0  0  0  0  0  0  0  0  0  0  0  0
  128.6725  140.5343  166.3398 H   0  0  0  0  0  0  0  0  0  0  0  0
  129.2340  137.2418  162.7075 H   0  0  0  0  0  0  0  0  0  0  0  0
  128.0786  138.0723  161.5769 H   0  0  0  0  0  0  0  0  0  0  0  0
  1 23  2  0
  1  2  1  0
  1 32  1  0
  2  3  2  0
  2 33  1  0
  3  4  1  0
  3 22  1  0
  4  9  1  0
  4  5  2  0
  5  6  1  0
  6  7  1  0
  6  8  1  0
  8  9  2  0
  8 34  1  0
  9 10  1  0
 10 11  1  0
 10 35  1  0
 10 36  1  0
 11 12  1  0
 11 13  1  0
 11 14  1  0
 14 15  1  0
 14 37  1  0
 14 38  1  0
 15 16  1  1
 15 20  1  0
 15 17  1  0
 17 18  1  0
 17 39  1  0
 17 40  1  0
 18 21  1  0
 18 19  1  0
 18 41  1  6
 19 20  1  0
 19 42  1  0
 19 43  1  0
 20 21  1  0
 20 44  1  1
 21 45  1  0
 21 46  1  0
 22 23  1  0
 23 24  1  0
 24 25  1  0
 24 47  1  0
 25 31  1  0
 25 26  1  0
 25 48  1  0
 26 27  1  0
 26 49  1  0
 26 50  1  0
 27 28  2  0
 27 31  1  0
 28 30  1  0
 28 29  1  0
 29 30  1  0
 29 51  1  0
 29 52  1  0
 30 53  1  0
 30 54  1  0
 31 55  1  0
 31 56  1  0
M  CHG  1  11   1
M  END
>  <DOCK_score>  (1) 
-46.331238

>  <SMILES>  (1) 
c1cc(-c2n[nH]cc2C[NH2+]C[C@H]2CC3CC2C3)oc1NC1CC(=C2CC2)C1

$$$$
