ClC[C@H](Cc1ccc(Cl)cc1)N1CC[NH+](Cc2ccc(NC3CC3)cc2)CC1
     RDKit          3D

 58 61  0  0  1  0  0  0  0  0999 V2000
  129.6849  130.3414  159.5015 Cl  0  0  0  0  0  0  0  0  0  0  0  0
  130.5036  130.4740  157.9008 C   0  0  0  0  0  0  0  0  0  0  0  0
  130.0398  131.7497  157.1948 C   0  0  2  0  0  0  0  0  0  0  0  0
  129.0663  131.5774  156.7357 H   0  0  0  0  0  0  0  0  0  0  0  0
  131.0531  132.1316  156.1139 C   0  0  0  0  0  0  0  0  0  0  0  0
  130.8196  131.2893  154.8864 C   0  0  0  0  0  0  0  0  0  0  0  0
  131.4767  130.0816  154.7420 C   0  0  0  0  0  0  0  0  0  0  0  0
  131.2587  129.3060  153.6188 C   0  0  0  0  0  0  0  0  0  0  0  0
  130.3912  129.7437  152.6340 C   0  0  0  0  0  0  0  0  0  0  0  0
  130.1227  128.7736  151.2196 Cl  0  0  0  0  0  0  0  0  0  0  0  0
  129.7384  130.9551  152.7764 C   0  0  0  0  0  0  0  0  0  0  0  0
  129.9528  131.7272  153.9025 C   0  0  0  0  0  0  0  0  0  0  0  0
  129.9336  132.8400  158.1736 N   0  0  0  0  0  0  0  0  0  0  0  0
  131.2614  133.3616  158.5273 C   0  0  0  0  0  0  0  0  0  0  0  0
  131.1111  134.4519  159.5905 C   0  0  0  0  0  0  0  0  0  0  0  0
  130.2649  135.5326  159.0676 N   0  0  0  0  0  0  0  0  0  0  0  0
  130.6865  135.9168  158.2352 H   0  0  0  0  0  0  0  0  0  0  0  0
  130.1355  136.5872  160.0820 C   0  0  0  0  0  0  0  0  0  0  0  0
  131.4998  137.1337  160.4154 C   0  0  0  0  0  0  0  0  0  0  0  0
  132.2384  136.5680  161.4384 C   0  0  0  0  0  0  0  0  0  0  0  0
  133.4915  137.0628  161.7427 C   0  0  0  0  0  0  0  0  0  0  0  0
  134.0048  138.1371  161.0274 C   0  0  0  0  0  0  0  0  0  0  0  0
  135.2694  138.6432  161.3363 N   0  0  0  0  0  0  0  0  0  0  0  0
  136.0880  139.2586  160.2882 C   0  0  0  0  0  0  0  0  0  0  0  0
  137.5357  139.6094  160.6375 C   0  0  0  0  0  0  0  0  0  0  0  0
  136.4955  140.7210  160.4775 C   0  0  0  0  0  0  0  0  0  0  0  0
  133.2578  138.7066  160.0040 C   0  0  0  0  0  0  0  0  0  0  0  0
  132.0078  138.2034  159.7012 C   0  0  0  0  0  0  0  0  0  0  0  0
  128.9349  135.0012  158.7418 C   0  0  0  0  0  0  0  0  0  0  0  0
  129.0669  133.9157  157.6717 C   0  0  0  0  0  0  0  0  0  0  0  0
  130.2496  129.6079  157.2898 H   0  0  0  0  0  0  0  0  0  0  0  0
  131.5832  130.5116  158.0467 H   0  0  0  0  0  0  0  0  0  0  0  0
  130.9338  133.1848  155.8600 H   0  0  0  0  0  0  0  0  0  0  0  0
  132.0632  131.9597  156.4857 H   0  0  0  0  0  0  0  0  0  0  0  0
  132.1571  129.7420  155.5088 H   0  0  0  0  0  0  0  0  0  0  0  0
  131.7686  128.3604  153.5082 H   0  0  0  0  0  0  0  0  0  0  0  0
  129.0614  131.2974  152.0077 H   0  0  0  0  0  0  0  0  0  0  0  0
  129.4435  132.6730  154.0136 H   0  0  0  0  0  0  0  0  0  0  0  0
  131.7353  133.7816  157.6401 H   0  0  0  0  0  0  0  0  0  0  0  0
  131.8770  132.5526  158.9204 H   0  0  0  0  0  0  0  0  0  0  0  0
  132.0937  134.8500  159.8439 H   0  0  0  0  0  0  0  0  0  0  0  0
  130.6496  134.0283  160.4824 H   0  0  0  0  0  0  0  0  0  0  0  0
  129.5076  137.3893  159.6942 H   0  0  0  0  0  0  0  0  0  0  0  0
  129.6806  136.1723  160.9815 H   0  0  0  0  0  0  0  0  0  0  0  0
  131.8369  135.7358  161.9973 H   0  0  0  0  0  0  0  0  0  0  0  0
  134.0696  136.6177  162.5389 H   0  0  0  0  0  0  0  0  0  0  0  0
  135.6058  138.5876  162.2441 H   0  0  0  0  0  0  0  0  0  0  0  0
  135.8831  138.9206  159.2725 H   0  0  0  0  0  0  0  0  0  0  0  0
  137.8790  139.3827  161.6468 H   0  0  0  0  0  0  0  0  0  0  0  0
  138.2832  139.5028  159.8513 H   0  0  0  0  0  0  0  0  0  0  0  0
  136.5591  141.3452  159.5862 H   0  0  0  0  0  0  0  0  0  0  0  0
  136.1543  141.2257  161.3815 H   0  0  0  0  0  0  0  0  0  0  0  0
  133.6540  139.5419  159.4456 H   0  0  0  0  0  0  0  0  0  0  0  0
  131.4263  138.6460  158.9059 H   0  0  0  0  0  0  0  0  0  0  0  0
  128.4845  134.5748  159.6382 H   0  0  0  0  0  0  0  0  0  0  0  0
  128.3039  135.8065  158.3661 H   0  0  0  0  0  0  0  0  0  0  0  0
  129.5047  134.3448  156.7704 H   0  0  0  0  0  0  0  0  0  0  0  0
  128.0817  133.5109  157.4402 H   0  0  0  0  0  0  0  0  0  0  0  0
  1  2  1  0
  2  3  1  0
  2 31  1  0
  2 32  1  0
  3  4  1  6
  3  5  1  0
  3 13  1  0
  5  6  1  0
  5 33  1  0
  5 34  1  0
  6 12  1  0
  6  7  2  0
  7  8  1  0
  7 35  1  0
  8  9  2  0
  8 36  1  0
  9 10  1  0
  9 11  1  0
 11 12  2  0
 11 37  1  0
 12 38  1  0
 13 30  1  0
 13 14  1  0
 14 15  1  0
 14 39  1  0
 14 40  1  0
 15 16  1  0
 15 41  1  0
 15 42  1  0
 16 17  1  0
 16 18  1  0
 16 29  1  0
 18 19  1  0
 18 43  1  0
 18 44  1  0
 19 28  1  0
 19 20  2  0
 20 21  1  0
 20 45  1  0
 21 22  2  0
 21 46  1  0
 22 23  1  0
 22 27  1  0
 23 24  1  0
 23 47  1  0
 24 26  1  0
 24 25  1  0
 24 48  1  0
 25 26  1  0
 25 49  1  0
 25 50  1  0
 26 51  1  0
 26 52  1  0
 27 28  2  0
 27 53  1  0
 28 54  1  0
 29 30  1  0
 29 55  1  0
 29 56  1  0
 30 57  1  0
 30 58  1  0
M  CHG  1  16   1
M  END
>  <DOCK_score>  (1) 
-59.073048

>  <SMILES>  (1) 
ClC[C@H](Cc1ccc(Cl)cc1)N1CC[NH+](Cc2ccc(NC3CC3)cc2)CC1

$$$$
