CCc1ccc(-c2c[nH]c(N[C@@H](CC)c3ccc(C(F)(F)F)cc3)[nH+]2)cc1
     RDKit          3D

 50 52  0  0  1  0  0  0  0  0999 V2000
  130.1641  128.4954  151.6138 C   0  0  0  0  0  0  0  0  0  0  0  0
  131.2509  129.5524  151.8192 C   0  0  0  0  0  0  0  0  0  0  0  0
  131.0092  130.2758  153.1190 C   0  0  0  0  0  0  0  0  0  0  0  0
  131.5753  129.8001  154.2875 C   0  0  0  0  0  0  0  0  0  0  0  0
  131.3621  130.4615  155.4799 C   0  0  0  0  0  0  0  0  0  0  0  0
  130.5651  131.6045  155.5068 C   0  0  0  0  0  0  0  0  0  0  0  0
  130.3277  132.3166  156.7862 C   0  0  0  0  0  0  0  0  0  0  0  0
  129.7505  131.7928  157.8959 C   0  0  0  0  0  0  0  0  0  0  0  0
  129.7280  132.7890  158.8415 N   0  0  0  0  0  0  0  0  0  0  0  0
  129.3746  132.7184  159.7421 H   0  0  0  0  0  0  0  0  0  0  0  0
  130.2926  133.8934  158.2815 C   0  0  0  0  0  0  0  0  0  0  0  0
  130.4617  135.1173  158.9060 N   0  0  0  0  0  0  0  0  0  0  0  0
  130.6561  135.1787  160.3568 C   0  0  1  0  0  0  0  0  0  0  0  0
  130.0003  134.4559  160.8421 H   0  0  0  0  0  0  0  0  0  0  0  0
  132.1127  134.8504  160.6905 C   0  0  0  0  0  0  0  0  0  0  0  0
  132.4458  133.4432  160.1905 C   0  0  0  0  0  0  0  0  0  0  0  0
  130.3281  136.5647  160.8493 C   0  0  0  0  0  0  0  0  0  0  0  0
  131.0336  137.6531  160.3713 C   0  0  0  0  0  0  0  0  0  0  0  0
  130.7295  138.9249  160.8195 C   0  0  0  0  0  0  0  0  0  0  0  0
  129.7268  139.1072  161.7534 C   0  0  0  0  0  0  0  0  0  0  0  0
  129.3994  140.4931  162.2467 C   0  0  0  0  0  0  0  0  0  0  0  0
  130.2374  141.4214  161.6195 F   0  0  0  0  0  0  0  0  0  0  0  0
  128.0659  140.7917  161.9471 F   0  0  0  0  0  0  0  0  0  0  0  0
  129.5910  140.5527  163.6311 F   0  0  0  0  0  0  0  0  0  0  0  0
  129.0247  138.0183  162.2353 C   0  0  0  0  0  0  0  0  0  0  0  0
  129.3253  136.7470  161.7832 C   0  0  0  0  0  0  0  0  0  0  0  0
  130.6550  133.6055  157.0552 N   0  0  0  0  0  0  0  0  0  0  0  0
  131.0861  134.2170  156.4379 H   0  0  0  0  0  0  0  0  0  0  0  0
  129.9923  132.0764  154.3270 C   0  0  0  0  0  0  0  0  0  0  0  0
  130.2171  131.4102  153.1394 C   0  0  0  0  0  0  0  0  0  0  0  0
  129.1875  128.9787  151.5847 H   0  0  0  0  0  0  0  0  0  0  0  0
  130.3389  127.9724  150.6737 H   0  0  0  0  0  0  0  0  0  0  0  0
  130.1919  127.7818  152.4372 H   0  0  0  0  0  0  0  0  0  0  0  0
  132.2271  129.0697  151.8478 H   0  0  0  0  0  0  0  0  0  0  0  0
  131.2228  130.2667  150.9953 H   0  0  0  0  0  0  0  0  0  0  0  0
  132.1888  128.9115  154.2663 H   0  0  0  0  0  0  0  0  0  0  0  0
  131.8085  130.0917  156.3911 H   0  0  0  0  0  0  0  0  0  0  0  0
  129.3793  130.7855  158.0136 H   0  0  0  0  0  0  0  0  0  0  0  0
  130.4516  135.9341  158.3830 H   0  0  0  0  0  0  0  0  0  0  0  0
  132.7684  135.5731  160.2052 H   0  0  0  0  0  0  0  0  0  0  0  0
  132.2573  134.8961  161.7698 H   0  0  0  0  0  0  0  0  0  0  0  0
  131.7899  132.7204  160.6759 H   0  0  0  0  0  0  0  0  0  0  0  0
  132.3012  133.3975  159.1110 H   0  0  0  0  0  0  0  0  0  0  0  0
  133.4835  133.2094  160.4283 H   0  0  0  0  0  0  0  0  0  0  0  0
  131.8201  137.5102  159.6449 H   0  0  0  0  0  0  0  0  0  0  0  0
  131.2783  139.7757  160.4434 H   0  0  0  0  0  0  0  0  0  0  0  0
  128.2415  138.1607  162.9653 H   0  0  0  0  0  0  0  0  0  0  0  0
  128.7771  135.8961  162.1600 H   0  0  0  0  0  0  0  0  0  0  0  0
  129.3737  132.9616  154.3421 H   0  0  0  0  0  0  0  0  0  0  0  0
  129.7735  131.7747  152.2246 H   0  0  0  0  0  0  0  0  0  0  0  0
  1  2  1  0
  1 31  1  0
  1 32  1  0
  1 33  1  0
  2  3  1  0
  2 34  1  0
  2 35  1  0
  3 30  2  0
  3  4  1  0
  4  5  2  0
  4 36  1  0
  5  6  1  0
  5 37  1  0
  6  7  1  0
  6 29  2  0
  7 27  1  0
  7  8  2  0
  8  9  1  0
  8 38  1  0
  9 10  1  0
  9 11  1  0
 11 12  1  0
 11 27  2  0
 12 13  1  0
 12 39  1  0
 13 14  1  1
 13 15  1  0
 13 17  1  0
 15 16  1  0
 15 40  1  0
 15 41  1  0
 16 42  1  0
 16 43  1  0
 16 44  1  0
 17 26  1  0
 17 18  2  0
 18 19  1  0
 18 45  1  0
 19 20  2  0
 19 46  1  0
 20 21  1  0
 20 25  1  0
 21 22  1  0
 21 23  1  0
 21 24  1  0
 25 26  2  0
 25 47  1  0
 26 48  1  0
 27 28  1  0
 29 30  1  0
 29 49  1  0
 30 50  1  0
M  CHG  1  27   1
M  END
>  <DOCK_score>  (1) 
-55.97435

>  <SMILES>  (1) 
CCc1ccc(-c2c[nH]c(N[C@@H](CC)c3ccc(C(F)(F)F)cc3)[nH+]2)cc1

$$$$
