CCNc1ccccc1C[NH2+]Cc1c[nH]nc1-c1ccc(NCC2C[C@H]3C=CC2CC3)o1
     RDKit          3D

 66 70  0  0  1  0  0  0  0  0999 V2000
  132.2340  135.3958  164.9363 C   0  0  0  0  0  0  0  0  0  0  0  0
  131.8819  134.9541  163.5145 C   0  0  0  0  0  0  0  0  0  0  0  0
  131.6630  136.1355  162.6763 N   0  0  0  0  0  0  0  0  0  0  0  0
  132.7320  136.7079  161.9832 C   0  0  0  0  0  0  0  0  0  0  0  0
  134.0380  136.4472  162.3790 C   0  0  0  0  0  0  0  0  0  0  0  0
  135.0923  137.0192  161.6952 C   0  0  0  0  0  0  0  0  0  0  0  0
  134.8497  137.8465  160.6136 C   0  0  0  0  0  0  0  0  0  0  0  0
  133.5515  138.1031  160.2132 C   0  0  0  0  0  0  0  0  0  0  0  0
  132.4921  137.5345  160.8931 C   0  0  0  0  0  0  0  0  0  0  0  0
  131.0775  137.8158  160.4566 C   0  0  0  0  0  0  0  0  0  0  0  0
  130.6594  136.8085  159.4723 N   0  0  0  0  0  0  0  0  0  0  0  0
  131.2722  136.8459  158.6717 H   0  0  0  0  0  0  0  0  0  0  0  0
  129.7121  136.9967  159.1801 H   0  0  0  0  0  0  0  0  0  0  0  0
  130.7280  135.4725  160.0795 C   0  0  0  0  0  0  0  0  0  0  0  0
  130.2990  134.4392  159.0698 C   0  0  0  0  0  0  0  0  0  0  0  0
  131.1059  133.7941  158.2004 C   0  0  0  0  0  0  0  0  0  0  0  0
  130.3443  132.9519  157.4690 N   0  0  0  0  0  0  0  0  0  0  0  0
  130.6615  132.3621  156.7672 H   0  0  0  0  0  0  0  0  0  0  0  0
  129.0162  133.0816  157.8948 N   0  0  0  0  0  0  0  0  0  0  0  0
  128.9830  133.9740  158.8650 C   0  0  0  0  0  0  0  0  0  0  0  0
  127.7802  134.4132  159.6022 C   0  0  0  0  0  0  0  0  0  0  0  0
  126.5132  133.9660  159.3971 C   0  0  0  0  0  0  0  0  0  0  0  0
  125.6872  134.6454  160.3142 C   0  0  0  0  0  0  0  0  0  0  0  0
  126.4874  135.4774  161.0267 C   0  0  0  0  0  0  0  0  0  0  0  0
  126.0712  136.3365  162.0371 N   0  0  0  0  0  0  0  0  0  0  0  0
  127.0475  137.1836  162.7267 C   0  0  0  0  0  0  0  0  0  0  0  0
  126.5825  137.4321  164.1630 C   0  0  2  0  0  0  0  0  0  0  0  0
  125.5196  138.5332  164.1714 C   0  0  0  0  0  0  0  0  0  0  0  0
  126.0023  139.7064  165.0331 C   0  0  1  0  0  0  0  0  0  0  0  0
  125.2464  140.4892  165.0962 H   0  0  0  0  0  0  0  0  0  0  0  0
  126.3340  139.1641  166.4155 C   0  0  0  0  0  0  0  0  0  0  0  0
  127.2587  138.2069  166.4082 C   0  0  0  0  0  0  0  0  0  0  0  0
  127.7786  137.8674  165.0191 C   0  0  2  0  0  0  0  0  0  0  0  0
  128.3637  139.1508  164.4138 C   0  0  0  0  0  0  0  0  0  0  0  0
  127.3005  140.2513  164.4222 C   0  0  0  0  0  0  0  0  0  0  0  0
  127.7503  135.3315  160.5908 O   0  0  0  0  0  0  0  0  0  0  0  0
  133.1414  135.9995  164.9152 H   0  0  0  0  0  0  0  0  0  0  0  0
  131.4146  135.9858  165.3468 H   0  0  0  0  0  0  0  0  0  0  0  0
  132.3968  134.5168  165.5600 H   0  0  0  0  0  0  0  0  0  0  0  0
  130.9746  134.3504  163.5356 H   0  0  0  0  0  0  0  0  0  0  0  0
  132.7014  134.3641  163.1039 H   0  0  0  0  0  0  0  0  0  0  0  0
  130.7756  136.5201  162.6025 H   0  0  0  0  0  0  0  0  0  0  0  0
  134.2282  135.8013  163.2234 H   0  0  0  0  0  0  0  0  0  0  0  0
  136.1077  136.8203  162.0049 H   0  0  0  0  0  0  0  0  0  0  0  0
  135.6762  138.2926  160.0804 H   0  0  0  0  0  0  0  0  0  0  0  0
  133.3655  138.7492  159.3680 H   0  0  0  0  0  0  0  0  0  0  0  0
  131.0265  138.8069  160.0059 H   0  0  0  0  0  0  0  0  0  0  0  0
  130.4154  137.7754  161.3214 H   0  0  0  0  0  0  0  0  0  0  0  0
  130.0661  135.4321  160.9445 H   0  0  0  0  0  0  0  0  0  0  0  0
  131.7513  135.2690  160.3952 H   0  0  0  0  0  0  0  0  0  0  0  0
  132.1733  133.9280  158.1064 H   0  0  0  0  0  0  0  0  0  0  0  0
  126.2001  133.2296  158.6719 H   0  0  0  0  0  0  0  0  0  0  0  0
  124.6193  134.5289  160.4262 H   0  0  0  0  0  0  0  0  0  0  0  0
  125.1344  136.3752  162.2855 H   0  0  0  0  0  0  0  0  0  0  0  0
  128.0165  136.6845  162.7397 H   0  0  0  0  0  0  0  0  0  0  0  0
  127.1360  138.1356  162.2036 H   0  0  0  0  0  0  0  0  0  0  0  0
  126.1583  136.5148  164.5712 H   0  0  0  0  0  0  0  0  0  0  0  0
  125.3464  138.8784  163.1522 H   0  0  0  0  0  0  0  0  0  0  0  0
  124.5910  138.1381  164.5833 H   0  0  0  0  0  0  0  0  0  0  0  0
  125.8626  139.5223  167.3188 H   0  0  0  0  0  0  0  0  0  0  0  0
  127.6074  137.7165  167.3050 H   0  0  0  0  0  0  0  0  0  0  0  0
  128.5320  137.0806  165.0590 H   0  0  0  0  0  0  0  0  0  0  0  0
  129.2228  139.4714  165.0029 H   0  0  0  0  0  0  0  0  0  0  0  0
  128.6782  138.9579  163.3881 H   0  0  0  0  0  0  0  0  0  0  0  0
  127.6551  141.0943  165.0152 H   0  0  0  0  0  0  0  0  0  0  0  0
  127.1107  140.5806  163.4005 H   0  0  0  0  0  0  0  0  0  0  0  0
  1  2  1  0
  1 37  1  0
  1 38  1  0
  1 39  1  0
  2  3  1  0
  2 40  1  0
  2 41  1  0
  3  4  1  0
  3 42  1  0
  4  9  2  0
  4  5  1  0
  5  6  2  0
  5 43  1  0
  6  7  1  0
  6 44  1  0
  7  8  2  0
  7 45  1  0
  8  9  1  0
  8 46  1  0
  9 10  1  0
 10 11  1  0
 10 47  1  0
 10 48  1  0
 11 12  1  0
 11 13  1  0
 11 14  1  0
 14 15  1  0
 14 49  1  0
 14 50  1  0
 15 20  1  0
 15 16  2  0
 16 17  1  0
 16 51  1  0
 17 18  1  0
 17 19  1  0
 19 20  2  0
 20 21  1  0
 21 36  1  0
 21 22  2  0
 22 23  1  0
 22 52  1  0
 23 24  2  0
 23 53  1  0
 24 25  1  0
 24 36  1  0
 25 26  1  0
 25 54  1  0
 26 27  1  0
 26 55  1  0
 26 56  1  0
 27 33  1  0
 27 28  1  0
 27 57  1  1
 28 29  1  0
 28 58  1  0
 28 59  1  0
 29 30  1  1
 29 35  1  0
 29 31  1  0
 31 32  2  0
 31 60  1  0
 32 33  1  0
 32 61  1  0
 33 34  1  0
 33 62  1  1
 34 35  1  0
 34 63  1  0
 34 64  1  0
 35 65  1  0
 35 66  1  0
M  CHG  1  11   1
M  END
>  <DOCK_score>  (1) 
-46.664913

>  <SMILES>  (1) 
CCNc1ccccc1C[NH2+]Cc1c[nH]nc1-c1ccc(NCC2C[C@H]3C=CC2CC3)o1

$$$$
