CCc1ccc(-c2c[nH]c(N[C@@H](C=Cc3cn(-c4ccc(F)cc4)nc3C)c3ccnn3C)[nH+]2)cc1
     RDKit          3D

 65 69  0  0  1  0  0  0  0  0999 V2000
  130.4590  128.3848  151.6242 C   0  0  0  0  0  0  0  0  0  0  0  0
  131.5473  129.4251  151.8962 C   0  0  0  0  0  0  0  0  0  0  0  0
  131.2130  130.1848  153.1540 C   0  0  0  0  0  0  0  0  0  0  0  0
  131.6687  129.7272  154.3768 C   0  0  0  0  0  0  0  0  0  0  0  0
  131.3705  130.4218  155.5315 C   0  0  0  0  0  0  0  0  0  0  0  0
  130.5988  131.5805  155.4648 C   0  0  0  0  0  0  0  0  0  0  0  0
  130.2702  132.3284  156.7029 C   0  0  0  0  0  0  0  0  0  0  0  0
  129.5908  131.8436  157.7717 C   0  0  0  0  0  0  0  0  0  0  0  0
  129.5105  132.8630  158.6889 N   0  0  0  0  0  0  0  0  0  0  0  0
  129.0813  132.8215  159.5578 H   0  0  0  0  0  0  0  0  0  0  0  0
  130.1438  133.9420  158.1533 C   0  0  0  0  0  0  0  0  0  0  0  0
  130.2862  135.1774  158.7617 N   0  0  0  0  0  0  0  0  0  0  0  0
  129.7288  135.4048  160.0973 C   0  0  1  0  0  0  0  0  0  0  0  0
  129.8925  134.5216  160.7145 H   0  0  0  0  0  0  0  0  0  0  0  0
  130.4077  136.5925  160.7293 C   0  0  0  0  0  0  0  0  0  0  0  0
  131.5015  136.4204  161.4575 C   0  0  0  0  0  0  0  0  0  0  0  0
  132.1679  137.5859  162.0778 C   0  0  0  0  0  0  0  0  0  0  0  0
  132.3818  137.7780  163.4140 C   0  0  0  0  0  0  0  0  0  0  0  0
  133.0172  138.9610  163.5586 N   0  0  0  0  0  0  0  0  0  0  0  0
  133.4220  139.5332  164.7730 C   0  0  0  0  0  0  0  0  0  0  0  0
  134.0746  140.7585  164.7807 C   0  0  0  0  0  0  0  0  0  0  0  0
  134.4693  141.3221  165.9780 C   0  0  0  0  0  0  0  0  0  0  0  0
  134.2224  140.6617  167.1701 C   0  0  0  0  0  0  0  0  0  0  0  0
  134.6133  141.2124  168.3401 F   0  0  0  0  0  0  0  0  0  0  0  0
  133.5758  139.4371  167.1640 C   0  0  0  0  0  0  0  0  0  0  0  0
  133.1758  138.8722  165.9690 C   0  0  0  0  0  0  0  0  0  0  0  0
  133.2027  139.5170  162.2873 N   0  0  0  0  0  0  0  0  0  0  0  0
  132.7040  138.6996  161.3981 C   0  0  0  0  0  0  0  0  0  0  0  0
  132.6986  138.9120  159.9061 C   0  0  0  0  0  0  0  0  0  0  0  0
  128.2499  135.6724  159.9854 C   0  0  0  0  0  0  0  0  0  0  0  0
  127.5290  135.7026  158.8407 C   0  0  0  0  0  0  0  0  0  0  0  0
  126.2002  135.9823  159.1761 C   0  0  0  0  0  0  0  0  0  0  0  0
  126.1260  136.1150  160.4756 N   0  0  0  0  0  0  0  0  0  0  0  0
  127.4063  135.9190  161.0094 N   0  0  0  0  0  0  0  0  0  0  0  0
  127.7663  135.9746  162.4284 C   0  0  0  0  0  0  0  0  0  0  0  0
  130.6015  133.6169  156.9689 N   0  0  0  0  0  0  0  0  0  0  0  0
  131.0960  134.2045  156.3763 H   0  0  0  0  0  0  0  0  0  0  0  0
  130.1374  132.0342  154.2303 C   0  0  0  0  0  0  0  0  0  0  0  0
  130.4466  131.3346  153.0815 C   0  0  0  0  0  0  0  0  0  0  0  0
  130.4022  127.6912  152.4631 H   0  0  0  0  0  0  0  0  0  0  0  0
  129.4990  128.8862  151.5017 H   0  0  0  0  0  0  0  0  0  0  0  0
  130.7008  127.8354  150.7144 H   0  0  0  0  0  0  0  0  0  0  0  0
  132.5071  128.9243  152.0182 H   0  0  0  0  0  0  0  0  0  0  0  0
  131.6038  130.1192  151.0568 H   0  0  0  0  0  0  0  0  0  0  0  0
  132.2625  128.8266  154.4278 H   0  0  0  0  0  0  0  0  0  0  0  0
  131.7307  130.0660  156.4854 H   0  0  0  0  0  0  0  0  0  0  0  0
  129.1894  130.8469  157.8806 H   0  0  0  0  0  0  0  0  0  0  0  0
  130.7553  135.8923  158.3036 H   0  0  0  0  0  0  0  0  0  0  0  0
  130.0029  137.5840  160.5890 H   0  0  0  0  0  0  0  0  0  0  0  0
  131.9063  135.4292  161.5978 H   0  0  0  0  0  0  0  0  0  0  0  0
  132.0953  137.1059  164.2093 H   0  0  0  0  0  0  0  0  0  0  0  0
  134.2707  141.2722  163.8511 H   0  0  0  0  0  0  0  0  0  0  0  0
  134.9739  142.2770  165.9847 H   0  0  0  0  0  0  0  0  0  0  0  0
  133.3845  138.9232  168.0945 H   0  0  0  0  0  0  0  0  0  0  0  0
  132.6716  137.9171  165.9646 H   0  0  0  0  0  0  0  0  0  0  0  0
  131.7913  139.4430  159.6180 H   0  0  0  0  0  0  0  0  0  0  0  0
  133.5705  139.5002  159.6197 H   0  0  0  0  0  0  0  0  0  0  0  0
  132.7301  137.9463  159.4015 H   0  0  0  0  0  0  0  0  0  0  0  0
  127.9120  135.5401  157.8440 H   0  0  0  0  0  0  0  0  0  0  0  0
  125.3776  136.0734  158.4823 H   0  0  0  0  0  0  0  0  0  0  0  0
  128.0437  136.9951  162.6930 H   0  0  0  0  0  0  0  0  0  0  0  0
  126.9145  135.6617  163.0319 H   0  0  0  0  0  0  0  0  0  0  0  0
  128.6088  135.3088  162.6159 H   0  0  0  0  0  0  0  0  0  0  0  0
  129.5389  132.9314  154.1728 H   0  0  0  0  0  0  0  0  0  0  0  0
  130.0900  131.6856  152.1244 H   0  0  0  0  0  0  0  0  0  0  0  0
  1  2  1  0
  1 40  1  0
  1 41  1  0
  1 42  1  0
  2  3  1  0
  2 43  1  0
  2 44  1  0
  3 39  2  0
  3  4  1  0
  4  5  2  0
  4 45  1  0
  5  6  1  0
  5 46  1  0
  6  7  1  0
  6 38  2  0
  7 36  1  0
  7  8  2  0
  8  9  1  0
  8 47  1  0
  9 10  1  0
  9 11  1  0
 11 12  1  0
 11 36  2  0
 12 13  1  0
 12 48  1  0
 13 14  1  1
 13 15  1  0
 13 30  1  0
 15 16  2  0
 15 49  1  0
 16 17  1  0
 16 50  1  0
 17 28  1  0
 17 18  2  0
 18 19  1  0
 18 51  1  0
 19 20  1  0
 19 27  1  0
 20 26  1  0
 20 21  2  0
 21 22  1  0
 21 52  1  0
 22 23  2  0
 22 53  1  0
 23 24  1  0
 23 25  1  0
 25 26  2  0
 25 54  1  0
 26 55  1  0
 27 28  2  0
 28 29  1  0
 29 56  1  0
 29 57  1  0
 29 58  1  0
 30 34  1  0
 30 31  2  0
 31 32  1  0
 31 59  1  0
 32 33  2  0
 32 60  1  0
 33 34  1  0
 34 35  1  0
 35 61  1  0
 35 62  1  0
 35 63  1  0
 36 37  1  0
 38 39  1  0
 38 64  1  0
 39 65  1  0
M  CHG  1  36   1
M  END
>  <DOCK_score>  (1) 
-60.172821

>  <SMILES>  (1) 
CCc1ccc(-c2c[nH]c(N[C@@H](C=Cc3cn(-c4ccc(F)cc4)nc3C)c3ccnn3C)[nH+]2)cc1

$$$$
