N[C@@H]1C[C@@H]1NC(NC1CC=CC1)=[NH+][C@@H]1COc2cc(Cl)ccc2C1
     RDKit          3D

 48 51  0  0  1  0  0  0  0  0999 V2000
  126.0748  135.5096  161.8444 N   0  0  0  0  0  0  0  0  0  0  0  0
  127.1335  135.4882  162.8626 C   0  0  2  0  0  0  0  0  0  0  0  0
  126.8381  135.1077  163.8404 H   0  0  0  0  0  0  0  0  0  0  0  0
  128.1718  136.6113  162.8258 C   0  0  0  0  0  0  0  0  0  0  0  0
  128.5599  135.1962  162.3924 C   0  0  2  0  0  0  0  0  0  0  0  0
  129.2032  134.6239  163.0608 H   0  0  0  0  0  0  0  0  0  0  0  0
  128.7654  134.9594  160.9614 N   0  0  0  0  0  0  0  0  0  0  0  0
  129.9619  135.2955  160.3738 C   0  0  0  0  0  0  0  0  0  0  0  0
  130.1548  135.0734  159.0308 N   0  0  0  0  0  0  0  0  0  0  0  0
  129.4677  133.9634  158.3660 C   0  0  0  0  0  0  0  0  0  0  0  0
  129.3980  132.7227  159.2863 C   0  0  0  0  0  0  0  0  0  0  0  0
  129.5918  131.5454  158.3583 C   0  0  0  0  0  0  0  0  0  0  0  0
  130.0853  131.9266  157.2117 C   0  0  0  0  0  0  0  0  0  0  0  0
  130.3038  133.4215  157.1835 C   0  0  0  0  0  0  0  0  0  0  0  0
  130.9137  135.8250  161.0901 N   0  0  0  0  0  0  0  0  0  0  0  0
  130.9927  135.6040  162.0312 H   0  0  0  0  0  0  0  0  0  0  0  0
  131.8640  136.7540  160.4735 C   0  0  2  0  0  0  0  0  0  0  0  0
  131.3783  137.2887  159.6573 H   0  0  0  0  0  0  0  0  0  0  0  0
  133.0723  135.9766  159.9356 C   0  0  0  0  0  0  0  0  0  0  0  0
  133.9286  136.8921  159.2512 O   0  0  0  0  0  0  0  0  0  0  0  0
  134.2607  138.0464  159.8855 C   0  0  0  0  0  0  0  0  0  0  0  0
  135.3506  138.7722  159.4152 C   0  0  0  0  0  0  0  0  0  0  0  0
  135.7171  139.9525  160.0308 C   0  0  0  0  0  0  0  0  0  0  0  0
  137.0779  140.8543  159.4404 Cl  0  0  0  0  0  0  0  0  0  0  0  0
  134.9986  140.4158  161.1192 C   0  0  0  0  0  0  0  0  0  0  0  0
  133.9172  139.6967  161.5886 C   0  0  0  0  0  0  0  0  0  0  0  0
  133.5463  138.5113  160.9756 C   0  0  0  0  0  0  0  0  0  0  0  0
  132.3623  137.7532  161.5208 C   0  0  0  0  0  0  0  0  0  0  0  0
  125.1774  135.7104  162.2599 H   0  0  0  0  0  0  0  0  0  0  0  0
  126.2903  136.1699  161.1126 H   0  0  0  0  0  0  0  0  0  0  0  0
  128.5594  136.9697  163.7794 H   0  0  0  0  0  0  0  0  0  0  0  0
  128.0693  137.3661  162.0461 H   0  0  0  0  0  0  0  0  0  0  0  0
  128.0572  134.5654  160.4283 H   0  0  0  0  0  0  0  0  0  0  0  0
  130.7488  135.6491  158.5244 H   0  0  0  0  0  0  0  0  0  0  0  0
  128.4727  134.2628  158.0368 H   0  0  0  0  0  0  0  0  0  0  0  0
  130.1950  132.7557  160.0293 H   0  0  0  0  0  0  0  0  0  0  0  0
  128.4249  132.6663  159.7745 H   0  0  0  0  0  0  0  0  0  0  0  0
  129.3524  130.5230  158.6108 H   0  0  0  0  0  0  0  0  0  0  0  0
  130.3078  131.2611  156.3907 H   0  0  0  0  0  0  0  0  0  0  0  0
  129.9465  133.8398  156.2425 H   0  0  0  0  0  0  0  0  0  0  0  0
  131.3592  133.6536  157.3267 H   0  0  0  0  0  0  0  0  0  0  0  0
  133.6123  135.5182  160.7641 H   0  0  0  0  0  0  0  0  0  0  0  0
  132.7338  135.2040  159.2451 H   0  0  0  0  0  0  0  0  0  0  0  0
  135.9118  138.4111  158.5661 H   0  0  0  0  0  0  0  0  0  0  0  0
  135.2832  141.3396  161.6010 H   0  0  0  0  0  0  0  0  0  0  0  0
  133.3580  140.0603  162.4381 H   0  0  0  0  0  0  0  0  0  0  0  0
  131.5628  138.4531  161.7635 H   0  0  0  0  0  0  0  0  0  0  0  0
  132.6594  137.2163  162.4217 H   0  0  0  0  0  0  0  0  0  0  0  0
  1  2  1  0
  1 29  1  0
  1 30  1  0
  2  3  1  1
  2  5  1  0
  2  4  1  0
  4  5  1  0
  4 31  1  0
  4 32  1  0
  5  6  1  1
  5  7  1  0
  7 33  1  0
  8  7  1  0
  8  9  1  0
  8 15  2  0
  9 10  1  0
  9 34  1  0
 10 14  1  0
 10 11  1  0
 10 35  1  0
 11 12  1  0
 11 36  1  0
 11 37  1  0
 12 13  2  0
 12 38  1  0
 13 14  1  0
 13 39  1  0
 14 40  1  0
 14 41  1  0
 15 16  1  0
 15 17  1  0
 17 18  1  6
 17 28  1  0
 17 19  1  0
 19 20  1  0
 19 42  1  0
 19 43  1  0
 20 21  1  0
 21 27  2  0
 21 22  1  0
 22 23  2  0
 22 44  1  0
 23 24  1  0
 23 25  1  0
 25 26  2  0
 25 45  1  0
 26 27  1  0
 26 46  1  0
 27 28  1  0
 28 47  1  0
 28 48  1  0
M  CHG  1  15   1
M  END
>  <DOCK_score>  (1) 
-42.905228

>  <SMILES>  (1) 
N[C@@H]1C[C@@H]1NC(NC1CC=CC1)=[NH+][C@@H]1COc2cc(Cl)ccc2C1

$$$$
