CCc1ccc(-c2c[nH]c(NC3C=CC(Nc4cccc(-c5ccccc5)n4)C=C3)[nH+]2)cc1
     RDKit          3D

 61 65  0  0  1  0  0  0  0  0999 V2000
  130.1488  128.3505  151.5079 C   0  0  0  0  0  0  0  0  0  0  0  0
  131.2662  129.3643  151.7658 C   0  0  0  0  0  0  0  0  0  0  0  0
  130.9576  130.1430  153.0186 C   0  0  0  0  0  0  0  0  0  0  0  0
  131.4054  129.6835  154.2440 C   0  0  0  0  0  0  0  0  0  0  0  0
  131.1264  130.3935  155.3941 C   0  0  0  0  0  0  0  0  0  0  0  0
  130.3918  131.5755  155.3192 C   0  0  0  0  0  0  0  0  0  0  0  0
  130.0883  132.3427  156.5518 C   0  0  0  0  0  0  0  0  0  0  0  0
  129.3848  131.8917  157.6197 C   0  0  0  0  0  0  0  0  0  0  0  0
  129.3447  132.9173  158.5327 N   0  0  0  0  0  0  0  0  0  0  0  0
  128.9124  132.8970  159.4009 H   0  0  0  0  0  0  0  0  0  0  0  0
  130.0175  133.9693  157.9916 C   0  0  0  0  0  0  0  0  0  0  0  0
  130.2032  135.2027  158.5922 N   0  0  0  0  0  0  0  0  0  0  0  0
  129.6517  135.4588  159.9251 C   0  0  2  0  0  0  0  0  0  0  0  0
  129.2853  136.9083  160.0352 C   0  0  0  0  0  0  0  0  0  0  0  0
  130.0300  137.7794  160.6433 C   0  0  0  0  0  0  0  0  0  0  0  0
  131.3312  137.4212  161.2956 C   0  0  2  0  0  0  0  0  0  0  0  0
  132.4339  137.8091  160.4125 N   0  0  0  0  0  0  0  0  0  0  0  0
  133.3846  138.7244  160.8487 C   0  0  0  0  0  0  0  0  0  0  0  0
  134.4263  139.0919  160.0014 C   0  0  0  0  0  0  0  0  0  0  0  0
  135.3687  140.0042  160.4430 C   0  0  0  0  0  0  0  0  0  0  0  0
  135.2416  140.5234  161.7222 C   0  0  0  0  0  0  0  0  0  0  0  0
  134.1767  140.1143  162.5190 C   0  0  0  0  0  0  0  0  0  0  0  0
  134.0308  140.6638  163.8891 C   0  0  0  0  0  0  0  0  0  0  0  0
  132.7649  140.8058  164.4544 C   0  0  0  0  0  0  0  0  0  0  0  0
  132.6353  141.3131  165.7313 C   0  0  0  0  0  0  0  0  0  0  0  0
  133.7588  141.6902  166.4458 C   0  0  0  0  0  0  0  0  0  0  0  0
  135.0168  141.5563  165.8876 C   0  0  0  0  0  0  0  0  0  0  0  0
  135.1585  141.0453  164.6135 C   0  0  0  0  0  0  0  0  0  0  0  0
  133.2869  139.2408  162.0626 N   0  0  0  0  0  0  0  0  0  0  0  0
  131.4139  135.9493  161.5674 C   0  0  0  0  0  0  0  0  0  0  0  0
  130.6682  135.0780  160.9590 C   0  0  0  0  0  0  0  0  0  0  0  0
  130.4604  133.6221  156.8079 N   0  0  0  0  0  0  0  0  0  0  0  0
  130.9725  134.1893  156.2104 H   0  0  0  0  0  0  0  0  0  0  0  0
  129.9431  132.0337  154.0818 C   0  0  0  0  0  0  0  0  0  0  0  0
  130.2280  131.3156  152.9382 C   0  0  0  0  0  0  0  0  0  0  0  0
  130.0763  127.6663  152.3531 H   0  0  0  0  0  0  0  0  0  0  0  0
  129.2023  128.8770  151.3843 H   0  0  0  0  0  0  0  0  0  0  0  0
  130.3719  127.7868  150.6021 H   0  0  0  0  0  0  0  0  0  0  0  0
  131.3384  130.0479  150.9208 H   0  0  0  0  0  0  0  0  0  0  0  0
  132.2124  128.8371  151.8897 H   0  0  0  0  0  0  0  0  0  0  0  0
  131.9785  128.7697  154.3004 H   0  0  0  0  0  0  0  0  0  0  0  0
  131.4770  130.0339  156.3503 H   0  0  0  0  0  0  0  0  0  0  0  0
  128.9427  130.9127  157.7319 H   0  0  0  0  0  0  0  0  0  0  0  0
  130.6982  135.8973  158.1305 H   0  0  0  0  0  0  0  0  0  0  0  0
  128.7566  134.8524  160.0639 H   0  0  0  0  0  0  0  0  0  0  0  0
  128.3608  137.2430  159.5882 H   0  0  0  0  0  0  0  0  0  0  0  0
  129.6987  138.8068  160.6809 H   0  0  0  0  0  0  0  0  0  0  0  0
  131.4196  137.9639  162.2367 H   0  0  0  0  0  0  0  0  0  0  0  0
  132.5005  137.4272  159.5233 H   0  0  0  0  0  0  0  0  0  0  0  0
  134.4978  138.6701  159.0098 H   0  0  0  0  0  0  0  0  0  0  0  0
  136.1860  140.3056  159.8044 H   0  0  0  0  0  0  0  0  0  0  0  0
  135.9609  141.2369  162.0962 H   0  0  0  0  0  0  0  0  0  0  0  0
  131.8872  140.5156  163.8959 H   0  0  0  0  0  0  0  0  0  0  0  0
  131.6552  141.4196  166.1721 H   0  0  0  0  0  0  0  0  0  0  0  0
  133.6525  142.0903  167.4433 H   0  0  0  0  0  0  0  0  0  0  0  0
  135.8900  141.8520  166.4500 H   0  0  0  0  0  0  0  0  0  0  0  0
  136.1417  140.9409  164.1787 H   0  0  0  0  0  0  0  0  0  0  0  0
  132.1249  135.5985  162.3010 H   0  0  0  0  0  0  0  0  0  0  0  0
  130.7856  134.0337  161.2082 H   0  0  0  0  0  0  0  0  0  0  0  0
  129.3731  132.9489  154.0179 H   0  0  0  0  0  0  0  0  0  0  0  0
  129.8811  131.6698  151.9788 H   0  0  0  0  0  0  0  0  0  0  0  0
  1  2  1  0
  1 36  1  0
  1 37  1  0
  1 38  1  0
  2  3  1  0
  2 39  1  0
  2 40  1  0
  3 35  2  0
  3  4  1  0
  4  5  2  0
  4 41  1  0
  5  6  1  0
  5 42  1  0
  6  7  1  0
  6 34  2  0
  7 32  1  0
  7  8  2  0
  8  9  1  0
  8 43  1  0
  9 10  1  0
  9 11  1  0
 11 12  1  0
 11 32  2  0
 12 13  1  0
 12 44  1  0
 13 31  1  0
 13 14  1  0
 13 45  1  1
 14 15  2  0
 14 46  1  0
 15 16  1  0
 15 47  1  0
 16 17  1  0
 16 30  1  0
 16 48  1  1
 17 18  1  0
 17 49  1  0
 18 29  1  0
 18 19  2  0
 19 20  1  0
 19 50  1  0
 20 21  2  0
 20 51  1  0
 21 22  1  0
 21 52  1  0
 22 23  1  0
 22 29  2  0
 23 28  1  0
 23 24  2  0
 24 25  1  0
 24 53  1  0
 25 26  2  0
 25 54  1  0
 26 27  1  0
 26 55  1  0
 27 28  2  0
 27 56  1  0
 28 57  1  0
 30 31  2  0
 30 58  1  0
 31 59  1  0
 32 33  1  0
 34 35  1  0
 34 60  1  0
 35 61  1  0
M  CHG  1  32   1
M  END
>  <DOCK_score>  (1) 
-70.242149

>  <SMILES>  (1) 
CCc1ccc(-c2c[nH]c(NC3C=CC(Nc4cccc(-c5ccccc5)n4)C=C3)[nH+]2)cc1

$$$$
