N#CC=CN[C@H]1CC[C@H](NC(NC2CC=CC2)=[NH+][C@H]2CCC(=O)NC2)CC1
     RDKit          3D

 58 60  0  0  1  0  0  0  0  0999 V2000
  138.4831  136.5385  166.2154 N   0  0  0  0  0  0  0  0  0  0  0  0
  137.4662  136.7913  165.7769 C   0  0  0  0  0  0  0  0  0  0  0  0
  136.1842  137.1101  165.2242 C   0  0  0  0  0  0  0  0  0  0  0  0
  135.7587  136.4884  164.1068 C   0  0  0  0  0  0  0  0  0  0  0  0
  134.5317  136.7935  163.5777 N   0  0  0  0  0  0  0  0  0  0  0  0
  134.0692  136.1176  162.3629 C   0  0  1  0  0  0  0  0  0  0  0  0
  134.9015  136.0113  161.6671 H   0  0  0  0  0  0  0  0  0  0  0  0
  133.5267  134.7336  162.7245 C   0  0  0  0  0  0  0  0  0  0  0  0
  133.0437  134.0278  161.4559 C   0  0  0  0  0  0  0  0  0  0  0  0
  131.9351  134.8554  160.8024 C   0  0  2  0  0  0  0  0  0  0  0  0
  131.1028  134.9618  161.4983 H   0  0  0  0  0  0  0  0  0  0  0  0
  131.4726  134.1796  159.5876 N   0  0  0  0  0  0  0  0  0  0  0  0
  130.1706  134.3281  159.1717 C   0  0  0  0  0  0  0  0  0  0  0  0
  129.7366  133.6938  158.0318 N   0  0  0  0  0  0  0  0  0  0  0  0
  130.6615  132.8598  157.2604 C   0  0  0  0  0  0  0  0  0  0  0  0
  130.1798  132.7019  155.7995 C   0  0  0  0  0  0  0  0  0  0  0  0
  130.5258  131.2773  155.4329 C   0  0  0  0  0  0  0  0  0  0  0  0
  130.7714  130.5643  156.4982 C   0  0  0  0  0  0  0  0  0  0  0  0
  130.6302  131.3943  157.7528 C   0  0  0  0  0  0  0  0  0  0  0  0
  129.3477  135.0701  159.8581 N   0  0  0  0  0  0  0  0  0  0  0  0
  129.6829  135.8292  160.3605 H   0  0  0  0  0  0  0  0  0  0  0  0
  127.9165  134.7577  159.8710 C   0  0  1  0  0  0  0  0  0  0  0  0
  127.5234  134.8016  158.8553 H   0  0  0  0  0  0  0  0  0  0  0  0
  127.7017  133.3523  160.4455 C   0  0  0  0  0  0  0  0  0  0  0  0
  126.2268  132.9796  160.2759 C   0  0  0  0  0  0  0  0  0  0  0  0
  125.3567  134.1001  160.7691 C   0  0  0  0  0  0  0  0  0  0  0  0
  124.1928  133.8591  161.0105 O   0  0  0  0  0  0  0  0  0  0  0  0
  125.7954  135.3453  160.9568 N   0  0  0  0  0  0  0  0  0  0  0  0
  127.1760  135.7652  160.7516 C   0  0  0  0  0  0  0  0  0  0  0  0
  132.4777  136.2396  160.4409 C   0  0  0  0  0  0  0  0  0  0  0  0
  132.9607  136.9453  161.7095 C   0  0  0  0  0  0  0  0  0  0  0  0
  135.5583  137.8487  165.7028 H   0  0  0  0  0  0  0  0  0  0  0  0
  136.3847  135.7498  163.6282 H   0  0  0  0  0  0  0  0  0  0  0  0
  133.9695  137.4568  164.0076 H   0  0  0  0  0  0  0  0  0  0  0  0
  132.6945  134.8399  163.4203 H   0  0  0  0  0  0  0  0  0  0  0  0
  134.3165  134.1440  163.1900 H   0  0  0  0  0  0  0  0  0  0  0  0
  132.6571  133.0417  161.7135 H   0  0  0  0  0  0  0  0  0  0  0  0
  133.8758  133.9215  160.7600 H   0  0  0  0  0  0  0  0  0  0  0  0
  132.0849  133.6274  159.0768 H   0  0  0  0  0  0  0  0  0  0  0  0
  128.8181  133.7986  157.7382 H   0  0  0  0  0  0  0  0  0  0  0  0
  131.6732  133.2636  157.2978 H   0  0  0  0  0  0  0  0  0  0  0  0
  129.1033  132.8596  155.7354 H   0  0  0  0  0  0  0  0  0  0  0  0
  130.7062  133.3999  155.1485 H   0  0  0  0  0  0  0  0  0  0  0  0
  130.5651  130.8990  154.4220 H   0  0  0  0  0  0  0  0  0  0  0  0
  131.0404  129.5184  156.4846 H   0  0  0  0  0  0  0  0  0  0  0  0
  131.4627  131.2035  158.4301 H   0  0  0  0  0  0  0  0  0  0  0  0
  129.6819  131.1795  158.2456 H   0  0  0  0  0  0  0  0  0  0  0  0
  128.3250  132.6372  159.9087 H   0  0  0  0  0  0  0  0  0  0  0  0
  127.9628  133.3447  161.5038 H   0  0  0  0  0  0  0  0  0  0  0  0
  126.0183  132.7976  159.2216 H   0  0  0  0  0  0  0  0  0  0  0  0
  126.0137  132.0762  160.8471 H   0  0  0  0  0  0  0  0  0  0  0  0
  125.1555  136.0138  161.2478 H   0  0  0  0  0  0  0  0  0  0  0  0
  127.6778  135.8374  161.7165 H   0  0  0  0  0  0  0  0  0  0  0  0
  127.1843  136.7415  160.2672 H   0  0  0  0  0  0  0  0  0  0  0  0
  133.3098  136.1331  159.7450 H   0  0  0  0  0  0  0  0  0  0  0  0
  131.6879  136.8292  159.9754 H   0  0  0  0  0  0  0  0  0  0  0  0
  132.1285  137.0517  162.4055 H   0  0  0  0  0  0  0  0  0  0  0  0
  133.3472  137.9314  161.4519 H   0  0  0  0  0  0  0  0  0  0  0  0
  1  2  3  0
  2  3  1  0
  3  4  2  0
  3 32  1  0
  4  5  1  0
  4 33  1  0
  5  6  1  0
  5 34  1  0
  6  7  1  6
  6 31  1  0
  6  8  1  0
  8  9  1  0
  8 35  1  0
  8 36  1  0
  9 10  1  0
  9 37  1  0
  9 38  1  0
 10 11  1  1
 10 12  1  0
 10 30  1  0
 12 39  1  0
 13 12  1  0
 13 14  1  0
 13 20  2  0
 14 15  1  0
 14 40  1  0
 15 19  1  0
 15 16  1  0
 15 41  1  0
 16 17  1  0
 16 42  1  0
 16 43  1  0
 17 18  2  0
 17 44  1  0
 18 19  1  0
 18 45  1  0
 19 46  1  0
 19 47  1  0
 20 21  1  0
 20 22  1  0
 22 23  1  6
 22 29  1  0
 22 24  1  0
 24 25  1  0
 24 48  1  0
 24 49  1  0
 25 26  1  0
 25 50  1  0
 25 51  1  0
 26 27  2  0
 26 28  1  0
 28 29  1  0
 28 52  1  0
 29 53  1  0
 29 54  1  0
 30 31  1  0
 30 55  1  0
 30 56  1  0
 31 57  1  0
 31 58  1  0
M  CHG  1  20   1
M  END
>  <DOCK_score>  (1) 
-42.812279

>  <SMILES>  (1) 
N#CC=CN[C@H]1CC[C@H](NC(NC2CC=CC2)=[NH+][C@H]2CCC(=O)NC2)CC1

$$$$
