Oc1cccc(-c2ccc(-c3c[nH]c(NC(c4ccccc4)c4ccccc4)[nH+]3)cc2)c1
     RDKit          3D

 56 60  0  0  1  0  0  0  0  0999 V2000
  130.4396  126.7433  151.5711 O   0  0  0  0  0  0  0  0  0  0  0  0
  130.4108  128.1017  151.6041 C   0  0  0  0  0  0  0  0  0  0  0  0
  130.2697  128.8217  150.4255 C   0  0  0  0  0  0  0  0  0  0  0  0
  130.2395  130.2032  150.4541 C   0  0  0  0  0  0  0  0  0  0  0  0
  130.3500  130.8752  151.6551 C   0  0  0  0  0  0  0  0  0  0  0  0
  130.4981  130.1595  152.8426 C   0  0  0  0  0  0  0  0  0  0  0  0
  130.6233  130.8790  154.1334 C   0  0  0  0  0  0  0  0  0  0  0  0
  131.3544  130.3149  155.1779 C   0  0  0  0  0  0  0  0  0  0  0  0
  131.4754  130.9854  156.3750 C   0  0  0  0  0  0  0  0  0  0  0  0
  130.8571  132.2240  156.5460 C   0  0  0  0  0  0  0  0  0  0  0  0
  130.9826  132.9433  157.8363 C   0  0  0  0  0  0  0  0  0  0  0  0
  130.5699  132.4902  159.0466 C   0  0  0  0  0  0  0  0  0  0  0  0
  130.8804  133.4642  159.9638 N   0  0  0  0  0  0  0  0  0  0  0  0
  130.7107  133.4296  160.9182 H   0  0  0  0  0  0  0  0  0  0  0  0
  131.4659  134.4889  159.2858 C   0  0  0  0  0  0  0  0  0  0  0  0
  131.9236  135.6690  159.8464 N   0  0  0  0  0  0  0  0  0  0  0  0
  131.7951  135.8932  161.2884 C   0  0  0  0  0  0  0  0  0  0  0  0
  132.3655  137.2431  161.6396 C   0  0  0  0  0  0  0  0  0  0  0  0
  131.8509  137.9541  162.7078 C   0  0  0  0  0  0  0  0  0  0  0  0
  132.3773  139.1902  163.0331 C   0  0  0  0  0  0  0  0  0  0  0  0
  133.4114  139.7198  162.2847 C   0  0  0  0  0  0  0  0  0  0  0  0
  133.9224  139.0113  161.2127 C   0  0  0  0  0  0  0  0  0  0  0  0
  133.3994  137.7729  160.8906 C   0  0  0  0  0  0  0  0  0  0  0  0
  130.3396  135.8463  161.6764 C   0  0  0  0  0  0  0  0  0  0  0  0
  129.9739  135.4099  162.9360 C   0  0  0  0  0  0  0  0  0  0  0  0
  128.6392  135.3713  163.2935 C   0  0  0  0  0  0  0  0  0  0  0  0
  127.6695  135.7593  162.3879 C   0  0  0  0  0  0  0  0  0  0  0  0
  128.0349  136.1908  161.1264 C   0  0  0  0  0  0  0  0  0  0  0  0
  129.3701  136.2343  160.7707 C   0  0  0  0  0  0  0  0  0  0  0  0
  131.5251  134.1741  158.0149 N   0  0  0  0  0  0  0  0  0  0  0  0
  131.8971  134.7321  157.3141 H   0  0  0  0  0  0  0  0  0  0  0  0
  130.1209  132.7859  155.5030 C   0  0  0  0  0  0  0  0  0  0  0  0
  130.0048  132.1177  154.3042 C   0  0  0  0  0  0  0  0  0  0  0  0
  130.5229  128.7673  152.8132 C   0  0  0  0  0  0  0  0  0  0  0  0
  130.3546  126.3696  150.6833 H   0  0  0  0  0  0  0  0  0  0  0  0
  130.1827  128.3008  149.4834 H   0  0  0  0  0  0  0  0  0  0  0  0
  130.1295  130.7587  149.5345 H   0  0  0  0  0  0  0  0  0  0  0  0
  130.3265  131.9548  151.6741 H   0  0  0  0  0  0  0  0  0  0  0  0
  131.8294  129.3539  155.0470 H   0  0  0  0  0  0  0  0  0  0  0  0
  132.0455  130.5502  157.1825 H   0  0  0  0  0  0  0  0  0  0  0  0
  130.0913  131.5436  159.2502 H   0  0  0  0  0  0  0  0  0  0  0  0
  132.3295  136.3474  159.2843 H   0  0  0  0  0  0  0  0  0  0  0  0
  132.3397  135.1174  161.8267 H   0  0  0  0  0  0  0  0  0  0  0  0
  131.0402  137.5421  163.2903 H   0  0  0  0  0  0  0  0  0  0  0  0
  131.9779  139.7440  163.8697 H   0  0  0  0  0  0  0  0  0  0  0  0
  133.8196  140.6877  162.5354 H   0  0  0  0  0  0  0  0  0  0  0  0
  134.7299  139.4253  160.6272 H   0  0  0  0  0  0  0  0  0  0  0  0
  133.7984  137.2194  160.0535 H   0  0  0  0  0  0  0  0  0  0  0  0
  130.7311  135.1024  163.6421 H   0  0  0  0  0  0  0  0  0  0  0  0
  128.3537  135.0339  164.2790 H   0  0  0  0  0  0  0  0  0  0  0  0
  126.6265  135.7250  162.6657 H   0  0  0  0  0  0  0  0  0  0  0  0
  127.2774  136.4936  160.4188 H   0  0  0  0  0  0  0  0  0  0  0  0
  129.6555  136.5710  159.7851 H   0  0  0  0  0  0  0  0  0  0  0  0
  129.6418  133.7448  155.6353 H   0  0  0  0  0  0  0  0  0  0  0  0
  129.4352  132.5529  153.4964 H   0  0  0  0  0  0  0  0  0  0  0  0
  130.6332  128.2084  153.7309 H   0  0  0  0  0  0  0  0  0  0  0  0
  1  2  1  0
  1 35  1  0
  2 34  2  0
  2  3  1  0
  3  4  2  0
  3 36  1  0
  4  5  1  0
  4 37  1  0
  5  6  2  0
  5 38  1  0
  6  7  1  0
  6 34  1  0
  7 33  1  0
  7  8  2  0
  8  9  1  0
  8 39  1  0
  9 10  2  0
  9 40  1  0
 10 11  1  0
 10 32  1  0
 11 30  1  0
 11 12  2  0
 12 13  1  0
 12 41  1  0
 13 14  1  0
 13 15  1  0
 15 16  1  0
 15 30  2  0
 16 17  1  0
 16 42  1  0
 17 18  1  0
 17 24  1  0
 17 43  1  0
 18 23  1  0
 18 19  2  0
 19 20  1  0
 19 44  1  0
 20 21  2  0
 20 45  1  0
 21 22  1  0
 21 46  1  0
 22 23  2  0
 22 47  1  0
 23 48  1  0
 24 29  1  0
 24 25  2  0
 25 26  1  0
 25 49  1  0
 26 27  2  0
 26 50  1  0
 27 28  1  0
 27 51  1  0
 28 29  2  0
 28 52  1  0
 29 53  1  0
 30 31  1  0
 32 33  2  0
 32 54  1  0
 33 55  1  0
 34 56  1  0
M  CHG  1  30   1
M  END
>  <DOCK_score>  (1) 
-58.30336

>  <SMILES>  (1) 
Oc1cccc(-c2ccc(-c3c[nH]c(NC(c4ccccc4)c4ccccc4)[nH+]3)cc2)c1

$$$$
