CC1=CCCN(c2ccc(Cl)c(C[NH2+][C@H](Cc3c[nH]c(Nc4ccc(O)cc4)[nH+]3)C(=O)[O-])c2)C1
     RDKit          3D

 63 66  0  0  1  0  0  0  0  0999 V2000
  134.9880  138.7150  169.5698 C   0  0  0  0  0  0  0  0  0  0  0  0
  135.7126  138.1853  168.3592 C   0  0  0  0  0  0  0  0  0  0  0  0
  136.7905  137.4856  168.5430 C   0  0  0  0  0  0  0  0  0  0  0  0
  137.5965  136.9150  167.4097 C   0  0  0  0  0  0  0  0  0  0  0  0
  136.7623  136.9254  166.1262 C   0  0  0  0  0  0  0  0  0  0  0  0
  136.1683  138.2632  165.9665 N   0  0  0  0  0  0  0  0  0  0  0  0
  135.6267  138.4213  164.6881 C   0  0  0  0  0  0  0  0  0  0  0  0
  136.1001  139.4238  163.8509 C   0  0  0  0  0  0  0  0  0  0  0  0
  135.5591  139.5814  162.5903 C   0  0  0  0  0  0  0  0  0  0  0  0
  134.5499  138.7383  162.1585 C   0  0  0  0  0  0  0  0  0  0  0  0
  133.8727  138.9391  160.5727 Cl  0  0  0  0  0  0  0  0  0  0  0  0
  134.0804  137.7357  162.9881 C   0  0  0  0  0  0  0  0  0  0  0  0
  132.9814  136.8198  162.5145 C   0  0  0  0  0  0  0  0  0  0  0  0
  133.5712  135.6524  161.8455 N   0  0  0  0  0  0  0  0  0  0  0  0
  134.1181  135.9586  161.0547 H   0  0  0  0  0  0  0  0  0  0  0  0
  134.1652  135.1578  162.4938 H   0  0  0  0  0  0  0  0  0  0  0  0
  132.5000  134.7596  161.3837 C   0  0  2  0  0  0  0  0  0  0  0  0
  132.9376  133.8936  160.8874 H   0  0  0  0  0  0  0  0  0  0  0  0
  131.5993  135.5097  160.4004 C   0  0  0  0  0  0  0  0  0  0  0  0
  130.8296  134.5178  159.5670 C   0  0  0  0  0  0  0  0  0  0  0  0
  131.2326  133.9922  158.3975 C   0  0  0  0  0  0  0  0  0  0  0  0
  130.2385  133.1377  157.9779 N   0  0  0  0  0  0  0  0  0  0  0  0
  130.2377  132.6087  157.1648 H   0  0  0  0  0  0  0  0  0  0  0  0
  129.2569  133.1763  158.9193 C   0  0  0  0  0  0  0  0  0  0  0  0
  128.0715  132.4597  158.8839 N   0  0  0  0  0  0  0  0  0  0  0  0
  126.9197  132.9821  159.4841 C   0  0  0  0  0  0  0  0  0  0  0  0
  125.9586  132.1260  160.0054 C   0  0  0  0  0  0  0  0  0  0  0  0
  124.8247  132.6424  160.6011 C   0  0  0  0  0  0  0  0  0  0  0  0
  124.6411  134.0156  160.6703 C   0  0  0  0  0  0  0  0  0  0  0  0
  123.5220  134.5230  161.2530 O   0  0  0  0  0  0  0  0  0  0  0  0
  125.5982  134.8714  160.1453 C   0  0  0  0  0  0  0  0  0  0  0  0
  126.7349  134.3569  159.5534 C   0  0  0  0  0  0  0  0  0  0  0  0
  129.6258  134.0031  159.8691 N   0  0  0  0  0  0  0  0  0  0  0  0
  129.1095  134.2117  160.6633 H   0  0  0  0  0  0  0  0  0  0  0  0
  131.6831  134.3023  162.5646 C   0  0  0  0  0  0  0  0  0  0  0  0
  132.2048  134.1933  163.6613 O   0  0  0  0  0  0  0  0  0  0  0  0
  130.5006  134.0413  162.4234 O   0  0  0  0  0  0  0  0  0  0  0  0
  134.6181  137.5733  164.2500 C   0  0  0  0  0  0  0  0  0  0  0  0
  135.1518  138.4935  167.0009 C   0  0  0  0  0  0  0  0  0  0  0  0
  134.2494  137.9845  169.8997 H   0  0  0  0  0  0  0  0  0  0  0  0
  135.7040  138.8955  170.3716 H   0  0  0  0  0  0  0  0  0  0  0  0
  134.4867  139.6484  169.3135 H   0  0  0  0  0  0  0  0  0  0  0  0
  137.1227  137.3051  169.5547 H   0  0  0  0  0  0  0  0  0  0  0  0
  138.4934  137.5168  167.2637 H   0  0  0  0  0  0  0  0  0  0  0  0
  137.8820  135.8904  167.6478 H   0  0  0  0  0  0  0  0  0  0  0  0
  135.9709  136.1794  166.1975 H   0  0  0  0  0  0  0  0  0  0  0  0
  137.4021  136.7044  165.2717 H   0  0  0  0  0  0  0  0  0  0  0  0
  136.8877  140.0818  164.1872 H   0  0  0  0  0  0  0  0  0  0  0  0
  135.9236  140.3635  161.9408 H   0  0  0  0  0  0  0  0  0  0  0  0
  132.3905  136.4889  163.3686 H   0  0  0  0  0  0  0  0  0  0  0  0
  132.3397  137.3541  161.8138 H   0  0  0  0  0  0  0  0  0  0  0  0
  130.9015  136.1384  160.9536 H   0  0  0  0  0  0  0  0  0  0  0  0
  132.2121  136.1332  159.7493 H   0  0  0  0  0  0  0  0  0  0  0  0
  132.1600  134.2004  157.8848 H   0  0  0  0  0  0  0  0  0  0  0  0
  128.0397  131.5963  158.4433 H   0  0  0  0  0  0  0  0  0  0  0  0
  126.0995  131.0568  159.9482 H   0  0  0  0  0  0  0  0  0  0  0  0
  124.0787  131.9767  161.0096 H   0  0  0  0  0  0  0  0  0  0  0  0
  123.4827  135.4891  161.2540 H   0  0  0  0  0  0  0  0  0  0  0  0
  125.4542  135.9403  160.1989 H   0  0  0  0  0  0  0  0  0  0  0  0
  127.4798  135.0233  159.1443 H   0  0  0  0  0  0  0  0  0  0  0  0
  134.2514  136.7900  164.8972 H   0  0  0  0  0  0  0  0  0  0  0  0
  134.8345  139.5357  166.9695 H   0  0  0  0  0  0  0  0  0  0  0  0
  134.2931  137.8490  166.8129 H   0  0  0  0  0  0  0  0  0  0  0  0
  1  2  1  0
  1 40  1  0
  1 41  1  0
  1 42  1  0
  2 39  1  0
  2  3  2  0
  3  4  1  0
  3 43  1  0
  4  5  1  0
  4 44  1  0
  4 45  1  0
  5  6  1  0
  5 46  1  0
  5 47  1  0
  6  7  1  0
  6 39  1  0
  7 38  1  0
  7  8  2  0
  8  9  1  0
  8 48  1  0
  9 10  2  0
  9 49  1  0
 10 11  1  0
 10 12  1  0
 12 13  1  0
 12 38  2  0
 13 14  1  0
 13 50  1  0
 13 51  1  0
 14 15  1  0
 14 16  1  0
 14 17  1  0
 17 18  1  6
 17 19  1  0
 17 35  1  0
 19 20  1  0
 19 52  1  0
 19 53  1  0
 20 33  1  0
 20 21  2  0
 21 22  1  0
 21 54  1  0
 22 23  1  0
 22 24  1  0
 24 25  1  0
 24 33  2  0
 25 26  1  0
 25 55  1  0
 26 32  1  0
 26 27  2  0
 27 28  1  0
 27 56  1  0
 28 29  2  0
 28 57  1  0
 29 30  1  0
 29 31  1  0
 30 58  1  0
 31 32  2  0
 31 59  1  0
 32 60  1  0
 33 34  1  0
 35 36  2  0
 35 37  1  0
 38 61  1  0
 39 62  1  0
 39 63  1  0
M  CHG  3  14   1  33   1  37  -1
M  END
>  <DOCK_score>  (1) 
-41.343903

>  <SMILES>  (1) 
CC1=CCCN(c2ccc(Cl)c(C[NH2+][C@H](Cc3c[nH]c(Nc4ccc(O)cc4)[nH+]3)C(=O)[O-])c2)C1

$$$$
