CCc1ccc(C=CC[C@H](Nc2[nH]cc(-c3ccc(N)cc3)[nH+]2)c2ccccc2)cc1
     RDKit          3D

 60 63  0  0  1  0  0  0  0  0999 V2000
  136.7421  138.5326  163.9215 C   0  0  0  0  0  0  0  0  0  0  0  0
  136.5226  137.2381  163.1359 C   0  0  0  0  0  0  0  0  0  0  0  0
  135.2203  137.3234  162.3824 C   0  0  0  0  0  0  0  0  0  0  0  0
  135.2010  137.8345  161.0966 C   0  0  0  0  0  0  0  0  0  0  0  0
  134.0124  137.9143  160.4007 C   0  0  0  0  0  0  0  0  0  0  0  0
  132.8283  137.4777  160.9959 C   0  0  0  0  0  0  0  0  0  0  0  0
  131.5513  137.5602  160.2561 C   0  0  0  0  0  0  0  0  0  0  0  0
  130.5216  136.8116  160.6258 C   0  0  0  0  0  0  0  0  0  0  0  0
  129.2196  136.8956  159.8714 C   0  0  0  0  0  0  0  0  0  0  0  0
  128.8771  135.5222  159.2908 C   0  0  2  0  0  0  0  0  0  0  0  0
  128.7818  134.7989  160.1005 H   0  0  0  0  0  0  0  0  0  0  0  0
  129.9428  135.0977  158.3797 N   0  0  0  0  0  0  0  0  0  0  0  0
  129.8533  133.8784  157.7300 C   0  0  0  0  0  0  0  0  0  0  0  0
  129.2196  132.7719  158.2051 N   0  0  0  0  0  0  0  0  0  0  0  0
  128.7540  132.6959  159.0526 H   0  0  0  0  0  0  0  0  0  0  0  0
  129.3620  131.7816  157.2622 C   0  0  0  0  0  0  0  0  0  0  0  0
  130.0777  132.3119  156.2400 C   0  0  0  0  0  0  0  0  0  0  0  0
  130.4758  131.6086  154.9959 C   0  0  0  0  0  0  0  0  0  0  0  0
  130.0485  132.0849  153.7574 C   0  0  0  0  0  0  0  0  0  0  0  0
  130.4246  131.4329  152.6021 C   0  0  0  0  0  0  0  0  0  0  0  0
  131.2193  130.2949  152.6723 C   0  0  0  0  0  0  0  0  0  0  0  0
  131.5943  129.6323  151.5010 N   0  0  0  0  0  0  0  0  0  0  0  0
  131.6418  129.8148  153.9063 C   0  0  0  0  0  0  0  0  0  0  0  0
  131.2730  130.4670  155.0640 C   0  0  0  0  0  0  0  0  0  0  0  0
  130.3603  133.6012  156.5534 N   0  0  0  0  0  0  0  0  0  0  0  0
  130.8596  134.2188  155.9965 H   0  0  0  0  0  0  0  0  0  0  0  0
  127.5752  135.6064  158.5364 C   0  0  0  0  0  0  0  0  0  0  0  0
  126.3808  135.3682  159.1904 C   0  0  0  0  0  0  0  0  0  0  0  0
  125.1866  135.4450  158.4984 C   0  0  0  0  0  0  0  0  0  0  0  0
  125.1869  135.7585  157.1520 C   0  0  0  0  0  0  0  0  0  0  0  0
  126.3813  135.9953  156.4977 C   0  0  0  0  0  0  0  0  0  0  0  0
  127.5755  135.9190  157.1899 C   0  0  0  0  0  0  0  0  0  0  0  0
  132.8540  136.9681  162.2947 C   0  0  0  0  0  0  0  0  0  0  0  0
  134.0500  136.8885  162.9778 C   0  0  0  0  0  0  0  0  0  0  0  0
  135.9226  138.6732  164.6261 H   0  0  0  0  0  0  0  0  0  0  0  0
  137.6838  138.4715  164.4669 H   0  0  0  0  0  0  0  0  0  0  0  0
  136.7761  139.3753  163.2309 H   0  0  0  0  0  0  0  0  0  0  0  0
  136.4884  136.3954  163.8264 H   0  0  0  0  0  0  0  0  0  0  0  0
  137.3422  137.0974  162.4312 H   0  0  0  0  0  0  0  0  0  0  0  0
  136.1182  138.1722  160.6371 H   0  0  0  0  0  0  0  0  0  0  0  0
  133.9983  138.3141  159.3976 H   0  0  0  0  0  0  0  0  0  0  0  0
  131.4572  138.2301  159.4143 H   0  0  0  0  0  0  0  0  0  0  0  0
  130.6156  136.1416  161.4676 H   0  0  0  0  0  0  0  0  0  0  0  0
  129.3149  137.6192  159.0617 H   0  0  0  0  0  0  0  0  0  0  0  0
  128.4267  137.2115  160.5494 H   0  0  0  0  0  0  0  0  0  0  0  0
  130.7113  135.6709  158.2315 H   0  0  0  0  0  0  0  0  0  0  0  0
  128.9774  130.7743  157.3239 H   0  0  0  0  0  0  0  0  0  0  0  0
  129.4268  132.9663  153.7027 H   0  0  0  0  0  0  0  0  0  0  0  0
  130.0972  131.8038  151.6421 H   0  0  0  0  0  0  0  0  0  0  0  0
  132.1497  128.8387  151.5492 H   0  0  0  0  0  0  0  0  0  0  0  0
  131.3002  129.9671  150.6392 H   0  0  0  0  0  0  0  0  0  0  0  0
  132.2592  128.9301  153.9588 H   0  0  0  0  0  0  0  0  0  0  0  0
  131.6018  130.0938  156.0226 H   0  0  0  0  0  0  0  0  0  0  0  0
  126.3806  135.1236  160.2423 H   0  0  0  0  0  0  0  0  0  0  0  0
  124.2532  135.2643  159.0106 H   0  0  0  0  0  0  0  0  0  0  0  0
  124.2539  135.8180  156.6114 H   0  0  0  0  0  0  0  0  0  0  0  0
  126.3816  136.2396  155.4457 H   0  0  0  0  0  0  0  0  0  0  0  0
  128.5088  136.1034  156.6786 H   0  0  0  0  0  0  0  0  0  0  0  0
  131.9402  136.6327  162.7625 H   0  0  0  0  0  0  0  0  0  0  0  0
  134.0720  136.4902  163.9815 H   0  0  0  0  0  0  0  0  0  0  0  0
  1  2  1  0
  1 35  1  0
  1 36  1  0
  1 37  1  0
  2  3  1  0
  2 38  1  0
  2 39  1  0
  3 34  2  0
  3  4  1  0
  4  5  2  0
  4 40  1  0
  5  6  1  0
  5 41  1  0
  6  7  1  0
  6 33  2  0
  7  8  2  0
  7 42  1  0
  8  9  1  0
  8 43  1  0
  9 10  1  0
  9 44  1  0
  9 45  1  0
 10 11  1  1
 10 12  1  0
 10 27  1  0
 12 46  1  0
 13 12  1  0
 13 25  2  0
 13 14  1  0
 14 15  1  0
 14 16  1  0
 16 17  2  0
 16 47  1  0
 17 18  1  0
 17 25  1  0
 18 24  1  0
 18 19  2  0
 19 20  1  0
 19 48  1  0
 20 21  2  0
 20 49  1  0
 21 22  1  0
 21 23  1  0
 22 50  1  0
 22 51  1  0
 23 24  2  0
 23 52  1  0
 24 53  1  0
 25 26  1  0
 27 32  1  0
 27 28  2  0
 28 29  1  0
 28 54  1  0
 29 30  2  0
 29 55  1  0
 30 31  1  0
 30 56  1  0
 31 32  2  0
 31 57  1  0
 32 58  1  0
 33 34  1  0
 33 59  1  0
 34 60  1  0
M  CHG  1  25   1
M  END
>  <DOCK_score>  (1) 
-65.168938

>  <SMILES>  (1) 
CCc1ccc(C=CC[C@H](Nc2[nH]cc(-c3ccc(N)cc3)[nH+]2)c2ccccc2)cc1

$$$$
