CC[C@H]([NH2+]Cc1ccc(NCCc2c[nH]c3ccc(O)cc23)cc1)c1cnn[nH]1
     RDKit          3D

 56 59  0  0  1  0  0  0  0  0999 V2000
  134.8241  139.7703  159.2217 C   0  0  0  0  0  0  0  0  0  0  0  0
  133.9258  138.5317  159.2251 C   0  0  0  0  0  0  0  0  0  0  0  0
  133.2233  138.4150  160.5793 C   0  0  2  0  0  0  0  0  0  0  0  0
  133.9693  138.3250  161.3689 H   0  0  0  0  0  0  0  0  0  0  0  0
  132.3609  137.2259  160.5826 N   0  0  0  0  0  0  0  0  0  0  0  0
  131.9024  137.1404  159.6879 H   0  0  0  0  0  0  0  0  0  0  0  0
  131.6665  137.3160  161.3091 H   0  0  0  0  0  0  0  0  0  0  0  0
  133.1769  136.0299  160.8310 C   0  0  0  0  0  0  0  0  0  0  0  0
  132.2922  134.8099  160.8344 C   0  0  0  0  0  0  0  0  0  0  0  0
  131.7154  134.3794  162.0152 C   0  0  0  0  0  0  0  0  0  0  0  0
  130.9040  133.2619  162.0218 C   0  0  0  0  0  0  0  0  0  0  0  0
  130.6675  132.5701  160.8406 C   0  0  0  0  0  0  0  0  0  0  0  0
  129.8477  131.4393  160.8438 N   0  0  0  0  0  0  0  0  0  0  0  0
  129.9343  130.4688  159.7498 C   0  0  0  0  0  0  0  0  0  0  0  0
  128.9548  130.8607  158.6417 C   0  0  0  0  0  0  0  0  0  0  0  0
  127.5520  130.8732  159.1924 C   0  0  0  0  0  0  0  0  0  0  0  0
  126.6970  129.8387  159.2223 C   0  0  0  0  0  0  0  0  0  0  0  0
  125.5168  130.2255  159.7959 N   0  0  0  0  0  0  0  0  0  0  0  0
  124.7465  129.6509  159.9280 H   0  0  0  0  0  0  0  0  0  0  0  0
  125.5858  131.5542  160.1587 C   0  0  0  0  0  0  0  0  0  0  0  0
  124.6877  132.4265  160.7648 C   0  0  0  0  0  0  0  0  0  0  0  0
  125.0580  133.7277  161.0204 C   0  0  0  0  0  0  0  0  0  0  0  0
  126.3233  134.1880  160.6645 C   0  0  0  0  0  0  0  0  0  0  0  0
  126.6699  135.4787  160.9161 O   0  0  0  0  0  0  0  0  0  0  0  0
  127.2273  133.3394  160.0578 C   0  0  0  0  0  0  0  0  0  0  0  0
  126.8655  132.0148  159.8019 C   0  0  0  0  0  0  0  0  0  0  0  0
  131.2527  133.0023  159.6572 C   0  0  0  0  0  0  0  0  0  0  0  0
  132.0590  134.1236  159.6568 C   0  0  0  0  0  0  0  0  0  0  0  0
  132.3850  139.6444  160.8178 C   0  0  0  0  0  0  0  0  0  0  0  0
  131.3602  140.0902  160.0543 C   0  0  0  0  0  0  0  0  0  0  0  0
  130.9092  141.2062  160.6379 N   0  0  0  0  0  0  0  0  0  0  0  0
  131.6085  141.4363  161.6928 N   0  0  0  0  0  0  0  0  0  0  0  0
  132.5017  140.5215  161.8416 N   0  0  0  0  0  0  0  0  0  0  0  0
  133.1488  140.4708  162.5624 H   0  0  0  0  0  0  0  0  0  0  0  0
  135.6285  139.6376  159.9451 H   0  0  0  0  0  0  0  0  0  0  0  0
  135.2489  139.9084  158.2274 H   0  0  0  0  0  0  0  0  0  0  0  0
  134.2349  140.6472  159.4901 H   0  0  0  0  0  0  0  0  0  0  0  0
  134.5322  137.6426  159.0524 H   0  0  0  0  0  0  0  0  0  0  0  0
  133.1799  138.6218  158.4353 H   0  0  0  0  0  0  0  0  0  0  0  0
  133.6721  136.1222  161.7976 H   0  0  0  0  0  0  0  0  0  0  0  0
  133.9271  135.9325  160.0462 H   0  0  0  0  0  0  0  0  0  0  0  0
  131.8999  134.9174  162.9332 H   0  0  0  0  0  0  0  0  0  0  0  0
  130.4538  132.9259  162.9444 H   0  0  0  0  0  0  0  0  0  0  0  0
  129.2210  131.2966  161.5703 H   0  0  0  0  0  0  0  0  0  0  0  0
  129.6817  129.4765  160.1237 H   0  0  0  0  0  0  0  0  0  0  0  0
  130.9488  130.4597  159.3516 H   0  0  0  0  0  0  0  0  0  0  0  0
  129.2072  131.8530  158.2679 H   0  0  0  0  0  0  0  0  0  0  0  0
  129.0192  130.1387  157.8278 H   0  0  0  0  0  0  0  0  0  0  0  0
  126.9092  128.8480  158.8484 H   0  0  0  0  0  0  0  0  0  0  0  0
  123.7043  132.0797  161.0460 H   0  0  0  0  0  0  0  0  0  0  0  0
  124.3581  134.3998  161.4947 H   0  0  0  0  0  0  0  0  0  0  0  0
  125.9740  135.9967  161.3431 H   0  0  0  0  0  0  0  0  0  0  0  0
  128.2084  133.6974  159.7829 H   0  0  0  0  0  0  0  0  0  0  0  0
  131.0745  132.4641  158.7380 H   0  0  0  0  0  0  0  0  0  0  0  0
  132.5110  134.4625  158.7364 H   0  0  0  0  0  0  0  0  0  0  0  0
  130.9808  139.6343  159.1517 H   0  0  0  0  0  0  0  0  0  0  0  0
  1  2  1  0
  1 35  1  0
  1 36  1  0
  1 37  1  0
  2  3  1  0
  2 38  1  0
  2 39  1  0
  3  4  1  1
  3  5  1  0
  3 29  1  0
  5  6  1  0
  5  7  1  0
  5  8  1  0
  8  9  1  0
  8 40  1  0
  8 41  1  0
  9 28  1  0
  9 10  2  0
 10 11  1  0
 10 42  1  0
 11 12  2  0
 11 43  1  0
 12 13  1  0
 12 27  1  0
 13 14  1  0
 13 44  1  0
 14 15  1  0
 14 45  1  0
 14 46  1  0
 15 16  1  0
 15 47  1  0
 15 48  1  0
 16 26  1  0
 16 17  2  0
 17 18  1  0
 17 49  1  0
 18 19  1  0
 18 20  1  0
 20 26  2  0
 20 21  1  0
 21 22  2  0
 21 50  1  0
 22 23  1  0
 22 51  1  0
 23 24  1  0
 23 25  2  0
 24 52  1  0
 25 26  1  0
 25 53  1  0
 27 28  2  0
 27 54  1  0
 28 55  1  0
 29 33  1  0
 29 30  2  0
 30 31  1  0
 30 56  1  0
 31 32  2  0
 32 33  1  0
 33 34  1  0
M  CHG  1   5   1
M  END
>  <DOCK_score>  (1) 
-43.512455

>  <SMILES>  (1) 
CC[C@H]([NH2+]Cc1ccc(NCCc2c[nH]c3ccc(O)cc23)cc1)c1cnn[nH]1

$$$$
