O[C@@H]1[C@H](O)C=C[C@H]1Nc1cccnc1C[NH+]1CC[C@@H]1C1CC1
     RDKit          3D

 46 49  0  0  1  0  0  0  0  0999 V2000
  124.0617  132.5142  160.8432 O   0  0  0  0  0  0  0  0  0  0  0  0
  125.3805  133.0473  160.9788 C   0  0  2  0  0  0  0  0  0  0  0  0
  125.9136  132.5649  161.7981 H   0  0  0  0  0  0  0  0  0  0  0  0
  125.3423  134.5815  161.1686 C   0  0  2  0  0  0  0  0  0  0  0  0
  126.1666  134.9063  161.8034 H   0  0  0  0  0  0  0  0  0  0  0  0
  124.0924  134.9823  161.7334 O   0  0  0  0  0  0  0  0  0  0  0  0
  125.4949  135.1447  159.7748 C   0  0  0  0  0  0  0  0  0  0  0  0
  125.9455  134.2400  158.9489 C   0  0  0  0  0  0  0  0  0  0  0  0
  126.1686  132.9225  159.6542 C   0  0  1  0  0  0  0  0  0  0  0  0
  125.7783  132.0989  159.0563 H   0  0  0  0  0  0  0  0  0  0  0  0
  127.5947  132.7239  159.9254 N   0  0  0  0  0  0  0  0  0  0  0  0
  128.4945  132.5860  158.8658 C   0  0  0  0  0  0  0  0  0  0  0  0
  128.7785  131.3281  158.3386 C   0  0  0  0  0  0  0  0  0  0  0  0
  129.6813  131.2421  157.2918 C   0  0  0  0  0  0  0  0  0  0  0  0
  130.2626  132.3981  156.8046 C   0  0  0  0  0  0  0  0  0  0  0  0
  129.9693  133.5746  157.3226 N   0  0  0  0  0  0  0  0  0  0  0  0
  129.1158  133.7014  158.3192 C   0  0  0  0  0  0  0  0  0  0  0  0
  128.8159  135.0697  158.8750 C   0  0  0  0  0  0  0  0  0  0  0  0
  130.0704  135.8152  159.0442 N   0  0  1  0  0  0  0  0  0  0  0  0
  130.7140  135.6664  158.2814 H   0  0  0  0  0  0  0  0  0  0  0  0
  129.8546  137.2475  159.3463 C   0  0  0  0  0  0  0  0  0  0  0  0
  131.0273  137.1098  160.3340 C   0  0  0  0  0  0  0  0  0  0  0  0
  130.6905  135.6082  160.3715 C   0  0  2  0  0  0  0  0  0  0  0  0
  129.9802  135.3368  161.1525 H   0  0  0  0  0  0  0  0  0  0  0  0
  131.9211  134.6996  160.3420 C   0  0  0  0  0  0  0  0  0  0  0  0
  131.8014  133.3264  161.0061 C   0  0  0  0  0  0  0  0  0  0  0  0
  132.6309  134.4270  161.6705 C   0  0  0  0  0  0  0  0  0  0  0  0
  124.0388  131.5782  160.6013 H   0  0  0  0  0  0  0  0  0  0  0  0
  124.0121  135.9355  161.8748 H   0  0  0  0  0  0  0  0  0  0  0  0
  125.2614  136.1623  159.4982 H   0  0  0  0  0  0  0  0  0  0  0  0
  126.1344  134.4109  157.8993 H   0  0  0  0  0  0  0  0  0  0  0  0
  127.9137  132.6881  160.8408 H   0  0  0  0  0  0  0  0  0  0  0  0
  128.3093  130.4416  158.7390 H   0  0  0  0  0  0  0  0  0  0  0  0
  129.9286  130.2830  156.8613 H   0  0  0  0  0  0  0  0  0  0  0  0
  130.9673  132.3366  155.9883 H   0  0  0  0  0  0  0  0  0  0  0  0
  128.3200  134.9691  159.8404 H   0  0  0  0  0  0  0  0  0  0  0  0
  128.1641  135.6069  158.1860 H   0  0  0  0  0  0  0  0  0  0  0  0
  128.8984  137.4558  159.8263 H   0  0  0  0  0  0  0  0  0  0  0  0
  130.0627  137.9113  158.5073 H   0  0  0  0  0  0  0  0  0  0  0  0
  130.8636  137.6200  161.2833 H   0  0  0  0  0  0  0  0  0  0  0  0
  131.9997  137.3304  159.8939 H   0  0  0  0  0  0  0  0  0  0  0  0
  132.5388  134.7736  159.4471 H   0  0  0  0  0  0  0  0  0  0  0  0
  130.8460  133.0704  161.4639 H   0  0  0  0  0  0  0  0  0  0  0  0
  132.3403  132.4971  160.5480 H   0  0  0  0  0  0  0  0  0  0  0  0
  132.2211  134.8950  162.5656 H   0  0  0  0  0  0  0  0  0  0  0  0
  133.7156  134.3219  161.6493 H   0  0  0  0  0  0  0  0  0  0  0  0
  1  2  1  0
  1 28  1  0
  2  3  1  1
  2  9  1  0
  2  4  1  0
  4  5  1  1
  4  6  1  0
  4  7  1  0
  6 29  1  0
  7  8  2  0
  7 30  1  0
  8  9  1  0
  8 31  1  0
  9 10  1  6
  9 11  1  0
 11 12  1  0
 11 32  1  0
 12 17  1  0
 12 13  2  0
 13 14  1  0
 13 33  1  0
 14 15  2  0
 14 34  1  0
 15 16  1  0
 15 35  1  0
 16 17  2  0
 17 18  1  0
 18 19  1  0
 18 36  1  0
 18 37  1  0
 19 20  1  6
 19 23  1  0
 19 21  1  0
 21 22  1  0
 21 38  1  0
 21 39  1  0
 22 23  1  0
 22 40  1  0
 22 41  1  0
 23 24  1  1
 23 25  1  0
 25 27  1  0
 25 26  1  0
 25 42  1  0
 26 27  1  0
 26 43  1  0
 26 44  1  0
 27 45  1  0
 27 46  1  0
M  CHG  1  19   1
M  END
>  <DOCK_score>  (1) 
-46.911106

>  <SMILES>  (1) 
O[C@@H]1[C@H](O)C=C[C@H]1Nc1cccnc1C[NH+]1CC[C@@H]1C1CC1

$$$$
