CCc1ccc(-c2c[nH]c(Nc3ccncc3C3=CC[N@@H+](C4=CCCCC4)C3)[nH+]2)cc1
     RDKit          3D

 62 66  0  0  1  0  0  0  0  0999 V2000
  130.4714  128.7686  151.7256 C   0  0  0  0  0  0  0  0  0  0  0  0
  131.6906  129.5438  152.2281 C   0  0  0  0  0  0  0  0  0  0  0  0
  131.3055  130.3576  153.4365 C   0  0  0  0  0  0  0  0  0  0  0  0
  131.4211  129.8099  154.7015 C   0  0  0  0  0  0  0  0  0  0  0  0
  131.0753  130.5526  155.8121 C   0  0  0  0  0  0  0  0  0  0  0  0
  130.5983  131.8529  155.6567 C   0  0  0  0  0  0  0  0  0  0  0  0
  130.2193  132.6540  156.8461 C   0  0  0  0  0  0  0  0  0  0  0  0
  129.7432  132.1659  158.0188 C   0  0  0  0  0  0  0  0  0  0  0  0
  129.5236  133.2443  158.8396 N   0  0  0  0  0  0  0  0  0  0  0  0
  129.1830  133.2154  159.7473 H   0  0  0  0  0  0  0  0  0  0  0  0
  129.8721  134.3614  158.1444 C   0  0  0  0  0  0  0  0  0  0  0  0
  129.7992  135.6618  158.6173 N   0  0  0  0  0  0  0  0  0  0  0  0
  128.8320  136.0077  159.5552 C   0  0  0  0  0  0  0  0  0  0  0  0
  127.6057  135.3480  159.5957 C   0  0  0  0  0  0  0  0  0  0  0  0
  126.6724  135.7195  160.5411 C   0  0  0  0  0  0  0  0  0  0  0  0
  126.9220  136.6869  161.4046 N   0  0  0  0  0  0  0  0  0  0  0  0
  128.0651  137.3426  161.4095 C   0  0  0  0  0  0  0  0  0  0  0  0
  129.0671  137.0295  160.4934 C   0  0  0  0  0  0  0  0  0  0  0  0
  130.3504  137.7608  160.5033 C   0  0  0  0  0  0  0  0  0  0  0  0
  130.4918  139.0677  160.3233 C   0  0  0  0  0  0  0  0  0  0  0  0
  131.9580  139.4247  160.4082 C   0  0  0  0  0  0  0  0  0  0  0  0
  132.6849  138.1457  160.2301 N   0  0  1  0  0  0  0  0  0  0  0  0
  132.9032  137.9920  159.2571 H   0  0  0  0  0  0  0  0  0  0  0  0
  133.8458  138.1247  161.0087 C   0  0  0  0  0  0  0  0  0  0  0  0
  134.7400  139.0345  160.7897 C   0  0  0  0  0  0  0  0  0  0  0  0
  136.0358  139.1375  161.5394 C   0  0  0  0  0  0  0  0  0  0  0  0
  135.9678  138.3147  162.8278 C   0  0  0  0  0  0  0  0  0  0  0  0
  135.4399  136.9164  162.4832 C   0  0  0  0  0  0  0  0  0  0  0  0
  133.9802  137.0450  162.0425 C   0  0  0  0  0  0  0  0  0  0  0  0
  131.7114  137.1385  160.7139 C   0  0  0  0  0  0  0  0  0  0  0  0
  130.2928  134.0038  156.9557 N   0  0  0  0  0  0  0  0  0  0  0  0
  130.6043  134.6082  156.2639 H   0  0  0  0  0  0  0  0  0  0  0  0
  130.4790  132.3978  154.3793 C   0  0  0  0  0  0  0  0  0  0  0  0
  130.8334  131.6479  153.2763 C   0  0  0  0  0  0  0  0  0  0  0  0
  130.1137  128.1043  152.5123 H   0  0  0  0  0  0  0  0  0  0  0  0
  130.7498  128.1800  150.8516 H   0  0  0  0  0  0  0  0  0  0  0  0
  129.6816  129.4695  151.4550 H   0  0  0  0  0  0  0  0  0  0  0  0
  132.4807  128.8430  152.4987 H   0  0  0  0  0  0  0  0  0  0  0  0
  132.0486  130.2081  151.4415 H   0  0  0  0  0  0  0  0  0  0  0  0
  131.7861  128.8004  154.8204 H   0  0  0  0  0  0  0  0  0  0  0  0
  131.1702  130.1255  156.7996 H   0  0  0  0  0  0  0  0  0  0  0  0
  129.5697  131.1276  158.2602 H   0  0  0  0  0  0  0  0  0  0  0  0
  130.4227  136.3311  158.2944 H   0  0  0  0  0  0  0  0  0  0  0  0
  127.3882  134.5554  158.8950 H   0  0  0  0  0  0  0  0  0  0  0  0
  125.7205  135.2103  160.5755 H   0  0  0  0  0  0  0  0  0  0  0  0
  128.2285  138.1275  162.1333 H   0  0  0  0  0  0  0  0  0  0  0  0
  129.6869  139.7657  160.1460 H   0  0  0  0  0  0  0  0  0  0  0  0
  132.1888  139.8577  161.3814 H   0  0  0  0  0  0  0  0  0  0  0  0
  132.2218  140.1224  159.6133 H   0  0  0  0  0  0  0  0  0  0  0  0
  134.5396  139.7672  160.0220 H   0  0  0  0  0  0  0  0  0  0  0  0
  136.2309  140.1810  161.7869 H   0  0  0  0  0  0  0  0  0  0  0  0
  136.8436  138.7602  160.9120 H   0  0  0  0  0  0  0  0  0  0  0  0
  135.2932  138.7970  163.5353 H   0  0  0  0  0  0  0  0  0  0  0  0
  136.9636  138.2334  163.2637 H   0  0  0  0  0  0  0  0  0  0  0  0
  135.5020  136.2744  163.3620 H   0  0  0  0  0  0  0  0  0  0  0  0
  136.0314  136.4910  161.6724 H   0  0  0  0  0  0  0  0  0  0  0  0
  133.3626  137.2925  162.9057 H   0  0  0  0  0  0  0  0  0  0  0  0
  133.6475  136.0969  161.6201 H   0  0  0  0  0  0  0  0  0  0  0  0
  131.8737  136.9351  161.7724 H   0  0  0  0  0  0  0  0  0  0  0  0
  131.7994  136.2189  160.1357 H   0  0  0  0  0  0  0  0  0  0  0  0
  130.1102  133.4050  154.2531 H   0  0  0  0  0  0  0  0  0  0  0  0
  130.7413  132.0692  152.2861 H   0  0  0  0  0  0  0  0  0  0  0  0
  1  2  1  0
  1 35  1  0
  1 36  1  0
  1 37  1  0
  2  3  1  0
  2 38  1  0
  2 39  1  0
  3 34  2  0
  3  4  1  0
  4  5  2  0
  4 40  1  0
  5  6  1  0
  5 41  1  0
  6  7  1  0
  6 33  2  0
  7 31  1  0
  7  8  2  0
  8  9  1  0
  8 42  1  0
  9 10  1  0
  9 11  1  0
 11 12  1  0
 11 31  2  0
 12 13  1  0
 12 43  1  0
 13 18  1  0
 13 14  2  0
 14 15  1  0
 14 44  1  0
 15 16  2  0
 15 45  1  0
 16 17  1  0
 17 18  2  0
 17 46  1  0
 18 19  1  0
 19 30  1  0
 19 20  2  0
 20 21  1  0
 20 47  1  0
 21 22  1  0
 21 48  1  0
 21 49  1  0
 22 23  1  6
 22 24  1  0
 22 30  1  0
 24 29  1  0
 24 25  2  0
 25 26  1  0
 25 50  1  0
 26 27  1  0
 26 51  1  0
 26 52  1  0
 27 28  1  0
 27 53  1  0
 27 54  1  0
 28 29  1  0
 28 55  1  0
 28 56  1  0
 29 57  1  0
 29 58  1  0
 30 59  1  0
 30 60  1  0
 31 32  1  0
 33 34  1  0
 33 61  1  0
 34 62  1  0
M  CHG  2  22   1  31   1
M  END
>  <DOCK_score>  (1) 
-59.872719

>  <SMILES>  (1) 
CCc1ccc(-c2c[nH]c(Nc3ccncc3C3=CC[N@@H+](C4=CCCCC4)C3)[nH+]2)cc1

$$$$
