Cc1ccc([C@H](Nc2[nH]cc(C3=CCCC3)[nH+]2)c2ccccc2)cc1
     RDKit          3D

 49 52  0  0  1  0  0  0  0  0999 V2000
  130.5192  140.7283  161.8446 C   0  0  0  0  0  0  0  0  0  0  0  0
  130.1712  139.3704  161.2912 C   0  0  0  0  0  0  0  0  0  0  0  0
  129.9792  138.3031  162.1486 C   0  0  0  0  0  0  0  0  0  0  0  0
  129.6601  137.0576  161.6411 C   0  0  0  0  0  0  0  0  0  0  0  0
  129.5330  136.8793  160.2761 C   0  0  0  0  0  0  0  0  0  0  0  0
  129.1854  135.5213  159.7227 C   0  0  2  0  0  0  0  0  0  0  0  0
  129.0739  134.8124  160.5432 H   0  0  0  0  0  0  0  0  0  0  0  0
  130.2548  135.0699  158.8291 N   0  0  0  0  0  0  0  0  0  0  0  0
  130.1574  133.8415  158.1985 C   0  0  0  0  0  0  0  0  0  0  0  0
  129.5111  132.7484  158.6885 N   0  0  0  0  0  0  0  0  0  0  0  0
  129.0403  132.6911  159.5347 H   0  0  0  0  0  0  0  0  0  0  0  0
  129.6437  131.7433  157.7625 C   0  0  0  0  0  0  0  0  0  0  0  0
  130.3751  132.2486  156.7351 C   0  0  0  0  0  0  0  0  0  0  0  0
  130.7711  131.5240  155.5101 C   0  0  0  0  0  0  0  0  0  0  0  0
  130.9914  130.2216  155.4464 C   0  0  0  0  0  0  0  0  0  0  0  0
  131.3848  129.8114  154.0462 C   0  0  0  0  0  0  0  0  0  0  0  0
  130.9641  131.0006  153.1528 C   0  0  0  0  0  0  0  0  0  0  0  0
  130.9854  132.1716  154.1617 C   0  0  0  0  0  0  0  0  0  0  0  0
  130.6725  133.5401  157.0318 N   0  0  0  0  0  0  0  0  0  0  0  0
  131.1839  134.1430  156.4699 H   0  0  0  0  0  0  0  0  0  0  0  0
  127.8919  135.6080  158.9545 C   0  0  0  0  0  0  0  0  0  0  0  0
  126.6888  135.3913  159.6001 C   0  0  0  0  0  0  0  0  0  0  0  0
  125.5019  135.4752  158.8964 C   0  0  0  0  0  0  0  0  0  0  0  0
  125.5185  135.7668  157.5453 C   0  0  0  0  0  0  0  0  0  0  0  0
  126.7219  135.9783  156.8986 C   0  0  0  0  0  0  0  0  0  0  0  0
  127.9085  135.8987  157.6033 C   0  0  0  0  0  0  0  0  0  0  0  0
  129.7302  137.9454  159.4185 C   0  0  0  0  0  0  0  0  0  0  0  0
  130.0437  139.1922  159.9264 C   0  0  0  0  0  0  0  0  0  0  0  0
  131.6026  140.8251  161.9150 H   0  0  0  0  0  0  0  0  0  0  0  0
  130.1276  141.5013  161.1835 H   0  0  0  0  0  0  0  0  0  0  0  0
  130.0793  140.8405  162.8356 H   0  0  0  0  0  0  0  0  0  0  0  0
  130.0790  138.4424  163.2150 H   0  0  0  0  0  0  0  0  0  0  0  0
  129.5103  136.2238  162.3109 H   0  0  0  0  0  0  0  0  0  0  0  0
  131.0311  135.6319  158.6791 H   0  0  0  0  0  0  0  0  0  0  0  0
  129.2448  130.7426  157.8372 H   0  0  0  0  0  0  0  0  0  0  0  0
  130.9021  129.5430  156.2817 H   0  0  0  0  0  0  0  0  0  0  0  0
  130.8510  128.9080  153.7514 H   0  0  0  0  0  0  0  0  0  0  0  0
  132.4616  129.6536  153.9855 H   0  0  0  0  0  0  0  0  0  0  0  0
  129.9625  130.8509  152.7495 H   0  0  0  0  0  0  0  0  0  0  0  0
  131.6856  131.1621  152.3520 H   0  0  0  0  0  0  0  0  0  0  0  0
  130.1798  132.8735  153.9456 H   0  0  0  0  0  0  0  0  0  0  0  0
  131.9496  132.6792  154.1337 H   0  0  0  0  0  0  0  0  0  0  0  0
  126.6761  135.1599  160.6549 H   0  0  0  0  0  0  0  0  0  0  0  0
  124.5617  135.3103  159.4018 H   0  0  0  0  0  0  0  0  0  0  0  0
  124.5915  135.8296  156.9949 H   0  0  0  0  0  0  0  0  0  0  0  0
  126.7349  136.2060  155.8430 H   0  0  0  0  0  0  0  0  0  0  0  0
  128.8486  136.0639  157.0979 H   0  0  0  0  0  0  0  0  0  0  0  0
  129.6351  137.8050  158.3518 H   0  0  0  0  0  0  0  0  0  0  0  0
  130.1935  140.0261  159.2565 H   0  0  0  0  0  0  0  0  0  0  0  0
  1  2  1  0
  1 29  1  0
  1 30  1  0
  1 31  1  0
  2 28  2  0
  2  3  1  0
  3  4  2  0
  3 32  1  0
  4  5  1  0
  4 33  1  0
  5  6  1  0
  5 27  2  0
  6  7  1  1
  6  8  1  0
  6 21  1  0
  8 34  1  0
  9  8  1  0
  9 19  2  0
  9 10  1  0
 10 11  1  0
 10 12  1  0
 12 13  2  0
 12 35  1  0
 13 14  1  0
 13 19  1  0
 14 18  1  0
 14 15  2  0
 15 16  1  0
 15 36  1  0
 16 17  1  0
 16 37  1  0
 16 38  1  0
 17 18  1  0
 17 39  1  0
 17 40  1  0
 18 41  1  0
 18 42  1  0
 19 20  1  0
 21 26  1  0
 21 22  2  0
 22 23  1  0
 22 43  1  0
 23 24  2  0
 23 44  1  0
 24 25  1  0
 24 45  1  0
 25 26  2  0
 25 46  1  0
 26 47  1  0
 27 28  1  0
 27 48  1  0
 28 49  1  0
M  CHG  1  19   1
M  END
>  <DOCK_score>  (1) 
-59.275661

>  <SMILES>  (1) 
Cc1ccc([C@H](Nc2[nH]cc(C3=CCCC3)[nH+]2)c2ccccc2)cc1

$$$$
