O=C1CC[C@H](NC(NC2CCC2)=[NH+][C@@H]2CCc3cc(F)ccc32)CN1
     RDKit          3D

 51 54  0  0  1  0  0  0  0  0999 V2000
  123.9463  133.6699  161.6479 O   0  0  0  0  0  0  0  0  0  0  0  0
  125.1047  133.8247  161.3238 C   0  0  0  0  0  0  0  0  0  0  0  0
  125.9018  132.6130  160.9344 C   0  0  0  0  0  0  0  0  0  0  0  0
  127.3976  132.9319  160.9850 C   0  0  0  0  0  0  0  0  0  0  0  0
  127.6391  134.2461  160.2326 C   0  0  2  0  0  0  0  0  0  0  0  0
  127.1982  134.1841  159.2376 H   0  0  0  0  0  0  0  0  0  0  0  0
  129.0792  134.4892  160.1177 N   0  0  0  0  0  0  0  0  0  0  0  0
  129.7729  134.0092  159.0321 C   0  0  0  0  0  0  0  0  0  0  0  0
  129.1151  133.3011  158.0543 N   0  0  0  0  0  0  0  0  0  0  0  0
  129.8541  132.7897  156.8974 C   0  0  0  0  0  0  0  0  0  0  0  0
  129.1638  131.6060  156.1996 C   0  0  0  0  0  0  0  0  0  0  0  0
  130.5639  130.9854  156.0435 C   0  0  0  0  0  0  0  0  0  0  0  0
  130.9826  131.8135  157.2698 C   0  0  0  0  0  0  0  0  0  0  0  0
  131.0541  134.2256  158.9298 N   0  0  0  0  0  0  0  0  0  0  0  0
  131.4651  134.3004  158.0544 H   0  0  0  0  0  0  0  0  0  0  0  0
  131.8736  134.3558  160.1372 C   0  0  2  0  0  0  0  0  0  0  0  0
  132.9152  134.5329  159.8693 H   0  0  0  0  0  0  0  0  0  0  0  0
  131.7526  133.0860  161.0062 C   0  0  0  0  0  0  0  0  0  0  0  0
  131.8376  133.6553  162.4382 C   0  0  0  0  0  0  0  0  0  0  0  0
  131.3355  135.0793  162.3290 C   0  0  0  0  0  0  0  0  0  0  0  0
  130.8954  135.9526  163.3091 C   0  0  0  0  0  0  0  0  0  0  0  0
  130.4767  137.2264  162.9689 C   0  0  0  0  0  0  0  0  0  0  0  0
  130.0482  138.0764  163.9275 F   0  0  0  0  0  0  0  0  0  0  0  0
  130.4979  137.6285  161.6440 C   0  0  0  0  0  0  0  0  0  0  0  0
  130.9366  136.7574  160.6669 C   0  0  0  0  0  0  0  0  0  0  0  0
  131.3554  135.4831  161.0046 C   0  0  0  0  0  0  0  0  0  0  0  0
  126.9867  135.3880  161.0128 C   0  0  0  0  0  0  0  0  0  0  0  0
  125.6027  135.0618  161.3328 N   0  0  0  0  0  0  0  0  0  0  0  0
  125.6811  131.7977  161.6234 H   0  0  0  0  0  0  0  0  0  0  0  0
  125.6336  132.3135  159.9213 H   0  0  0  0  0  0  0  0  0  0  0  0
  127.9624  132.1289  160.5117 H   0  0  0  0  0  0  0  0  0  0  0  0
  127.7124  133.0402  162.0230 H   0  0  0  0  0  0  0  0  0  0  0  0
  129.5433  134.9887  160.8076 H   0  0  0  0  0  0  0  0  0  0  0  0
  128.1615  133.1404  158.1304 H   0  0  0  0  0  0  0  0  0  0  0  0
  130.1670  133.5780  156.2128 H   0  0  0  0  0  0  0  0  0  0  0  0
  128.5044  131.0368  156.8550 H   0  0  0  0  0  0  0  0  0  0  0  0
  128.6945  131.8709  155.2521 H   0  0  0  0  0  0  0  0  0  0  0  0
  131.0705  131.2795  155.1243 H   0  0  0  0  0  0  0  0  0  0  0  0
  130.5886  129.9091  156.2145 H   0  0  0  0  0  0  0  0  0  0  0  0
  131.9795  132.2458  157.1850 H   0  0  0  0  0  0  0  0  0  0  0  0
  130.8215  131.3013  158.2184 H   0  0  0  0  0  0  0  0  0  0  0  0
  130.7942  132.5936  160.8411 H   0  0  0  0  0  0  0  0  0  0  0  0
  132.5774  132.4013  160.8086 H   0  0  0  0  0  0  0  0  0  0  0  0
  131.2019  133.0808  163.1120 H   0  0  0  0  0  0  0  0  0  0  0  0
  132.8696  133.6440  162.7892 H   0  0  0  0  0  0  0  0  0  0  0  0
  130.8793  135.6387  164.3423 H   0  0  0  0  0  0  0  0  0  0  0  0
  130.1716  138.6225  161.3753 H   0  0  0  0  0  0  0  0  0  0  0  0
  130.9529  137.0717  159.6338 H   0  0  0  0  0  0  0  0  0  0  0  0
  127.5403  135.5556  161.9366 H   0  0  0  0  0  0  0  0  0  0  0  0
  127.0094  136.2956  160.4095 H   0  0  0  0  0  0  0  0  0  0  0  0
  125.0063  135.7902  161.5666 H   0  0  0  0  0  0  0  0  0  0  0  0
  1  2  2  0
  2 28  1  0
  2  3  1  0
  3  4  1  0
  3 29  1  0
  3 30  1  0
  4  5  1  0
  4 31  1  0
  4 32  1  0
  5  6  1  6
  5  7  1  0
  5 27  1  0
  7 33  1  0
  8  7  1  0
  8  9  1  0
  8 14  2  0
  9 10  1  0
  9 34  1  0
 10 13  1  0
 10 11  1  0
 10 35  1  0
 11 12  1  0
 11 36  1  0
 11 37  1  0
 12 13  1  0
 12 38  1  0
 12 39  1  0
 13 40  1  0
 13 41  1  0
 14 15  1  0
 14 16  1  0
 16 17  1  6
 16 26  1  0
 16 18  1  0
 18 19  1  0
 18 42  1  0
 18 43  1  0
 19 20  1  0
 19 44  1  0
 19 45  1  0
 20 26  2  0
 20 21  1  0
 21 22  2  0
 21 46  1  0
 22 23  1  0
 22 24  1  0
 24 25  2  0
 24 47  1  0
 25 26  1  0
 25 48  1  0
 27 28  1  0
 27 49  1  0
 27 50  1  0
 28 51  1  0
M  CHG  1  14   1
M  END
>  <DOCK_score>  (1) 
-42.307709

>  <SMILES>  (1) 
O=C1CC[C@H](NC(NC2CCC2)=[NH+][C@@H]2CCc3cc(F)ccc32)CN1

$$$$
