CCc1ccc(-c2c[nH]c(N[C@@H](Cc3ccncc3)c3ccccc3)[nH+]2)cc1
     RDKit          3D

 53 56  0  0  1  0  0  0  0  0999 V2000
  130.5959  128.4635  151.5471 C   0  0  0  0  0  0  0  0  0  0  0  0
  131.6821  129.4764  151.9145 C   0  0  0  0  0  0  0  0  0  0  0  0
  131.2979  130.1859  153.1873 C   0  0  0  0  0  0  0  0  0  0  0  0
  131.6903  129.6699  154.4088 C   0  0  0  0  0  0  0  0  0  0  0  0
  131.3462  130.3183  155.5775 C   0  0  0  0  0  0  0  0  0  0  0  0
  130.5919  131.4892  155.5256 C   0  0  0  0  0  0  0  0  0  0  0  0
  130.2143  132.1876  156.7786 C   0  0  0  0  0  0  0  0  0  0  0  0
  129.4799  131.6665  157.7925 C   0  0  0  0  0  0  0  0  0  0  0  0
  129.3683  132.6466  158.7486 N   0  0  0  0  0  0  0  0  0  0  0  0
  128.8984  132.5736  159.5939 H   0  0  0  0  0  0  0  0  0  0  0  0
  130.0385  133.7389  158.2905 C   0  0  0  0  0  0  0  0  0  0  0  0
  130.1664  134.9449  158.9580 N   0  0  0  0  0  0  0  0  0  0  0  0
  129.1104  135.3937  159.8689 C   0  0  1  0  0  0  0  0  0  0  0  0
  128.9847  134.6627  160.6676 H   0  0  0  0  0  0  0  0  0  0  0  0
  129.4970  136.7459  160.4712 C   0  0  0  0  0  0  0  0  0  0  0  0
  130.7904  136.6057  161.2318 C   0  0  0  0  0  0  0  0  0  0  0  0
  131.1312  135.4059  161.8374 C   0  0  0  0  0  0  0  0  0  0  0  0
  132.3277  135.3135  162.5229 C   0  0  0  0  0  0  0  0  0  0  0  0
  133.1357  136.3519  162.6124 N   0  0  0  0  0  0  0  0  0  0  0  0
  132.8420  137.5094  162.0530 C   0  0  0  0  0  0  0  0  0  0  0  0
  131.6652  137.6751  161.3474 C   0  0  0  0  0  0  0  0  0  0  0  0
  127.8170  135.5340  159.1082 C   0  0  0  0  0  0  0  0  0  0  0  0
  126.6110  135.3257  159.7510 C   0  0  0  0  0  0  0  0  0  0  0  0
  125.4245  135.4584  159.0542 C   0  0  0  0  0  0  0  0  0  0  0  0
  125.4443  135.7911  157.7126 C   0  0  0  0  0  0  0  0  0  0  0  0
  126.6505  135.9942  157.0685 C   0  0  0  0  0  0  0  0  0  0  0  0
  127.8369  135.8654  157.7664 C   0  0  0  0  0  0  0  0  0  0  0  0
  130.5475  133.4588  157.1156 N   0  0  0  0  0  0  0  0  0  0  0  0
  131.0760  134.0645  156.5727 H   0  0  0  0  0  0  0  0  0  0  0  0
  130.1943  132.0017  154.2920 C   0  0  0  0  0  0  0  0  0  0  0  0
  130.5490  131.3480  153.1294 C   0  0  0  0  0  0  0  0  0  0  0  0
  130.8737  127.9506  150.6265 H   0  0  0  0  0  0  0  0  0  0  0  0
  130.4918  127.7354  152.3516 H   0  0  0  0  0  0  0  0  0  0  0  0
  129.6485  128.9827  151.4022 H   0  0  0  0  0  0  0  0  0  0  0  0
  132.6292  128.9578  152.0590 H   0  0  0  0  0  0  0  0  0  0  0  0
  131.7859  130.2051  151.1096 H   0  0  0  0  0  0  0  0  0  0  0  0
  132.2707  128.7600  154.4480 H   0  0  0  0  0  0  0  0  0  0  0  0
  131.6572  129.9170  156.5307 H   0  0  0  0  0  0  0  0  0  0  0  0
  129.0623  130.6715  157.8392 H   0  0  0  0  0  0  0  0  0  0  0  0
  130.9554  135.4928  158.8227 H   0  0  0  0  0  0  0  0  0  0  0  0
  129.6225  137.4769  159.6726 H   0  0  0  0  0  0  0  0  0  0  0  0
  128.7112  137.0797  161.1490 H   0  0  0  0  0  0  0  0  0  0  0  0
  130.4715  134.5534  161.7715 H   0  0  0  0  0  0  0  0  0  0  0  0
  132.6020  134.3815  162.9946 H   0  0  0  0  0  0  0  0  0  0  0  0
  133.5287  138.3375  162.1477 H   0  0  0  0  0  0  0  0  0  0  0  0
  131.4300  138.6258  160.8922 H   0  0  0  0  0  0  0  0  0  0  0  0
  126.5956  135.0625  160.7983 H   0  0  0  0  0  0  0  0  0  0  0  0
  124.4821  135.2994  159.5573 H   0  0  0  0  0  0  0  0  0  0  0  0
  124.5174  135.8921  157.1676 H   0  0  0  0  0  0  0  0  0  0  0  0
  126.6660  136.2537  156.0204 H   0  0  0  0  0  0  0  0  0  0  0  0
  128.7791  136.0240  157.2632 H   0  0  0  0  0  0  0  0  0  0  0  0
  129.6095  132.9086  154.2459 H   0  0  0  0  0  0  0  0  0  0  0  0
  130.2411  131.7441  152.1730 H   0  0  0  0  0  0  0  0  0  0  0  0
  1  2  1  0
  1 32  1  0
  1 33  1  0
  1 34  1  0
  2  3  1  0
  2 35  1  0
  2 36  1  0
  3 31  2  0
  3  4  1  0
  4  5  2  0
  4 37  1  0
  5  6  1  0
  5 38  1  0
  6  7  1  0
  6 30  2  0
  7 28  1  0
  7  8  2  0
  8  9  1  0
  8 39  1  0
  9 10  1  0
  9 11  1  0
 11 12  1  0
 11 28  2  0
 12 13  1  0
 12 40  1  0
 13 14  1  1
 13 15  1  0
 13 22  1  0
 15 16  1  0
 15 41  1  0
 15 42  1  0
 16 21  1  0
 16 17  2  0
 17 18  1  0
 17 43  1  0
 18 19  2  0
 18 44  1  0
 19 20  1  0
 20 21  2  0
 20 45  1  0
 21 46  1  0
 22 27  1  0
 22 23  2  0
 23 24  1  0
 23 47  1  0
 24 25  2  0
 24 48  1  0
 25 26  1  0
 25 49  1  0
 26 27  2  0
 26 50  1  0
 27 51  1  0
 28 29  1  0
 30 31  1  0
 30 52  1  0
 31 53  1  0
M  CHG  1  28   1
M  END
>  <DOCK_score>  (1) 
-60.496769

>  <SMILES>  (1) 
CCc1ccc(-c2c[nH]c(N[C@@H](Cc3ccncc3)c3ccccc3)[nH+]2)cc1

$$$$
