CCc1ccc([C@H](Nc2[nH]cc(-c3ccc(N)cc3)[nH+]2)c2ccccc2Cl)cc1
     RDKit          3D

 53 56  0  0  1  0  0  0  0  0999 V2000
  124.8650  132.2497  161.9838 C   0  0  0  0  0  0  0  0  0  0  0  0
  124.9967  133.0148  160.6655 C   0  0  0  0  0  0  0  0  0  0  0  0
  126.4227  132.9431  160.1832 C   0  0  0  0  0  0  0  0  0  0  0  0
  126.8212  131.9097  159.3559 C   0  0  0  0  0  0  0  0  0  0  0  0
  128.1279  131.8468  158.9091 C   0  0  0  0  0  0  0  0  0  0  0  0
  129.0388  132.8109  159.2989 C   0  0  0  0  0  0  0  0  0  0  0  0
  130.4648  132.7388  158.8169 C   0  0  2  0  0  0  0  0  0  0  0  0
  131.0572  132.1546  159.5212 H   0  0  0  0  0  0  0  0  0  0  0  0
  131.0164  134.0924  158.7197 N   0  0  0  0  0  0  0  0  0  0  0  0
  131.6570  134.6588  159.8085 C   0  0  0  0  0  0  0  0  0  0  0  0
  131.8435  134.0617  161.0170 N   0  0  0  0  0  0  0  0  0  0  0  0
  131.5537  133.1708  161.2686 H   0  0  0  0  0  0  0  0  0  0  0  0
  132.5177  134.9548  161.8157 C   0  0  0  0  0  0  0  0  0  0  0  0
  132.7229  136.0700  161.0721 C   0  0  0  0  0  0  0  0  0  0  0  0
  133.4142  137.3035  161.5209 C   0  0  0  0  0  0  0  0  0  0  0  0
  134.5620  137.7400  160.8611 C   0  0  0  0  0  0  0  0  0  0  0  0
  135.1996  138.8897  161.2766 C   0  0  0  0  0  0  0  0  0  0  0  0
  134.7057  139.6070  162.3598 C   0  0  0  0  0  0  0  0  0  0  0  0
  135.3568  140.7683  162.7827 N   0  0  0  0  0  0  0  0  0  0  0  0
  133.5646  139.1708  163.0226 C   0  0  0  0  0  0  0  0  0  0  0  0
  132.9202  138.0248  162.6067 C   0  0  0  0  0  0  0  0  0  0  0  0
  132.1889  135.8562  159.8436 N   0  0  0  0  0  0  0  0  0  0  0  0
  132.1972  136.4896  159.1088 H   0  0  0  0  0  0  0  0  0  0  0  0
  130.5042  132.0815  157.4613 C   0  0  0  0  0  0  0  0  0  0  0  0
  129.8211  132.6449  156.3998 C   0  0  0  0  0  0  0  0  0  0  0  0
  129.8614  132.0451  155.1551 C   0  0  0  0  0  0  0  0  0  0  0  0
  130.5756  130.8753  154.9738 C   0  0  0  0  0  0  0  0  0  0  0  0
  131.2546  130.3083  156.0354 C   0  0  0  0  0  0  0  0  0  0  0  0
  131.2193  130.9114  157.2803 C   0  0  0  0  0  0  0  0  0  0  0  0
  132.0716  130.1993  158.6146 Cl  0  0  0  0  0  0  0  0  0  0  0  0
  128.6415  133.8412  160.1303 C   0  0  0  0  0  0  0  0  0  0  0  0
  127.3334  133.9073  160.5725 C   0  0  0  0  0  0  0  0  0  0  0  0
  123.8337  132.3017  162.3327 H   0  0  0  0  0  0  0  0  0  0  0  0
  125.5237  132.6949  162.7296 H   0  0  0  0  0  0  0  0  0  0  0  0
  125.1441  131.2075  161.8285 H   0  0  0  0  0  0  0  0  0  0  0  0
  124.3381  132.5697  159.9197 H   0  0  0  0  0  0  0  0  0  0  0  0
  124.7177  134.0570  160.8206 H   0  0  0  0  0  0  0  0  0  0  0  0
  126.1108  131.1539  159.0554 H   0  0  0  0  0  0  0  0  0  0  0  0
  128.4382  131.0420  158.2593 H   0  0  0  0  0  0  0  0  0  0  0  0
  130.9330  134.5919  157.8924 H   0  0  0  0  0  0  0  0  0  0  0  0
  132.8249  134.7983  162.8392 H   0  0  0  0  0  0  0  0  0  0  0  0
  134.9488  137.1804  160.0223 H   0  0  0  0  0  0  0  0  0  0  0  0
  136.0864  139.2308  160.7629 H   0  0  0  0  0  0  0  0  0  0  0  0
  135.0125  141.2696  163.5384 H   0  0  0  0  0  0  0  0  0  0  0  0
  136.1533  141.0734  162.3206 H   0  0  0  0  0  0  0  0  0  0  0  0
  133.1824  139.7297  163.8640 H   0  0  0  0  0  0  0  0  0  0  0  0
  132.0333  137.6863  163.1219 H   0  0  0  0  0  0  0  0  0  0  0  0
  129.2591  133.5562  156.5421 H   0  0  0  0  0  0  0  0  0  0  0  0
  129.3315  132.4882  154.3250 H   0  0  0  0  0  0  0  0  0  0  0  0
  130.6031  130.4047  154.0020 H   0  0  0  0  0  0  0  0  0  0  0  0
  131.8124  129.3944  155.8936 H   0  0  0  0  0  0  0  0  0  0  0  0
  129.3531  134.5944  160.4349 H   0  0  0  0  0  0  0  0  0  0  0  0
  127.0230  134.7121  161.2224 H   0  0  0  0  0  0  0  0  0  0  0  0
  1  2  1  0
  1 33  1  0
  1 34  1  0
  1 35  1  0
  2  3  1  0
  2 36  1  0
  2 37  1  0
  3 32  2  0
  3  4  1  0
  4  5  2  0
  4 38  1  0
  5  6  1  0
  5 39  1  0
  6  7  1  0
  6 31  2  0
  7  8  1  1
  7  9  1  0
  7 24  1  0
  9 40  1  0
 10  9  1  0
 10 22  2  0
 10 11  1  0
 11 12  1  0
 11 13  1  0
 13 14  2  0
 13 41  1  0
 14 15  1  0
 14 22  1  0
 15 21  1  0
 15 16  2  0
 16 17  1  0
 16 42  1  0
 17 18  2  0
 17 43  1  0
 18 19  1  0
 18 20  1  0
 19 44  1  0
 19 45  1  0
 20 21  2  0
 20 46  1  0
 21 47  1  0
 22 23  1  0
 24 29  1  0
 24 25  2  0
 25 26  1  0
 25 48  1  0
 26 27  2  0
 26 49  1  0
 27 28  1  0
 27 50  1  0
 28 29  2  0
 28 51  1  0
 29 30  1  0
 31 32  1  0
 31 52  1  0
 32 53  1  0
M  CHG  1  22   1
M  END
>  <DOCK_score>  (1) 
-57.52359

>  <SMILES>  (1) 
CCc1ccc([C@H](Nc2[nH]cc(-c3ccc(N)cc3)[nH+]2)c2ccccc2Cl)cc1

$$$$
