O=C1CC[C@H](NC(N[C@H]2CCC(=O)NC2)=[NH+][C@H]2COc3cc(Br)ccc3C2)CN1
     RDKit          3D

 56 59  0  0  1  0  0  0  0  0999 V2000
  124.0541  133.6120  161.4027 O   0  0  0  0  0  0  0  0  0  0  0  0
  125.2176  133.8530  161.1596 C   0  0  0  0  0  0  0  0  0  0  0  0
  126.1002  132.7215  160.7168 C   0  0  0  0  0  0  0  0  0  0  0  0
  127.5707  133.1127  160.8822 C   0  0  0  0  0  0  0  0  0  0  0  0
  127.7782  134.4955  160.2529 C   0  0  2  0  0  0  0  0  0  0  0  0
  127.3948  134.4943  159.2325 H   0  0  0  0  0  0  0  0  0  0  0  0
  129.2066  134.8207  160.2408 N   0  0  0  0  0  0  0  0  0  0  0  0
  129.9826  134.4689  159.1617 C   0  0  0  0  0  0  0  0  0  0  0  0
  129.4181  133.8120  158.0941 N   0  0  0  0  0  0  0  0  0  0  0  0
  130.2230  132.8833  157.2965 C   0  0  1  0  0  0  0  0  0  0  0  0
  131.2653  133.2024  157.3055 H   0  0  0  0  0  0  0  0  0  0  0  0
  130.1120  131.4711  157.8838 C   0  0  0  0  0  0  0  0  0  0  0  0
  131.0998  130.5623  157.1482 C   0  0  0  0  0  0  0  0  0  0  0  0
  130.9485  130.7382  155.6644 C   0  0  0  0  0  0  0  0  0  0  0  0
  131.4064  129.8838  154.9355 O   0  0  0  0  0  0  0  0  0  0  0  0
  130.3378  131.7836  155.1056 N   0  0  0  0  0  0  0  0  0  0  0  0
  129.7056  132.8611  155.8577 C   0  0  0  0  0  0  0  0  0  0  0  0
  131.2535  134.7583  159.1509 N   0  0  0  0  0  0  0  0  0  0  0  0
  131.7054  134.9266  158.3094 H   0  0  0  0  0  0  0  0  0  0  0  0
  131.9993  134.8291  160.4097 C   0  0  1  0  0  0  0  0  0  0  0  0
  131.3329  134.6125  161.2449 H   0  0  0  0  0  0  0  0  0  0  0  0
  133.1481  133.8126  160.3881 C   0  0  0  0  0  0  0  0  0  0  0  0
  133.7914  133.8327  161.6632 O   0  0  0  0  0  0  0  0  0  0  0  0
  134.1433  135.0398  162.1774 C   0  0  0  0  0  0  0  0  0  0  0  0
  135.0732  135.0750  163.2115 C   0  0  0  0  0  0  0  0  0  0  0  0
  135.4535  136.2823  163.7631 C   0  0  0  0  0  0  0  0  0  0  0  0
  136.7240  136.3249  165.1631 Br  0  0  0  0  0  0  0  0  0  0  0  0
  134.9006  137.4605  163.2934 C   0  0  0  0  0  0  0  0  0  0  0  0
  133.9786  137.4286  162.2659 C   0  0  0  0  0  0  0  0  0  0  0  0
  133.5990  136.2208  161.7040 C   0  0  0  0  0  0  0  0  0  0  0  0
  132.5977  136.2280  160.5769 C   0  0  0  0  0  0  0  0  0  0  0  0
  127.0227  135.5336  161.0835 C   0  0  0  0  0  0  0  0  0  0  0  0
  125.6447  135.1085  161.2994 N   0  0  0  0  0  0  0  0  0  0  0  0
  125.9012  132.4958  159.6691 H   0  0  0  0  0  0  0  0  0  0  0  0
  125.8893  131.8407  161.3233 H   0  0  0  0  0  0  0  0  0  0  0  0
  128.2037  132.3817  160.3789 H   0  0  0  0  0  0  0  0  0  0  0  0
  127.8236  133.1499  161.9418 H   0  0  0  0  0  0  0  0  0  0  0  0
  129.6049  135.2842  160.9939 H   0  0  0  0  0  0  0  0  0  0  0  0
  128.4868  133.9635  157.8687 H   0  0  0  0  0  0  0  0  0  0  0  0
  130.3564  131.4952  158.9458 H   0  0  0  0  0  0  0  0  0  0  0  0
  129.0976  131.0961  157.7485 H   0  0  0  0  0  0  0  0  0  0  0  0
  132.1172  130.8210  157.4415 H   0  0  0  0  0  0  0  0  0  0  0  0
  130.9004  129.5233  157.4107 H   0  0  0  0  0  0  0  0  0  0  0  0
  130.3147  131.8321  154.1370 H   0  0  0  0  0  0  0  0  0  0  0  0
  128.6266  132.7073  155.8652 H   0  0  0  0  0  0  0  0  0  0  0  0
  129.9270  133.8156  155.3804 H   0  0  0  0  0  0  0  0  0  0  0  0
  133.8635  134.0838  159.6116 H   0  0  0  0  0  0  0  0  0  0  0  0
  132.7528  132.8160  160.1919 H   0  0  0  0  0  0  0  0  0  0  0  0
  135.5018  134.1553  163.5817 H   0  0  0  0  0  0  0  0  0  0  0  0
  135.1931  138.4053  163.7274 H   0  0  0  0  0  0  0  0  0  0  0  0
  133.5516  138.3500  161.8983 H   0  0  0  0  0  0  0  0  0  0  0  0
  131.8021  136.9380  160.8031 H   0  0  0  0  0  0  0  0  0  0  0  0
  133.0942  136.5228  159.6525 H   0  0  0  0  0  0  0  0  0  0  0  0
  127.5163  135.6516  162.0482 H   0  0  0  0  0  0  0  0  0  0  0  0
  127.0300  136.4892  160.5593 H   0  0  0  0  0  0  0  0  0  0  0  0
  124.9973  135.7827  161.5588 H   0  0  0  0  0  0  0  0  0  0  0  0
  1  2  2  0
  2 33  1  0
  2  3  1  0
  3  4  1  0
  3 34  1  0
  3 35  1  0
  4  5  1  0
  4 36  1  0
  4 37  1  0
  5  6  1  6
  5  7  1  0
  5 32  1  0
  7 38  1  0
  8  7  1  1
  8  9  1  0
  8 18  2  0
  9 10  1  0
  9 39  1  0
 10 11  1  6
 10 17  1  0
 10 12  1  0
 12 13  1  0
 12 40  1  0
 12 41  1  0
 13 14  1  0
 13 42  1  0
 13 43  1  0
 14 15  2  0
 14 16  1  0
 16 17  1  0
 16 44  1  0
 17 45  1  0
 17 46  1  0
 18 19  1  0
 18 20  1  0
 20 21  1  1
 20 31  1  0
 20 22  1  0
 22 23  1  0
 22 47  1  0
 22 48  1  0
 23 24  1  0
 24 30  2  0
 24 25  1  0
 25 26  2  0
 25 49  1  0
 26 27  1  0
 26 28  1  0
 28 29  2  0
 28 50  1  0
 29 30  1  0
 29 51  1  0
 30 31  1  0
 31 52  1  0
 31 53  1  0
 32 33  1  0
 32 54  1  0
 32 55  1  0
 33 56  1  0
M  CHG  1  18   1
M  END
>  <DOCK_score>  (1) 
-44.772552

>  <SMILES>  (1) 
O=C1CC[C@H](NC(N[C@H]2CCC(=O)NC2)=[NH+][C@H]2COc3cc(Br)ccc3C2)CN1

$$$$
