Oc1ccc(C[C@H]2CCC[NH+]2C2c3cc(O)ccc3-c3ccc(O)cc32)nc1
     RDKit          3D

 51 55  0  0  1  0  0  0  0  0999 V2000
  128.9921  138.7428  165.1913 O   0  0  0  0  0  0  0  0  0  0  0  0
  129.1913  138.5074  163.8677 C   0  0  0  0  0  0  0  0  0  0  0  0
  129.6593  139.5182  163.0338 C   0  0  0  0  0  0  0  0  0  0  0  0
  129.8417  139.2319  161.6907 C   0  0  0  0  0  0  0  0  0  0  0  0
  129.5659  137.9584  161.2286 C   0  0  0  0  0  0  0  0  0  0  0  0
  129.7681  137.6369  159.7702 C   0  0  0  0  0  0  0  0  0  0  0  0
  130.1287  136.1576  159.6192 C   0  0  1  0  0  0  0  0  0  0  0  0
  130.2782  135.9096  158.5684 H   0  0  0  0  0  0  0  0  0  0  0  0
  131.3995  135.8258  160.4403 C   0  0  0  0  0  0  0  0  0  0  0  0
  131.2294  134.3023  160.6791 C   0  0  0  0  0  0  0  0  0  0  0  0
  129.7040  134.1457  160.8520 C   0  0  0  0  0  0  0  0  0  0  0  0
  129.0693  135.3075  160.2030 N   0  0  2  0  0  0  0  0  0  0  0  0
  128.5482  135.8359  160.8868 H   0  0  0  0  0  0  0  0  0  0  0  0
  128.1656  134.8446  159.1413 C   0  0  0  0  0  0  0  0  0  0  0  0
  126.8792  134.3318  159.7408 C   0  0  0  0  0  0  0  0  0  0  0  0
  125.9092  134.9412  160.5069 C   0  0  0  0  0  0  0  0  0  0  0  0
  124.8039  134.2167  160.9324 C   0  0  0  0  0  0  0  0  0  0  0  0
  123.8475  134.8171  161.6883 O   0  0  0  0  0  0  0  0  0  0  0  0
  124.6763  132.8782  160.5856 C   0  0  0  0  0  0  0  0  0  0  0  0
  125.6444  132.2651  159.8200 C   0  0  0  0  0  0  0  0  0  0  0  0
  126.7580  132.9899  159.3891 C   0  0  0  0  0  0  0  0  0  0  0  0
  127.9274  132.5863  158.5699 C   0  0  0  0  0  0  0  0  0  0  0  0
  128.2614  131.3621  157.9861 C   0  0  0  0  0  0  0  0  0  0  0  0
  129.4254  131.2394  157.2586 C   0  0  0  0  0  0  0  0  0  0  0  0
  130.2698  132.3305  157.1027 C   0  0  0  0  0  0  0  0  0  0  0  0
  131.4162  132.2054  156.3838 O   0  0  0  0  0  0  0  0  0  0  0  0
  129.9427  133.5493  157.6818 C   0  0  0  0  0  0  0  0  0  0  0  0
  128.7794  133.6761  158.4095 C   0  0  0  0  0  0  0  0  0  0  0  0
  129.1236  137.0229  162.0455 N   0  0  0  0  0  0  0  0  0  0  0  0
  128.9314  137.2560  163.3289 C   0  0  0  0  0  0  0  0  0  0  0  0
  128.6662  137.9763  165.6825 H   0  0  0  0  0  0  0  0  0  0  0  0
  129.8710  140.5030  163.4234 H   0  0  0  0  0  0  0  0  0  0  0  0
  130.1992  139.9934  161.0135 H   0  0  0  0  0  0  0  0  0  0  0  0
  128.8495  137.8446  159.2215 H   0  0  0  0  0  0  0  0  0  0  0  0
  130.5761  138.2503  159.3714 H   0  0  0  0  0  0  0  0  0  0  0  0
  132.3015  136.0324  159.8644 H   0  0  0  0  0  0  0  0  0  0  0  0
  131.4076  136.3703  161.3845 H   0  0  0  0  0  0  0  0  0  0  0  0
  131.7535  133.9930  161.5834 H   0  0  0  0  0  0  0  0  0  0  0  0
  131.5797  133.7356  159.8164 H   0  0  0  0  0  0  0  0  0  0  0  0
  129.4507  134.1290  161.9120 H   0  0  0  0  0  0  0  0  0  0  0  0
  129.3691  133.2252  160.3739 H   0  0  0  0  0  0  0  0  0  0  0  0
  127.9587  135.6569  158.4445 H   0  0  0  0  0  0  0  0  0  0  0  0
  126.0090  135.9821  160.7767 H   0  0  0  0  0  0  0  0  0  0  0  0
  124.0236  135.7487  161.8782 H   0  0  0  0  0  0  0  0  0  0  0  0
  123.8158  132.3159  160.9170 H   0  0  0  0  0  0  0  0  0  0  0  0
  125.5414  131.2239  159.5520 H   0  0  0  0  0  0  0  0  0  0  0  0
  127.6072  130.5111  158.1051 H   0  0  0  0  0  0  0  0  0  0  0  0
  129.6814  130.2918  156.8082 H   0  0  0  0  0  0  0  0  0  0  0  0
  131.9380  133.0178  156.3311 H   0  0  0  0  0  0  0  0  0  0  0  0
  130.5991  134.3982  157.5605 H   0  0  0  0  0  0  0  0  0  0  0  0
  128.5675  136.4644  163.9671 H   0  0  0  0  0  0  0  0  0  0  0  0
  1  2  1  0
  1 31  1  0
  2 30  2  0
  2  3  1  0
  3  4  2  0
  3 32  1  0
  4  5  1  0
  4 33  1  0
  5  6  1  0
  5 29  2  0
  6  7  1  0
  6 34  1  0
  6 35  1  0
  7  8  1  6
  7 12  1  0
  7  9  1  0
  9 10  1  0
  9 36  1  0
  9 37  1  0
 10 11  1  0
 10 38  1  0
 10 39  1  0
 11 12  1  0
 11 40  1  0
 11 41  1  0
 12 13  1  1
 12 14  1  0
 14 28  1  0
 14 15  1  0
 14 42  1  0
 15 21  1  0
 15 16  2  0
 16 17  1  0
 16 43  1  0
 17 18  1  0
 17 19  2  0
 18 44  1  0
 19 20  1  0
 19 45  1  0
 20 21  2  0
 20 46  1  0
 21 22  1  0
 22 28  2  0
 22 23  1  0
 23 24  2  0
 23 47  1  0
 24 25  1  0
 24 48  1  0
 25 26  1  0
 25 27  2  0
 26 49  1  0
 27 28  1  0
 27 50  1  0
 29 30  1  0
 30 51  1  0
M  CHG  1  12   1
M  END
>  <DOCK_score>  (1) 
-41.524025

>  <SMILES>  (1) 
Oc1ccc(C[C@H]2CCC[NH+]2C2c3cc(O)ccc3-c3ccc(O)cc32)nc1

$$$$
