Nc1ccc(-c2c[nH]c(N[C@@H](C/C=C\Br)Cc3cccc4ccccc34)[nH+]2)cc1
     RDKit          3D

 53 56  0  0  1  0  0  0  0  0999 V2000
  129.5864  140.8927  162.3811 N   0  0  0  0  0  0  0  0  0  0  0  0
  129.4547  139.7432  161.5982 C   0  0  0  0  0  0  0  0  0  0  0  0
  130.3295  139.5193  160.5417 C   0  0  0  0  0  0  0  0  0  0  0  0
  130.2013  138.3853  159.7678 C   0  0  0  0  0  0  0  0  0  0  0  0
  129.1934  137.4633  160.0455 C   0  0  0  0  0  0  0  0  0  0  0  0
  129.0536  136.2424  159.2142 C   0  0  0  0  0  0  0  0  0  0  0  0
  127.8993  135.5782  158.9601 C   0  0  0  0  0  0  0  0  0  0  0  0
  128.2217  134.5133  158.1523 N   0  0  0  0  0  0  0  0  0  0  0  0
  127.6057  133.8517  157.8006 H   0  0  0  0  0  0  0  0  0  0  0  0
  129.5645  134.5595  157.9371 C   0  0  0  0  0  0  0  0  0  0  0  0
  130.2898  133.6618  157.1725 N   0  0  0  0  0  0  0  0  0  0  0  0
  129.8469  132.2700  157.0600 C   0  0  1  0  0  0  0  0  0  0  0  0
  128.7610  132.2403  156.9700 H   0  0  0  0  0  0  0  0  0  0  0  0
  130.4788  131.6322  155.8211 C   0  0  0  0  0  0  0  0  0  0  0  0
  130.0555  132.3950  154.5923 C   0  0  0  0  0  0  0  0  0  0  0  0
  130.4815  132.0216  153.4097 C   0  0  0  0  0  0  0  0  0  0  0  0
  131.6273  130.5259  153.2462 Br  0  0  0  0  0  0  0  0  0  0  0  0
  130.2766  131.4955  158.3076 C   0  0  0  0  0  0  0  0  0  0  0  0
  129.6541  132.1236  159.5279 C   0  0  0  0  0  0  0  0  0  0  0  0
  130.3098  133.1092  160.1999 C   0  0  0  0  0  0  0  0  0  0  0  0
  129.7471  133.7065  161.3261 C   0  0  0  0  0  0  0  0  0  0  0  0
  128.5310  133.3128  161.7944 C   0  0  0  0  0  0  0  0  0  0  0  0
  127.8271  132.2940  161.1307 C   0  0  0  0  0  0  0  0  0  0  0  0
  126.5693  131.8609  161.5844 C   0  0  0  0  0  0  0  0  0  0  0  0
  125.9167  130.8710  160.9164 C   0  0  0  0  0  0  0  0  0  0  0  0
  126.4769  130.2778  159.7863 C   0  0  0  0  0  0  0  0  0  0  0  0
  127.6925  130.6715  159.3177 C   0  0  0  0  0  0  0  0  0  0  0  0
  128.3965  131.6910  159.9811 C   0  0  0  0  0  0  0  0  0  0  0  0
  130.0588  135.5907  158.5778 N   0  0  0  0  0  0  0  0  0  0  0  0
  130.9939  135.8480  158.5925 H   0  0  0  0  0  0  0  0  0  0  0  0
  128.3135  137.6929  161.1021 C   0  0  0  0  0  0  0  0  0  0  0  0
  128.4492  138.8252  161.8773 C   0  0  0  0  0  0  0  0  0  0  0  0
  130.2880  141.5339  162.1871 H   0  0  0  0  0  0  0  0  0  0  0  0
  128.9762  141.0498  163.1186 H   0  0  0  0  0  0  0  0  0  0  0  0
  131.1101  140.2339  160.3267 H   0  0  0  0  0  0  0  0  0  0  0  0
  130.8816  138.2113  158.9471 H   0  0  0  0  0  0  0  0  0  0  0  0
  126.9152  135.8358  159.3230 H   0  0  0  0  0  0  0  0  0  0  0  0
  131.0914  133.9544  156.7111 H   0  0  0  0  0  0  0  0  0  0  0  0
  131.5648  131.6618  155.9110 H   0  0  0  0  0  0  0  0  0  0  0  0
  130.1492  130.5965  155.7373 H   0  0  0  0  0  0  0  0  0  0  0  0
  129.4012  133.2490  154.6855 H   0  0  0  0  0  0  0  0  0  0  0  0
  130.1781  132.5681  152.5289 H   0  0  0  0  0  0  0  0  0  0  0  0
  129.9471  130.4599  158.2238 H   0  0  0  0  0  0  0  0  0  0  0  0
  131.3624  131.5252  158.3976 H   0  0  0  0  0  0  0  0  0  0  0  0
  131.2784  133.4368  159.8521 H   0  0  0  0  0  0  0  0  0  0  0  0
  130.2862  134.4899  161.8381 H   0  0  0  0  0  0  0  0  0  0  0  0
  128.1097  133.7810  162.6717 H   0  0  0  0  0  0  0  0  0  0  0  0
  126.1228  132.3117  162.4584 H   0  0  0  0  0  0  0  0  0  0  0  0
  124.9506  130.5399  161.2673 H   0  0  0  0  0  0  0  0  0  0  0  0
  125.9380  129.4942  159.2746 H   0  0  0  0  0  0  0  0  0  0  0  0
  128.1137  130.2032  158.4405 H   0  0  0  0  0  0  0  0  0  0  0  0
  127.5291  136.9821  161.3163 H   0  0  0  0  0  0  0  0  0  0  0  0
  127.7706  139.0013  162.6987 H   0  0  0  0  0  0  0  0  0  0  0  0
  1  2  1  0
  1 33  1  0
  1 34  1  0
  2 32  2  0
  2  3  1  0
  3  4  2  0
  3 35  1  0
  4  5  1  0
  4 36  1  0
  5  6  1  0
  5 31  2  0
  6 29  1  0
  6  7  2  0
  7  8  1  0
  7 37  1  0
  8  9  1  0
  8 10  1  0
 10 11  1  0
 10 29  2  0
 11 12  1  0
 11 38  1  0
 12 13  1  6
 12 14  1  0
 12 18  1  0
 14 15  1  0
 14 39  1  0
 14 40  1  0
 15 16  2  0
 15 41  1  0
 16 17  1  0
 16 42  1  0
 18 19  1  0
 18 43  1  0
 18 44  1  0
 19 28  1  0
 19 20  2  0
 20 21  1  0
 20 45  1  0
 21 22  2  0
 21 46  1  0
 22 23  1  0
 22 47  1  0
 23 28  2  0
 23 24  1  0
 24 25  2  0
 24 48  1  0
 25 26  1  0
 25 49  1  0
 26 27  2  0
 26 50  1  0
 27 28  1  0
 27 51  1  0
 29 30  1  0
 31 32  1  0
 31 52  1  0
 32 53  1  0
M  CHG  1  29   1
M  END
>  <DOCK_score>  (1) 
-58.223404

>  <SMILES>  (1) 
Nc1ccc(-c2c[nH]c(N[C@@H](C/C=C\Br)Cc3cccc4ccccc34)[nH+]2)cc1

$$$$
