Oc1ccc2c(c1)[C@H]([NH2+]C1CC1)c1cc(Oc3cncnc3)ccc1-2
     RDKit          3D

 43 47  0  0  1  0  0  0  0  0999 V2000
  131.9819  129.8416  155.8857 O   0  0  0  0  0  0  0  0  0  0  0  0
  131.0901  130.4299  156.7253 C   0  0  0  0  0  0  0  0  0  0  0  0
  130.3127  129.6494  157.5704 C   0  0  0  0  0  0  0  0  0  0  0  0
  129.4073  130.2419  158.4239 C   0  0  0  0  0  0  0  0  0  0  0  0
  129.2693  131.6318  158.4413 C   0  0  0  0  0  0  0  0  0  0  0  0
  130.0523  132.4083  157.5910 C   0  0  0  0  0  0  0  0  0  0  0  0
  130.9563  131.8118  156.7387 C   0  0  0  0  0  0  0  0  0  0  0  0
  129.6885  133.8533  157.8302 C   0  0  2  0  0  0  0  0  0  0  0  0
  129.2989  134.2987  156.9149 H   0  0  0  0  0  0  0  0  0  0  0  0
  130.8643  134.6004  158.2966 N   0  0  0  0  0  0  0  0  0  0  0  0
  131.6800  134.2966  157.7861 H   0  0  0  0  0  0  0  0  0  0  0  0
  130.7190  135.5867  158.1422 H   0  0  0  0  0  0  0  0  0  0  0  0
  131.0640  134.3535  159.7307 C   0  0  0  0  0  0  0  0  0  0  0  0
  132.5001  134.3753  160.2581 C   0  0  0  0  0  0  0  0  0  0  0  0
  131.7509  133.0470  160.1337 C   0  0  0  0  0  0  0  0  0  0  0  0
  128.6221  133.8434  158.8981 C   0  0  0  0  0  0  0  0  0  0  0  0
  127.9240  134.8573  159.5161 C   0  0  0  0  0  0  0  0  0  0  0  0
  126.9752  134.5568  160.4854 C   0  0  0  0  0  0  0  0  0  0  0  0
  126.2835  135.5563  161.0923 O   0  0  0  0  0  0  0  0  0  0  0  0
  126.8038  136.0952  162.2262 C   0  0  0  0  0  0  0  0  0  0  0  0
  125.9993  136.3393  163.3345 C   0  0  0  0  0  0  0  0  0  0  0  0
  126.5447  136.8603  164.4214 N   0  0  0  0  0  0  0  0  0  0  0  0
  127.8290  137.1568  164.4581 C   0  0  0  0  0  0  0  0  0  0  0  0
  128.6218  136.9456  163.4276 N   0  0  0  0  0  0  0  0  0  0  0  0
  128.1537  136.4224  162.3065 C   0  0  0  0  0  0  0  0  0  0  0  0
  126.7377  133.2350  160.8370 C   0  0  0  0  0  0  0  0  0  0  0  0
  127.4376  132.2179  160.2241 C   0  0  0  0  0  0  0  0  0  0  0  0
  128.3890  132.5147  159.2459 C   0  0  0  0  0  0  0  0  0  0  0  0
  132.4767  130.4658  155.3372 H   0  0  0  0  0  0  0  0  0  0  0  0
  130.4181  128.5746  157.5591 H   0  0  0  0  0  0  0  0  0  0  0  0
  128.8045  129.6314  159.0797 H   0  0  0  0  0  0  0  0  0  0  0  0
  131.5605  132.4193  156.0813 H   0  0  0  0  0  0  0  0  0  0  0  0
  130.2809  134.7334  160.3868 H   0  0  0  0  0  0  0  0  0  0  0  0
  133.2967  134.5728  159.5407 H   0  0  0  0  0  0  0  0  0  0  0  0
  132.6620  134.7698  161.2612 H   0  0  0  0  0  0  0  0  0  0  0  0
  131.4200  132.5677  161.0551 H   0  0  0  0  0  0  0  0  0  0  0  0
  132.0542  132.3706  159.3346 H   0  0  0  0  0  0  0  0  0  0  0  0
  128.1092  135.8854  159.2421 H   0  0  0  0  0  0  0  0  0  0  0  0
  124.9459  136.1027  163.3097 H   0  0  0  0  0  0  0  0  0  0  0  0
  128.2416  137.5859  165.3593 H   0  0  0  0  0  0  0  0  0  0  0  0
  128.8098  136.2515  161.4658 H   0  0  0  0  0  0  0  0  0  0  0  0
  126.0021  133.0028  161.5930 H   0  0  0  0  0  0  0  0  0  0  0  0
  127.2502  131.1909  160.5007 H   0  0  0  0  0  0  0  0  0  0  0  0
  1  2  1  0
  1 29  1  0
  2  7  2  0
  2  3  1  0
  3  4  2  0
  3 30  1  0
  4  5  1  0
  4 31  1  0
  5 28  1  0
  5  6  2  0
  6  7  1  0
  6  8  1  0
  7 32  1  0
  8  9  1  6
  8 10  1  0
  8 16  1  0
 10 11  1  0
 10 12  1  0
 10 13  1  0
 13 15  1  0
 13 14  1  0
 13 33  1  0
 14 15  1  0
 14 34  1  0
 14 35  1  0
 15 36  1  0
 15 37  1  0
 16 28  2  0
 16 17  1  0
 17 18  2  0
 17 38  1  0
 18 19  1  0
 18 26  1  0
 19 20  1  0
 20 25  1  0
 20 21  2  0
 21 22  1  0
 21 39  1  0
 22 23  2  0
 23 24  1  0
 23 40  1  0
 24 25  2  0
 25 41  1  0
 26 27  2  0
 26 42  1  0
 27 28  1  0
 27 43  1  0
M  CHG  1  10   1
M  END
>  <DOCK_score>  (1) 
-43.100471

>  <SMILES>  (1) 
Oc1ccc2c(c1)[C@H]([NH2+]C1CC1)c1cc(Oc3cncnc3)ccc1-2

$$$$
