Cc1cccc(N2CC[NH+]([C@H](C3=CNCCC3)c3ccccc3)CC2)c1C
     RDKit          3D

 59 62  0  0  1  0  0  0  0  0999 V2000
  136.0582  141.2090  162.6196 C   0  0  0  0  0  0  0  0  0  0  0  0
  135.4514  140.4875  161.4440 C   0  0  0  0  0  0  0  0  0  0  0  0
  135.8524  140.8024  160.1582 C   0  0  0  0  0  0  0  0  0  0  0  0
  135.2978  140.1432  159.0768 C   0  0  0  0  0  0  0  0  0  0  0  0
  134.3413  139.1671  159.2773 C   0  0  0  0  0  0  0  0  0  0  0  0
  133.9362  138.8484  160.5670 C   0  0  0  0  0  0  0  0  0  0  0  0
  132.9688  137.8623  160.7733 N   0  0  0  0  0  0  0  0  0  0  0  0
  133.4488  136.5500  160.3174 C   0  0  0  0  0  0  0  0  0  0  0  0
  132.3860  135.4900  160.6148 C   0  0  0  0  0  0  0  0  0  0  0  0
  131.1379  135.8409  159.9246 N   0  0  0  0  0  0  0  0  0  0  0  0
  131.3062  135.8927  158.9310 H   0  0  0  0  0  0  0  0  0  0  0  0
  130.1233  134.8135  160.1957 C   0  0  2  0  0  0  0  0  0  0  0  0
  129.9416  134.7567  161.2690 H   0  0  0  0  0  0  0  0  0  0  0  0
  130.6147  133.4787  159.6980 C   0  0  0  0  0  0  0  0  0  0  0  0
  130.8899  133.3480  158.4228 C   0  0  0  0  0  0  0  0  0  0  0  0
  131.3387  132.1465  157.8890 N   0  0  0  0  0  0  0  0  0  0  0  0
  131.7907  131.0878  158.8037 C   0  0  0  0  0  0  0  0  0  0  0  0
  130.7829  131.0093  159.9594 C   0  0  0  0  0  0  0  0  0  0  0  0
  130.7731  132.3584  160.6860 C   0  0  0  0  0  0  0  0  0  0  0  0
  128.8426  135.1732  159.4877 C   0  0  0  0  0  0  0  0  0  0  0  0
  127.6270  134.7824  160.0170 C   0  0  0  0  0  0  0  0  0  0  0  0
  126.4520  135.1156  159.3695 C   0  0  0  0  0  0  0  0  0  0  0  0
  126.4930  135.8322  158.1881 C   0  0  0  0  0  0  0  0  0  0  0  0
  127.7090  136.2189  157.6563 C   0  0  0  0  0  0  0  0  0  0  0  0
  128.8839  135.8890  158.3057 C   0  0  0  0  0  0  0  0  0  0  0  0
  130.6579  137.1421  160.4082 C   0  0  0  0  0  0  0  0  0  0  0  0
  131.7064  138.2159  160.1090 C   0  0  0  0  0  0  0  0  0  0  0  0
  134.4914  139.5168  161.6512 C   0  0  0  0  0  0  0  0  0  0  0  0
  134.0504  139.1787  163.0520 C   0  0  0  0  0  0  0  0  0  0  0  0
  135.4659  142.0953  162.8471 H   0  0  0  0  0  0  0  0  0  0  0  0
  136.0693  140.5472  163.4857 H   0  0  0  0  0  0  0  0  0  0  0  0
  137.0782  141.5062  162.3764 H   0  0  0  0  0  0  0  0  0  0  0  0
  136.6000  141.5652  159.9988 H   0  0  0  0  0  0  0  0  0  0  0  0
  135.6132  140.3915  158.0742 H   0  0  0  0  0  0  0  0  0  0  0  0
  133.9086  138.6526  158.4320 H   0  0  0  0  0  0  0  0  0  0  0  0
  134.3707  136.2979  160.8415 H   0  0  0  0  0  0  0  0  0  0  0  0
  133.6378  136.5846  159.2444 H   0  0  0  0  0  0  0  0  0  0  0  0
  132.7342  134.5183  160.2645 H   0  0  0  0  0  0  0  0  0  0  0  0
  132.2073  135.4463  161.6891 H   0  0  0  0  0  0  0  0  0  0  0  0
  130.7639  134.1983  157.7689 H   0  0  0  0  0  0  0  0  0  0  0  0
  131.3535  132.0082  156.9291 H   0  0  0  0  0  0  0  0  0  0  0  0
  131.8243  130.1340  158.2773 H   0  0  0  0  0  0  0  0  0  0  0  0
  132.7797  131.3319  159.1917 H   0  0  0  0  0  0  0  0  0  0  0  0
  129.7897  130.7948  159.5651 H   0  0  0  0  0  0  0  0  0  0  0  0
  131.0800  130.2212  160.6514 H   0  0  0  0  0  0  0  0  0  0  0  0
  131.7091  132.4864  161.2295 H   0  0  0  0  0  0  0  0  0  0  0  0
  129.9431  132.3799  161.3921 H   0  0  0  0  0  0  0  0  0  0  0  0
  127.5950  134.2193  160.9380 H   0  0  0  0  0  0  0  0  0  0  0  0
  125.5020  134.8133  159.7849 H   0  0  0  0  0  0  0  0  0  0  0  0
  125.5753  136.0896  157.6806 H   0  0  0  0  0  0  0  0  0  0  0  0
  127.7412  136.7785  156.7330 H   0  0  0  0  0  0  0  0  0  0  0  0
  129.8338  136.1908  157.8900 H   0  0  0  0  0  0  0  0  0  0  0  0
  130.4879  137.0899  161.4837 H   0  0  0  0  0  0  0  0  0  0  0  0
  129.7248  137.3951  159.9048 H   0  0  0  0  0  0  0  0  0  0  0  0
  131.3569  139.1790  160.4812 H   0  0  0  0  0  0  0  0  0  0  0  0
  131.8666  138.2778  159.0327 H   0  0  0  0  0  0  0  0  0  0  0  0
  134.7401  138.4539  163.4850 H   0  0  0  0  0  0  0  0  0  0  0  0
  134.0456  140.0835  163.6597 H   0  0  0  0  0  0  0  0  0  0  0  0
  133.0470  138.7540  163.0246 H   0  0  0  0  0  0  0  0  0  0  0  0
  1  2  1  0
  1 30  1  0
  1 31  1  0
  1 32  1  0
  2 28  2  0
  2  3  1  0
  3  4  2  0
  3 33  1  0
  4  5  1  0
  4 34  1  0
  5  6  2  0
  5 35  1  0
  6  7  1  0
  6 28  1  0
  7 27  1  0
  7  8  1  0
  8  9  1  0
  8 36  1  0
  8 37  1  0
  9 10  1  0
  9 38  1  0
  9 39  1  0
 10 11  1  0
 10 12  1  0
 10 26  1  0
 12 13  1  1
 12 14  1  0
 12 20  1  0
 14 19  1  0
 14 15  2  0
 15 16  1  0
 15 40  1  0
 16 17  1  0
 16 41  1  0
 17 18  1  0
 17 42  1  0
 17 43  1  0
 18 19  1  0
 18 44  1  0
 18 45  1  0
 19 46  1  0
 19 47  1  0
 20 25  1  0
 20 21  2  0
 21 22  1  0
 21 48  1  0
 22 23  2  0
 22 49  1  0
 23 24  1  0
 23 50  1  0
 24 25  2  0
 24 51  1  0
 25 52  1  0
 26 27  1  0
 26 53  1  0
 26 54  1  0
 27 55  1  0
 27 56  1  0
 28 29  1  0
 29 57  1  0
 29 58  1  0
 29 59  1  0
M  CHG  1  10   1
M  END
>  <DOCK_score>  (1) 
-56.065712

>  <SMILES>  (1) 
Cc1cccc(N2CC[NH+]([C@H](C3=CNCCC3)c3ccccc3)CC2)c1C

$$$$
