O=C(NC1CCC=C(C[C@@H]2COc3ccccc3C2)C1)C(=O)NC1CC[NH2+]C2(CCC2)C1
     RDKit          3D

 68 72  0  0  1  0  0  0  0  0999 V2000
  128.2831  137.3281  163.1989 O   0  0  0  0  0  0  0  0  0  0  0  0
  127.3058  136.9312  162.5989 C   0  0  0  0  0  0  0  0  0  0  0  0
  126.0714  137.2546  163.0326 N   0  0  0  0  0  0  0  0  0  0  0  0
  125.9094  138.0853  164.2284 C   0  0  2  0  0  0  0  0  0  0  0  0
  126.6032  139.4367  164.0152 C   0  0  0  0  0  0  0  0  0  0  0  0
  126.2676  140.3451  165.2003 C   0  0  0  0  0  0  0  0  0  0  0  0
  126.5139  139.6216  166.4918 C   0  0  0  0  0  0  0  0  0  0  0  0
  126.6359  138.3367  166.5916 C   0  0  0  0  0  0  0  0  0  0  0  0
  126.8708  137.7536  167.9612 C   0  0  0  0  0  0  0  0  0  0  0  0
  128.2011  136.9979  167.9722 C   0  0  2  0  0  0  0  0  0  0  0  0
  128.1730  136.1937  167.2370 H   0  0  0  0  0  0  0  0  0  0  0  0
  128.4524  136.4137  169.3683 C   0  0  0  0  0  0  0  0  0  0  0  0
  129.6456  135.6301  169.3204 O   0  0  0  0  0  0  0  0  0  0  0  0
  130.7487  136.1870  168.7561 C   0  0  0  0  0  0  0  0  0  0  0  0
  131.9890  135.6115  169.0142 C   0  0  0  0  0  0  0  0  0  0  0  0
  133.1320  136.1458  168.4561 C   0  0  0  0  0  0  0  0  0  0  0  0
  133.0463  137.2569  167.6373 C   0  0  0  0  0  0  0  0  0  0  0  0
  131.8172  137.8316  167.3801 C   0  0  0  0  0  0  0  0  0  0  0  0
  130.6665  137.3004  167.9388 C   0  0  0  0  0  0  0  0  0  0  0  0
  129.3441  137.9609  167.6415 C   0  0  0  0  0  0  0  0  0  0  0  0
  126.5585  137.3919  165.4282 C   0  0  0  0  0  0  0  0  0  0  0  0
  127.4710  136.0837  161.3790 C   0  0  0  0  0  0  0  0  0  0  0  0
  126.4937  135.6868  160.7790 O   0  0  0  0  0  0  0  0  0  0  0  0
  128.7054  135.7603  160.9453 N   0  0  0  0  0  0  0  0  0  0  0  0
  128.8673  134.9296  159.7495 C   0  0  1  0  0  0  0  0  0  0  0  0
  128.9521  135.8241  158.5097 C   0  0  0  0  0  0  0  0  0  0  0  0
  129.1572  134.9543  157.2679 C   0  0  0  0  0  0  0  0  0  0  0  0
  130.4232  134.2186  157.3836 N   0  0  0  0  0  0  0  0  0  0  0  0
  131.1849  134.8739  157.4765 H   0  0  0  0  0  0  0  0  0  0  0  0
  130.5625  133.6583  156.5561 H   0  0  0  0  0  0  0  0  0  0  0  0
  130.3833  133.3476  158.5608 C   0  0  0  0  0  0  0  0  0  0  0  0
  131.5533  132.3569  158.6294 C   0  0  0  0  0  0  0  0  0  0  0  0
  130.5357  131.3147  159.1245 C   0  0  0  0  0  0  0  0  0  0  0  0
  129.4555  132.1343  158.3977 C   0  0  0  0  0  0  0  0  0  0  0  0
  130.1580  134.1114  159.8646 C   0  0  0  0  0  0  0  0  0  0  0  0
  125.2902  136.9373  162.5531 H   0  0  0  0  0  0  0  0  0  0  0  0
  124.8488  138.2414  164.4252 H   0  0  0  0  0  0  0  0  0  0  0  0
  127.6818  139.2901  163.9595 H   0  0  0  0  0  0  0  0  0  0  0  0
  126.2441  139.8914  163.0920 H   0  0  0  0  0  0  0  0  0  0  0  0
  125.2195  140.6390  165.1451 H   0  0  0  0  0  0  0  0  0  0  0  0
  126.8952  141.2353  165.1594 H   0  0  0  0  0  0  0  0  0  0  0  0
  126.5941  140.2094  167.3943 H   0  0  0  0  0  0  0  0  0  0  0  0
  126.9027  138.5566  168.6975 H   0  0  0  0  0  0  0  0  0  0  0  0
  126.0608  137.0668  168.2075 H   0  0  0  0  0  0  0  0  0  0  0  0
  128.5733  137.2228  170.0886 H   0  0  0  0  0  0  0  0  0  0  0  0
  127.6112  135.7851  169.6602 H   0  0  0  0  0  0  0  0  0  0  0  0
  132.0571  134.7436  169.6534 H   0  0  0  0  0  0  0  0  0  0  0  0
  134.0931  135.6964  168.6583 H   0  0  0  0  0  0  0  0  0  0  0  0
  133.9405  137.6752  167.1992 H   0  0  0  0  0  0  0  0  0  0  0  0
  131.7529  138.6992  166.7401 H   0  0  0  0  0  0  0  0  0  0  0  0
  129.3006  138.2263  166.5853 H   0  0  0  0  0  0  0  0  0  0  0  0
  129.2450  138.8625  168.2458 H   0  0  0  0  0  0  0  0  0  0  0  0
  125.9642  136.5223  165.7080 H   0  0  0  0  0  0  0  0  0  0  0  0
  127.5646  137.0706  165.1589 H   0  0  0  0  0  0  0  0  0  0  0  0
  129.4866  136.0776  161.4248 H   0  0  0  0  0  0  0  0  0  0  0  0
  128.0157  134.2558  159.6555 H   0  0  0  0  0  0  0  0  0  0  0  0
  128.0273  136.3918  158.4070 H   0  0  0  0  0  0  0  0  0  0  0  0
  129.7912  136.5117  158.6143 H   0  0  0  0  0  0  0  0  0  0  0  0
  128.3329  134.2464  157.1808 H   0  0  0  0  0  0  0  0  0  0  0  0
  129.1855  135.5882  156.3817 H   0  0  0  0  0  0  0  0  0  0  0  0
  132.3058  132.6202  159.3728 H   0  0  0  0  0  0  0  0  0  0  0  0
  131.9839  132.1192  157.6567 H   0  0  0  0  0  0  0  0  0  0  0  0
  130.6878  130.3214  158.7024 H   0  0  0  0  0  0  0  0  0  0  0  0
  130.4176  131.3005  160.2080 H   0  0  0  0  0  0  0  0  0  0  0  0
  129.3050  131.8359  157.3602 H   0  0  0  0  0  0  0  0  0  0  0  0
  128.5225  132.2187  158.9548 H   0  0  0  0  0  0  0  0  0  0  0  0
  130.0696  133.4051  160.6901 H   0  0  0  0  0  0  0  0  0  0  0  0
  130.9991  134.7809  160.0448 H   0  0  0  0  0  0  0  0  0  0  0  0
  1  2  2  0
  2  3  1  0
  2 22  1  0
  3  4  1  0
  3 36  1  0
  4 21  1  0
  4  5  1  0
  4 37  1  1
  5  6  1  0
  5 38  1  0
  5 39  1  0
  6  7  1  0
  6 40  1  0
  6 41  1  0
  7  8  2  0
  7 42  1  0
  8  9  1  0
  8 21  1  0
  9 10  1  0
  9 43  1  0
  9 44  1  0
 10 11  1  6
 10 20  1  0
 10 12  1  0
 12 13  1  0
 12 45  1  0
 12 46  1  0
 13 14  1  0
 14 19  2  0
 14 15  1  0
 15 16  2  0
 15 47  1  0
 16 17  1  0
 16 48  1  0
 17 18  2  0
 17 49  1  0
 18 19  1  0
 18 50  1  0
 19 20  1  0
 20 51  1  0
 20 52  1  0
 21 53  1  0
 21 54  1  0
 22 23  2  0
 22 24  1  0
 24 25  1  0
 24 55  1  0
 25 35  1  0
 25 26  1  0
 25 56  1  6
 26 27  1  0
 26 57  1  0
 26 58  1  0
 27 28  1  0
 27 59  1  0
 27 60  1  0
 28 29  1  0
 28 30  1  0
 28 31  1  0
 31 34  1  0
 31 32  1  0
 31 35  1  0
 32 33  1  0
 32 61  1  0
 32 62  1  0
 33 34  1  0
 33 63  1  0
 33 64  1  0
 34 65  1  0
 34 66  1  0
 35 67  1  0
 35 68  1  0
M  CHG  1  28   1
M  END
>  <DOCK_score>  (1) 
-42.933723

>  <SMILES>  (1) 
O=C(NC1CCC=C(C[C@@H]2COc3ccccc3C2)C1)C(=O)NC1CC[NH2+]C2(CCC2)C1

$$$$
