O=C1CC[C@@H](NC(N[C@H]2[C@@H]3CC=CC[C@@H]32)=[NH+]Cc2ccc(Br)cc2F)CN1
     RDKit          3D

 52 55  0  0  1  0  0  0  0  0999 V2000
  123.7353  134.6590  162.6552 O   0  0  0  0  0  0  0  0  0  0  0  0
  124.7964  134.4154  162.1208 C   0  0  0  0  0  0  0  0  0  0  0  0
  125.6135  133.2724  162.6512 C   0  0  0  0  0  0  0  0  0  0  0  0
  126.6581  132.8534  161.6137 C   0  0  0  0  0  0  0  0  0  0  0  0
  127.3857  134.1110  161.1233 C   0  0  1  0  0  0  0  0  0  0  0  0
  127.7568  134.6758  161.9786 H   0  0  0  0  0  0  0  0  0  0  0  0
  128.5079  133.7292  160.2624 N   0  0  0  0  0  0  0  0  0  0  0  0
  129.3074  134.6988  159.7050 C   0  0  0  0  0  0  0  0  0  0  0  0
  129.9155  134.4749  158.4923 N   0  0  0  0  0  0  0  0  0  0  0  0
  129.7112  133.2031  157.7944 C   0  0  1  0  0  0  0  0  0  0  0  0
  128.6783  132.9695  157.5363 H   0  0  0  0  0  0  0  0  0  0  0  0
  130.8009  132.7497  156.8207 C   0  0  2  0  0  0  0  0  0  0  0  0
  131.6708  133.3925  156.6855 H   0  0  0  0  0  0  0  0  0  0  0  0
  130.3505  131.9393  155.5949 C   0  0  0  0  0  0  0  0  0  0  0  0
  130.8055  130.5112  155.7706 C   0  0  0  0  0  0  0  0  0  0  0  0
  130.6560  129.9040  156.9215 C   0  0  0  0  0  0  0  0  0  0  0  0
  130.0258  130.6228  158.0892 C   0  0  0  0  0  0  0  0  0  0  0  0
  130.6248  132.0358  158.1735 C   0  0  2  0  0  0  0  0  0  0  0  0
  131.3766  132.1997  158.9455 H   0  0  0  0  0  0  0  0  0  0  0  0
  129.4890  135.8303  160.3259 N   0  0  0  0  0  0  0  0  0  0  0  0
  129.0600  135.9883  161.1815 H   0  0  0  0  0  0  0  0  0  0  0  0
  130.3412  136.8634  159.7319 C   0  0  0  0  0  0  0  0  0  0  0  0
  130.3846  138.0633  160.6426 C   0  0  0  0  0  0  0  0  0  0  0  0
  131.5914  138.6789  160.9175 C   0  0  0  0  0  0  0  0  0  0  0  0
  131.6314  139.7829  161.7481 C   0  0  0  0  0  0  0  0  0  0  0  0
  130.4652  140.2660  162.3147 C   0  0  0  0  0  0  0  0  0  0  0  0
  130.5224  141.7725  163.4561 Br  0  0  0  0  0  0  0  0  0  0  0  0
  129.2580  139.6484  162.0450 C   0  0  0  0  0  0  0  0  0  0  0  0
  129.2169  138.5457  161.2084 C   0  0  0  0  0  0  0  0  0  0  0  0
  128.0378  137.9414  160.9442 F   0  0  0  0  0  0  0  0  0  0  0  0
  126.3995  134.9695  160.3304 C   0  0  0  0  0  0  0  0  0  0  0  0
  125.1752  135.1769  161.0938 N   0  0  0  0  0  0  0  0  0  0  0  0
  124.9584  132.4284  162.8667 H   0  0  0  0  0  0  0  0  0  0  0  0
  126.1169  133.5814  163.5673 H   0  0  0  0  0  0  0  0  0  0  0  0
  126.1651  132.3637  160.7738 H   0  0  0  0  0  0  0  0  0  0  0  0
  127.3741  132.1690  162.0687 H   0  0  0  0  0  0  0  0  0  0  0  0
  128.6866  132.7924  160.0855 H   0  0  0  0  0  0  0  0  0  0  0  0
  130.4797  135.1588  158.0990 H   0  0  0  0  0  0  0  0  0  0  0  0
  129.2639  131.9702  155.5146 H   0  0  0  0  0  0  0  0  0  0  0  0
  130.7963  132.3603  154.6938 H   0  0  0  0  0  0  0  0  0  0  0  0
  131.2575  129.9865  154.9420 H   0  0  0  0  0  0  0  0  0  0  0  0
  130.9858  128.8819  157.0355 H   0  0  0  0  0  0  0  0  0  0  0  0
  130.2371  130.0799  159.0105 H   0  0  0  0  0  0  0  0  0  0  0  0
  128.9483  130.6903  157.9396 H   0  0  0  0  0  0  0  0  0  0  0  0
  131.3495  136.4709  159.5997 H   0  0  0  0  0  0  0  0  0  0  0  0
  129.9355  137.1565  158.7637 H   0  0  0  0  0  0  0  0  0  0  0  0
  132.5030  138.2996  160.4796 H   0  0  0  0  0  0  0  0  0  0  0  0
  132.5742  140.2659  161.9587 H   0  0  0  0  0  0  0  0  0  0  0  0
  128.3476  140.0257  162.4865 H   0  0  0  0  0  0  0  0  0  0  0  0
  126.1590  134.4688  159.3926 H   0  0  0  0  0  0  0  0  0  0  0  0
  126.8583  135.9349  160.1160 H   0  0  0  0  0  0  0  0  0  0  0  0
  124.6021  135.9176  160.8413 H   0  0  0  0  0  0  0  0  0  0  0  0
  1  2  2  0
  2 32  1  0
  2  3  1  0
  3  4  1  0
  3 33  1  0
  3 34  1  0
  4  5  1  0
  4 35  1  0
  4 36  1  0
  5  6  1  1
  5  7  1  0
  5 31  1  0
  7 37  1  0
  8  7  1  0
  8  9  1  0
  8 20  2  0
  9 10  1  0
  9 38  1  0
 10 11  1  6
 10 18  1  0
 10 12  1  0
 12 13  1  6
 12 18  1  0
 12 14  1  0
 14 15  1  0
 14 39  1  0
 14 40  1  0
 15 16  2  0
 15 41  1  0
 16 17  1  0
 16 42  1  0
 17 18  1  0
 17 43  1  0
 17 44  1  0
 18 19  1  1
 20 21  1  0
 20 22  1  0
 22 23  1  0
 22 45  1  0
 22 46  1  0
 23 29  1  0
 23 24  2  0
 24 25  1  0
 24 47  1  0
 25 26  2  0
 25 48  1  0
 26 27  1  0
 26 28  1  0
 28 29  2  0
 28 49  1  0
 29 30  1  0
 31 32  1  0
 31 50  1  0
 31 51  1  0
 32 52  1  0
M  CHG  1  20   1
M  END
>  <DOCK_score>  (1) 
-48.382721

>  <SMILES>  (1) 
O=C1CC[C@@H](NC(N[C@H]2[C@@H]3CC=CC[C@@H]32)=[NH+]Cc2ccc(Br)cc2F)CN1

$$$$
