CCc1ccc(-c2c[nH]c(N[C@H](c3ccccc3)c3ccccc3SC)[nH+]2)cc1
     RDKit          3D

 55 58  0  0  1  0  0  0  0  0999 V2000
  130.5212  128.4767  151.5533 C   0  0  0  0  0  0  0  0  0  0  0  0
  131.6122  129.4852  151.9188 C   0  0  0  0  0  0  0  0  0  0  0  0
  131.2365  130.1908  153.1964 C   0  0  0  0  0  0  0  0  0  0  0  0
  131.6341  129.6690  154.4138 C   0  0  0  0  0  0  0  0  0  0  0  0
  131.2979  130.3138  155.5869 C   0  0  0  0  0  0  0  0  0  0  0  0
  130.5465  131.4868  155.5435 C   0  0  0  0  0  0  0  0  0  0  0  0
  130.1774  132.1814  156.8011 C   0  0  0  0  0  0  0  0  0  0  0  0
  129.4469  131.6583  157.8169 C   0  0  0  0  0  0  0  0  0  0  0  0
  129.3431  132.6349  158.7773 N   0  0  0  0  0  0  0  0  0  0  0  0
  128.8774  132.5600  159.6249 H   0  0  0  0  0  0  0  0  0  0  0  0
  130.0138  133.7273  158.3199 C   0  0  0  0  0  0  0  0  0  0  0  0
  130.1485  134.9303  158.9914 N   0  0  0  0  0  0  0  0  0  0  0  0
  129.0985  135.3784  159.9096 C   0  0  2  0  0  0  0  0  0  0  0  0
  128.9751  134.6446  160.7061 H   0  0  0  0  0  0  0  0  0  0  0  0
  127.8015  135.5251  159.1563 C   0  0  0  0  0  0  0  0  0  0  0  0
  126.5983  135.3176  159.8047 C   0  0  0  0  0  0  0  0  0  0  0  0
  125.4085  135.4566  159.1148 C   0  0  0  0  0  0  0  0  0  0  0  0
  125.4222  135.7935  157.7742 C   0  0  0  0  0  0  0  0  0  0  0  0
  126.6255  135.9964  157.1247 C   0  0  0  0  0  0  0  0  0  0  0  0
  127.8152  135.8616  157.8157 C   0  0  0  0  0  0  0  0  0  0  0  0
  129.4861  136.7069  160.5060 C   0  0  0  0  0  0  0  0  0  0  0  0
  129.6987  137.7974  159.6857 C   0  0  0  0  0  0  0  0  0  0  0  0
  130.0493  139.0181  160.2325 C   0  0  0  0  0  0  0  0  0  0  0  0
  130.1993  139.1491  161.6013 C   0  0  0  0  0  0  0  0  0  0  0  0
  129.9935  138.0620  162.4272 C   0  0  0  0  0  0  0  0  0  0  0  0
  129.6354  136.8349  161.8815 C   0  0  0  0  0  0  0  0  0  0  0  0
  129.3711  135.4449  162.9316 S   0  0  0  0  0  0  0  0  0  0  0  0
  130.9749  135.2447  163.7553 C   0  0  0  0  0  0  0  0  0  0  0  0
  130.5158  133.4504  157.1413 N   0  0  0  0  0  0  0  0  0  0  0  0
  131.0431  134.0568  156.5979 H   0  0  0  0  0  0  0  0  0  0  0  0
  130.1438  132.0052  154.3140 C   0  0  0  0  0  0  0  0  0  0  0  0
  130.4906  131.3551  153.1470 C   0  0  0  0  0  0  0  0  0  0  0  0
  129.5745  128.9990  151.4154 H   0  0  0  0  0  0  0  0  0  0  0  0
  130.7928  127.9666  150.6292 H   0  0  0  0  0  0  0  0  0  0  0  0
  130.4194  127.7458  152.3555 H   0  0  0  0  0  0  0  0  0  0  0  0
  132.5586  128.9635  152.0563 H   0  0  0  0  0  0  0  0  0  0  0  0
  131.7137  130.2168  151.1162 H   0  0  0  0  0  0  0  0  0  0  0  0
  132.2122  128.7574  154.4464 H   0  0  0  0  0  0  0  0  0  0  0  0
  131.6128  129.9079  156.5368 H   0  0  0  0  0  0  0  0  0  0  0  0
  129.0270  130.6643  157.8620 H   0  0  0  0  0  0  0  0  0  0  0  0
  130.9382  135.4766  158.8541 H   0  0  0  0  0  0  0  0  0  0  0  0
  126.5878  135.0504  160.8510 H   0  0  0  0  0  0  0  0  0  0  0  0
  124.4684  135.2985  159.6223 H   0  0  0  0  0  0  0  0  0  0  0  0
  124.4927  135.8988  157.2344 H   0  0  0  0  0  0  0  0  0  0  0  0
  126.6360  136.2597  156.0773 H   0  0  0  0  0  0  0  0  0  0  0  0
  128.7552  136.0197  157.3082 H   0  0  0  0  0  0  0  0  0  0  0  0
  129.5867  137.6976  158.6161 H   0  0  0  0  0  0  0  0  0  0  0  0
  130.2102  139.8705  159.5890 H   0  0  0  0  0  0  0  0  0  0  0  0
  130.4775  140.1030  162.0246 H   0  0  0  0  0  0  0  0  0  0  0  0
  130.1102  138.1652  163.4958 H   0  0  0  0  0  0  0  0  0  0  0  0
  131.7472  135.0641  163.0076 H   0  0  0  0  0  0  0  0  0  0  0  0
  131.2131  136.1511  164.3119 H   0  0  0  0  0  0  0  0  0  0  0  0
  130.9283  134.3989  164.4410 H   0  0  0  0  0  0  0  0  0  0  0  0
  129.5612  132.9138  154.2745 H   0  0  0  0  0  0  0  0  0  0  0  0
  130.1794  131.7562  152.1938 H   0  0  0  0  0  0  0  0  0  0  0  0
  1  2  1  0
  1 33  1  0
  1 34  1  0
  1 35  1  0
  2  3  1  0
  2 36  1  0
  2 37  1  0
  3 32  2  0
  3  4  1  0
  4  5  2  0
  4 38  1  0
  5  6  1  0
  5 39  1  0
  6  7  1  0
  6 31  2  0
  7 29  1  0
  7  8  2  0
  8  9  1  0
  8 40  1  0
  9 10  1  0
  9 11  1  0
 11 12  1  0
 11 29  2  0
 12 13  1  0
 12 41  1  0
 13 14  1  1
 13 15  1  0
 13 21  1  0
 15 20  1  0
 15 16  2  0
 16 17  1  0
 16 42  1  0
 17 18  2  0
 17 43  1  0
 18 19  1  0
 18 44  1  0
 19 20  2  0
 19 45  1  0
 20 46  1  0
 21 26  1  0
 21 22  2  0
 22 23  1  0
 22 47  1  0
 23 24  2  0
 23 48  1  0
 24 25  1  0
 24 49  1  0
 25 26  2  0
 25 50  1  0
 26 27  1  0
 27 28  1  0
 28 51  1  0
 28 52  1  0
 28 53  1  0
 29 30  1  0
 31 32  1  0
 31 54  1  0
 32 55  1  0
M  CHG  1  29   1
M  END
>  <DOCK_score>  (1) 
-62.882919

>  <SMILES>  (1) 
CCc1ccc(-c2c[nH]c(N[C@H](c3ccccc3)c3ccccc3SC)[nH+]2)cc1

$$$$
