Cc1ccccc1Nc1ccccc1Nc1[nH]c(NCc2cccc3[nH]ncc23)c(C)[nH+]1
     RDKit          3D

 58 62  0  0  1  0  0  0  0  0999 V2000
  130.3086  131.9670  155.9114 C   0  0  0  0  0  0  0  0  0  0  0  0
  130.3426  131.6093  157.3749 C   0  0  0  0  0  0  0  0  0  0  0  0
  130.7853  130.3627  157.7718 C   0  0  0  0  0  0  0  0  0  0  0  0
  130.8167  130.0336  159.1144 C   0  0  0  0  0  0  0  0  0  0  0  0
  130.4044  130.9505  160.0645 C   0  0  0  0  0  0  0  0  0  0  0  0
  129.9656  132.2003  159.6751 C   0  0  0  0  0  0  0  0  0  0  0  0
  129.9281  132.5327  158.3263 C   0  0  0  0  0  0  0  0  0  0  0  0
  129.4802  133.7946  157.9285 N   0  0  0  0  0  0  0  0  0  0  0  0
  128.5228  134.4706  158.6938 C   0  0  0  0  0  0  0  0  0  0  0  0
  127.2727  133.9063  158.9007 C   0  0  0  0  0  0  0  0  0  0  0  0
  126.3287  134.5758  159.6568 C   0  0  0  0  0  0  0  0  0  0  0  0
  126.6262  135.8084  160.2088 C   0  0  0  0  0  0  0  0  0  0  0  0
  127.8694  136.3785  160.0078 C   0  0  0  0  0  0  0  0  0  0  0  0
  128.8211  135.7165  159.2462 C   0  0  0  0  0  0  0  0  0  0  0  0
  130.0788  136.2944  159.0370 N   0  0  0  0  0  0  0  0  0  0  0  0
  130.8955  136.5909  160.1201 C   0  0  0  0  0  0  0  0  0  0  0  0
  130.5937  136.3644  161.4322 N   0  0  0  0  0  0  0  0  0  0  0  0
  129.7769  135.9703  161.7764 H   0  0  0  0  0  0  0  0  0  0  0  0
  131.6677  136.8004  162.1740 C   0  0  0  0  0  0  0  0  0  0  0  0
  131.7899  136.7602  163.5673 N   0  0  0  0  0  0  0  0  0  0  0  0
  130.7034  136.2115  164.3824 C   0  0  0  0  0  0  0  0  0  0  0  0
  129.4477  137.0116  164.1501 C   0  0  0  0  0  0  0  0  0  0  0  0
  129.4958  138.3757  164.1368 C   0  0  0  0  0  0  0  0  0  0  0  0
  128.3452  139.1224  163.9165 C   0  0  0  0  0  0  0  0  0  0  0  0
  127.1397  138.5095  163.7220 C   0  0  0  0  0  0  0  0  0  0  0  0
  127.0585  137.1196  163.7366 C   0  0  0  0  0  0  0  0  0  0  0  0
  126.0311  136.2267  163.5775 N   0  0  0  0  0  0  0  0  0  0  0  0
  125.1037  136.4592  163.4134 H   0  0  0  0  0  0  0  0  0  0  0  0
  126.5337  134.9263  163.6901 N   0  0  0  0  0  0  0  0  0  0  0  0
  127.8170  134.9603  163.9105 C   0  0  0  0  0  0  0  0  0  0  0  0
  128.2252  136.3606  163.9527 C   0  0  0  0  0  0  0  0  0  0  0  0
  132.5813  137.2744  161.2995 C   0  0  0  0  0  0  0  0  0  0  0  0
  133.9241  137.8587  161.6552 C   0  0  0  0  0  0  0  0  0  0  0  0
  132.0878  137.1301  160.0546 N   0  0  0  0  0  0  0  0  0  0  0  0
  132.5431  137.3870  159.2375 H   0  0  0  0  0  0  0  0  0  0  0  0
  131.2599  132.4155  155.6249 H   0  0  0  0  0  0  0  0  0  0  0  0
  130.1390  131.0666  155.3211 H   0  0  0  0  0  0  0  0  0  0  0  0
  129.5025  132.6778  155.7297 H   0  0  0  0  0  0  0  0  0  0  0  0
  131.1076  129.6442  157.0327 H   0  0  0  0  0  0  0  0  0  0  0  0
  131.1637  129.0582  159.4221 H   0  0  0  0  0  0  0  0  0  0  0  0
  130.4299  130.6900  161.1122 H   0  0  0  0  0  0  0  0  0  0  0  0
  129.6479  132.9174  160.4176 H   0  0  0  0  0  0  0  0  0  0  0  0
  129.8327  134.2024  157.1220 H   0  0  0  0  0  0  0  0  0  0  0  0
  127.0368  132.9440  158.4708 H   0  0  0  0  0  0  0  0  0  0  0  0
  125.3560  134.1347  159.8171 H   0  0  0  0  0  0  0  0  0  0  0  0
  125.8852  136.3269  160.7989 H   0  0  0  0  0  0  0  0  0  0  0  0
  128.0981  137.3415  160.4402 H   0  0  0  0  0  0  0  0  0  0  0  0
  130.3799  136.4875  158.1353 H   0  0  0  0  0  0  0  0  0  0  0  0
  132.5942  137.0956  163.9935 H   0  0  0  0  0  0  0  0  0  0  0  0
  130.5288  135.1723  164.1032 H   0  0  0  0  0  0  0  0  0  0  0  0
  130.9776  136.2634  165.4361 H   0  0  0  0  0  0  0  0  0  0  0  0
  130.4383  138.8793  164.2939 H   0  0  0  0  0  0  0  0  0  0  0  0
  128.4033  140.2008  163.9047 H   0  0  0  0  0  0  0  0  0  0  0  0
  126.2518  139.1018  163.5568 H   0  0  0  0  0  0  0  0  0  0  0  0
  128.4635  134.1047  164.0388 H   0  0  0  0  0  0  0  0  0  0  0  0
  134.6712  137.0655  161.6770 H   0  0  0  0  0  0  0  0  0  0  0  0
  134.2056  138.6025  160.9097 H   0  0  0  0  0  0  0  0  0  0  0  0
  133.8667  138.3309  162.6359 H   0  0  0  0  0  0  0  0  0  0  0  0
  1  2  1  0
  1 36  1  0
  1 37  1  0
  1 38  1  0
  2  7  2  0
  2  3  1  0
  3  4  2  0
  3 39  1  0
  4  5  1  0
  4 40  1  0
  5  6  2  0
  5 41  1  0
  6  7  1  0
  6 42  1  0
  7  8  1  0
  8  9  1  0
  8 43  1  0
  9 14  1  0
  9 10  2  0
 10 11  1  0
 10 44  1  0
 11 12  2  0
 11 45  1  0
 12 13  1  0
 12 46  1  0
 13 14  2  0
 13 47  1  0
 14 15  1  0
 15 48  1  0
 16 15  1  0
 16 34  2  0
 16 17  1  0
 17 18  1  0
 17 19  1  0
 19 20  1  0
 19 32  2  0
 20 21  1  0
 20 49  1  0
 21 22  1  0
 21 50  1  0
 21 51  1  0
 22 31  1  0
 22 23  2  0
 23 24  1  0
 23 52  1  0
 24 25  2  0
 24 53  1  0
 25 26  1  0
 25 54  1  0
 26 31  2  0
 26 27  1  0
 27 28  1  0
 27 29  1  0
 29 30  2  0
 30 31  1  0
 30 55  1  0
 32 33  1  0
 32 34  1  0
 33 56  1  0
 33 57  1  0
 33 58  1  0
 34 35  1  0
M  CHG  1  34   1
M  END
>  <DOCK_score>  (1) 
-55.838295

>  <SMILES>  (1) 
Cc1ccccc1Nc1ccccc1Nc1[nH]c(NCc2cccc3[nH]ncc23)c(C)[nH+]1

$$$$
