[NH3+][C@@H](C(=O)Nc1cccc(O)c1)c1cccc(OC=CI)c1
     RDKit          3D

 38 39  0  0  1  0  0  0  0  0999 V2000
  130.5915  134.3881  157.6015 N   0  0  0  0  0  0  0  0  0  0  0  0
  130.7350  133.3975  157.7292 H   0  0  0  0  0  0  0  0  0  0  0  0
  129.9726  134.5400  156.8191 H   0  0  0  0  0  0  0  0  0  0  0  0
  131.4775  134.8360  157.4214 H   0  0  0  0  0  0  0  0  0  0  0  0
  129.9933  134.9569  158.8166 C   0  0  1  0  0  0  0  0  0  0  0  0
  129.8382  136.0269  158.6786 H   0  0  0  0  0  0  0  0  0  0  0  0
  128.6700  134.2879  159.0856 C   0  0  0  0  0  0  0  0  0  0  0  0
  128.2650  133.4225  158.3386 O   0  0  0  0  0  0  0  0  0  0  0  0
  127.9364  134.6514  160.1563 N   0  0  0  0  0  0  0  0  0  0  0  0
  126.7077  134.0304  160.4060 C   0  0  0  0  0  0  0  0  0  0  0  0
  126.4997  132.7153  160.0090 C   0  0  0  0  0  0  0  0  0  0  0  0
  125.2887  132.1005  160.2606 C   0  0  0  0  0  0  0  0  0  0  0  0
  124.2773  132.7948  160.8973 C   0  0  0  0  0  0  0  0  0  0  0  0
  124.4775  134.1103  161.2909 C   0  0  0  0  0  0  0  0  0  0  0  0
  123.4820  134.7919  161.9163 O   0  0  0  0  0  0  0  0  0  0  0  0
  125.6935  134.7289  161.0452 C   0  0  0  0  0  0  0  0  0  0  0  0
  130.9176  134.7299  159.9851 C   0  0  0  0  0  0  0  0  0  0  0  0
  130.8015  133.5800  160.7447 C   0  0  0  0  0  0  0  0  0  0  0  0
  131.6474  133.3689  161.8175 C   0  0  0  0  0  0  0  0  0  0  0  0
  132.6118  134.3064  162.1333 C   0  0  0  0  0  0  0  0  0  0  0  0
  132.7339  135.4583  161.3697 C   0  0  0  0  0  0  0  0  0  0  0  0
  133.6849  136.3797  161.6750 O   0  0  0  0  0  0  0  0  0  0  0  0
  133.6414  136.9575  162.9020 C   0  0  0  0  0  0  0  0  0  0  0  0
  134.5443  137.8561  163.2395 C   0  0  0  0  0  0  0  0  0  0  0  0
  134.4771  138.7482  165.1339 I   0  0  0  0  0  0  0  0  0  0  0  0
  131.8796  135.6707  160.2967 C   0  0  0  0  0  0  0  0  0  0  0  0
  128.2603  135.3436  160.7537 H   0  0  0  0  0  0  0  0  0  0  0  0
  127.2869  132.1721  159.5074 H   0  0  0  0  0  0  0  0  0  0  0  0
  125.1302  131.0769  159.9550 H   0  0  0  0  0  0  0  0  0  0  0  0
  123.3300  132.3127  161.0890 H   0  0  0  0  0  0  0  0  0  0  0  0
  123.7150  135.7003  162.1518 H   0  0  0  0  0  0  0  0  0  0  0  0
  125.8513  135.7527  161.3512 H   0  0  0  0  0  0  0  0  0  0  0  0
  130.0482  132.8459  160.4994 H   0  0  0  0  0  0  0  0  0  0  0  0
  131.5547  132.4702  162.4090 H   0  0  0  0  0  0  0  0  0  0  0  0
  133.2727  134.1409  162.9713 H   0  0  0  0  0  0  0  0  0  0  0  0
  132.8667  136.6809  163.6019 H   0  0  0  0  0  0  0  0  0  0  0  0
  135.3189  138.1326  162.5395 H   0  0  0  0  0  0  0  0  0  0  0  0
  131.9698  136.5684  159.7033 H   0  0  0  0  0  0  0  0  0  0  0  0
  1  2  1  0
  1  3  1  0
  1  4  1  0
  1  5  1  0
  5  6  1  6
  5  7  1  0
  5 17  1  0
  7  8  2  0
  7  9  1  0
  9 10  1  0
  9 27  1  0
 10 16  1  0
 10 11  2  0
 11 12  1  0
 11 28  1  0
 12 13  2  0
 12 29  1  0
 13 14  1  0
 13 30  1  0
 14 15  1  0
 14 16  2  0
 15 31  1  0
 16 32  1  0
 17 26  1  0
 17 18  2  0
 18 19  1  0
 18 33  1  0
 19 20  2  0
 19 34  1  0
 20 21  1  0
 20 35  1  0
 21 22  1  0
 21 26  2  0
 22 23  1  0
 23 24  2  0
 23 36  1  0
 24 25  1  0
 24 37  1  0
 26 38  1  0
M  CHG  1   1   1
M  END
>  <DOCK_score>  (1) 
-40.833557

>  <SMILES>  (1) 
[NH3+][C@@H](C(=O)Nc1cccc(O)c1)c1cccc(OC=CI)c1

$$$$
