CCc1ccccc1C[N@H+](C)Cc1ccccc1Nc1cnc2ccccc2c1
     RDKit          3D

 57 60  0  0  1  0  0  0  0  0999 V2000
  130.9373  130.7640  160.6281 C   0  0  0  0  0  0  0  0  0  0  0  0
  129.5745  131.3625  160.2747 C   0  0  0  0  0  0  0  0  0  0  0  0
  129.6528  132.0279  158.9248 C   0  0  0  0  0  0  0  0  0  0  0  0
  129.3728  131.3046  157.7803 C   0  0  0  0  0  0  0  0  0  0  0  0
  129.4446  131.9147  156.5422 C   0  0  0  0  0  0  0  0  0  0  0  0
  129.7960  133.2485  156.4483 C   0  0  0  0  0  0  0  0  0  0  0  0
  130.0704  133.9731  157.5928 C   0  0  0  0  0  0  0  0  0  0  0  0
  130.0042  133.3614  158.8309 C   0  0  0  0  0  0  0  0  0  0  0  0
  130.3090  134.1498  160.0784 C   0  0  0  0  0  0  0  0  0  0  0  0
  131.5245  134.9476  159.8686 N   0  0  2  0  0  0  0  0  0  0  0  0
  131.3819  135.5814  159.0966 H   0  0  0  0  0  0  0  0  0  0  0  0
  132.6507  134.0540  159.5668 C   0  0  0  0  0  0  0  0  0  0  0  0
  131.8217  135.7162  161.0847 C   0  0  0  0  0  0  0  0  0  0  0  0
  130.9464  136.9421  161.1307 C   0  0  0  0  0  0  0  0  0  0  0  0
  129.7137  136.8885  161.7511 C   0  0  0  0  0  0  0  0  0  0  0  0
  128.9076  138.0110  161.7892 C   0  0  0  0  0  0  0  0  0  0  0  0
  129.3346  139.1930  161.2110 C   0  0  0  0  0  0  0  0  0  0  0  0
  130.5684  139.2552  160.5941 C   0  0  0  0  0  0  0  0  0  0  0  0
  131.3811  138.1289  160.5544 C   0  0  0  0  0  0  0  0  0  0  0  0
  132.6300  138.1883  159.9311 N   0  0  0  0  0  0  0  0  0  0  0  0
  133.6002  139.0805  160.3943 C   0  0  0  0  0  0  0  0  0  0  0  0
  134.5457  139.6145  159.5099 C   0  0  0  0  0  0  0  0  0  0  0  0
  135.4632  140.4577  159.9124 N   0  0  0  0  0  0  0  0  0  0  0  0
  135.5501  140.8405  161.1905 C   0  0  0  0  0  0  0  0  0  0  0  0
  136.5453  141.7417  161.6084 C   0  0  0  0  0  0  0  0  0  0  0  0
  136.6125  142.1162  162.9150 C   0  0  0  0  0  0  0  0  0  0  0  0
  135.7085  141.6208  163.8528 C   0  0  0  0  0  0  0  0  0  0  0  0
  134.7310  140.7471  163.4863 C   0  0  0  0  0  0  0  0  0  0  0  0
  134.6320  140.3381  162.1460 C   0  0  0  0  0  0  0  0  0  0  0  0
  133.6360  139.4367  161.7292 C   0  0  0  0  0  0  0  0  0  0  0  0
  130.8807  130.2827  161.6045 H   0  0  0  0  0  0  0  0  0  0  0  0
  131.2166  130.0268  159.8753 H   0  0  0  0  0  0  0  0  0  0  0  0
  131.6858  131.5559  160.6562 H   0  0  0  0  0  0  0  0  0  0  0  0
  129.2952  132.0997  161.0275 H   0  0  0  0  0  0  0  0  0  0  0  0
  128.8260  130.5706  160.2465 H   0  0  0  0  0  0  0  0  0  0  0  0
  129.0982  130.2625  157.8537 H   0  0  0  0  0  0  0  0  0  0  0  0
  129.2264  131.3495  155.6482 H   0  0  0  0  0  0  0  0  0  0  0  0
  129.8525  133.7253  155.4809 H   0  0  0  0  0  0  0  0  0  0  0  0
  130.3407  135.0163  157.5197 H   0  0  0  0  0  0  0  0  0  0  0  0
  130.4632  133.4651  160.9124 H   0  0  0  0  0  0  0  0  0  0  0  0
  129.4733  134.8128  160.3023 H   0  0  0  0  0  0  0  0  0  0  0  0
  132.4626  133.5377  158.6253 H   0  0  0  0  0  0  0  0  0  0  0  0
  133.5667  134.6390  159.4837 H   0  0  0  0  0  0  0  0  0  0  0  0
  132.7585  133.3221  160.3673 H   0  0  0  0  0  0  0  0  0  0  0  0
  132.8692  136.0177  161.0770 H   0  0  0  0  0  0  0  0  0  0  0  0
  131.6279  135.0984  161.9614 H   0  0  0  0  0  0  0  0  0  0  0  0
  129.3770  135.9674  162.2034 H   0  0  0  0  0  0  0  0  0  0  0  0
  127.9421  137.9647  162.2708 H   0  0  0  0  0  0  0  0  0  0  0  0
  128.7027  140.0683  161.2425 H   0  0  0  0  0  0  0  0  0  0  0  0
  130.9012  140.1782  160.1427 H   0  0  0  0  0  0  0  0  0  0  0  0
  132.8234  137.6101  159.1766 H   0  0  0  0  0  0  0  0  0  0  0  0
  134.5142  139.3276  158.4691 H   0  0  0  0  0  0  0  0  0  0  0  0
  137.2542  142.1350  160.8949 H   0  0  0  0  0  0  0  0  0  0  0  0
  137.3792  142.8083  163.2303 H   0  0  0  0  0  0  0  0  0  0  0  0
  135.7841  141.9345  164.8834 H   0  0  0  0  0  0  0  0  0  0  0  0
  134.0359  140.3702  164.2218 H   0  0  0  0  0  0  0  0  0  0  0  0
  132.9207  139.0345  162.4314 H   0  0  0  0  0  0  0  0  0  0  0  0
  1  2  1  0
  1 31  1  0
  1 32  1  0
  1 33  1  0
  2  3  1  0
  2 34  1  0
  2 35  1  0
  3  8  2  0
  3  4  1  0
  4  5  2  0
  4 36  1  0
  5  6  1  0
  5 37  1  0
  6  7  2  0
  6 38  1  0
  7  8  1  0
  7 39  1  0
  8  9  1  0
  9 10  1  0
  9 40  1  0
  9 41  1  0
 10 11  1  6
 10 12  1  0
 10 13  1  0
 12 42  1  0
 12 43  1  0
 12 44  1  0
 13 14  1  0
 13 45  1  0
 13 46  1  0
 14 19  1  0
 14 15  2  0
 15 16  1  0
 15 47  1  0
 16 17  2  0
 16 48  1  0
 17 18  1  0
 17 49  1  0
 18 19  2  0
 18 50  1  0
 19 20  1  0
 20 21  1  0
 20 51  1  0
 21 30  1  0
 21 22  2  0
 22 23  1  0
 22 52  1  0
 23 24  2  0
 24 29  1  0
 24 25  1  0
 25 26  2  0
 25 53  1  0
 26 27  1  0
 26 54  1  0
 27 28  2  0
 27 55  1  0
 28 29  1  0
 28 56  1  0
 29 30  2  0
 30 57  1  0
M  CHG  1  10   1
M  END
>  <DOCK_score>  (1) 
-55.90881

>  <SMILES>  (1) 
CCc1ccccc1C[N@H+](C)Cc1ccccc1Nc1cnc2ccccc2c1

$$$$
