O=C(C=Cc1cn(-c2ccccc2)nc1-c1ccccc1)Nc1c[nH]nc1[C@H]1CCC[NH2+]C1
     RDKit          3D

 60 64  0  0  1  0  0  0  0  0999 V2000
  128.7993  138.8328  162.1011 O   0  0  0  0  0  0  0  0  0  0  0  0
  129.7501  138.0760  162.0225 C   0  0  0  0  0  0  0  0  0  0  0  0
  131.0533  138.5407  162.3316 C   0  0  0  0  0  0  0  0  0  0  0  0
  131.2404  139.8235  162.7135 C   0  0  0  0  0  0  0  0  0  0  0  0
  132.5897  140.3045  163.0336 C   0  0  0  0  0  0  0  0  0  0  0  0
  133.0182  140.8289  164.2384 C   0  0  0  0  0  0  0  0  0  0  0  0
  134.3206  141.1421  164.1108 N   0  0  0  0  0  0  0  0  0  0  0  0
  135.1196  141.6973  165.1187 C   0  0  0  0  0  0  0  0  0  0  0  0
  136.4579  141.9742  164.8723 C   0  0  0  0  0  0  0  0  0  0  0  0
  137.2415  142.5268  165.8662 C   0  0  0  0  0  0  0  0  0  0  0  0
  136.6977  142.7939  167.1093 C   0  0  0  0  0  0  0  0  0  0  0  0
  135.3669  142.5140  167.3597 C   0  0  0  0  0  0  0  0  0  0  0  0
  134.5765  141.9666  166.3680 C   0  0  0  0  0  0  0  0  0  0  0  0
  134.7537  140.8345  162.8181 N   0  0  0  0  0  0  0  0  0  0  0  0
  133.7505  140.3298  162.1358 C   0  0  0  0  0  0  0  0  0  0  0  0
  133.7847  139.8727  160.7263 C   0  0  0  0  0  0  0  0  0  0  0  0
  134.9655  139.3694  160.1823 C   0  0  0  0  0  0  0  0  0  0  0  0
  134.9898  138.9398  158.8710 C   0  0  0  0  0  0  0  0  0  0  0  0
  133.8485  139.0186  158.0935 C   0  0  0  0  0  0  0  0  0  0  0  0
  132.6754  139.5225  158.6260 C   0  0  0  0  0  0  0  0  0  0  0  0
  132.6376  139.9497  159.9376 C   0  0  0  0  0  0  0  0  0  0  0  0
  129.5635  136.7967  161.6416 N   0  0  0  0  0  0  0  0  0  0  0  0
  128.2699  136.3357  161.3349 C   0  0  0  0  0  0  0  0  0  0  0  0
  127.1099  136.7921  161.8725 C   0  0  0  0  0  0  0  0  0  0  0  0
  126.0934  136.0837  161.3156 N   0  0  0  0  0  0  0  0  0  0  0  0
  125.1494  136.1896  161.5116 H   0  0  0  0  0  0  0  0  0  0  0  0
  126.6500  135.1732  160.4084 N   0  0  0  0  0  0  0  0  0  0  0  0
  127.9494  135.3249  160.4166 C   0  0  0  0  0  0  0  0  0  0  0  0
  128.9342  134.5429  159.5861 C   0  0  1  0  0  0  0  0  0  0  0  0
  129.8790  134.4605  160.1234 H   0  0  0  0  0  0  0  0  0  0  0  0
  128.3763  133.1426  159.3152 C   0  0  0  0  0  0  0  0  0  0  0  0
  129.3482  132.3836  158.4071 C   0  0  0  0  0  0  0  0  0  0  0  0
  129.5632  133.1814  157.1192 C   0  0  0  0  0  0  0  0  0  0  0  0
  130.1221  134.4994  157.4433 N   0  0  0  0  0  0  0  0  0  0  0  0
  130.9805  134.3816  157.9604 H   0  0  0  0  0  0  0  0  0  0  0  0
  130.3114  135.0025  156.5895 H   0  0  0  0  0  0  0  0  0  0  0  0
  129.1645  135.2606  158.2545 C   0  0  0  0  0  0  0  0  0  0  0  0
  131.8966  137.8695  162.2618 H   0  0  0  0  0  0  0  0  0  0  0  0
  130.3972  140.4947  162.7834 H   0  0  0  0  0  0  0  0  0  0  0  0
  132.4158  140.9612  165.1249 H   0  0  0  0  0  0  0  0  0  0  0  0
  136.8844  141.7618  163.9030 H   0  0  0  0  0  0  0  0  0  0  0  0
  138.2812  142.7471  165.6738 H   0  0  0  0  0  0  0  0  0  0  0  0
  137.3135  143.2222  167.8862 H   0  0  0  0  0  0  0  0  0  0  0  0
  134.9449  142.7238  168.3314 H   0  0  0  0  0  0  0  0  0  0  0  0
  133.5370  141.7484  166.5640 H   0  0  0  0  0  0  0  0  0  0  0  0
  135.8583  139.3114  160.7872 H   0  0  0  0  0  0  0  0  0  0  0  0
  135.9027  138.5452  158.4500 H   0  0  0  0  0  0  0  0  0  0  0  0
  133.8734  138.6858  157.0663 H   0  0  0  0  0  0  0  0  0  0  0  0
  131.7874  139.5813  158.0141 H   0  0  0  0  0  0  0  0  0  0  0  0
  131.7211  140.3425  160.3525 H   0  0  0  0  0  0  0  0  0  0  0  0
  130.3208  136.1940  161.5789 H   0  0  0  0  0  0  0  0  0  0  0  0
  127.0130  137.5737  162.6115 H   0  0  0  0  0  0  0  0  0  0  0  0
  128.2637  132.6066  160.2575 H   0  0  0  0  0  0  0  0  0  0  0  0
  127.4071  133.2253  158.8233 H   0  0  0  0  0  0  0  0  0  0  0  0
  130.3015  132.2564  158.9200 H   0  0  0  0  0  0  0  0  0  0  0  0
  128.9318  131.4057  158.1651 H   0  0  0  0  0  0  0  0  0  0  0  0
  130.2545  132.6436  156.4704 H   0  0  0  0  0  0  0  0  0  0  0  0
  128.6092  133.3082  156.6074 H   0  0  0  0  0  0  0  0  0  0  0  0
  128.2191  135.3427  157.7181 H   0  0  0  0  0  0  0  0  0  0  0  0
  129.5615  136.2581  158.4437 H   0  0  0  0  0  0  0  0  0  0  0  0
  1  2  2  0
  2  3  1  0
  2 22  1  0
  3  4  2  0
  3 38  1  0
  4  5  1  0
  4 39  1  0
  5 15  1  0
  5  6  2  0
  6  7  1  0
  6 40  1  0
  7  8  1  0
  7 14  1  0
  8 13  1  0
  8  9  2  0
  9 10  1  0
  9 41  1  0
 10 11  2  0
 10 42  1  0
 11 12  1  0
 11 43  1  0
 12 13  2  0
 12 44  1  0
 13 45  1  0
 14 15  2  0
 15 16  1  0
 16 21  1  0
 16 17  2  0
 17 18  1  0
 17 46  1  0
 18 19  2  0
 18 47  1  0
 19 20  1  0
 19 48  1  0
 20 21  2  0
 20 49  1  0
 21 50  1  0
 22 23  1  0
 22 51  1  0
 23 28  1  0
 23 24  2  0
 24 25  1  0
 24 52  1  0
 25 26  1  0
 25 27  1  0
 27 28  2  0
 28 29  1  0
 29 30  1  1
 29 37  1  0
 29 31  1  0
 31 32  1  0
 31 53  1  0
 31 54  1  0
 32 33  1  0
 32 55  1  0
 32 56  1  0
 33 34  1  0
 33 57  1  0
 33 58  1  0
 34 35  1  0
 34 36  1  0
 34 37  1  0
 37 59  1  0
 37 60  1  0
M  CHG  1  34   1
M  END
>  <DOCK_score>  (1) 
-48.484879

>  <SMILES>  (1) 
O=C(C=Cc1cn(-c2ccccc2)nc1-c1ccccc1)Nc1c[nH]nc1[C@H]1CCC[NH2+]C1

$$$$
