C[C@@H](Nc1[nH]cc(-c2ccncc2)[nH+]1)c1cnn(Cc2ccccc2)c1
     RDKit          3D

 47 50  0  0  1  0  0  0  0  0999 V2000
  128.0534  135.6590  159.0815 C   0  0  0  0  0  0  0  0  0  0  0  0
  129.4716  135.1299  159.3049 C   0  0  1  0  0  0  0  0  0  0  0  0
  129.4273  134.2013  159.8740 H   0  0  0  0  0  0  0  0  0  0  0  0
  130.1090  134.8794  158.0099 N   0  0  0  0  0  0  0  0  0  0  0  0
  129.9897  133.6384  157.4083 C   0  0  0  0  0  0  0  0  0  0  0  0
  129.3071  132.5745  157.9138 N   0  0  0  0  0  0  0  0  0  0  0  0
  128.8213  132.5502  158.7530 H   0  0  0  0  0  0  0  0  0  0  0  0
  129.4379  131.5413  157.0205 C   0  0  0  0  0  0  0  0  0  0  0  0
  130.1916  132.0034  155.9912 C   0  0  0  0  0  0  0  0  0  0  0  0
  130.5931  131.2339  154.7897 C   0  0  0  0  0  0  0  0  0  0  0  0
  130.2156  131.6518  153.5094 C   0  0  0  0  0  0  0  0  0  0  0  0
  130.6151  130.9090  152.4184 C   0  0  0  0  0  0  0  0  0  0  0  0
  131.3339  129.8132  152.5714 N   0  0  0  0  0  0  0  0  0  0  0  0
  131.7065  129.3811  153.7619 C   0  0  0  0  0  0  0  0  0  0  0  0
  131.3551  130.0667  154.9055 C   0  0  0  0  0  0  0  0  0  0  0  0
  130.5121  133.2952  156.2565 N   0  0  0  0  0  0  0  0  0  0  0  0
  131.0460  133.8709  155.6869 H   0  0  0  0  0  0  0  0  0  0  0  0
  130.2736  136.1505  160.0705 C   0  0  0  0  0  0  0  0  0  0  0  0
  130.8758  135.9566  161.3179 C   0  0  0  0  0  0  0  0  0  0  0  0
  131.4836  137.0650  161.6551 N   0  0  0  0  0  0  0  0  0  0  0  0
  131.2786  138.0040  160.6360 N   0  0  0  0  0  0  0  0  0  0  0  0
  131.7837  139.3791  160.6167 C   0  0  0  0  0  0  0  0  0  0  0  0
  133.1411  139.4065  159.9626 C   0  0  0  0  0  0  0  0  0  0  0  0
  134.2808  139.2497  160.7288 C   0  0  0  0  0  0  0  0  0  0  0  0
  135.5257  139.2701  160.1283 C   0  0  0  0  0  0  0  0  0  0  0  0
  135.6313  139.4574  158.7626 C   0  0  0  0  0  0  0  0  0  0  0  0
  134.4917  139.6195  157.9970 C   0  0  0  0  0  0  0  0  0  0  0  0
  133.2466  139.5939  158.5970 C   0  0  0  0  0  0  0  0  0  0  0  0
  130.5332  137.4184  159.6754 C   0  0  0  0  0  0  0  0  0  0  0  0
  127.4732  134.9207  158.5278 H   0  0  0  0  0  0  0  0  0  0  0  0
  127.5791  135.8454  160.0450 H   0  0  0  0  0  0  0  0  0  0  0  0
  128.0975  136.5877  158.5124 H   0  0  0  0  0  0  0  0  0  0  0  0
  130.6147  135.5830  157.5740 H   0  0  0  0  0  0  0  0  0  0  0  0
  129.0203  130.5500  157.1178 H   0  0  0  0  0  0  0  0  0  0  0  0
  129.6233  132.5452  153.3770 H   0  0  0  0  0  0  0  0  0  0  0  0
  130.3319  131.2259  151.4256 H   0  0  0  0  0  0  0  0  0  0  0  0
  132.2946  128.4788  153.8410 H   0  0  0  0  0  0  0  0  0  0  0  0
  131.6639  129.7079  155.8762 H   0  0  0  0  0  0  0  0  0  0  0  0
  130.8468  135.0477  161.9007 H   0  0  0  0  0  0  0  0  0  0  0  0
  131.0964  140.0107  160.0539 H   0  0  0  0  0  0  0  0  0  0  0  0
  131.8651  139.7507  161.6382 H   0  0  0  0  0  0  0  0  0  0  0  0
  134.1986  139.1078  161.7963 H   0  0  0  0  0  0  0  0  0  0  0  0
  136.4161  139.1439  160.7263 H   0  0  0  0  0  0  0  0  0  0  0  0
  136.6040  139.4778  158.2940 H   0  0  0  0  0  0  0  0  0  0  0  0
  134.5742  139.7663  156.9303 H   0  0  0  0  0  0  0  0  0  0  0  0
  132.3563  139.7208  157.9989 H   0  0  0  0  0  0  0  0  0  0  0  0
  130.2036  137.8790  158.7558 H   0  0  0  0  0  0  0  0  0  0  0  0
  1  2  1  0
  1 30  1  0
  1 31  1  0
  1 32  1  0
  2  3  1  1
  2  4  1  0
  2 18  1  0
  4 33  1  0
  5  4  1  0
  5 16  2  0
  5  6  1  0
  6  7  1  0
  6  8  1  0
  8  9  2  0
  8 34  1  0
  9 10  1  0
  9 16  1  0
 10 15  1  0
 10 11  2  0
 11 12  1  0
 11 35  1  0
 12 13  2  0
 12 36  1  0
 13 14  1  0
 14 15  2  0
 14 37  1  0
 15 38  1  0
 16 17  1  0
 18 29  2  0
 18 19  1  0
 19 20  2  0
 19 39  1  0
 20 21  1  0
 21 22  1  0
 21 29  1  0
 22 23  1  0
 22 40  1  0
 22 41  1  0
 23 28  1  0
 23 24  2  0
 24 25  1  0
 24 42  1  0
 25 26  2  0
 25 43  1  0
 26 27  1  0
 26 44  1  0
 27 28  2  0
 27 45  1  0
 28 46  1  0
 29 47  1  0
M  CHG  1  16   1
M  END
>  <DOCK_score>  (1) 
-56.395958

>  <SMILES>  (1) 
C[C@@H](Nc1[nH]cc(-c2ccncc2)[nH+]1)c1cnn(Cc2ccccc2)c1

$$$$
