O=C(Nc1ccc(F)cc1Nc1[nH]cc(-c2ccc(F)cc2)[nH+]1)NC1CC=CC1
     RDKit          3D

 49 52  0  0  1  0  0  0  0  0999 V2000
  130.6412  138.5727  160.0907 O   0  0  0  0  0  0  0  0  0  0  0  0
  131.3472  137.8336  160.7495 C   0  0  0  0  0  0  0  0  0  0  0  0
  130.8428  136.6876  161.2482 N   0  0  0  0  0  0  0  0  0  0  0  0
  129.5034  136.3474  161.0072 C   0  0  0  0  0  0  0  0  0  0  0  0
  128.5127  136.7620  161.8839 C   0  0  0  0  0  0  0  0  0  0  0  0
  127.1937  136.4213  161.6485 C   0  0  0  0  0  0  0  0  0  0  0  0
  126.8570  135.6698  160.5352 C   0  0  0  0  0  0  0  0  0  0  0  0
  125.5666  135.3392  160.3101 F   0  0  0  0  0  0  0  0  0  0  0  0
  127.8396  135.2570  159.6522 C   0  0  0  0  0  0  0  0  0  0  0  0
  129.1649  135.5959  159.8823 C   0  0  0  0  0  0  0  0  0  0  0  0
  130.1606  135.1797  158.9909 N   0  0  0  0  0  0  0  0  0  0  0  0
  130.0055  134.0010  158.2805 C   0  0  0  0  0  0  0  0  0  0  0  0
  129.3171  132.9054  158.7031 N   0  0  0  0  0  0  0  0  0  0  0  0
  128.8506  132.8105  159.5482 H   0  0  0  0  0  0  0  0  0  0  0  0
  129.4052  131.9587  157.7114 C   0  0  0  0  0  0  0  0  0  0  0  0
  130.1390  132.5047  156.7101 C   0  0  0  0  0  0  0  0  0  0  0  0
  130.4904  131.8479  155.4272 C   0  0  0  0  0  0  0  0  0  0  0  0
  130.0789  132.4085  154.2193 C   0  0  0  0  0  0  0  0  0  0  0  0
  130.4124  131.7971  153.0282 C   0  0  0  0  0  0  0  0  0  0  0  0
  131.1454  130.6218  153.0320 C   0  0  0  0  0  0  0  0  0  0  0  0
  131.4650  130.0236  151.8636 F   0  0  0  0  0  0  0  0  0  0  0  0
  131.5522  130.0579  154.2306 C   0  0  0  0  0  0  0  0  0  0  0  0
  131.2281  130.6654  155.4263 C   0  0  0  0  0  0  0  0  0  0  0  0
  130.4980  133.7560  157.0906 N   0  0  0  0  0  0  0  0  0  0  0  0
  131.0306  134.3728  156.5645 H   0  0  0  0  0  0  0  0  0  0  0  0
  132.6340  138.1605  160.9811 N   0  0  0  0  0  0  0  0  0  0  0  0
  133.1823  139.4063  160.4391 C   0  0  0  0  0  0  0  0  0  0  0  0
  133.8715  139.1630  159.0764 C   0  0  0  0  0  0  0  0  0  0  0  0
  135.0762  140.0749  159.0871 C   0  0  0  0  0  0  0  0  0  0  0  0
  135.3465  140.4824  160.2973 C   0  0  0  0  0  0  0  0  0  0  0  0
  134.3671  139.9103  161.2955 C   0  0  0  0  0  0  0  0  0  0  0  0
  131.4059  136.0981  161.7737 H   0  0  0  0  0  0  0  0  0  0  0  0
  128.7719  137.3475  162.7536 H   0  0  0  0  0  0  0  0  0  0  0  0
  126.4240  136.7417  162.3349 H   0  0  0  0  0  0  0  0  0  0  0  0
  127.5746  134.6716  158.7842 H   0  0  0  0  0  0  0  0  0  0  0  0
  130.9594  135.7170  158.8707 H   0  0  0  0  0  0  0  0  0  0  0  0
  128.9691  130.9708  157.7245 H   0  0  0  0  0  0  0  0  0  0  0  0
  129.5033  133.3223  154.2155 H   0  0  0  0  0  0  0  0  0  0  0  0
  130.0974  132.2329  152.0916 H   0  0  0  0  0  0  0  0  0  0  0  0
  132.1235  129.1413  154.2291 H   0  0  0  0  0  0  0  0  0  0  0  0
  131.5459  130.2255  156.3601 H   0  0  0  0  0  0  0  0  0  0  0  0
  133.1972  137.5710  161.5065 H   0  0  0  0  0  0  0  0  0  0  0  0
  132.4076  140.1686  160.3559 H   0  0  0  0  0  0  0  0  0  0  0  0
  134.1838  138.1222  158.9894 H   0  0  0  0  0  0  0  0  0  0  0  0
  133.2012  139.4288  158.2590 H   0  0  0  0  0  0  0  0  0  0  0  0
  135.6395  140.3532  158.2087 H   0  0  0  0  0  0  0  0  0  0  0  0
  136.1628  141.1423  160.5516 H   0  0  0  0  0  0  0  0  0  0  0  0
  134.0338  140.6842  161.9869 H   0  0  0  0  0  0  0  0  0  0  0  0
  134.8193  139.0829  161.8424 H   0  0  0  0  0  0  0  0  0  0  0  0
  1  2  2  0
  2  3  1  0
  2 26  1  0
  3  4  1  0
  3 32  1  0
  4 10  1  0
  4  5  2  0
  5  6  1  0
  5 33  1  0
  6  7  2  0
  6 34  1  0
  7  8  1  0
  7  9  1  0
  9 10  2  0
  9 35  1  0
 10 11  1  0
 11 36  1  0
 12 11  1  0
 12 24  2  0
 12 13  1  0
 13 14  1  0
 13 15  1  0
 15 16  2  0
 15 37  1  0
 16 17  1  0
 16 24  1  0
 17 23  1  0
 17 18  2  0
 18 19  1  0
 18 38  1  0
 19 20  2  0
 19 39  1  0
 20 21  1  0
 20 22  1  0
 22 23  2  0
 22 40  1  0
 23 41  1  0
 24 25  1  0
 26 27  1  0
 26 42  1  0
 27 31  1  0
 27 28  1  0
 27 43  1  0
 28 29  1  0
 28 44  1  0
 28 45  1  0
 29 30  2  0
 29 46  1  0
 30 31  1  0
 30 47  1  0
 31 48  1  0
 31 49  1  0
M  CHG  1  24   1
M  END
>  <DOCK_score>  (1) 
-55.999996

>  <SMILES>  (1) 
O=C(Nc1ccc(F)cc1Nc1[nH]cc(-c2ccc(F)cc2)[nH+]1)NC1CC=CC1

$$$$
