CCc1ccc(-c2c[nH]c(N[C@H](C3=CCOCC3)C3CCCC3O)[nH+]2)cc1
     RDKit          3D

 57 60  0  0  1  0  0  0  0  0999 V2000
  130.3551  130.4079  150.0358 C   0  0  0  0  0  0  0  0  0  0  0  0
  131.1477  129.7063  151.1404 C   0  0  0  0  0  0  0  0  0  0  0  0
  130.8816  130.3859  152.4588 C   0  0  0  0  0  0  0  0  0  0  0  0
  130.5868  131.7371  152.4904 C   0  0  0  0  0  0  0  0  0  0  0  0
  130.3368  132.3636  153.6945 C   0  0  0  0  0  0  0  0  0  0  0  0
  130.3929  131.6345  154.8811 C   0  0  0  0  0  0  0  0  0  0  0  0
  130.1306  132.3035  156.1788 C   0  0  0  0  0  0  0  0  0  0  0  0
  129.5922  131.7244  157.2806 C   0  0  0  0  0  0  0  0  0  0  0  0
  129.5288  132.6953  158.2503 N   0  0  0  0  0  0  0  0  0  0  0  0
  129.1910  132.5846  159.1528 H   0  0  0  0  0  0  0  0  0  0  0  0
  130.0227  133.8424  157.7095 C   0  0  0  0  0  0  0  0  0  0  0  0
  130.1295  135.0598  158.3601 N   0  0  0  0  0  0  0  0  0  0  0  0
  129.6896  135.1878  159.7516 C   0  0  2  0  0  0  0  0  0  0  0  0
  130.2618  134.5035  160.3779 H   0  0  0  0  0  0  0  0  0  0  0  0
  128.2239  134.8508  159.8481 C   0  0  0  0  0  0  0  0  0  0  0  0
  127.8587  133.8618  160.6085 C   0  0  0  0  0  0  0  0  0  0  0  0
  126.4252  133.4410  160.7661 C   0  0  0  0  0  0  0  0  0  0  0  0
  125.5554  134.4668  160.2833 O   0  0  0  0  0  0  0  0  0  0  0  0
  125.9050  134.9266  158.9719 C   0  0  0  0  0  0  0  0  0  0  0  0
  127.2393  135.6753  159.0657 C   0  0  0  0  0  0  0  0  0  0  0  0
  129.9151  136.6243  160.2277 C   0  0  1  0  0  0  0  0  0  0  0  0
  129.0865  136.8953  161.5004 C   0  0  0  0  0  0  0  0  0  0  0  0
  129.9990  137.8038  162.3614 C   0  0  0  0  0  0  0  0  0  0  0  0
  131.4079  137.2132  162.1061 C   0  0  0  0  0  0  0  0  0  0  0  0
  131.3913  136.8268  160.6116 C   0  0  1  0  0  0  0  0  0  0  0  0
  132.1200  135.6140  160.4112 O   0  0  0  0  0  0  0  0  0  0  0  0
  130.3813  133.6042  156.4716 N   0  0  0  0  0  0  0  0  0  0  0  0
  130.7644  134.2543  155.8620 H   0  0  0  0  0  0  0  0  0  0  0  0
  130.6961  130.2747  154.8437 C   0  0  0  0  0  0  0  0  0  0  0  0
  130.9387  129.6575  153.6334 C   0  0  0  0  0  0  0  0  0  0  0  0
  129.2903  130.3557  150.2631 H   0  0  0  0  0  0  0  0  0  0  0  0
  130.6628  131.4519  149.9750 H   0  0  0  0  0  0  0  0  0  0  0  0
  130.5476  129.9164  149.0821 H   0  0  0  0  0  0  0  0  0  0  0  0
  130.8401  128.6624  151.2013 H   0  0  0  0  0  0  0  0  0  0  0  0
  132.2124  129.7588  150.9129 H   0  0  0  0  0  0  0  0  0  0  0  0
  130.5479  132.3019  151.5707 H   0  0  0  0  0  0  0  0  0  0  0  0
  130.1023  133.4175  153.7175 H   0  0  0  0  0  0  0  0  0  0  0  0
  129.2762  130.6963  157.3778 H   0  0  0  0  0  0  0  0  0  0  0  0
  130.4956  135.8279  157.8945 H   0  0  0  0  0  0  0  0  0  0  0  0
  128.6189  133.3194  161.1509 H   0  0  0  0  0  0  0  0  0  0  0  0
  126.2531  132.5254  160.2002 H   0  0  0  0  0  0  0  0  0  0  0  0
  126.2166  133.2566  161.8200 H   0  0  0  0  0  0  0  0  0  0  0  0
  126.0042  134.0752  158.2987 H   0  0  0  0  0  0  0  0  0  0  0  0
  125.1323  135.5999  158.6008 H   0  0  0  0  0  0  0  0  0  0  0  0
  127.0881  136.6317  159.5664 H   0  0  0  0  0  0  0  0  0  0  0  0
  127.6276  135.8488  158.0621 H   0  0  0  0  0  0  0  0  0  0  0  0
  129.6338  137.3261  159.4425 H   0  0  0  0  0  0  0  0  0  0  0  0
  128.1604  137.4127  161.2498 H   0  0  0  0  0  0  0  0  0  0  0  0
  128.8721  135.9624  162.0220 H   0  0  0  0  0  0  0  0  0  0  0  0
  129.9460  138.8380  162.0212 H   0  0  0  0  0  0  0  0  0  0  0  0
  129.7319  137.7313  163.4157 H   0  0  0  0  0  0  0  0  0  0  0  0
  132.1761  137.9626  162.2973 H   0  0  0  0  0  0  0  0  0  0  0  0
  131.5714  136.3335  162.7283 H   0  0  0  0  0  0  0  0  0  0  0  0
  131.8262  137.6275  160.0133 H   0  0  0  0  0  0  0  0  0  0  0  0
  132.1682  135.3322  159.4873 H   0  0  0  0  0  0  0  0  0  0  0  0
  130.7412  129.7050  155.7602 H   0  0  0  0  0  0  0  0  0  0  0  0
  131.1734  128.6037  153.6032 H   0  0  0  0  0  0  0  0  0  0  0  0
  1  2  1  0
  1 31  1  0
  1 32  1  0
  1 33  1  0
  2  3  1  0
  2 34  1  0
  2 35  1  0
  3 30  2  0
  3  4  1  0
  4  5  2  0
  4 36  1  0
  5  6  1  0
  5 37  1  0
  6  7  1  0
  6 29  2  0
  7 27  1  0
  7  8  2  0
  8  9  1  0
  8 38  1  0
  9 10  1  0
  9 11  1  0
 11 12  1  0
 11 27  2  0
 12 13  1  0
 12 39  1  0
 13 14  1  1
 13 15  1  0
 13 21  1  0
 15 20  1  0
 15 16  2  0
 16 17  1  0
 16 40  1  0
 17 18  1  0
 17 41  1  0
 17 42  1  0
 18 19  1  0
 19 20  1  0
 19 43  1  0
 19 44  1  0
 20 45  1  0
 20 46  1  0
 21 25  1  0
 21 22  1  0
 21 47  1  6
 22 23  1  0
 22 48  1  0
 22 49  1  0
 23 24  1  0
 23 50  1  0
 23 51  1  0
 24 25  1  0
 24 52  1  0
 24 53  1  0
 25 26  1  0
 25 54  1  6
 26 55  1  0
 27 28  1  0
 29 30  1  0
 29 56  1  0
 30 57  1  0
M  CHG  1  27   1
M  END
>  <DOCK_score>  (1) 
-59.687748

>  <SMILES>  (1) 
CCc1ccc(-c2c[nH]c(N[C@H](C3=CCOCC3)C3CCCC3O)[nH+]2)cc1

$$$$
