FC(F)[C@H](Cc1ccc(Cl)cc1)N1CC[NH+](Cc2cccc3ccccc23)CC1
     RDKit          3D

 55 58  0  0  1  0  0  0  0  0999 V2000
  131.5216  130.3049  158.1123 F   0  0  0  0  0  0  0  0  0  0  0  0
  130.1734  130.5200  157.8073 C   0  0  0  0  0  0  0  0  0  0  0  0
  129.4162  130.4743  158.9828 F   0  0  0  0  0  0  0  0  0  0  0  0
  130.0117  131.8920  157.1497 C   0  0  2  0  0  0  0  0  0  0  0  0
  129.0706  131.9233  156.6008 H   0  0  0  0  0  0  0  0  0  0  0  0
  131.1735  132.1346  156.1841 C   0  0  0  0  0  0  0  0  0  0  0  0
  130.9100  131.4102  154.8891 C   0  0  0  0  0  0  0  0  0  0  0  0
  131.3469  130.1091  154.7239 C   0  0  0  0  0  0  0  0  0  0  0  0
  131.1104  129.4463  153.5345 C   0  0  0  0  0  0  0  0  0  0  0  0
  130.4266  130.0811  152.5131 C   0  0  0  0  0  0  0  0  0  0  0  0
  130.1238  129.2470  151.0210 Cl  0  0  0  0  0  0  0  0  0  0  0  0
  129.9890  131.3831  152.6790 C   0  0  0  0  0  0  0  0  0  0  0  0
  130.2308  132.0469  153.8671 C   0  0  0  0  0  0  0  0  0  0  0  0
  130.0098  132.9341  158.1850 N   0  0  0  0  0  0  0  0  0  0  0  0
  129.3210  134.1438  157.7136 C   0  0  0  0  0  0  0  0  0  0  0  0
  129.2888  135.1801  158.8390 C   0  0  0  0  0  0  0  0  0  0  0  0
  130.6625  135.5050  159.2452 N   0  0  0  0  0  0  0  0  0  0  0  0
  131.1696  135.8700  158.4529 H   0  0  0  0  0  0  0  0  0  0  0  0
  130.6316  136.5133  160.3131 C   0  0  0  0  0  0  0  0  0  0  0  0
  131.9702  137.2008  160.3937 C   0  0  0  0  0  0  0  0  0  0  0  0
  132.2118  138.3171  159.6530 C   0  0  0  0  0  0  0  0  0  0  0  0
  133.4414  138.9691  159.7180 C   0  0  0  0  0  0  0  0  0  0  0  0
  134.4405  138.5029  160.5165 C   0  0  0  0  0  0  0  0  0  0  0  0
  134.2301  137.3500  161.2917 C   0  0  0  0  0  0  0  0  0  0  0  0
  135.2374  136.8394  162.1282 C   0  0  0  0  0  0  0  0  0  0  0  0
  134.9977  135.7207  162.8652 C   0  0  0  0  0  0  0  0  0  0  0  0
  133.7661  135.0709  162.8033 C   0  0  0  0  0  0  0  0  0  0  0  0
  132.7672  135.5367  162.0051 C   0  0  0  0  0  0  0  0  0  0  0  0
  132.9776  136.6896  161.2292 C   0  0  0  0  0  0  0  0  0  0  0  0
  131.3294  134.2921  159.7365 C   0  0  0  0  0  0  0  0  0  0  0  0
  131.3786  133.2483  158.6185 C   0  0  0  0  0  0  0  0  0  0  0  0
  129.8278  129.7458  157.1223 H   0  0  0  0  0  0  0  0  0  0  0  0
  132.0977  131.7629  156.6268 H   0  0  0  0  0  0  0  0  0  0  0  0
  131.2677  133.2030  155.9900 H   0  0  0  0  0  0  0  0  0  0  0  0
  131.8771  129.6122  155.5230 H   0  0  0  0  0  0  0  0  0  0  0  0
  131.4560  128.4314  153.4038 H   0  0  0  0  0  0  0  0  0  0  0  0
  129.4590  131.8808  151.8805 H   0  0  0  0  0  0  0  0  0  0  0  0
  129.8894  133.0633  153.9968 H   0  0  0  0  0  0  0  0  0  0  0  0
  129.8536  134.5547  156.8559 H   0  0  0  0  0  0  0  0  0  0  0  0
  128.3014  133.8915  157.4221 H   0  0  0  0  0  0  0  0  0  0  0  0
  128.7443  134.7740  159.6915 H   0  0  0  0  0  0  0  0  0  0  0  0
  128.7908  136.0835  158.4868 H   0  0  0  0  0  0  0  0  0  0  0  0
  129.8577  137.2494  160.0955 H   0  0  0  0  0  0  0  0  0  0  0  0
  130.4145  136.0281  161.2646 H   0  0  0  0  0  0  0  0  0  0  0  0
  131.4373  138.7055  159.0083 H   0  0  0  0  0  0  0  0  0  0  0  0
  133.6058  139.8552  159.1230 H   0  0  0  0  0  0  0  0  0  0  0  0
  135.3897  139.0168  160.5544 H   0  0  0  0  0  0  0  0  0  0  0  0
  136.1969  137.3320  162.1858 H   0  0  0  0  0  0  0  0  0  0  0  0
  135.7734  135.3304  163.5073 H   0  0  0  0  0  0  0  0  0  0  0  0
  133.6020  134.1845  163.3982 H   0  0  0  0  0  0  0  0  0  0  0  0
  131.8180  135.0231  161.9679 H   0  0  0  0  0  0  0  0  0  0  0  0
  130.7745  133.8905  160.5843 H   0  0  0  0  0  0  0  0  0  0  0  0
  132.3443  134.5370  160.0497 H   0  0  0  0  0  0  0  0  0  0  0  0
  131.8602  132.3427  158.9875 H   0  0  0  0  0  0  0  0  0  0  0  0
  131.9451  133.6445  157.7758 H   0  0  0  0  0  0  0  0  0  0  0  0
  1  2  1  0
  2  3  1  0
  2  4  1  0
  2 32  1  0
  4  5  1  6
  4  6  1  0
  4 14  1  0
  6  7  1  0
  6 33  1  0
  6 34  1  0
  7 13  1  0
  7  8  2  0
  8  9  1  0
  8 35  1  0
  9 10  2  0
  9 36  1  0
 10 11  1  0
 10 12  1  0
 12 13  2  0
 12 37  1  0
 13 38  1  0
 14 31  1  0
 14 15  1  0
 15 16  1  0
 15 39  1  0
 15 40  1  0
 16 17  1  0
 16 41  1  0
 16 42  1  0
 17 18  1  0
 17 19  1  0
 17 30  1  0
 19 20  1  0
 19 43  1  0
 19 44  1  0
 20 29  1  0
 20 21  2  0
 21 22  1  0
 21 45  1  0
 22 23  2  0
 22 46  1  0
 23 24  1  0
 23 47  1  0
 24 29  2  0
 24 25  1  0
 25 26  2  0
 25 48  1  0
 26 27  1  0
 26 49  1  0
 27 28  2  0
 27 50  1  0
 28 29  1  0
 28 51  1  0
 30 31  1  0
 30 52  1  0
 30 53  1  0
 31 54  1  0
 31 55  1  0
M  CHG  1  17   1
M  END
>  <DOCK_score>  (1) 
-57.706161

>  <SMILES>  (1) 
FC(F)[C@H](Cc1ccc(Cl)cc1)N1CC[NH+](Cc2cccc3ccccc23)CC1

$$$$
