CCC[C@H](C)Nc1cc(Nc2[nH]cc(-c3cccnc3)[nH+]2)ccn1
     RDKit          3D

 47 49  0  0  1  0  0  0  0  0999 V2000
  126.5493  141.8948  164.6663 C   0  0  0  0  0  0  0  0  0  0  0  0
  126.3269  140.4525  164.2069 C   0  0  0  0  0  0  0  0  0  0  0  0
  127.6541  139.8586  163.7307 C   0  0  0  0  0  0  0  0  0  0  0  0
  127.4317  138.4163  163.2713 C   0  0  2  0  0  0  0  0  0  0  0  0
  126.4903  138.3497  162.7260 H   0  0  0  0  0  0  0  0  0  0  0  0
  127.3806  137.4946  164.4914 C   0  0  0  0  0  0  0  0  0  0  0  0
  128.5330  138.0073  162.3960 N   0  0  0  0  0  0  0  0  0  0  0  0
  128.3115  137.0731  161.3904 C   0  0  0  0  0  0  0  0  0  0  0  0
  129.3615  136.6862  160.5686 C   0  0  0  0  0  0  0  0  0  0  0  0
  129.1246  135.7505  159.5667 C   0  0  0  0  0  0  0  0  0  0  0  0
  130.1509  135.3348  158.7208 N   0  0  0  0  0  0  0  0  0  0  0  0
  130.1336  134.0561  158.1866 C   0  0  0  0  0  0  0  0  0  0  0  0
  129.5913  132.9569  158.7785 N   0  0  0  0  0  0  0  0  0  0  0  0
  129.1514  132.9279  159.6425 H   0  0  0  0  0  0  0  0  0  0  0  0
  129.7790  131.8976  157.9252 C   0  0  0  0  0  0  0  0  0  0  0  0
  130.4382  132.3773  156.8413 C   0  0  0  0  0  0  0  0  0  0  0  0
  130.8611  131.5895  155.6576 C   0  0  0  0  0  0  0  0  0  0  0  0
  130.9422  132.1891  154.3974 C   0  0  0  0  0  0  0  0  0  0  0  0
  131.3463  131.4121  153.3256 C   0  0  0  0  0  0  0  0  0  0  0  0
  131.6441  130.0772  153.5320 C   0  0  0  0  0  0  0  0  0  0  0  0
  131.5536  129.5378  154.7321 N   0  0  0  0  0  0  0  0  0  0  0  0
  131.1784  130.2385  155.7827 C   0  0  0  0  0  0  0  0  0  0  0  0
  130.6416  133.7047  157.0307 N   0  0  0  0  0  0  0  0  0  0  0  0
  131.0913  134.2990  156.4099 H   0  0  0  0  0  0  0  0  0  0  0  0
  127.8326  135.2375  159.4301 C   0  0  0  0  0  0  0  0  0  0  0  0
  126.8429  135.6710  160.2844 C   0  0  0  0  0  0  0  0  0  0  0  0
  127.1017  136.5570  161.2294 N   0  0  0  0  0  0  0  0  0  0  0  0
  126.9343  142.4857  163.8352 H   0  0  0  0  0  0  0  0  0  0  0  0
  125.6037  142.3180  165.0055 H   0  0  0  0  0  0  0  0  0  0  0  0
  127.2681  141.9085  165.4855 H   0  0  0  0  0  0  0  0  0  0  0  0
  125.9419  139.8617  165.0380 H   0  0  0  0  0  0  0  0  0  0  0  0
  125.6080  140.4388  163.3876 H   0  0  0  0  0  0  0  0  0  0  0  0
  128.0391  140.4495  162.8995 H   0  0  0  0  0  0  0  0  0  0  0  0
  128.3730  139.8723  164.5499 H   0  0  0  0  0  0  0  0  0  0  0  0
  127.2222  136.4670  164.1640 H   0  0  0  0  0  0  0  0  0  0  0  0
  128.3220  137.5610  165.0367 H   0  0  0  0  0  0  0  0  0  0  0  0
  126.5612  137.7989  165.1426 H   0  0  0  0  0  0  0  0  0  0  0  0
  129.4167  138.3881  162.5181 H   0  0  0  0  0  0  0  0  0  0  0  0
  130.3475  137.1055  160.7048 H   0  0  0  0  0  0  0  0  0  0  0  0
  130.8775  135.9404  158.5057 H   0  0  0  0  0  0  0  0  0  0  0  0
  129.4661  130.8769  158.0884 H   0  0  0  0  0  0  0  0  0  0  0  0
  130.6996  133.2330  154.2641 H   0  0  0  0  0  0  0  0  0  0  0  0
  131.4242  131.8425  152.3380 H   0  0  0  0  0  0  0  0  0  0  0  0
  131.9562  129.4671  152.6972 H   0  0  0  0  0  0  0  0  0  0  0  0
  131.1164  129.7616  156.7498 H   0  0  0  0  0  0  0  0  0  0  0  0
  127.6119  134.5098  158.6633 H   0  0  0  0  0  0  0  0  0  0  0  0
  125.8422  135.2777  160.1831 H   0  0  0  0  0  0  0  0  0  0  0  0
  1  2  1  0
  1 28  1  0
  1 29  1  0
  1 30  1  0
  2  3  1  0
  2 31  1  0
  2 32  1  0
  3  4  1  0
  3 33  1  0
  3 34  1  0
  4  5  1  6
  4  6  1  0
  4  7  1  0
  6 35  1  0
  6 36  1  0
  6 37  1  0
  7  8  1  0
  7 38  1  0
  8 27  2  0
  8  9  1  0
  9 10  2  0
  9 39  1  0
 10 11  1  0
 10 25  1  0
 11 40  1  0
 12 11  1  0
 12 23  2  0
 12 13  1  0
 13 14  1  0
 13 15  1  0
 15 16  2  0
 15 41  1  0
 16 17  1  0
 16 23  1  0
 17 22  1  0
 17 18  2  0
 18 19  1  0
 18 42  1  0
 19 20  2  0
 19 43  1  0
 20 21  1  0
 20 44  1  0
 21 22  2  0
 22 45  1  0
 23 24  1  0
 25 26  2  0
 25 46  1  0
 26 27  1  0
 26 47  1  0
M  CHG  1  23   1
M  END
>  <DOCK_score>  (1) 
-49.756115

>  <SMILES>  (1) 
CCC[C@H](C)Nc1cc(Nc2[nH]cc(-c3cccnc3)[nH+]2)ccn1

$$$$
