O=C1C=C([NH+]=C(NC2CCc3ccc(O)cc32)N[C@H]2CCc3ccccc3C2)CC1
     RDKit          3D

 58 62  0  0  1  0  0  0  0  0999 V2000
  131.8394  129.5260  155.6129 O   0  0  0  0  0  0  0  0  0  0  0  0
  131.4436  130.2671  156.4926 C   0  0  0  0  0  0  0  0  0  0  0  0
  130.6626  131.3984  156.3042 C   0  0  0  0  0  0  0  0  0  0  0  0
  130.3690  132.0440  157.4772 C   0  0  0  0  0  0  0  0  0  0  0  0
  129.6407  133.1559  157.5853 N   0  0  0  0  0  0  0  0  0  0  0  0
  128.9370  133.3391  156.9433 H   0  0  0  0  0  0  0  0  0  0  0  0
  129.8786  134.0113  158.5701 C   0  0  0  0  0  0  0  0  0  0  0  0
  128.8633  134.7685  159.0759 N   0  0  0  0  0  0  0  0  0  0  0  0
  127.5098  134.6368  158.5311 C   0  0  2  0  0  0  0  0  0  0  0  0
  126.7154  135.9421  158.7491 C   0  0  0  0  0  0  0  0  0  0  0  0
  126.0068  135.6778  160.0945 C   0  0  0  0  0  0  0  0  0  0  0  0
  125.8767  134.1721  160.1849 C   0  0  0  0  0  0  0  0  0  0  0  0
  125.0659  133.3891  160.9905 C   0  0  0  0  0  0  0  0  0  0  0  0
  125.1163  132.0128  160.9005 C   0  0  0  0  0  0  0  0  0  0  0  0
  125.9823  131.4104  159.9993 C   0  0  0  0  0  0  0  0  0  0  0  0
  126.0351  130.0556  159.9068 O   0  0  0  0  0  0  0  0  0  0  0  0
  126.7932  132.1940  159.1936 C   0  0  0  0  0  0  0  0  0  0  0  0
  126.7406  133.5740  159.2862 C   0  0  0  0  0  0  0  0  0  0  0  0
  131.1387  134.1340  159.0772 N   0  0  0  0  0  0  0  0  0  0  0  0
  131.3304  134.5074  160.4808 C   0  0  1  0  0  0  0  0  0  0  0  0
  130.8785  135.4818  160.6663 H   0  0  0  0  0  0  0  0  0  0  0  0
  130.6811  133.4560  161.3882 C   0  0  0  0  0  0  0  0  0  0  0  0
  130.6859  133.9861  162.8205 C   0  0  0  0  0  0  0  0  0  0  0  0
  132.0652  134.4501  163.2091 C   0  0  0  0  0  0  0  0  0  0  0  0
  132.3378  134.6065  164.5622 C   0  0  0  0  0  0  0  0  0  0  0  0
  133.5780  135.0405  164.9818 C   0  0  0  0  0  0  0  0  0  0  0  0
  134.5588  135.3221  164.0486 C   0  0  0  0  0  0  0  0  0  0  0  0
  134.2908  135.1646  162.7047 C   0  0  0  0  0  0  0  0  0  0  0  0
  133.0434  134.7254  162.2803 C   0  0  0  0  0  0  0  0  0  0  0  0
  132.8232  134.5630  160.7990 C   0  0  0  0  0  0  0  0  0  0  0  0
  130.9956  131.2930  158.6290 C   0  0  0  0  0  0  0  0  0  0  0  0
  131.7158  130.1022  157.9704 C   0  0  0  0  0  0  0  0  0  0  0  0
  130.3247  131.7363  155.3357 H   0  0  0  0  0  0  0  0  0  0  0  0
  129.0374  135.3941  159.7965 H   0  0  0  0  0  0  0  0  0  0  0  0
  127.5522  134.3909  157.4700 H   0  0  0  0  0  0  0  0  0  0  0  0
  127.3878  136.7965  158.8266 H   0  0  0  0  0  0  0  0  0  0  0  0
  125.9882  136.0909  157.9509 H   0  0  0  0  0  0  0  0  0  0  0  0
  125.0214  136.1436  160.1008 H   0  0  0  0  0  0  0  0  0  0  0  0
  126.6099  136.0555  160.9202 H   0  0  0  0  0  0  0  0  0  0  0  0
  124.3917  133.8577  161.6920 H   0  0  0  0  0  0  0  0  0  0  0  0
  124.4829  131.4060  161.5306 H   0  0  0  0  0  0  0  0  0  0  0  0
  126.6677  129.7304  159.2517 H   0  0  0  0  0  0  0  0  0  0  0  0
  127.4676  131.7267  158.4912 H   0  0  0  0  0  0  0  0  0  0  0  0
  131.9081  133.9740  158.5085 H   0  0  0  0  0  0  0  0  0  0  0  0
  131.2493  132.5271  161.3386 H   0  0  0  0  0  0  0  0  0  0  0  0
  129.6551  133.2761  161.0667 H   0  0  0  0  0  0  0  0  0  0  0  0
  130.3691  133.1934  163.4982 H   0  0  0  0  0  0  0  0  0  0  0  0
  129.9907  134.8221  162.8966 H   0  0  0  0  0  0  0  0  0  0  0  0
  131.5726  134.3862  165.2917 H   0  0  0  0  0  0  0  0  0  0  0  0
  133.7826  135.1594  166.0355 H   0  0  0  0  0  0  0  0  0  0  0  0
  135.5312  135.6638  164.3709 H   0  0  0  0  0  0  0  0  0  0  0  0
  135.0575  135.3846  161.9765 H   0  0  0  0  0  0  0  0  0  0  0  0
  133.2714  135.4068  160.2743 H   0  0  0  0  0  0  0  0  0  0  0  0
  133.2967  133.6399  160.4644 H   0  0  0  0  0  0  0  0  0  0  0  0
  131.7108  131.9274  159.1524 H   0  0  0  0  0  0  0  0  0  0  0  0
  130.2263  130.9394  159.3155 H   0  0  0  0  0  0  0  0  0  0  0  0
  132.7868  130.1487  158.1677 H   0  0  0  0  0  0  0  0  0  0  0  0
  131.3035  129.1603  158.3325 H   0  0  0  0  0  0  0  0  0  0  0  0
  1  2  2  0
  2 32  1  0
  2  3  1  0
  3  4  2  0
  3 33  1  0
  4  5  1  0
  4 31  1  0
  5  6  1  0
  7  5  2  0
  7  8  1  0
  7 19  1  0
  8  9  1  0
  8 34  1  0
  9 18  1  0
  9 10  1  0
  9 35  1  6
 10 11  1  0
 10 36  1  0
 10 37  1  0
 11 12  1  0
 11 38  1  0
 11 39  1  0
 12 18  2  0
 12 13  1  0
 13 14  2  0
 13 40  1  0
 14 15  1  0
 14 41  1  0
 15 16  1  0
 15 17  2  0
 16 42  1  0
 17 18  1  0
 17 43  1  0
 19 20  1  0
 19 44  1  0
 20 21  1  6
 20 30  1  0
 20 22  1  0
 22 23  1  0
 22 45  1  0
 22 46  1  0
 23 24  1  0
 23 47  1  0
 23 48  1  0
 24 29  2  0
 24 25  1  0
 25 26  2  0
 25 49  1  0
 26 27  1  0
 26 50  1  0
 27 28  2  0
 27 51  1  0
 28 29  1  0
 28 52  1  0
 29 30  1  0
 30 53  1  0
 30 54  1  0
 31 32  1  0
 31 55  1  0
 31 56  1  0
 32 57  1  0
 32 58  1  0
M  CHG  1   5   1
M  END
>  <DOCK_score>  (1) 
-44.205685

>  <SMILES>  (1) 
O=C1C=C([NH+]=C(NC2CCc3ccc(O)cc32)N[C@H]2CCc3ccccc3C2)CC1

$$$$
