C=C(C)[C@](O)(c1ccccc1)C(C)Nc1[nH]cc(-c2ccc(N)cc2)[nH+]1
     RDKit          3D

 51 53  0  0  1  0  0  0  0  0999 V2000
  133.3908  135.1181  159.6261 C   0  0  0  0  0  0  0  0  0  0  0  0
  132.4208  134.6741  160.3864 C   0  0  0  0  0  0  0  0  0  0  0  0
  132.3738  133.2188  160.7749 C   0  0  0  0  0  0  0  0  0  0  0  0
  131.3519  135.6187  160.8727 C   0  0  2  0  0  0  0  0  0  0  0  0
  131.6144  136.9321  160.3745 O   0  0  0  0  0  0  0  0  0  0  0  0
  131.3513  135.6438  162.3795 C   0  0  0  0  0  0  0  0  0  0  0  0
  132.1400  136.5557  163.0558 C   0  0  0  0  0  0  0  0  0  0  0  0
  132.1366  136.5814  164.4379 C   0  0  0  0  0  0  0  0  0  0  0  0
  131.3506  135.6898  165.1438 C   0  0  0  0  0  0  0  0  0  0  0  0
  130.5659  134.7744  164.4675 C   0  0  0  0  0  0  0  0  0  0  0  0
  130.5665  134.7514  163.0855 C   0  0  0  0  0  0  0  0  0  0  0  0
  129.9864  135.1459  160.3700 C   0  0  1  0  0  0  0  0  0  0  0  0
  128.9012  136.1049  160.8638 C   0  0  0  0  0  0  0  0  0  0  0  0
  129.9869  135.1216  158.9052 N   0  0  0  0  0  0  0  0  0  0  0  0
  129.7539  133.9343  158.2325 C   0  0  0  0  0  0  0  0  0  0  0  0
  128.9893  132.9038  158.6852 N   0  0  0  0  0  0  0  0  0  0  0  0
  128.5136  132.8691  159.5299 H   0  0  0  0  0  0  0  0  0  0  0  0
  129.0128  131.9224  157.7227 C   0  0  0  0  0  0  0  0  0  0  0  0
  129.7978  132.3782  156.7155 C   0  0  0  0  0  0  0  0  0  0  0  0
  130.1181  131.6528  155.4617 C   0  0  0  0  0  0  0  0  0  0  0  0
  129.7644  132.1994  154.2292 C   0  0  0  0  0  0  0  0  0  0  0  0
  130.0683  131.5261  153.0648 C   0  0  0  0  0  0  0  0  0  0  0  0
  130.7162  130.2981  153.1198 C   0  0  0  0  0  0  0  0  0  0  0  0
  131.0174  129.6144  151.9394 N   0  0  0  0  0  0  0  0  0  0  0  0
  131.0650  129.7484  154.3481 C   0  0  0  0  0  0  0  0  0  0  0  0
  130.7684  130.4208  155.5147 C   0  0  0  0  0  0  0  0  0  0  0  0
  130.2380  133.6151  157.0569 N   0  0  0  0  0  0  0  0  0  0  0  0
  130.8187  134.1741  156.5173 H   0  0  0  0  0  0  0  0  0  0  0  0
  133.4245  136.1611  159.3477 H   0  0  0  0  0  0  0  0  0  0  0  0
  134.1592  134.4421  159.2812 H   0  0  0  0  0  0  0  0  0  0  0  0
  132.9238  133.0729  161.7045 H   0  0  0  0  0  0  0  0  0  0  0  0
  131.3368  132.9133  160.9145 H   0  0  0  0  0  0  0  0  0  0  0  0
  132.8266  132.6175  159.9864 H   0  0  0  0  0  0  0  0  0  0  0  0
  131.6297  136.9908  159.4093 H   0  0  0  0  0  0  0  0  0  0  0  0
  132.7567  137.2500  162.5043 H   0  0  0  0  0  0  0  0  0  0  0  0
  132.7499  137.2963  164.9662 H   0  0  0  0  0  0  0  0  0  0  0  0
  131.3498  135.7081  166.2237 H   0  0  0  0  0  0  0  0  0  0  0  0
  129.9521  134.0777  165.0191 H   0  0  0  0  0  0  0  0  0  0  0  0
  129.9534  134.0361  162.5571 H   0  0  0  0  0  0  0  0  0  0  0  0
  129.7862  134.1441  160.7499 H   0  0  0  0  0  0  0  0  0  0  0  0
  128.9009  136.1229  161.9536 H   0  0  0  0  0  0  0  0  0  0  0  0
  129.1014  137.1067  160.4838 H   0  0  0  0  0  0  0  0  0  0  0  0
  127.9284  135.7681  160.5057 H   0  0  0  0  0  0  0  0  0  0  0  0
  130.1505  135.9375  158.4066 H   0  0  0  0  0  0  0  0  0  0  0  0
  128.5070  130.9689  157.7634 H   0  0  0  0  0  0  0  0  0  0  0  0
  129.2564  133.1515  154.1860 H   0  0  0  0  0  0  0  0  0  0  0  0
  129.7985  131.9513  152.1094 H   0  0  0  0  0  0  0  0  0  0  0  0
  131.4699  128.7572  151.9771 H   0  0  0  0  0  0  0  0  0  0  0  0
  130.7743  129.9971  151.0820 H   0  0  0  0  0  0  0  0  0  0  0  0
  131.5689  128.7939  154.3887 H   0  0  0  0  0  0  0  0  0  0  0  0
  131.0397  129.9935  156.4687 H   0  0  0  0  0  0  0  0  0  0  0  0
  1  2  2  0
  1 29  1  0
  1 30  1  0
  2  3  1  0
  3 31  1  0
  3 32  1  0
  3 33  1  0
  4  2  1  0
  4  5  1  6
  4  6  1  0
  4 12  1  0
  5 34  1  0
  6 11  1  0
  6  7  2  0
  7  8  1  0
  7 35  1  0
  8  9  2  0
  8 36  1  0
  9 10  1  0
  9 37  1  0
 10 11  2  0
 10 38  1  0
 11 39  1  0
 12 13  1  0
 12 14  1  0
 12 40  1  1
 13 41  1  0
 13 42  1  0
 13 43  1  0
 14 44  1  0
 15 14  1  0
 15 27  2  0
 15 16  1  0
 16 17  1  0
 16 18  1  0
 18 19  2  0
 18 45  1  0
 19 20  1  0
 19 27  1  0
 20 26  1  0
 20 21  2  0
 21 22  1  0
 21 46  1  0
 22 23  2  0
 22 47  1  0
 23 24  1  0
 23 25  1  0
 24 48  1  0
 24 49  1  0
 25 26  2  0
 25 50  1  0
 26 51  1  0
 27 28  1  0
M  CHG  1  27   1
M  END
>  <DOCK_score>  (1) 
-55.917744

>  <SMILES>  (1) 
C=C(C)[C@](O)(c1ccccc1)C(C)Nc1[nH]cc(-c2ccc(N)cc2)[nH+]1

$$$$
