CCc1ccc(-c2c[nH]c(NC(C3=CC[N@H+](C4CCCC4)CC3)c3ccnn3C)[nH+]2)cc1
     RDKit          3D

 68 72  0  0  1  0  0  0  0  0999 V2000
  130.2608  128.3786  151.5977 C   0  0  0  0  0  0  0  0  0  0  0  0
  131.2617  129.5260  151.7519 C   0  0  0  0  0  0  0  0  0  0  0  0
  131.0198  130.2311  153.0616 C   0  0  0  0  0  0  0  0  0  0  0  0
  131.6793  129.8086  154.2025 C   0  0  0  0  0  0  0  0  0  0  0  0
  131.4664  130.4532  155.4041 C   0  0  0  0  0  0  0  0  0  0  0  0
  130.5768  131.5242  155.4693 C   0  0  0  0  0  0  0  0  0  0  0  0
  130.3392  132.2171  156.7590 C   0  0  0  0  0  0  0  0  0  0  0  0
  129.8498  131.6519  157.8903 C   0  0  0  0  0  0  0  0  0  0  0  0
  129.7933  132.6436  158.8392 N   0  0  0  0  0  0  0  0  0  0  0  0
  129.4864  132.5464  159.7543 H   0  0  0  0  0  0  0  0  0  0  0  0
  130.2421  133.7888  158.2569 C   0  0  0  0  0  0  0  0  0  0  0  0
  130.3394  135.0236  158.8756 N   0  0  0  0  0  0  0  0  0  0  0  0
  129.9401  135.1741  160.2769 C   0  0  1  0  0  0  0  0  0  0  0  0
  130.7588  136.2647  160.9183 C   0  0  0  0  0  0  0  0  0  0  0  0
  130.6933  137.4654  160.4268 C   0  0  0  0  0  0  0  0  0  0  0  0
  131.4698  138.6240  160.9820 C   0  0  0  0  0  0  0  0  0  0  0  0
  131.9302  138.3268  162.3434 N   0  0  2  0  0  0  0  0  0  0  0  0
  131.1365  138.2724  162.9641 H   0  0  0  0  0  0  0  0  0  0  0  0
  132.8404  139.3869  162.7972 C   0  0  0  0  0  0  0  0  0  0  0  0
  133.2764  139.1216  164.2531 C   0  0  0  0  0  0  0  0  0  0  0  0
  133.3412  140.5318  164.8922 C   0  0  0  0  0  0  0  0  0  0  0  0
  132.1312  141.2549  164.2503 C   0  0  0  0  0  0  0  0  0  0  0  0
  132.1130  140.7428  162.7952 C   0  0  0  0  0  0  0  0  0  0  0  0
  132.6398  137.0376  162.3370 C   0  0  0  0  0  0  0  0  0  0  0  0
  131.6149  135.9221  162.1060 C   0  0  0  0  0  0  0  0  0  0  0  0
  128.4788  135.5360  160.3469 C   0  0  0  0  0  0  0  0  0  0  0  0
  127.6465  135.7012  159.2927 C   0  0  0  0  0  0  0  0  0  0  0  0
  126.3812  136.0286  159.7906 C   0  0  0  0  0  0  0  0  0  0  0  0
  126.4531  136.0665  161.0964 N   0  0  0  0  0  0  0  0  0  0  0  0
  127.7672  135.7589  161.4715 N   0  0  0  0  0  0  0  0  0  0  0  0
  128.2786  135.6909  162.8427 C   0  0  0  0  0  0  0  0  0  0  0  0
  130.5673  133.5301  157.0139 N   0  0  0  0  0  0  0  0  0  0  0  0
  130.9155  134.1742  156.3778 H   0  0  0  0  0  0  0  0  0  0  0  0
  129.9108  131.9411  154.3180 C   0  0  0  0  0  0  0  0  0  0  0  0
  130.1353  131.2923  153.1209 C   0  0  0  0  0  0  0  0  0  0  0  0
  129.2462  128.7762  151.6150 H   0  0  0  0  0  0  0  0  0  0  0  0
  130.4355  127.8693  150.6498 H   0  0  0  0  0  0  0  0  0  0  0  0
  130.3886  127.6727  152.4183 H   0  0  0  0  0  0  0  0  0  0  0  0
  132.2758  129.1286  151.7343 H   0  0  0  0  0  0  0  0  0  0  0  0
  131.1333  130.2321  150.9310 H   0  0  0  0  0  0  0  0  0  0  0  0
  132.3653  128.9760  154.1515 H   0  0  0  0  0  0  0  0  0  0  0  0
  131.9854  130.1260  156.2929 H   0  0  0  0  0  0  0  0  0  0  0  0
  129.5616  130.6193  158.0210 H   0  0  0  0  0  0  0  0  0  0  0  0
  130.6720  135.7889  158.3811 H   0  0  0  0  0  0  0  0  0  0  0  0
  130.1076  134.2357  160.8054 H   0  0  0  0  0  0  0  0  0  0  0  0
  130.0492  137.6384  159.5772 H   0  0  0  0  0  0  0  0  0  0  0  0
  132.3321  138.8186  160.3443 H   0  0  0  0  0  0  0  0  0  0  0  0
  130.8330  139.5083  161.0018 H   0  0  0  0  0  0  0  0  0  0  0  0
  133.7147  139.4313  162.1477 H   0  0  0  0  0  0  0  0  0  0  0  0
  132.5388  138.5043  164.7657 H   0  0  0  0  0  0  0  0  0  0  0  0
  134.2567  138.6456  164.2769 H   0  0  0  0  0  0  0  0  0  0  0  0
  134.2737  141.0316  164.6298 H   0  0  0  0  0  0  0  0  0  0  0  0
  133.2255  140.4712  165.9744 H   0  0  0  0  0  0  0  0  0  0  0  0
  132.2764  142.3349  164.2728 H   0  0  0  0  0  0  0  0  0  0  0  0
  131.2084  140.9824  164.7624 H   0  0  0  0  0  0  0  0  0  0  0  0
  132.6345  141.4454  162.1455 H   0  0  0  0  0  0  0  0  0  0  0  0
  131.0845  140.6143  162.4576 H   0  0  0  0  0  0  0  0  0  0  0  0
  133.3796  137.0309  161.5364 H   0  0  0  0  0  0  0  0  0  0  0  0
  133.1337  136.8867  163.2968 H   0  0  0  0  0  0  0  0  0  0  0  0
  130.9848  135.8151  162.9890 H   0  0  0  0  0  0  0  0  0  0  0  0
  132.1379  134.9844  161.9181 H   0  0  0  0  0  0  0  0  0  0  0  0
  127.9120  135.5965  158.2510 H   0  0  0  0  0  0  0  0  0  0  0  0
  125.4981  136.2207  159.1992 H   0  0  0  0  0  0  0  0  0  0  0  0
  128.6511  136.6711  163.1405 H   0  0  0  0  0  0  0  0  0  0  0  0
  127.4762  135.3875  163.5152 H   0  0  0  0  0  0  0  0  0  0  0  0
  129.0890  134.9637  162.8925 H   0  0  0  0  0  0  0  0  0  0  0  0
  129.2206  132.7706  154.3627 H   0  0  0  0  0  0  0  0  0  0  0  0
  129.6198  131.6145  152.2283 H   0  0  0  0  0  0  0  0  0  0  0  0
  1  2  1  0
  1 36  1  0
  1 37  1  0
  1 38  1  0
  2  3  1  0
  2 39  1  0
  2 40  1  0
  3 35  2  0
  3  4  1  0
  4  5  2  0
  4 41  1  0
  5  6  1  0
  5 42  1  0
  6  7  1  0
  6 34  2  0
  7 32  1  0
  7  8  2  0
  8  9  1  0
  8 43  1  0
  9 10  1  0
  9 11  1  0
 11 12  1  0
 11 32  2  0
 12 13  1  0
 12 44  1  0
 13 14  1  0
 13 26  1  0
 13 45  1  1
 14 25  1  0
 14 15  2  0
 15 16  1  0
 15 46  1  0
 16 17  1  0
 16 47  1  0
 16 48  1  0
 17 18  1  1
 17 19  1  0
 17 24  1  0
 19 23  1  0
 19 20  1  0
 19 49  1  0
 20 21  1  0
 20 50  1  0
 20 51  1  0
 21 22  1  0
 21 52  1  0
 21 53  1  0
 22 23  1  0
 22 54  1  0
 22 55  1  0
 23 56  1  0
 23 57  1  0
 24 25  1  0
 24 58  1  0
 24 59  1  0
 25 60  1  0
 25 61  1  0
 26 30  1  0
 26 27  2  0
 27 28  1  0
 27 62  1  0
 28 29  2  0
 28 63  1  0
 29 30  1  0
 30 31  1  0
 31 64  1  0
 31 65  1  0
 31 66  1  0
 32 33  1  0
 34 35  1  0
 34 67  1  0
 35 68  1  0
M  CHG  2  17   1  32   1
M  END
>  <DOCK_score>  (1) 
-58.355736

>  <SMILES>  (1) 
CCc1ccc(-c2c[nH]c(NC(C3=CC[N@H+](C4CCCC4)CC3)c3ccnn3C)[nH+]2)cc1

$$$$
