Nc1ccc(-c2c[nH]c(N[C@H](C=Cc3ccccc3)C3=CCCC3)[nH+]2)cc1
     RDKit          3D

 52 55  0  0  1  0  0  0  0  0999 V2000
  131.0707  129.4620  151.6701 N   0  0  0  0  0  0  0  0  0  0  0  0
  130.8210  130.1733  152.8462 C   0  0  0  0  0  0  0  0  0  0  0  0
  130.1409  131.3846  152.7935 C   0  0  0  0  0  0  0  0  0  0  0  0
  129.8929  132.0883  153.9531 C   0  0  0  0  0  0  0  0  0  0  0  0
  130.3249  131.5841  155.1788 C   0  0  0  0  0  0  0  0  0  0  0  0
  130.0597  132.3394  156.4279 C   0  0  0  0  0  0  0  0  0  0  0  0
  129.3452  131.8963  157.4917 C   0  0  0  0  0  0  0  0  0  0  0  0
  129.3492  132.9072  158.4235 N   0  0  0  0  0  0  0  0  0  0  0  0
  128.9197  132.8889  159.2931 H   0  0  0  0  0  0  0  0  0  0  0  0
  130.0665  133.9384  157.9003 C   0  0  0  0  0  0  0  0  0  0  0  0
  130.3103  135.1496  158.5247 N   0  0  0  0  0  0  0  0  0  0  0  0
  129.7766  135.4032  159.8653 C   0  0  2  0  0  0  0  0  0  0  0  0
  128.6892  135.3327  159.8428 H   0  0  0  0  0  0  0  0  0  0  0  0
  130.1814  136.7836  160.3143 C   0  0  0  0  0  0  0  0  0  0  0  0
  131.4655  137.0975  160.4160 C   0  0  0  0  0  0  0  0  0  0  0  0
  131.8626  138.4514  160.8562 C   0  0  0  0  0  0  0  0  0  0  0  0
  130.9589  139.2552  161.5519 C   0  0  0  0  0  0  0  0  0  0  0  0
  131.3374  140.5163  161.9644 C   0  0  0  0  0  0  0  0  0  0  0  0
  132.6065  140.9881  161.6808 C   0  0  0  0  0  0  0  0  0  0  0  0
  133.5056  140.1981  160.9868 C   0  0  0  0  0  0  0  0  0  0  0  0
  133.1411  138.9334  160.5730 C   0  0  0  0  0  0  0  0  0  0  0  0
  130.3264  134.3810  160.8264 C   0  0  0  0  0  0  0  0  0  0  0  0
  131.4935  133.8087  160.7077 C   0  0  0  0  0  0  0  0  0  0  0  0
  131.7394  132.8350  161.8368 C   0  0  0  0  0  0  0  0  0  0  0  0
  130.3435  132.5893  162.4548 C   0  0  0  0  0  0  0  0  0  0  0  0
  129.6019  133.8886  162.0576 C   0  0  0  0  0  0  0  0  0  0  0  0
  130.4894  133.5953  156.7079 N   0  0  0  0  0  0  0  0  0  0  0  0
  131.0240  134.1509  156.1195 H   0  0  0  0  0  0  0  0  0  0  0  0
  131.0115  130.3719  155.2286 C   0  0  0  0  0  0  0  0  0  0  0  0
  131.2527  129.6692  154.0669 C   0  0  0  0  0  0  0  0  0  0  0  0
  130.7695  129.8138  150.8174 H   0  0  0  0  0  0  0  0  0  0  0  0
  131.5453  128.6172  151.7057 H   0  0  0  0  0  0  0  0  0  0  0  0
  129.8067  131.7750  151.8435 H   0  0  0  0  0  0  0  0  0  0  0  0
  129.3640  133.0289  153.9119 H   0  0  0  0  0  0  0  0  0  0  0  0
  128.8685  130.9322  157.5903 H   0  0  0  0  0  0  0  0  0  0  0  0
  130.8344  135.8306  158.0745 H   0  0  0  0  0  0  0  0  0  0  0  0
  129.4257  137.5172  160.5530 H   0  0  0  0  0  0  0  0  0  0  0  0
  132.2213  136.3639  160.1770 H   0  0  0  0  0  0  0  0  0  0  0  0
  129.9662  138.8898  161.7700 H   0  0  0  0  0  0  0  0  0  0  0  0
  130.6400  141.1380  162.5062 H   0  0  0  0  0  0  0  0  0  0  0  0
  132.8967  141.9775  162.0022 H   0  0  0  0  0  0  0  0  0  0  0  0
  134.4949  140.5723  160.7683 H   0  0  0  0  0  0  0  0  0  0  0  0
  133.8436  138.3179  160.0308 H   0  0  0  0  0  0  0  0  0  0  0  0
  132.1917  134.0052  159.9075 H   0  0  0  0  0  0  0  0  0  0  0  0
  132.1533  131.9032  161.4513 H   0  0  0  0  0  0  0  0  0  0  0  0
  132.4104  133.2723  162.5761 H   0  0  0  0  0  0  0  0  0  0  0  0
  129.8688  131.7129  162.0135 H   0  0  0  0  0  0  0  0  0  0  0  0
  130.4068  132.4937  163.5388 H   0  0  0  0  0  0  0  0  0  0  0  0
  129.6679  134.6263  162.8574 H   0  0  0  0  0  0  0  0  0  0  0  0
  128.5593  133.6731  161.8238 H   0  0  0  0  0  0  0  0  0  0  0  0
  131.3510  129.9816  156.1767 H   0  0  0  0  0  0  0  0  0  0  0  0
  131.7813  128.7281  154.1055 H   0  0  0  0  0  0  0  0  0  0  0  0
  1  2  1  0
  1 31  1  0
  1 32  1  0
  2 30  2  0
  2  3  1  0
  3  4  2  0
  3 33  1  0
  4  5  1  0
  4 34  1  0
  5  6  1  0
  5 29  2  0
  6 27  1  0
  6  7  2  0
  7  8  1  0
  7 35  1  0
  8  9  1  0
  8 10  1  0
 10 11  1  0
 10 27  2  0
 11 12  1  0
 11 36  1  0
 12 13  1  6
 12 14  1  0
 12 22  1  0
 14 15  2  0
 14 37  1  0
 15 16  1  0
 15 38  1  0
 16 21  1  0
 16 17  2  0
 17 18  1  0
 17 39  1  0
 18 19  2  0
 18 40  1  0
 19 20  1  0
 19 41  1  0
 20 21  2  0
 20 42  1  0
 21 43  1  0
 22 26  1  0
 22 23  2  0
 23 24  1  0
 23 44  1  0
 24 25  1  0
 24 45  1  0
 24 46  1  0
 25 26  1  0
 25 47  1  0
 25 48  1  0
 26 49  1  0
 26 50  1  0
 27 28  1  0
 29 30  1  0
 29 51  1  0
 30 52  1  0
M  CHG  1  27   1
M  END
>  <DOCK_score>  (1) 
-57.324814

>  <SMILES>  (1) 
Nc1ccc(-c2c[nH]c(N[C@H](C=Cc3ccccc3)C3=CCCC3)[nH+]2)cc1

$$$$
