O=C1C=C(Nc2cc(NC[C@@H]3CC3(F)F)cc(Nc3[nH]c4ccccc4[nH+]3)c2Cl)CCC1
     RDKit          3D

 55 59  0  0  1  0  0  0  0  0999 V2000
  131.2536  141.0558  166.3314 O   0  0  0  0  0  0  0  0  0  0  0  0
  131.0202  140.0266  165.7288 C   0  0  0  0  0  0  0  0  0  0  0  0
  130.3362  140.0768  164.5103 C   0  0  0  0  0  0  0  0  0  0  0  0
  130.0615  138.9585  163.8042 C   0  0  0  0  0  0  0  0  0  0  0  0
  129.3919  139.0613  162.6207 N   0  0  0  0  0  0  0  0  0  0  0  0
  129.1012  137.9120  161.8800 C   0  0  0  0  0  0  0  0  0  0  0  0
  127.9080  137.2335  162.0905 C   0  0  0  0  0  0  0  0  0  0  0  0
  127.6191  136.0927  161.3546 C   0  0  0  0  0  0  0  0  0  0  0  0
  126.4181  135.4105  161.5663 N   0  0  0  0  0  0  0  0  0  0  0  0
  126.1131  134.2063  160.7896 C   0  0  0  0  0  0  0  0  0  0  0  0
  124.7487  133.6584  161.2131 C   0  0  2  0  0  0  0  0  0  0  0  0
  123.9061  134.3356  161.0730 H   0  0  0  0  0  0  0  0  0  0  0  0
  124.7082  132.7198  162.4206 C   0  0  0  0  0  0  0  0  0  0  0  0
  124.4944  132.1632  161.0115 C   0  0  0  0  0  0  0  0  0  0  0  0
  123.1981  131.7698  160.6621 F   0  0  0  0  0  0  0  0  0  0  0  0
  125.5273  131.4017  160.4541 F   0  0  0  0  0  0  0  0  0  0  0  0
  128.5229  135.6294  160.4079 C   0  0  0  0  0  0  0  0  0  0  0  0
  129.7156  136.3073  160.1967 C   0  0  0  0  0  0  0  0  0  0  0  0
  130.6259  135.8407  159.2422 N   0  0  0  0  0  0  0  0  0  0  0  0
  130.7014  134.4951  158.9632 C   0  0  0  0  0  0  0  0  0  0  0  0
  131.0400  133.9787  157.7838 N   0  0  0  0  0  0  0  0  0  0  0  0
  131.2713  134.4841  156.9888 H   0  0  0  0  0  0  0  0  0  0  0  0
  131.0089  132.6129  157.8837 C   0  0  0  0  0  0  0  0  0  0  0  0
  131.2663  131.5759  156.9914 C   0  0  0  0  0  0  0  0  0  0  0  0
  131.1371  130.2680  157.4058 C   0  0  0  0  0  0  0  0  0  0  0  0
  130.7532  129.9768  158.7066 C   0  0  0  0  0  0  0  0  0  0  0  0
  130.4949  130.9913  159.6027 C   0  0  0  0  0  0  0  0  0  0  0  0
  130.6201  132.3180  159.2007 C   0  0  0  0  0  0  0  0  0  0  0  0
  130.4408  133.5205  159.8318 N   0  0  0  0  0  0  0  0  0  0  0  0
  130.1702  133.6414  160.7554 H   0  0  0  0  0  0  0  0  0  0  0  0
  130.0031  137.4517  160.9294 C   0  0  0  0  0  0  0  0  0  0  0  0
  131.4920  138.3031  160.6612 Cl  0  0  0  0  0  0  0  0  0  0  0  0
  130.4819  137.6008  164.3002 C   0  0  0  0  0  0  0  0  0  0  0  0
  130.5132  137.6042  165.8311 C   0  0  0  0  0  0  0  0  0  0  0  0
  131.4656  138.7070  166.3043 C   0  0  0  0  0  0  0  0  0  0  0  0
  130.0235  141.0348  164.1216 H   0  0  0  0  0  0  0  0  0  0  0  0
  129.1173  139.9320  162.2930 H   0  0  0  0  0  0  0  0  0  0  0  0
  127.2047  137.5936  162.8271 H   0  0  0  0  0  0  0  0  0  0  0  0
  125.7864  135.7342  162.2273 H   0  0  0  0  0  0  0  0  0  0  0  0
  126.0917  134.4540  159.7284 H   0  0  0  0  0  0  0  0  0  0  0  0
  126.8795  133.4529  160.9715 H   0  0  0  0  0  0  0  0  0  0  0  0
  125.6535  132.4926  162.9133 H   0  0  0  0  0  0  0  0  0  0  0  0
  123.8389  132.7793  163.0754 H   0  0  0  0  0  0  0  0  0  0  0  0
  128.2980  134.7417  159.8355 H   0  0  0  0  0  0  0  0  0  0  0  0
  131.2037  136.4657  158.7770 H   0  0  0  0  0  0  0  0  0  0  0  0
  131.5663  131.7956  155.9776 H   0  0  0  0  0  0  0  0  0  0  0  0
  131.3367  129.4639  156.7129 H   0  0  0  0  0  0  0  0  0  0  0  0
  130.6555  128.9476  159.0192 H   0  0  0  0  0  0  0  0  0  0  0  0
  130.1960  130.7576  160.6139 H   0  0  0  0  0  0  0  0  0  0  0  0
  129.7710  136.8510  163.9530 H   0  0  0  0  0  0  0  0  0  0  0  0
  131.4747  137.3653  163.9169 H   0  0  0  0  0  0  0  0  0  0  0  0
  129.5118  137.7963  166.2165 H   0  0  0  0  0  0  0  0  0  0  0  0
  130.8638  136.6371  166.1914 H   0  0  0  0  0  0  0  0  0  0  0  0
  131.4513  138.7585  167.3930 H   0  0  0  0  0  0  0  0  0  0  0  0
  132.4767  138.4870  165.9619 H   0  0  0  0  0  0  0  0  0  0  0  0
  1  2  2  0
  2 35  1  0
  2  3  1  0
  3  4  2  0
  3 36  1  0
  4  5  1  0
  4 33  1  0
  5  6  1  0
  5 37  1  0
  6 31  1  0
  6  7  2  0
  7  8  1  0
  7 38  1  0
  8  9  1  0
  8 17  2  0
  9 10  1  0
  9 39  1  0
 10 11  1  0
 10 40  1  0
 10 41  1  0
 11 12  1  1
 11 14  1  0
 11 13  1  0
 13 14  1  0
 13 42  1  0
 13 43  1  0
 14 15  1  0
 14 16  1  0
 17 18  1  0
 17 44  1  0
 18 19  1  0
 18 31  2  0
 19 20  1  0
 19 45  1  0
 20 29  1  0
 20 21  2  0
 21 22  1  0
 21 23  1  0
 23 28  2  0
 23 24  1  0
 24 25  2  0
 24 46  1  0
 25 26  1  0
 25 47  1  0
 26 27  2  0
 26 48  1  0
 27 28  1  0
 27 49  1  0
 28 29  1  0
 29 30  1  0
 31 32  1  0
 33 34  1  0
 33 50  1  0
 33 51  1  0
 34 35  1  0
 34 52  1  0
 34 53  1  0
 35 54  1  0
 35 55  1  0
M  CHG  1  21   1
M  END
>  <DOCK_score>  (1) 
-48.29911

>  <SMILES>  (1) 
O=C1C=C(Nc2cc(NC[C@@H]3CC3(F)F)cc(Nc3[nH]c4ccccc4[nH+]3)c2Cl)CCC1

$$$$
