CC1=C(c2c[nH]c(N[C@@H](Cc3ccc(-c4ccccc4)cc3)c3ccc(F)cc3)[nH+]2)CCC1
     RDKit          3D

 62 66  0  0  1  0  0  0  0  0999 V2000
  131.2016  130.0000  157.0018 C   0  0  0  0  0  0  0  0  0  0  0  0
  130.9711  130.9031  155.8176 C   0  0  0  0  0  0  0  0  0  0  0  0
  130.5546  132.1556  155.8985 C   0  0  0  0  0  0  0  0  0  0  0  0
  130.2521  132.8590  157.1620 C   0  0  0  0  0  0  0  0  0  0  0  0
  129.7923  132.2877  158.3054 C   0  0  0  0  0  0  0  0  0  0  0  0
  129.6488  133.2972  159.2250 N   0  0  0  0  0  0  0  0  0  0  0  0
  129.3371  133.2018  160.1385 H   0  0  0  0  0  0  0  0  0  0  0  0
  130.0246  134.4566  158.6187 C   0  0  0  0  0  0  0  0  0  0  0  0
  130.0261  135.7097  159.2068 N   0  0  0  0  0  0  0  0  0  0  0  0
  129.5970  135.8660  160.5989 C   0  0  1  0  0  0  0  0  0  0  0  0
  130.2404  135.2704  161.2464 H   0  0  0  0  0  0  0  0  0  0  0  0
  129.6934  137.3394  160.9998 C   0  0  0  0  0  0  0  0  0  0  0  0
  131.1192  137.8063  160.8580 C   0  0  0  0  0  0  0  0  0  0  0  0
  131.5526  138.3428  159.6590 C   0  0  0  0  0  0  0  0  0  0  0  0
  132.8572  138.7724  159.5238 C   0  0  0  0  0  0  0  0  0  0  0  0
  133.7383  138.6650  160.5978 C   0  0  0  0  0  0  0  0  0  0  0  0
  135.1422  139.1247  160.4582 C   0  0  0  0  0  0  0  0  0  0  0  0
  135.8324  139.6109  161.5667 C   0  0  0  0  0  0  0  0  0  0  0  0
  137.1379  140.0377  161.4311 C   0  0  0  0  0  0  0  0  0  0  0  0
  137.7612  139.9833  160.1975 C   0  0  0  0  0  0  0  0  0  0  0  0
  137.0792  139.5066  159.0925 C   0  0  0  0  0  0  0  0  0  0  0  0
  135.7751  139.0723  159.2180 C   0  0  0  0  0  0  0  0  0  0  0  0
  133.2977  138.1190  161.8017 C   0  0  0  0  0  0  0  0  0  0  0  0
  131.9896  137.6974  161.9275 C   0  0  0  0  0  0  0  0  0  0  0  0
  128.1712  135.3991  160.7405 C   0  0  0  0  0  0  0  0  0  0  0  0
  127.7376  134.8572  161.9362 C   0  0  0  0  0  0  0  0  0  0  0  0
  126.4288  134.4338  162.0691 C   0  0  0  0  0  0  0  0  0  0  0  0
  125.5547  134.5424  161.0008 C   0  0  0  0  0  0  0  0  0  0  0  0
  124.2765  134.1237  161.1279 F   0  0  0  0  0  0  0  0  0  0  0  0
  125.9917  135.0800  159.8020 C   0  0  0  0  0  0  0  0  0  0  0  0
  127.2995  135.5075  159.6731 C   0  0  0  0  0  0  0  0  0  0  0  0
  130.3795  134.1925  157.3852 N   0  0  0  0  0  0  0  0  0  0  0  0
  130.6857  134.8450  156.7360 H   0  0  0  0  0  0  0  0  0  0  0  0
  130.4359  132.7720  154.5239 C   0  0  0  0  0  0  0  0  0  0  0  0
  130.4346  131.5710  153.5508 C   0  0  0  0  0  0  0  0  0  0  0  0
  131.1824  130.4993  154.3769 C   0  0  0  0  0  0  0  0  0  0  0  0
  130.2824  129.4615  157.2325 H   0  0  0  0  0  0  0  0  0  0  0  0
  131.9913  129.2865  156.7663 H   0  0  0  0  0  0  0  0  0  0  0  0
  131.4979  130.5986  157.8631 H   0  0  0  0  0  0  0  0  0  0  0  0
  129.5799  131.2403  158.4612 H   0  0  0  0  0  0  0  0  0  0  0  0
  130.3111  136.4842  158.6973 H   0  0  0  0  0  0  0  0  0  0  0  0
  129.3744  137.4556  162.0356 H   0  0  0  0  0  0  0  0  0  0  0  0
  129.0500  137.9350  160.3524 H   0  0  0  0  0  0  0  0  0  0  0  0
  130.8688  138.4258  158.8272 H   0  0  0  0  0  0  0  0  0  0  0  0
  133.1944  139.1914  158.5871 H   0  0  0  0  0  0  0  0  0  0  0  0
  135.3465  139.6541  162.5303 H   0  0  0  0  0  0  0  0  0  0  0  0
  137.6739  140.4143  162.2897 H   0  0  0  0  0  0  0  0  0  0  0  0
  138.7829  140.3186  160.0957 H   0  0  0  0  0  0  0  0  0  0  0  0
  137.5694  139.4701  158.1309 H   0  0  0  0  0  0  0  0  0  0  0  0
  135.2448  138.6967  158.3554 H   0  0  0  0  0  0  0  0  0  0  0  0
  133.9776  138.0297  162.6362 H   0  0  0  0  0  0  0  0  0  0  0  0
  131.6459  137.2778  162.8615 H   0  0  0  0  0  0  0  0  0  0  0  0
  128.4207  134.7685  162.7679 H   0  0  0  0  0  0  0  0  0  0  0  0
  126.0889  134.0150  163.0047 H   0  0  0  0  0  0  0  0  0  0  0  0
  125.3109  135.1648  158.9679 H   0  0  0  0  0  0  0  0  0  0  0  0
  127.6407  135.9268  158.7381 H   0  0  0  0  0  0  0  0  0  0  0  0
  129.5041  133.3310  154.4379 H   0  0  0  0  0  0  0  0  0  0  0  0
  131.2876  133.4227  154.3251 H   0  0  0  0  0  0  0  0  0  0  0  0
  129.4171  131.2512  153.3263 H   0  0  0  0  0  0  0  0  0  0  0  0
  130.9783  131.8087  152.6364 H   0  0  0  0  0  0  0  0  0  0  0  0
  130.7582  129.5127  154.1908 H   0  0  0  0  0  0  0  0  0  0  0  0
  132.2454  130.5078  154.1359 H   0  0  0  0  0  0  0  0  0  0  0  0
  1  2  1  0
  1 37  1  0
  1 38  1  0
  1 39  1  0
  2 36  1  0
  2  3  2  0
  3  4  1  0
  3 34  1  0
  4 32  1  0
  4  5  2  0
  5  6  1  0
  5 40  1  0
  6  7  1  0
  6  8  1  0
  8  9  1  0
  8 32  2  0
  9 10  1  0
  9 41  1  0
 10 11  1  1
 10 12  1  0
 10 25  1  0
 12 13  1  0
 12 42  1  0
 12 43  1  0
 13 24  1  0
 13 14  2  0
 14 15  1  0
 14 44  1  0
 15 16  2  0
 15 45  1  0
 16 17  1  0
 16 23  1  0
 17 22  1  0
 17 18  2  0
 18 19  1  0
 18 46  1  0
 19 20  2  0
 19 47  1  0
 20 21  1  0
 20 48  1  0
 21 22  2  0
 21 49  1  0
 22 50  1  0
 23 24  2  0
 23 51  1  0
 24 52  1  0
 25 31  1  0
 25 26  2  0
 26 27  1  0
 26 53  1  0
 27 28  2  0
 27 54  1  0
 28 29  1  0
 28 30  1  0
 30 31  2  0
 30 55  1  0
 31 56  1  0
 32 33  1  0
 34 35  1  0
 34 57  1  0
 34 58  1  0
 35 36  1  0
 35 59  1  0
 35 60  1  0
 36 61  1  0
 36 62  1  0
M  CHG  1  32   1
M  END
>  <DOCK_score>  (1) 
-61.583519

>  <SMILES>  (1) 
CC1=C(c2c[nH]c(N[C@@H](Cc3ccc(-c4ccccc4)cc3)c3ccc(F)cc3)[nH+]2)CCC1

$$$$
