C=CCC[C@H](Nc1[nH]cc(-c2ccccc2)[nH+]1)c1ccccc1
     RDKit          3D

 45 47  0  0  1  0  0  0  0  0999 V2000
  132.3578  133.8490  161.4376 C   0  0  0  0  0  0  0  0  0  0  0  0
  131.6482  134.9418  161.5744 C   0  0  0  0  0  0  0  0  0  0  0  0
  131.7233  136.0248  160.5291 C   0  0  0  0  0  0  0  0  0  0  0  0
  130.3341  136.2521  159.9297 C   0  0  0  0  0  0  0  0  0  0  0  0
  129.8379  134.9558  159.2861 C   0  0  2  0  0  0  0  0  0  0  0  0
  129.7836  134.1724  160.0423 H   0  0  0  0  0  0  0  0  0  0  0  0
  130.7659  134.5495  158.2279 N   0  0  0  0  0  0  0  0  0  0  0  0
  130.5235  133.3977  157.4992 C   0  0  0  0  0  0  0  0  0  0  0  0
  129.8725  132.2932  157.9557 N   0  0  0  0  0  0  0  0  0  0  0  0
  129.4982  132.1724  158.8425 H   0  0  0  0  0  0  0  0  0  0  0  0
  129.8434  131.3809  156.9291 C   0  0  0  0  0  0  0  0  0  0  0  0
  130.4769  131.9536  155.8756 C   0  0  0  0  0  0  0  0  0  0  0  0
  130.6885  131.3363  154.5437 C   0  0  0  0  0  0  0  0  0  0  0  0
  130.1618  131.9381  153.4021 C   0  0  0  0  0  0  0  0  0  0  0  0
  130.3676  131.3628  152.1646 C   0  0  0  0  0  0  0  0  0  0  0  0
  131.0838  130.1836  152.0577 C   0  0  0  0  0  0  0  0  0  0  0  0
  131.6036  129.5792  153.1876 C   0  0  0  0  0  0  0  0  0  0  0  0
  131.4099  130.1491  154.4295 C   0  0  0  0  0  0  0  0  0  0  0  0
  130.8781  133.1932  156.2541 N   0  0  0  0  0  0  0  0  0  0  0  0
  131.3537  133.8260  155.6935 H   0  0  0  0  0  0  0  0  0  0  0  0
  128.4696  135.1796  158.6956 C   0  0  0  0  0  0  0  0  0  0  0  0
  127.3409  134.9530  159.4611 C   0  0  0  0  0  0  0  0  0  0  0  0
  126.0859  135.1620  158.9207 C   0  0  0  0  0  0  0  0  0  0  0  0
  125.9593  135.5897  157.6122 C   0  0  0  0  0  0  0  0  0  0  0  0
  127.0879  135.8111  156.8452 C   0  0  0  0  0  0  0  0  0  0  0  0
  128.3430  135.6058  157.3868 C   0  0  0  0  0  0  0  0  0  0  0  0
  132.3040  133.0729  162.1866 H   0  0  0  0  0  0  0  0  0  0  0  0
  132.9968  133.7244  160.5757 H   0  0  0  0  0  0  0  0  0  0  0  0
  131.0093  135.0664  162.4361 H   0  0  0  0  0  0  0  0  0  0  0  0
  132.4137  135.7224  159.7417 H   0  0  0  0  0  0  0  0  0  0  0  0
  132.0768  136.9482  160.9875 H   0  0  0  0  0  0  0  0  0  0  0  0
  129.6436  136.5544  160.7171 H   0  0  0  0  0  0  0  0  0  0  0  0
  130.3884  137.0354  159.1736 H   0  0  0  0  0  0  0  0  0  0  0  0
  131.5503  135.0876  158.0378 H   0  0  0  0  0  0  0  0  0  0  0  0
  129.4010  130.3961  156.9560 H   0  0  0  0  0  0  0  0  0  0  0  0
  129.5980  132.8554  153.4854 H   0  0  0  0  0  0  0  0  0  0  0  0
  129.9644  131.8310  151.2788 H   0  0  0  0  0  0  0  0  0  0  0  0
  131.2384  129.7350  151.0874 H   0  0  0  0  0  0  0  0  0  0  0  0
  132.1625  128.6595  153.0979 H   0  0  0  0  0  0  0  0  0  0  0  0
  131.8166  129.6763  155.3111 H   0  0  0  0  0  0  0  0  0  0  0  0
  127.4399  134.6158  160.4823 H   0  0  0  0  0  0  0  0  0  0  0  0
  125.2043  134.9887  159.5198 H   0  0  0  0  0  0  0  0  0  0  0  0
  124.9787  135.7504  157.1892 H   0  0  0  0  0  0  0  0  0  0  0  0
  126.9887  136.1448  155.8228 H   0  0  0  0  0  0  0  0  0  0  0  0
  129.2246  135.7789  156.7874 H   0  0  0  0  0  0  0  0  0  0  0  0
  1  2  2  0
  1 27  1  0
  1 28  1  0
  2  3  1  0
  2 29  1  0
  3  4  1  0
  3 30  1  0
  3 31  1  0
  4  5  1  0
  4 32  1  0
  4 33  1  0
  5  6  1  1
  5  7  1  0
  5 21  1  0
  7 34  1  0
  8  7  1  0
  8 19  2  0
  8  9  1  0
  9 10  1  0
  9 11  1  0
 11 12  2  0
 11 35  1  0
 12 13  1  0
 12 19  1  0
 13 18  1  0
 13 14  2  0
 14 15  1  0
 14 36  1  0
 15 16  2  0
 15 37  1  0
 16 17  1  0
 16 38  1  0
 17 18  2  0
 17 39  1  0
 18 40  1  0
 19 20  1  0
 21 26  1  0
 21 22  2  0
 22 23  1  0
 22 41  1  0
 23 24  2  0
 23 42  1  0
 24 25  1  0
 24 43  1  0
 25 26  2  0
 25 44  1  0
 26 45  1  0
M  CHG  1  19   1
M  END
>  <DOCK_score>  (1) 
-61.452381

>  <SMILES>  (1) 
C=CCC[C@H](Nc1[nH]cc(-c2ccccc2)[nH+]1)c1ccccc1

$$$$
