Cc1cocc1-c1ccc(C[NH+]2CCN([C@@H](Cc3ccccc3)C(F)F)CC2)cc1
     RDKit          3D

 59 62  0  0  1  0  0  0  0  0999 V2000
  135.5946  139.8402  163.2053 C   0  0  0  0  0  0  0  0  0  0  0  0
  136.1549  139.8266  161.8064 C   0  0  0  0  0  0  0  0  0  0  0  0
  137.3216  140.3532  161.3975 C   0  0  0  0  0  0  0  0  0  0  0  0
  137.4587  140.1405  160.0800 O   0  0  0  0  0  0  0  0  0  0  0  0
  136.4027  139.4716  159.5945 C   0  0  0  0  0  0  0  0  0  0  0  0
  135.5392  139.2320  160.6147 C   0  0  0  0  0  0  0  0  0  0  0  0
  134.2384  138.5213  160.5388 C   0  0  0  0  0  0  0  0  0  0  0  0
  133.2265  139.0019  159.7104 C   0  0  0  0  0  0  0  0  0  0  0  0
  132.0189  138.3368  159.6433 C   0  0  0  0  0  0  0  0  0  0  0  0
  131.8127  137.1949  160.3962 C   0  0  0  0  0  0  0  0  0  0  0  0
  130.4921  136.4729  160.3187 C   0  0  0  0  0  0  0  0  0  0  0  0
  130.5473  135.4643  159.2521 N   0  0  0  0  0  0  0  0  0  0  0  0
  131.0442  135.8409  158.4588 H   0  0  0  0  0  0  0  0  0  0  0  0
  131.2450  134.2692  159.7444 C   0  0  0  0  0  0  0  0  0  0  0  0
  131.3188  133.2253  158.6279 C   0  0  0  0  0  0  0  0  0  0  0  0
  129.9579  132.8763  158.1966 N   0  0  0  0  0  0  0  0  0  0  0  0
  129.9846  131.8330  157.1628 C   0  0  1  0  0  0  0  0  0  0  0  0
  129.0423  131.8399  156.6152 H   0  0  0  0  0  0  0  0  0  0  0  0
  131.1388  132.1031  156.1954 C   0  0  0  0  0  0  0  0  0  0  0  0
  130.8920  131.3703  154.9019 C   0  0  0  0  0  0  0  0  0  0  0  0
  131.3664  130.0825  154.7356 C   0  0  0  0  0  0  0  0  0  0  0  0
  131.1358  129.4086  153.5509 C   0  0  0  0  0  0  0  0  0  0  0  0
  130.4398  130.0262  152.5286 C   0  0  0  0  0  0  0  0  0  0  0  0
  129.9700  131.3159  152.6929 C   0  0  0  0  0  0  0  0  0  0  0  0
  130.1960  131.9879  153.8795 C   0  0  0  0  0  0  0  0  0  0  0  0
  130.1812  130.4665  157.8224 C   0  0  0  0  0  0  0  0  0  0  0  0
  131.5347  130.2855  158.1259 F   0  0  0  0  0  0  0  0  0  0  0  0
  129.4270  130.4037  158.9990 F   0  0  0  0  0  0  0  0  0  0  0  0
  129.2384  134.0676  157.7243 C   0  0  0  0  0  0  0  0  0  0  0  0
  129.1816  135.1046  158.8482 C   0  0  0  0  0  0  0  0  0  0  0  0
  132.8120  136.7165  161.2242 C   0  0  0  0  0  0  0  0  0  0  0  0
  134.0250  137.3708  161.2953 C   0  0  0  0  0  0  0  0  0  0  0  0
  135.9339  138.9539  163.7412 H   0  0  0  0  0  0  0  0  0  0  0  0
  135.9389  140.7337  163.7259 H   0  0  0  0  0  0  0  0  0  0  0  0
  134.5055  139.8429  163.1604 H   0  0  0  0  0  0  0  0  0  0  0  0
  138.0318  140.8687  162.0269 H   0  0  0  0  0  0  0  0  0  0  0  0
  136.2630  139.1735  158.5659 H   0  0  0  0  0  0  0  0  0  0  0  0
  133.3867  139.8930  159.1216 H   0  0  0  0  0  0  0  0  0  0  0  0
  131.2338  138.7084  159.0016 H   0  0  0  0  0  0  0  0  0  0  0  0
  129.6991  137.1886  160.1015 H   0  0  0  0  0  0  0  0  0  0  0  0
  130.2890  135.9837  161.2713 H   0  0  0  0  0  0  0  0  0  0  0  0
  130.7013  133.8551  160.5936 H   0  0  0  0  0  0  0  0  0  0  0  0
  132.2538  134.5400  160.0559 H   0  0  0  0  0  0  0  0  0  0  0  0
  131.8235  132.3326  158.9975 H   0  0  0  0  0  0  0  0  0  0  0  0
  131.8742  133.6342  157.7838 H   0  0  0  0  0  0  0  0  0  0  0  0
  131.2060  133.1732  155.9996 H   0  0  0  0  0  0  0  0  0  0  0  0
  132.0723  131.7553  156.6376 H   0  0  0  0  0  0  0  0  0  0  0  0
  131.9140  129.6017  155.5326 H   0  0  0  0  0  0  0  0  0  0  0  0
  131.5032  128.4013  153.4224 H   0  0  0  0  0  0  0  0  0  0  0  0
  130.2637  129.5013  151.6013 H   0  0  0  0  0  0  0  0  0  0  0  0
  129.4267  131.7985  151.8940 H   0  0  0  0  0  0  0  0  0  0  0  0
  129.8293  132.9956  154.0078 H   0  0  0  0  0  0  0  0  0  0  0  0
  129.8541  129.6828  157.1390 H   0  0  0  0  0  0  0  0  0  0  0  0
  129.7594  134.4904  156.8654 H   0  0  0  0  0  0  0  0  0  0  0  0
  128.2250  133.7895  157.4346 H   0  0  0  0  0  0  0  0  0  0  0  0
  128.6486  134.6861  159.7019 H   0  0  0  0  0  0  0  0  0  0  0  0
  128.6607  135.9947  158.4954 H   0  0  0  0  0  0  0  0  0  0  0  0
  132.6441  135.8270  161.8132 H   0  0  0  0  0  0  0  0  0  0  0  0
  134.8062  136.9941  161.9390 H   0  0  0  0  0  0  0  0  0  0  0  0
  1  2  1  0
  1 33  1  0
  1 34  1  0
  1 35  1  0
  2  6  1  0
  2  3  2  0
  3  4  1  0
  3 36  1  0
  4  5  1  0
  5  6  2  0
  5 37  1  0
  6  7  1  0
  7 32  1  0
  7  8  2  0
  8  9  1  0
  8 38  1  0
  9 10  2  0
  9 39  1  0
 10 11  1  0
 10 31  1  0
 11 12  1  0
 11 40  1  0
 11 41  1  0
 12 13  1  0
 12 30  1  0
 12 14  1  0
 14 15  1  0
 14 42  1  0
 14 43  1  0
 15 16  1  0
 15 44  1  0
 15 45  1  0
 16 17  1  0
 16 29  1  0
 17 18  1  6
 17 19  1  0
 17 26  1  0
 19 20  1  0
 19 46  1  0
 19 47  1  0
 20 25  1  0
 20 21  2  0
 21 22  1  0
 21 48  1  0
 22 23  2  0
 22 49  1  0
 23 24  1  0
 23 50  1  0
 24 25  2  0
 24 51  1  0
 25 52  1  0
 26 27  1  0
 26 28  1  0
 26 53  1  0
 29 30  1  0
 29 54  1  0
 29 55  1  0
 30 56  1  0
 30 57  1  0
 31 32  2  0
 31 58  1  0
 32 59  1  0
M  CHG  1  12   1
M  END
>  <DOCK_score>  (1) 
-56.076031

>  <SMILES>  (1) 
Cc1cocc1-c1ccc(C[NH+]2CCN([C@@H](Cc3ccccc3)C(F)F)CC2)cc1

$$$$
