Cn1nccc1CC(Nc1[nH]cc(-c2ccc(N)cc2)[nH+]1)[C@@H](c1ccccc1)C1CC1
     RDKit          3D

 60 64  0  0  1  0  0  0  0  0999 V2000
  126.7514  134.6033  161.5549 C   0  0  0  0  0  0  0  0  0  0  0  0
  126.9727  135.1863  160.2293 N   0  0  0  0  0  0  0  0  0  0  0  0
  126.1047  135.0952  159.1336 N   0  0  0  0  0  0  0  0  0  0  0  0
  126.6440  135.7387  158.1302 C   0  0  0  0  0  0  0  0  0  0  0  0
  127.8686  136.2638  158.5555 C   0  0  0  0  0  0  0  0  0  0  0  0
  128.0489  135.9057  159.8479 C   0  0  0  0  0  0  0  0  0  0  0  0
  129.2358  136.2533  160.7089 C   0  0  0  0  0  0  0  0  0  0  0  0
  130.2979  135.1597  160.5792 C   0  0  1  0  0  0  0  0  0  0  0  0
  130.7227  135.0549  159.1810 N   0  0  0  0  0  0  0  0  0  0  0  0
  130.5588  133.8635  158.4953 C   0  0  0  0  0  0  0  0  0  0  0  0
  130.0244  132.7214  159.0069 N   0  0  0  0  0  0  0  0  0  0  0  0
  129.6896  132.5976  159.9088 H   0  0  0  0  0  0  0  0  0  0  0  0
  130.0471  131.7757  158.0094 C   0  0  0  0  0  0  0  0  0  0  0  0
  130.5942  132.3672  156.9189 C   0  0  0  0  0  0  0  0  0  0  0  0
  130.8205  131.7273  155.5999 C   0  0  0  0  0  0  0  0  0  0  0  0
  130.7785  132.4932  154.4359 C   0  0  0  0  0  0  0  0  0  0  0  0
  130.9948  131.8974  153.2114 C   0  0  0  0  0  0  0  0  0  0  0  0
  131.2430  130.5323  153.1360 C   0  0  0  0  0  0  0  0  0  0  0  0
  131.4558  129.9299  151.8935 N   0  0  0  0  0  0  0  0  0  0  0  0
  131.2800  129.7653  154.2946 C   0  0  0  0  0  0  0  0  0  0  0  0
  131.0698  130.3580  155.5219 C   0  0  0  0  0  0  0  0  0  0  0  0
  130.8981  133.6479  157.2476 N   0  0  0  0  0  0  0  0  0  0  0  0
  131.3020  134.3000  156.6539 H   0  0  0  0  0  0  0  0  0  0  0  0
  131.5029  135.5128  161.4533 C   0  0  1  0  0  0  0  0  0  0  0  0
  132.3760  134.9584  161.1094 H   0  0  0  0  0  0  0  0  0  0  0  0
  131.7770  136.9915  161.3575 C   0  0  0  0  0  0  0  0  0  0  0  0
  132.6376  137.4736  160.3890 C   0  0  0  0  0  0  0  0  0  0  0  0
  132.8852  138.8306  160.2979 C   0  0  0  0  0  0  0  0  0  0  0  0
  132.2800  139.7044  161.1817 C   0  0  0  0  0  0  0  0  0  0  0  0
  131.4240  139.2217  162.1539 C   0  0  0  0  0  0  0  0  0  0  0  0
  131.1722  137.8652  162.2416 C   0  0  0  0  0  0  0  0  0  0  0  0
  131.2042  135.1427  162.9075 C   0  0  0  0  0  0  0  0  0  0  0  0
  132.3822  134.7097  163.7827 C   0  0  0  0  0  0  0  0  0  0  0  0
  131.3600  133.6746  163.3090 C   0  0  0  0  0  0  0  0  0  0  0  0
  126.2266  135.3217  162.1848 H   0  0  0  0  0  0  0  0  0  0  0  0
  126.1516  133.6983  161.4584 H   0  0  0  0  0  0  0  0  0  0  0  0
  127.7116  134.3562  162.0080 H   0  0  0  0  0  0  0  0  0  0  0  0
  126.2158  135.8488  157.1448 H   0  0  0  0  0  0  0  0  0  0  0  0
  128.5508  136.8497  157.9575 H   0  0  0  0  0  0  0  0  0  0  0  0
  128.9197  136.3313  161.7491 H   0  0  0  0  0  0  0  0  0  0  0  0
  129.6538  137.2061  160.3838 H   0  0  0  0  0  0  0  0  0  0  0  0
  129.8799  134.2069  160.9043 H   0  0  0  0  0  0  0  0  0  0  0  0
  131.1189  135.8202  158.7359 H   0  0  0  0  0  0  0  0  0  0  0  0
  129.6960  130.7567  158.0807 H   0  0  0  0  0  0  0  0  0  0  0  0
  130.5810  133.5535  154.4936 H   0  0  0  0  0  0  0  0  0  0  0  0
  130.9671  132.4913  152.3098 H   0  0  0  0  0  0  0  0  0  0  0  0
  131.6290  128.9763  151.8404 H   0  0  0  0  0  0  0  0  0  0  0  0
  131.4298  130.4636  151.0847 H   0  0  0  0  0  0  0  0  0  0  0  0
  131.4732  128.7045  154.2338 H   0  0  0  0  0  0  0  0  0  0  0  0
  131.0989  129.7619  156.4220 H   0  0  0  0  0  0  0  0  0  0  0  0
  133.1135  136.7905  159.7010 H   0  0  0  0  0  0  0  0  0  0  0  0
  133.5543  139.2076  159.5387 H   0  0  0  0  0  0  0  0  0  0  0  0
  132.4764  140.7642  161.1131 H   0  0  0  0  0  0  0  0  0  0  0  0
  130.9513  139.9044  162.8446 H   0  0  0  0  0  0  0  0  0  0  0  0
  130.5033  137.4882  163.0010 H   0  0  0  0  0  0  0  0  0  0  0  0
  130.4060  135.7126  163.3833 H   0  0  0  0  0  0  0  0  0  0  0  0
  133.3701  134.6886  163.3223 H   0  0  0  0  0  0  0  0  0  0  0  0
  132.3594  134.9950  164.8344 H   0  0  0  0  0  0  0  0  0  0  0  0
  130.6646  133.2788  164.0493 H   0  0  0  0  0  0  0  0  0  0  0  0
  131.6752  132.9724  162.5373 H   0  0  0  0  0  0  0  0  0  0  0  0
  1  2  1  0
  1 35  1  0
  1 36  1  0
  1 37  1  0
  2  6  1  0
  2  3  1  0
  3  4  2  0
  4  5  1  0
  4 38  1  0
  5  6  2  0
  5 39  1  0
  6  7  1  0
  7  8  1  0
  7 40  1  0
  7 41  1  0
  8  9  1  0
  8 24  1  0
  8 42  1  1
  9 43  1  0
 10  9  1  0
 10 22  2  0
 10 11  1  0
 11 12  1  0
 11 13  1  0
 13 14  2  0
 13 44  1  0
 14 15  1  0
 14 22  1  0
 15 21  1  0
 15 16  2  0
 16 17  1  0
 16 45  1  0
 17 18  2  0
 17 46  1  0
 18 19  1  0
 18 20  1  0
 19 47  1  0
 19 48  1  0
 20 21  2  0
 20 49  1  0
 21 50  1  0
 22 23  1  0
 24 25  1  6
 24 26  1  0
 24 32  1  0
 26 31  1  0
 26 27  2  0
 27 28  1  0
 27 51  1  0
 28 29  2  0
 28 52  1  0
 29 30  1  0
 29 53  1  0
 30 31  2  0
 30 54  1  0
 31 55  1  0
 32 34  1  0
 32 33  1  0
 32 56  1  0
 33 34  1  0
 33 57  1  0
 33 58  1  0
 34 59  1  0
 34 60  1  0
M  CHG  1  22   1
M  END
>  <DOCK_score>  (1) 
-63.765244

>  <SMILES>  (1) 
Cn1nccc1CC(Nc1[nH]cc(-c2ccc(N)cc2)[nH+]1)[C@@H](c1ccccc1)C1CC1

$$$$
