C1=C(c2ccccc2)C[C@@H]1NCc1c[nH]c(NC(c2ccccc2)c2ccccc2)[nH+]1
     RDKit          3D

 58 62  0  0  1  0  0  0  0  0999 V2000
  130.6973  131.0630  158.0968 C   0  0  0  0  0  0  0  0  0  0  0  0
  130.4156  131.5552  156.8816 C   0  0  0  0  0  0  0  0  0  0  0  0
  130.8679  131.2022  155.5194 C   0  0  0  0  0  0  0  0  0  0  0  0
  130.9351  132.1815  154.5277 C   0  0  0  0  0  0  0  0  0  0  0  0
  131.3627  131.8465  153.2594 C   0  0  0  0  0  0  0  0  0  0  0  0
  131.7143  130.5404  152.9673 C   0  0  0  0  0  0  0  0  0  0  0  0
  131.6447  129.5641  153.9444 C   0  0  0  0  0  0  0  0  0  0  0  0
  131.2238  129.8871  155.2180 C   0  0  0  0  0  0  0  0  0  0  0  0
  129.4627  132.6060  157.4173 C   0  0  0  0  0  0  0  0  0  0  0  0
  129.7869  132.0428  158.8113 C   0  0  2  0  0  0  0  0  0  0  0  0
  128.9357  131.5723  159.3036 H   0  0  0  0  0  0  0  0  0  0  0  0
  130.5005  132.9881  159.6802 N   0  0  0  0  0  0  0  0  0  0  0  0
  129.5634  133.9067  160.3406 C   0  0  0  0  0  0  0  0  0  0  0  0
  130.3066  135.1307  160.8101 C   0  0  0  0  0  0  0  0  0  0  0  0
  130.1785  135.7159  162.0129 C   0  0  0  0  0  0  0  0  0  0  0  0
  131.0320  136.7959  162.0269 N   0  0  0  0  0  0  0  0  0  0  0  0
  131.1642  137.4174  162.7598 H   0  0  0  0  0  0  0  0  0  0  0  0
  131.6505  136.8298  160.8158 C   0  0  0  0  0  0  0  0  0  0  0  0
  132.5873  137.7662  160.4107 N   0  0  0  0  0  0  0  0  0  0  0  0
  132.9902  138.8406  161.3214 C   0  0  0  0  0  0  0  0  0  0  0  0
  134.0124  139.7165  160.6439 C   0  0  0  0  0  0  0  0  0  0  0  0
  134.9703  140.3699  161.3965 C   0  0  0  0  0  0  0  0  0  0  0  0
  135.9109  141.1694  160.7746 C   0  0  0  0  0  0  0  0  0  0  0  0
  135.8877  141.3237  159.4015 C   0  0  0  0  0  0  0  0  0  0  0  0
  134.9260  140.6747  158.6490 C   0  0  0  0  0  0  0  0  0  0  0  0
  133.9886  139.8710  159.2704 C   0  0  0  0  0  0  0  0  0  0  0  0
  131.7845  139.6670  161.6880 C   0  0  0  0  0  0  0  0  0  0  0  0
  131.7215  140.2887  162.9211 C   0  0  0  0  0  0  0  0  0  0  0  0
  130.6177  141.0506  163.2553 C   0  0  0  0  0  0  0  0  0  0  0  0
  129.5722  141.1824  162.3608 C   0  0  0  0  0  0  0  0  0  0  0  0
  129.6327  140.5564  161.1298 C   0  0  0  0  0  0  0  0  0  0  0  0
  130.7390  139.7987  160.7934 C   0  0  0  0  0  0  0  0  0  0  0  0
  131.2111  135.8238  160.0975 N   0  0  0  0  0  0  0  0  0  0  0  0
  131.4920  135.6152  159.1928 H   0  0  0  0  0  0  0  0  0  0  0  0
  131.3370  130.2640  158.4414 H   0  0  0  0  0  0  0  0  0  0  0  0
  130.6570  133.2003  154.7536 H   0  0  0  0  0  0  0  0  0  0  0  0
  131.4191  132.6044  152.4920 H   0  0  0  0  0  0  0  0  0  0  0  0
  132.0448  130.2825  151.9720 H   0  0  0  0  0  0  0  0  0  0  0  0
  131.9208  128.5466  153.7100 H   0  0  0  0  0  0  0  0  0  0  0  0
  131.1697  129.1237  155.9799 H   0  0  0  0  0  0  0  0  0  0  0  0
  128.4269  132.4555  157.1130 H   0  0  0  0  0  0  0  0  0  0  0  0
  129.8071  133.6290  157.2661 H   0  0  0  0  0  0  0  0  0  0  0  0
  131.2012  133.4971  159.1622 H   0  0  0  0  0  0  0  0  0  0  0  0
  129.1079  133.4078  161.1961 H   0  0  0  0  0  0  0  0  0  0  0  0
  128.7861  134.2016  159.6357 H   0  0  0  0  0  0  0  0  0  0  0  0
  129.5295  135.3990  162.8160 H   0  0  0  0  0  0  0  0  0  0  0  0
  132.9766  137.7105  159.5240 H   0  0  0  0  0  0  0  0  0  0  0  0
  133.4228  138.4088  162.2240 H   0  0  0  0  0  0  0  0  0  0  0  0
  134.9861  140.2527  162.4700 H   0  0  0  0  0  0  0  0  0  0  0  0
  136.6616  141.6770  161.3621 H   0  0  0  0  0  0  0  0  0  0  0  0
  136.6194  141.9521  158.9155 H   0  0  0  0  0  0  0  0  0  0  0  0
  134.9073  140.7957  157.5760 H   0  0  0  0  0  0  0  0  0  0  0  0
  133.2375  139.3640  158.6829 H   0  0  0  0  0  0  0  0  0  0  0  0
  132.5364  140.1821  163.6218 H   0  0  0  0  0  0  0  0  0  0  0  0
  130.5701  141.5395  164.2173 H   0  0  0  0  0  0  0  0  0  0  0  0
  128.7077  141.7740  162.6237 H   0  0  0  0  0  0  0  0  0  0  0  0
  128.8158  140.6591  160.4310 H   0  0  0  0  0  0  0  0  0  0  0  0
  130.7861  139.3094  159.8317 H   0  0  0  0  0  0  0  0  0  0  0  0
  1 10  1  0
  1  2  2  0
  1 35  1  0
  2  3  1  0
  2  9  1  0
  3  8  1  0
  3  4  2  0
  4  5  1  0
  4 36  1  0
  5  6  2  0
  5 37  1  0
  6  7  1  0
  6 38  1  0
  7  8  2  0
  7 39  1  0
  8 40  1  0
  9 10  1  0
  9 41  1  0
  9 42  1  0
 10 11  1  1
 10 12  1  0
 12 13  1  0
 12 43  1  0
 13 14  1  0
 13 44  1  0
 13 45  1  0
 14 33  1  0
 14 15  2  0
 15 16  1  0
 15 46  1  0
 16 17  1  0
 16 18  1  0
 18 19  1  0
 18 33  2  0
 19 20  1  0
 19 47  1  0
 20 21  1  0
 20 27  1  0
 20 48  1  0
 21 26  1  0
 21 22  2  0
 22 23  1  0
 22 49  1  0
 23 24  2  0
 23 50  1  0
 24 25  1  0
 24 51  1  0
 25 26  2  0
 25 52  1  0
 26 53  1  0
 27 32  1  0
 27 28  2  0
 28 29  1  0
 28 54  1  0
 29 30  2  0
 29 55  1  0
 30 31  1  0
 30 56  1  0
 31 32  2  0
 31 57  1  0
 32 58  1  0
 33 34  1  0
M  CHG  1  33   1
M  END
>  <DOCK_score>  (1) 
-60.244606

>  <SMILES>  (1) 
C1=C(c2ccccc2)C[C@@H]1NCc1c[nH]c(NC(c2ccccc2)c2ccccc2)[nH+]1

$$$$
