Cc1cc(O)cc(SCc2c(C)cccc2N2CC[NH+](C(c3ccccc3)c3ccccc3)CC2)c1
     RDKit          3D

 71 75  0  0  0  0  0  0  0  0999 V2000
  134.7482  141.8969  167.8158 C   0  0  0  0  0  0  0  0  0  0  0  0
  133.5457  141.3478  167.0923 C   0  0  0  0  0  0  0  0  0  0  0  0
  132.4480  140.9122  167.8107 C   0  0  0  0  0  0  0  0  0  0  0  0
  131.3384  140.4064  167.1480 C   0  0  0  0  0  0  0  0  0  0  0  0
  130.2599  139.9794  167.8560 O   0  0  0  0  0  0  0  0  0  0  0  0
  131.3309  140.3369  165.7637 C   0  0  0  0  0  0  0  0  0  0  0  0
  132.4344  140.7744  165.0434 C   0  0  0  0  0  0  0  0  0  0  0  0
  132.4297  140.6888  163.2835 S   0  0  0  0  0  0  0  0  0  0  0  0
  133.8425  139.6096  162.9238 C   0  0  0  0  0  0  0  0  0  0  0  0
  134.2817  139.8158  161.4970 C   0  0  0  0  0  0  0  0  0  0  0  0
  135.2363  140.7683  161.1980 C   0  0  0  0  0  0  0  0  0  0  0  0
  135.8383  141.6020  162.2996 C   0  0  0  0  0  0  0  0  0  0  0  0
  135.6397  140.9581  159.8892 C   0  0  0  0  0  0  0  0  0  0  0  0
  135.0900  140.1948  158.8752 C   0  0  0  0  0  0  0  0  0  0  0  0
  134.1356  139.2405  159.1671 C   0  0  0  0  0  0  0  0  0  0  0  0
  133.7311  139.0442  160.4817 C   0  0  0  0  0  0  0  0  0  0  0  0
  132.7695  138.0765  160.7811 N   0  0  0  0  0  0  0  0  0  0  0  0
  133.2599  136.7291  160.4583 C   0  0  0  0  0  0  0  0  0  0  0  0
  132.2030  135.6961  160.8553 C   0  0  0  0  0  0  0  0  0  0  0  0
  130.9552  135.9685  160.1299 N   0  0  0  0  0  0  0  0  0  0  0  0
  131.1271  135.9234  159.1368 H   0  0  0  0  0  0  0  0  0  0  0  0
  129.9465  134.9659  160.4978 C   0  0  0  0  0  0  0  0  0  0  0  0
  128.6660  135.2451  159.7538 C   0  0  0  0  0  0  0  0  0  0  0  0
  127.4510  134.8999  160.3154 C   0  0  0  0  0  0  0  0  0  0  0  0
  126.2762  135.1603  159.6350 C   0  0  0  0  0  0  0  0  0  0  0  0
  126.3168  135.7567  158.3891 C   0  0  0  0  0  0  0  0  0  0  0  0
  127.5324  136.0970  157.8246 C   0  0  0  0  0  0  0  0  0  0  0  0
  128.7069  135.8412  158.5072 C   0  0  0  0  0  0  0  0  0  0  0  0
  130.4486  133.5919  160.1356 C   0  0  0  0  0  0  0  0  0  0  0  0
  130.0552  132.4942  160.8781 C   0  0  0  0  0  0  0  0  0  0  0  0
  130.5118  131.2333  160.5429 C   0  0  0  0  0  0  0  0  0  0  0  0
  131.3701  131.0714  159.4715 C   0  0  0  0  0  0  0  0  0  0  0  0
  131.7678  132.1696  158.7321 C   0  0  0  0  0  0  0  0  0  0  0  0
  131.3069  133.4299  159.0642 C   0  0  0  0  0  0  0  0  0  0  0  0
  130.4649  137.3077  160.4814 C   0  0  0  0  0  0  0  0  0  0  0  0
  131.5072  138.3540  160.0812 C   0  0  0  0  0  0  0  0  0  0  0  0
  133.5427  141.2806  165.7130 C   0  0  0  0  0  0  0  0  0  0  0  0
  134.6344  142.9731  167.9451 H   0  0  0  0  0  0  0  0  0  0  0  0
  134.8334  141.4206  168.7925 H   0  0  0  0  0  0  0  0  0  0  0  0
  135.6468  141.6940  167.2332 H   0  0  0  0  0  0  0  0  0  0  0  0
  132.4537  140.9658  168.8894 H   0  0  0  0  0  0  0  0  0  0  0  0
  129.5371  139.6443  167.3081 H   0  0  0  0  0  0  0  0  0  0  0  0
  130.4667  139.9473  165.2463 H   0  0  0  0  0  0  0  0  0  0  0  0
  134.6657  139.8523  163.5959 H   0  0  0  0  0  0  0  0  0  0  0  0
  133.5509  138.5692  163.0674 H   0  0  0  0  0  0  0  0  0  0  0  0
  136.7234  141.1012  162.6919 H   0  0  0  0  0  0  0  0  0  0  0  0
  136.1184  142.5785  161.9046 H   0  0  0  0  0  0  0  0  0  0  0  0
  135.1086  141.7293  163.0992 H   0  0  0  0  0  0  0  0  0  0  0  0
  136.3859  141.7038  159.6582 H   0  0  0  0  0  0  0  0  0  0  0  0
  135.4073  140.3456  157.8540 H   0  0  0  0  0  0  0  0  0  0  0  0
  133.7068  138.6447  158.3748 H   0  0  0  0  0  0  0  0  0  0  0  0
  133.4528  136.6591  159.3878 H   0  0  0  0  0  0  0  0  0  0  0  0
  134.1814  136.5361  161.0077 H   0  0  0  0  0  0  0  0  0  0  0  0
  132.0204  135.7572  161.9282 H   0  0  0  0  0  0  0  0  0  0  0  0
  132.5589  134.6970  160.6037 H   0  0  0  0  0  0  0  0  0  0  0  0
  129.7610  135.0139  161.5709 H   0  0  0  0  0  0  0  0  0  0  0  0
  127.4193  134.4300  161.2874 H   0  0  0  0  0  0  0  0  0  0  0  0
  125.3267  134.8942  160.0754 H   0  0  0  0  0  0  0  0  0  0  0  0
  125.3994  135.9560  157.8549 H   0  0  0  0  0  0  0  0  0  0  0  0
  127.5643  136.5624  156.8505 H   0  0  0  0  0  0  0  0  0  0  0  0
  129.6563  136.1068  158.0666 H   0  0  0  0  0  0  0  0  0  0  0  0
  129.3881  132.6214  161.7180 H   0  0  0  0  0  0  0  0  0  0  0  0
  130.2016  130.3753  161.1208 H   0  0  0  0  0  0  0  0  0  0  0  0
  131.7305  130.0867  159.2123 H   0  0  0  0  0  0  0  0  0  0  0  0
  132.4385  132.0432  157.8953 H   0  0  0  0  0  0  0  0  0  0  0  0
  131.6178  134.2881  158.4868 H   0  0  0  0  0  0  0  0  0  0  0  0
  130.2911  137.3605  161.5561 H   0  0  0  0  0  0  0  0  0  0  0  0
  129.5320  137.5034  159.9525 H   0  0  0  0  0  0  0  0  0  0  0  0
  131.1500  139.3467  160.3554 H   0  0  0  0  0  0  0  0  0  0  0  0
  131.6712  138.3107  159.0045 H   0  0  0  0  0  0  0  0  0  0  0  0
  134.4017  141.6216  165.1541 H   0  0  0  0  0  0  0  0  0  0  0  0
  1  2  1  0
  1 38  1  0
  1 39  1  0
  1 40  1  0
  2 37  2  0
  2  3  1  0
  3  4  2  0
  3 41  1  0
  4  5  1  0
  4  6  1  0
  5 42  1  0
  6  7  2  0
  6 43  1  0
  7  8  1  0
  7 37  1  0
  8  9  1  0
  9 10  1  0
  9 44  1  0
  9 45  1  0
 10 16  1  0
 10 11  2  0
 11 12  1  0
 11 13  1  0
 12 46  1  0
 12 47  1  0
 12 48  1  0
 13 14  2  0
 13 49  1  0
 14 15  1  0
 14 50  1  0
 15 16  2  0
 15 51  1  0
 16 17  1  0
 17 36  1  0
 17 18  1  0
 18 19  1  0
 18 52  1  0
 18 53  1  0
 19 20  1  0
 19 54  1  0
 19 55  1  0
 20 21  1  0
 20 22  1  0
 20 35  1  0
 22 23  1  0
 22 29  1  0
 22 56  1  0
 23 28  1  0
 23 24  2  0
 24 25  1  0
 24 57  1  0
 25 26  2  0
 25 58  1  0
 26 27  1  0
 26 59  1  0
 27 28  2  0
 27 60  1  0
 28 61  1  0
 29 34  1  0
 29 30  2  0
 30 31  1  0
 30 62  1  0
 31 32  2  0
 31 63  1  0
 32 33  1  0
 32 64  1  0
 33 34  2  0
 33 65  1  0
 34 66  1  0
 35 36  1  0
 35 67  1  0
 35 68  1  0
 36 69  1  0
 36 70  1  0
 37 71  1  0
M  CHG  1  20   1
M  END
>  <DOCK_score>  (1) 
-56.778946

>  <SMILES>  (1) 
Cc1cc(O)cc(SCc2c(C)cccc2N2CC[NH+](C(c3ccccc3)c3ccccc3)CC2)c1

$$$$
