CC([NH2+][C@H](C)C1=Cc2ccccc2OC1)c1ccccc1NCCc1cccc2ccccc12
     RDKit          3D

 67 71  0  0  1  0  0  0  0  0999 V2000
  129.7568  136.5385  160.8833 C   0  0  0  0  0  0  0  0  0  0  0  0
  131.2339  136.1624  161.0161 C   0  0  1  0  0  0  0  0  0  0  0  0
  131.6001  135.2295  159.9422 N   0  0  0  0  0  0  0  0  0  0  0  0
  131.1543  135.5140  159.0829 H   0  0  0  0  0  0  0  0  0  0  0  0
  132.6015  135.2345  159.8193 H   0  0  0  0  0  0  0  0  0  0  0  0
  131.1573  133.8747  160.2983 C   0  0  2  0  0  0  0  0  0  0  0  0
  130.1755  133.9254  160.7690 H   0  0  0  0  0  0  0  0  0  0  0  0
  132.1584  133.2505  161.2724 C   0  0  0  0  0  0  0  0  0  0  0  0
  131.0743  133.0299  159.0531 C   0  0  0  0  0  0  0  0  0  0  0  0
  130.2600  133.3861  158.0641 C   0  0  0  0  0  0  0  0  0  0  0  0
  130.1813  132.5151  156.8728 C   0  0  0  0  0  0  0  0  0  0  0  0
  129.6070  132.9578  155.6861 C   0  0  0  0  0  0  0  0  0  0  0  0
  129.5828  132.1210  154.5872 C   0  0  0  0  0  0  0  0  0  0  0  0
  130.1257  130.8502  154.6648 C   0  0  0  0  0  0  0  0  0  0  0  0
  130.6919  130.3988  155.8435 C   0  0  0  0  0  0  0  0  0  0  0  0
  130.7175  131.2229  156.9535 C   0  0  0  0  0  0  0  0  0  0  0  0
  131.2511  130.8053  158.1301 O   0  0  0  0  0  0  0  0  0  0  0  0
  131.9089  131.7822  158.9362 C   0  0  0  0  0  0  0  0  0  0  0  0
  132.0800  137.4051  160.9122 C   0  0  0  0  0  0  0  0  0  0  0  0
  131.6480  138.4741  160.1516 C   0  0  0  0  0  0  0  0  0  0  0  0
  132.4236  139.6147  160.0557 C   0  0  0  0  0  0  0  0  0  0  0  0
  133.6339  139.6896  160.7209 C   0  0  0  0  0  0  0  0  0  0  0  0
  134.0716  138.6248  161.4833 C   0  0  0  0  0  0  0  0  0  0  0  0
  133.2949  137.4771  161.5814 C   0  0  0  0  0  0  0  0  0  0  0  0
  133.7347  136.3979  162.3514 N   0  0  0  0  0  0  0  0  0  0  0  0
  135.1541  136.2710  162.6914 C   0  0  0  0  0  0  0  0  0  0  0  0
  135.3659  135.0121  163.5347 C   0  0  0  0  0  0  0  0  0  0  0  0
  136.8260  134.8815  163.8845 C   0  0  0  0  0  0  0  0  0  0  0  0
  137.6664  134.1911  163.0661 C   0  0  0  0  0  0  0  0  0  0  0  0
  139.0201  134.0636  163.3704 C   0  0  0  0  0  0  0  0  0  0  0  0
  139.5396  134.6177  164.5001 C   0  0  0  0  0  0  0  0  0  0  0  0
  138.7019  135.3334  165.3719 C   0  0  0  0  0  0  0  0  0  0  0  0
  139.2021  135.9197  166.5472 C   0  0  0  0  0  0  0  0  0  0  0  0
  138.3610  136.6061  167.3678 C   0  0  0  0  0  0  0  0  0  0  0  0
  137.0077  136.7371  167.0614 C   0  0  0  0  0  0  0  0  0  0  0  0
  136.4879  136.1832  165.9320 C   0  0  0  0  0  0  0  0  0  0  0  0
  137.3257  135.4670  165.0599 C   0  0  0  0  0  0  0  0  0  0  0  0
  129.4850  137.2309  161.6802 H   0  0  0  0  0  0  0  0  0  0  0  0
  129.5883  137.0131  159.9166 H   0  0  0  0  0  0  0  0  0  0  0  0
  129.1447  135.6398  160.9585 H   0  0  0  0  0  0  0  0  0  0  0  0
  131.4025  135.6879  161.9829 H   0  0  0  0  0  0  0  0  0  0  0  0
  132.2185  133.8616  162.1729 H   0  0  0  0  0  0  0  0  0  0  0  0
  131.8299  132.2453  161.5365 H   0  0  0  0  0  0  0  0  0  0  0  0
  133.1402  133.1998  160.8016 H   0  0  0  0  0  0  0  0  0  0  0  0
  129.6735  134.2906  158.1284 H   0  0  0  0  0  0  0  0  0  0  0  0
  129.1831  133.9491  155.6240 H   0  0  0  0  0  0  0  0  0  0  0  0
  129.1380  132.4599  153.6632 H   0  0  0  0  0  0  0  0  0  0  0  0
  130.1067  130.2056  153.7984 H   0  0  0  0  0  0  0  0  0  0  0  0
  131.1125  129.4055  155.8967 H   0  0  0  0  0  0  0  0  0  0  0  0
  132.8681  132.0335  158.4837 H   0  0  0  0  0  0  0  0  0  0  0  0
  132.0795  131.3703  159.9309 H   0  0  0  0  0  0  0  0  0  0  0  0
  130.7031  138.4192  159.6314 H   0  0  0  0  0  0  0  0  0  0  0  0
  132.0835  140.4491  159.4604 H   0  0  0  0  0  0  0  0  0  0  0  0
  134.2372  140.5821  160.6441 H   0  0  0  0  0  0  0  0  0  0  0  0
  135.0186  138.6823  161.9991 H   0  0  0  0  0  0  0  0  0  0  0  0
  133.1005  135.7326  162.6610 H   0  0  0  0  0  0  0  0  0  0  0  0
  135.7419  136.1983  161.7762 H   0  0  0  0  0  0  0  0  0  0  0  0
  135.4715  137.1460  163.2586 H   0  0  0  0  0  0  0  0  0  0  0  0
  134.7782  135.0847  164.4498 H   0  0  0  0  0  0  0  0  0  0  0  0
  135.0486  134.1371  162.9675 H   0  0  0  0  0  0  0  0  0  0  0  0
  137.2789  133.7383  162.1654 H   0  0  0  0  0  0  0  0  0  0  0  0
  139.6662  133.5137  162.7021 H   0  0  0  0  0  0  0  0  0  0  0  0
  140.5903  134.5080  164.7247 H   0  0  0  0  0  0  0  0  0  0  0  0
  140.2483  135.8259  166.7979 H   0  0  0  0  0  0  0  0  0  0  0  0
  138.7479  137.0558  168.2702 H   0  0  0  0  0  0  0  0  0  0  0  0
  136.3616  137.2867  167.7299 H   0  0  0  0  0  0  0  0  0  0  0  0
  135.4375  136.2936  165.7071 H   0  0  0  0  0  0  0  0  0  0  0  0
  1  2  1  0
  1 38  1  0
  1 39  1  0
  1 40  1  0
  2  3  1  0
  2 19  1  0
  2 41  1  1
  3  4  1  0
  3  5  1  0
  3  6  1  0
  6  7  1  1
  6  8  1  0
  6  9  1  0
  8 42  1  0
  8 43  1  0
  8 44  1  0
  9 18  1  0
  9 10  2  0
 10 11  1  0
 10 45  1  0
 11 16  2  0
 11 12  1  0
 12 13  2  0
 12 46  1  0
 13 14  1  0
 13 47  1  0
 14 15  2  0
 14 48  1  0
 15 16  1  0
 15 49  1  0
 16 17  1  0
 17 18  1  0
 18 50  1  0
 18 51  1  0
 19 24  1  0
 19 20  2  0
 20 21  1  0
 20 52  1  0
 21 22  2  0
 21 53  1  0
 22 23  1  0
 22 54  1  0
 23 24  2  0
 23 55  1  0
 24 25  1  0
 25 26  1  0
 25 56  1  0
 26 27  1  0
 26 57  1  0
 26 58  1  0
 27 28  1  0
 27 59  1  0
 27 60  1  0
 28 37  1  0
 28 29  2  0
 29 30  1  0
 29 61  1  0
 30 31  2  0
 30 62  1  0
 31 32  1  0
 31 63  1  0
 32 37  2  0
 32 33  1  0
 33 34  2  0
 33 64  1  0
 34 35  1  0
 34 65  1  0
 35 36  2  0
 35 66  1  0
 36 37  1  0
 36 67  1  0
M  CHG  1   3   1
M  END
>  <DOCK_score>  (1) 
-52.848869

>  <SMILES>  (1) 
CC([NH2+][C@H](C)C1=Cc2ccccc2OC1)c1ccccc1NCCc1cccc2ccccc12

$$$$
