Cc1nn(-c2ccccc2)cc1C[NH2+]Cc1cn(-c2ccccc2)nc1-c1ccccc1
     RDKit          3D

 58 62  0  0  0  0  0  0  0  0999 V2000
  129.0228  133.4025  160.9624 C   0  0  0  0  0  0  0  0  0  0  0  0
  129.4261  133.4382  159.5108 C   0  0  0  0  0  0  0  0  0  0  0  0
  129.7419  132.4017  158.7768 N   0  0  0  0  0  0  0  0  0  0  0  0
  130.0544  132.8559  157.4889 N   0  0  0  0  0  0  0  0  0  0  0  0
  130.4427  132.0574  156.4041 C   0  0  0  0  0  0  0  0  0  0  0  0
  130.1321  132.4461  155.1080 C   0  0  0  0  0  0  0  0  0  0  0  0
  130.5205  131.6600  154.0409 C   0  0  0  0  0  0  0  0  0  0  0  0
  131.2086  130.4816  154.2629 C   0  0  0  0  0  0  0  0  0  0  0  0
  131.5145  130.0887  155.5532 C   0  0  0  0  0  0  0  0  0  0  0  0
  131.1337  130.8735  156.6240 C   0  0  0  0  0  0  0  0  0  0  0  0
  129.9097  134.2003  157.4760 C   0  0  0  0  0  0  0  0  0  0  0  0
  129.5269  134.5850  158.7157 C   0  0  0  0  0  0  0  0  0  0  0  0
  129.2514  135.9986  159.1597 C   0  0  0  0  0  0  0  0  0  0  0  0
  130.4884  136.5995  159.6762 N   0  0  0  0  0  0  0  0  0  0  0  0
  131.1884  136.6055  158.9496 H   0  0  0  0  0  0  0  0  0  0  0  0
  130.8225  136.0596  160.4606 H   0  0  0  0  0  0  0  0  0  0  0  0
  130.2199  137.9774  160.1090 C   0  0  0  0  0  0  0  0  0  0  0  0
  131.4888  138.5937  160.6389 C   0  0  0  0  0  0  0  0  0  0  0  0
  132.7082  138.5225  160.0624 C   0  0  0  0  0  0  0  0  0  0  0  0
  133.5821  139.2019  160.8504 N   0  0  0  0  0  0  0  0  0  0  0  0
  134.9523  139.3665  160.6087 C   0  0  0  0  0  0  0  0  0  0  0  0
  135.8346  139.5047  161.6720 C   0  0  0  0  0  0  0  0  0  0  0  0
  137.1841  139.6719  161.4305 C   0  0  0  0  0  0  0  0  0  0  0  0
  137.6567  139.7029  160.1313 C   0  0  0  0  0  0  0  0  0  0  0  0
  136.7808  139.5655  159.0703 C   0  0  0  0  0  0  0  0  0  0  0  0
  135.4301  139.3974  159.3053 C   0  0  0  0  0  0  0  0  0  0  0  0
  132.8716  139.7141  161.9435 N   0  0  0  0  0  0  0  0  0  0  0  0
  131.6122  139.3509  161.8206 C   0  0  0  0  0  0  0  0  0  0  0  0
  130.5141  139.6812  162.7624 C   0  0  0  0  0  0  0  0  0  0  0  0
  130.1900  141.0118  163.0196 C   0  0  0  0  0  0  0  0  0  0  0  0
  129.1639  141.3133  163.8921 C   0  0  0  0  0  0  0  0  0  0  0  0
  128.4654  140.2976  164.5195 C   0  0  0  0  0  0  0  0  0  0  0  0
  128.7866  138.9750  164.2723 C   0  0  0  0  0  0  0  0  0  0  0  0
  129.8069  138.6621  163.3973 C   0  0  0  0  0  0  0  0  0  0  0  0
  127.9413  133.2890  161.0364 H   0  0  0  0  0  0  0  0  0  0  0  0
  129.5109  132.5612  161.4545 H   0  0  0  0  0  0  0  0  0  0  0  0
  129.3246  134.3314  161.4463 H   0  0  0  0  0  0  0  0  0  0  0  0
  129.5907  133.3644  154.9341 H   0  0  0  0  0  0  0  0  0  0  0  0
  130.2833  131.9642  153.0321 H   0  0  0  0  0  0  0  0  0  0  0  0
  131.5081  129.8664  153.4272 H   0  0  0  0  0  0  0  0  0  0  0  0
  132.0520  129.1675  155.7236 H   0  0  0  0  0  0  0  0  0  0  0  0
  131.3735  130.5667  157.6313 H   0  0  0  0  0  0  0  0  0  0  0  0
  130.0728  134.8505  156.6293 H   0  0  0  0  0  0  0  0  0  0  0  0
  128.4952  135.9920  159.9446 H   0  0  0  0  0  0  0  0  0  0  0  0
  128.8905  136.5818  158.3123 H   0  0  0  0  0  0  0  0  0  0  0  0
  129.4637  137.9707  160.8940 H   0  0  0  0  0  0  0  0  0  0  0  0
  129.8590  138.5605  159.2617 H   0  0  0  0  0  0  0  0  0  0  0  0
  132.9467  138.0140  159.1399 H   0  0  0  0  0  0  0  0  0  0  0  0
  135.4660  139.4813  162.6869 H   0  0  0  0  0  0  0  0  0  0  0  0
  137.8709  139.7789  162.2571 H   0  0  0  0  0  0  0  0  0  0  0  0
  138.7125  139.8343  159.9450 H   0  0  0  0  0  0  0  0  0  0  0  0
  137.1530  139.5894  158.0567 H   0  0  0  0  0  0  0  0  0  0  0  0
  134.7464  139.2898  158.4762 H   0  0  0  0  0  0  0  0  0  0  0  0
  130.7381  141.8057  162.5339 H   0  0  0  0  0  0  0  0  0  0  0  0
  128.9088  142.3441  164.0885 H   0  0  0  0  0  0  0  0  0  0  0  0
  127.6665  140.5384  165.2052 H   0  0  0  0  0  0  0  0  0  0  0  0
  128.2376  138.1859  164.7645 H   0  0  0  0  0  0  0  0  0  0  0  0
  130.0567  137.6291  163.2046 H   0  0  0  0  0  0  0  0  0  0  0  0
  1  2  1  0
  1 35  1  0
  1 36  1  0
  1 37  1  0
  2 12  1  0
  2  3  2  0
  3  4  1  0
  4  5  1  0
  4 11  1  0
  5 10  1  0
  5  6  2  0
  6  7  1  0
  6 38  1  0
  7  8  2  0
  7 39  1  0
  8  9  1  0
  8 40  1  0
  9 10  2  0
  9 41  1  0
 10 42  1  0
 11 12  2  0
 11 43  1  0
 12 13  1  0
 13 14  1  0
 13 44  1  0
 13 45  1  0
 14 15  1  0
 14 16  1  0
 14 17  1  0
 17 18  1  0
 17 46  1  0
 17 47  1  0
 18 28  1  0
 18 19  2  0
 19 20  1  0
 19 48  1  0
 20 21  1  0
 20 27  1  0
 21 26  1  0
 21 22  2  0
 22 23  1  0
 22 49  1  0
 23 24  2  0
 23 50  1  0
 24 25  1  0
 24 51  1  0
 25 26  2  0
 25 52  1  0
 26 53  1  0
 27 28  2  0
 28 29  1  0
 29 34  1  0
 29 30  2  0
 30 31  1  0
 30 54  1  0
 31 32  2  0
 31 55  1  0
 32 33  1  0
 32 56  1  0
 33 34  2  0
 33 57  1  0
 34 58  1  0
M  CHG  1  14   1
M  END
>  <DOCK_score>  (1) 
-56.696404

>  <SMILES>  (1) 
Cc1nn(-c2ccccc2)cc1C[NH2+]Cc1cn(-c2ccccc2)nc1-c1ccccc1

$$$$
