O=C1CC[C@H](NC(NC2CCOCC2)=[NH+][C@H]2COc3ccc(-c4ccc(O)cc4)cc3C2)CN1
     RDKit          3D

 67 71  0  0  1  0  0  0  0  0999 V2000
  124.0046  133.6433  161.6615 O   0  0  0  0  0  0  0  0  0  0  0  0
  125.1621  133.8867  161.3930 C   0  0  0  0  0  0  0  0  0  0  0  0
  126.0289  132.7633  160.9010 C   0  0  0  0  0  0  0  0  0  0  0  0
  127.5046  133.1462  161.0371 C   0  0  0  0  0  0  0  0  0  0  0  0
  127.7005  134.5428  160.4348 C   0  0  2  0  0  0  0  0  0  0  0  0
  127.2906  134.5665  159.4251 H   0  0  0  0  0  0  0  0  0  0  0  0
  129.1291  134.8642  160.3930 N   0  0  0  0  0  0  0  0  0  0  0  0
  129.8755  134.5354  159.2862 C   0  0  0  0  0  0  0  0  0  0  0  0
  129.2813  133.9051  158.2187 N   0  0  0  0  0  0  0  0  0  0  0  0
  130.0620  132.9930  157.3792 C   0  0  0  0  0  0  0  0  0  0  0  0
  129.1675  132.4200  156.2757 C   0  0  0  0  0  0  0  0  0  0  0  0
  129.9701  131.4091  155.4525 C   0  0  0  0  0  0  0  0  0  0  0  0
  130.4662  130.3822  156.3136 O   0  0  0  0  0  0  0  0  0  0  0  0
  131.3462  130.8531  157.3364 C   0  0  0  0  0  0  0  0  0  0  0  0
  130.5989  131.8416  158.2353 C   0  0  0  0  0  0  0  0  0  0  0  0
  131.1467  134.8214  159.2490 N   0  0  0  0  0  0  0  0  0  0  0  0
  131.5771  135.0080  158.4000 H   0  0  0  0  0  0  0  0  0  0  0  0
  131.9252  134.8611  160.4894 C   0  0  1  0  0  0  0  0  0  0  0  0
  131.2797  134.6270  161.3358 H   0  0  0  0  0  0  0  0  0  0  0  0
  133.0695  133.8421  160.4144 C   0  0  0  0  0  0  0  0  0  0  0  0
  133.7444  133.8295  161.6730 O   0  0  0  0  0  0  0  0  0  0  0  0
  134.1149  135.0227  162.2068 C   0  0  0  0  0  0  0  0  0  0  0  0
  135.0722  135.0264  163.2183 C   0  0  0  0  0  0  0  0  0  0  0  0
  135.4753  136.2121  163.7915 C   0  0  0  0  0  0  0  0  0  0  0  0
  134.9144  137.4146  163.3645 C   0  0  0  0  0  0  0  0  0  0  0  0
  135.3384  138.6952  163.9822 C   0  0  0  0  0  0  0  0  0  0  0  0
  135.3189  139.8713  163.2345 C   0  0  0  0  0  0  0  0  0  0  0  0
  135.7087  141.0611  163.8130 C   0  0  0  0  0  0  0  0  0  0  0  0
  136.1310  141.0859  165.1352 C   0  0  0  0  0  0  0  0  0  0  0  0
  136.5198  142.2588  165.7009 O   0  0  0  0  0  0  0  0  0  0  0  0
  136.1565  139.9152  165.8810 C   0  0  0  0  0  0  0  0  0  0  0  0
  135.7625  138.7234  165.3096 C   0  0  0  0  0  0  0  0  0  0  0  0
  133.9588  137.4097  162.3521 C   0  0  0  0  0  0  0  0  0  0  0  0
  133.5627  136.2172  161.7745 C   0  0  0  0  0  0  0  0  0  0  0  0
  132.5331  136.2537  160.6735 C   0  0  0  0  0  0  0  0  0  0  0  0
  126.9710  135.5610  161.3121 C   0  0  0  0  0  0  0  0  0  0  0  0
  125.5969  135.1374  161.5506 N   0  0  0  0  0  0  0  0  0  0  0  0
  125.8019  132.5626  159.8540 H   0  0  0  0  0  0  0  0  0  0  0  0
  125.8311  131.8684  161.4910 H   0  0  0  0  0  0  0  0  0  0  0  0
  128.1217  132.4255  160.5007 H   0  0  0  0  0  0  0  0  0  0  0  0
  127.7857  133.1580  162.0901 H   0  0  0  0  0  0  0  0  0  0  0  0
  129.5485  135.3088  161.1462 H   0  0  0  0  0  0  0  0  0  0  0  0
  128.3450  134.0644  158.0213 H   0  0  0  0  0  0  0  0  0  0  0  0
  130.8956  133.5334  156.9310 H   0  0  0  0  0  0  0  0  0  0  0  0
  128.3077  131.9230  156.7250 H   0  0  0  0  0  0  0  0  0  0  0  0
  128.8255  133.2273  155.6282 H   0  0  0  0  0  0  0  0  0  0  0  0
  130.8067  131.9152  154.9707 H   0  0  0  0  0  0  0  0  0  0  0  0
  129.3264  130.9664  154.6924 H   0  0  0  0  0  0  0  0  0  0  0  0
  132.2009  131.3520  156.8793 H   0  0  0  0  0  0  0  0  0  0  0  0
  131.6939  130.0101  157.9335 H   0  0  0  0  0  0  0  0  0  0  0  0
  131.2804  132.2354  158.9892 H   0  0  0  0  0  0  0  0  0  0  0  0
  129.7679  131.3330  158.7242 H   0  0  0  0  0  0  0  0  0  0  0  0
  133.7662  134.1295  159.6270 H   0  0  0  0  0  0  0  0  0  0  0  0
  132.6658  132.8515  160.2043 H   0  0  0  0  0  0  0  0  0  0  0  0
  135.5037  134.0945  163.5524 H   0  0  0  0  0  0  0  0  0  0  0  0
  136.2215  136.2098  164.5723 H   0  0  0  0  0  0  0  0  0  0  0  0
  134.9948  139.8517  162.2044 H   0  0  0  0  0  0  0  0  0  0  0  0
  135.6892  141.9735  163.2357 H   0  0  0  0  0  0  0  0  0  0  0  0
  136.7969  142.1775  166.6238 H   0  0  0  0  0  0  0  0  0  0  0  0
  136.4848  139.9378  166.9095 H   0  0  0  0  0  0  0  0  0  0  0  0
  135.7821  137.8130  165.8903 H   0  0  0  0  0  0  0  0  0  0  0  0
  133.5257  138.3403  162.0164 H   0  0  0  0  0  0  0  0  0  0  0  0
  131.7463  136.9610  160.9362 H   0  0  0  0  0  0  0  0  0  0  0  0
  133.0071  136.5683  159.7439 H   0  0  0  0  0  0  0  0  0  0  0  0
  127.4906  135.6525  162.2660 H   0  0  0  0  0  0  0  0  0  0  0  0
  126.9678  136.5299  160.8129 H   0  0  0  0  0  0  0  0  0  0  0  0
  124.9589  135.8071  161.8424 H   0  0  0  0  0  0  0  0  0  0  0  0
  1  2  2  0
  2 37  1  0
  2  3  1  0
  3  4  1  0
  3 38  1  0
  3 39  1  0
  4  5  1  0
  4 40  1  0
  4 41  1  0
  5  6  1  6
  5  7  1  0
  5 36  1  0
  7 42  1  0
  8  7  1  0
  8  9  1  0
  8 16  2  0
  9 10  1  0
  9 43  1  0
 10 15  1  0
 10 11  1  0
 10 44  1  0
 11 12  1  0
 11 45  1  0
 11 46  1  0
 12 13  1  0
 12 47  1  0
 12 48  1  0
 13 14  1  0
 14 15  1  0
 14 49  1  0
 14 50  1  0
 15 51  1  0
 15 52  1  0
 16 17  1  0
 16 18  1  0
 18 19  1  1
 18 35  1  0
 18 20  1  0
 20 21  1  0
 20 53  1  0
 20 54  1  0
 21 22  1  0
 22 34  2  0
 22 23  1  0
 23 24  2  0
 23 55  1  0
 24 25  1  0
 24 56  1  0
 25 26  1  0
 25 33  2  0
 26 32  1  0
 26 27  2  0
 27 28  1  0
 27 57  1  0
 28 29  2  0
 28 58  1  0
 29 30  1  0
 29 31  1  0
 30 59  1  0
 31 32  2  0
 31 60  1  0
 32 61  1  0
 33 34  1  0
 33 62  1  0
 34 35  1  0
 35 63  1  0
 35 64  1  0
 36 37  1  0
 36 65  1  0
 36 66  1  0
 37 67  1  0
M  CHG  1  16   1
M  END
>  <DOCK_score>  (1) 
-50.586044

>  <SMILES>  (1) 
O=C1CC[C@H](NC(NC2CCOCC2)=[NH+][C@H]2COc3ccc(-c4ccc(O)cc4)cc3C2)CN1

$$$$
