Brc1ccc([C@H](Nc2[nH]cc(-c3cccnc3)[nH+]2)c2cccnc2)cc1
     RDKit          3D

 43 46  0  0  1  0  0  0  0  0999 V2000
  130.7595  141.3409  161.7233 Br  0  0  0  0  0  0  0  0  0  0  0  0
  130.3956  139.5403  161.2746 C   0  0  0  0  0  0  0  0  0  0  0  0
  130.2000  138.6042  162.2740 C   0  0  0  0  0  0  0  0  0  0  0  0
  129.9278  137.2895  161.9456 C   0  0  0  0  0  0  0  0  0  0  0  0
  129.8628  136.9076  160.6186 C   0  0  0  0  0  0  0  0  0  0  0  0
  129.5718  135.4727  160.2610 C   0  0  2  0  0  0  0  0  0  0  0  0
  129.9545  134.8183  161.0442 H   0  0  0  0  0  0  0  0  0  0  0  0
  130.2220  135.1448  158.9898 N   0  0  0  0  0  0  0  0  0  0  0  0
  130.0956  133.8741  158.4553 C   0  0  0  0  0  0  0  0  0  0  0  0
  129.4028  132.8445  159.0139 N   0  0  0  0  0  0  0  0  0  0  0  0
  128.9130  132.8687  159.8506 H   0  0  0  0  0  0  0  0  0  0  0  0
  129.5233  131.7652  158.1724 C   0  0  0  0  0  0  0  0  0  0  0  0
  130.2921  132.1638  157.1289 C   0  0  0  0  0  0  0  0  0  0  0  0
  130.6942  131.3275  155.9715 C   0  0  0  0  0  0  0  0  0  0  0  0
  130.3301  131.6913  154.6717 C   0  0  0  0  0  0  0  0  0  0  0  0
  130.7339  130.8799  153.6257 C   0  0  0  0  0  0  0  0  0  0  0  0
  131.4691  129.7402  153.8981 C   0  0  0  0  0  0  0  0  0  0  0  0
  131.7935  129.4200  155.1357 N   0  0  0  0  0  0  0  0  0  0  0  0
  131.4361  130.1636  156.1627 C   0  0  0  0  0  0  0  0  0  0  0  0
  130.6281  133.4626  157.3305 N   0  0  0  0  0  0  0  0  0  0  0  0
  131.1752  134.0007  156.7373 H   0  0  0  0  0  0  0  0  0  0  0  0
  128.0831  135.2801  160.1283 C   0  0  0  0  0  0  0  0  0  0  0  0
  127.4575  135.4662  158.9047 C   0  0  0  0  0  0  0  0  0  0  0  0
  126.0868  135.2735  158.8285 C   0  0  0  0  0  0  0  0  0  0  0  0
  125.3926  134.9146  159.9688 C   0  0  0  0  0  0  0  0  0  0  0  0
  126.0201  134.7513  161.1169 N   0  0  0  0  0  0  0  0  0  0  0  0
  127.3234  134.9216  161.2253 C   0  0  0  0  0  0  0  0  0  0  0  0
  130.0644  137.8415  159.6194 C   0  0  0  0  0  0  0  0  0  0  0  0
  130.3304  139.1577  159.9469 C   0  0  0  0  0  0  0  0  0  0  0  0
  130.2555  138.9015  163.3109 H   0  0  0  0  0  0  0  0  0  0  0  0
  129.7700  136.5595  162.7258 H   0  0  0  0  0  0  0  0  0  0  0  0
  130.7411  135.8181  158.5227 H   0  0  0  0  0  0  0  0  0  0  0  0
  129.0916  130.7858  158.3164 H   0  0  0  0  0  0  0  0  0  0  0  0
  129.7519  132.5847  154.4882 H   0  0  0  0  0  0  0  0  0  0  0  0
  130.4740  131.1315  152.6080 H   0  0  0  0  0  0  0  0  0  0  0  0
  131.7825  129.1028  153.0844 H   0  0  0  0  0  0  0  0  0  0  0  0
  131.7211  129.8687  157.1619 H   0  0  0  0  0  0  0  0  0  0  0  0
  128.0251  135.7505  158.0310 H   0  0  0  0  0  0  0  0  0  0  0  0
  125.5671  135.4061  157.8911 H   0  0  0  0  0  0  0  0  0  0  0  0
  124.3241  134.7659  159.9185 H   0  0  0  0  0  0  0  0  0  0  0  0
  127.8025  134.7789  162.1827 H   0  0  0  0  0  0  0  0  0  0  0  0
  130.0135  137.5427  158.5828 H   0  0  0  0  0  0  0  0  0  0  0  0
  130.4878  139.8872  159.1663 H   0  0  0  0  0  0  0  0  0  0  0  0
  1  2  1  0
  2 29  2  0
  2  3  1  0
  3  4  2  0
  3 30  1  0
  4  5  1  0
  4 31  1  0
  5  6  1  0
  5 28  2  0
  6  7  1  1
  6  8  1  0
  6 22  1  0
  8 32  1  0
  9  8  1  0
  9 20  2  0
  9 10  1  0
 10 11  1  0
 10 12  1  0
 12 13  2  0
 12 33  1  0
 13 14  1  0
 13 20  1  0
 14 19  1  0
 14 15  2  0
 15 16  1  0
 15 34  1  0
 16 17  2  0
 16 35  1  0
 17 18  1  0
 17 36  1  0
 18 19  2  0
 19 37  1  0
 20 21  1  0
 22 27  1  0
 22 23  2  0
 23 24  1  0
 23 38  1  0
 24 25  2  0
 24 39  1  0
 25 26  1  0
 25 40  1  0
 26 27  2  0
 27 41  1  0
 28 29  1  0
 28 42  1  0
 29 43  1  0
M  CHG  1  20   1
M  END
>  <DOCK_score>  (1) 
-57.344376

>  <SMILES>  (1) 
Brc1ccc([C@H](Nc2[nH]cc(-c3cccnc3)[nH+]2)c2cccnc2)cc1

$$$$
