CCC=C[C@@H](Nc1[nH]cc(-c2ccc(CC)cc2)[nH+]1)c1ccc(C2CC2)cc1
     RDKit          3D

 58 61  0  0  1  0  0  0  0  0999 V2000
  125.5194  134.9306  159.7242 C   0  0  0  0  0  0  0  0  0  0  0  0
  126.2714  135.5215  160.9185 C   0  0  0  0  0  0  0  0  0  0  0  0
  127.7106  135.0763  160.8759 C   0  0  0  0  0  0  0  0  0  0  0  0
  128.6004  135.7966  160.2390 C   0  0  0  0  0  0  0  0  0  0  0  0
  130.0395  135.3516  160.1965 C   0  0  1  0  0  0  0  0  0  0  0  0
  130.1470  134.4167  160.7464 H   0  0  0  0  0  0  0  0  0  0  0  0
  130.4469  135.1487  158.8040 N   0  0  0  0  0  0  0  0  0  0  0  0
  130.2875  133.9086  158.2098 C   0  0  0  0  0  0  0  0  0  0  0  0
  129.7718  132.8018  158.8110 N   0  0  0  0  0  0  0  0  0  0  0  0
  129.4529  132.7405  159.7251 H   0  0  0  0  0  0  0  0  0  0  0  0
  129.7860  131.7878  157.8844 C   0  0  0  0  0  0  0  0  0  0  0  0
  130.3094  132.3034  156.7447 C   0  0  0  0  0  0  0  0  0  0  0  0
  130.5193  131.5718  155.4715 C   0  0  0  0  0  0  0  0  0  0  0  0
  129.8875  132.0014  154.3057 C   0  0  0  0  0  0  0  0  0  0  0  0
  130.0868  131.3172  153.1238 C   0  0  0  0  0  0  0  0  0  0  0  0
  130.9114  130.2066  153.0951 C   0  0  0  0  0  0  0  0  0  0  0  0
  131.1246  129.4634  151.8015 C   0  0  0  0  0  0  0  0  0  0  0  0
  130.0633  128.3703  151.6606 C   0  0  0  0  0  0  0  0  0  0  0  0
  131.5363  129.7726  154.2501 C   0  0  0  0  0  0  0  0  0  0  0  0
  131.3492  130.4527  155.4363 C   0  0  0  0  0  0  0  0  0  0  0  0
  130.6125  133.6053  156.9767 N   0  0  0  0  0  0  0  0  0  0  0  0
  131.0048  134.2150  156.3323 H   0  0  0  0  0  0  0  0  0  0  0  0
  130.9108  136.4078  160.8260 C   0  0  0  0  0  0  0  0  0  0  0  0
  130.9404  137.6847  160.2974 C   0  0  0  0  0  0  0  0  0  0  0  0
  131.7362  138.6547  160.8775 C   0  0  0  0  0  0  0  0  0  0  0  0
  132.5094  138.3453  161.9808 C   0  0  0  0  0  0  0  0  0  0  0  0
  133.3800  139.4018  162.6110 C   0  0  0  0  0  0  0  0  0  0  0  0
  134.3225  140.1812  161.6917 C   0  0  0  0  0  0  0  0  0  0  0  0
  134.8865  139.1387  162.6604 C   0  0  0  0  0  0  0  0  0  0  0  0
  132.4840  137.0669  162.5063 C   0  0  0  0  0  0  0  0  0  0  0  0
  131.6848  136.0981  161.9287 C   0  0  0  0  0  0  0  0  0  0  0  0
  124.4785  135.2526  159.7549 H   0  0  0  0  0  0  0  0  0  0  0  0
  125.9793  135.2761  158.7982 H   0  0  0  0  0  0  0  0  0  0  0  0
  125.5647  133.8425  159.7684 H   0  0  0  0  0  0  0  0  0  0  0  0
  125.8115  135.1761  161.8444 H   0  0  0  0  0  0  0  0  0  0  0  0
  126.2262  136.6096  160.8741 H   0  0  0  0  0  0  0  0  0  0  0  0
  128.0085  134.1636  161.3705 H   0  0  0  0  0  0  0  0  0  0  0  0
  128.3025  136.7094  159.7445 H   0  0  0  0  0  0  0  0  0  0  0  0
  130.8286  135.8833  158.2983 H   0  0  0  0  0  0  0  0  0  0  0  0
  129.4454  130.7740  158.0350 H   0  0  0  0  0  0  0  0  0  0  0  0
  129.2432  132.8678  154.3272 H   0  0  0  0  0  0  0  0  0  0  0  0
  129.5978  131.6490  152.2199 H   0  0  0  0  0  0  0  0  0  0  0  0
  132.1155  129.0100  151.8021 H   0  0  0  0  0  0  0  0  0  0  0  0
  131.0433  130.1584  150.9655 H   0  0  0  0  0  0  0  0  0  0  0  0
  130.1443  127.6754  152.4964 H   0  0  0  0  0  0  0  0  0  0  0  0
  129.0722  128.8238  151.6599 H   0  0  0  0  0  0  0  0  0  0  0  0
  130.2175  127.8327  150.7250 H   0  0  0  0  0  0  0  0  0  0  0  0
  132.1752  128.9023  154.2228 H   0  0  0  0  0  0  0  0  0  0  0  0
  131.8414  130.1157  156.3367 H   0  0  0  0  0  0  0  0  0  0  0  0
  130.3391  137.9254  159.4331 H   0  0  0  0  0  0  0  0  0  0  0  0
  131.7559  139.6534  160.4672 H   0  0  0  0  0  0  0  0  0  0  0  0
  132.9353  139.9393  163.4484 H   0  0  0  0  0  0  0  0  0  0  0  0
  134.3127  139.9299  160.6311 H   0  0  0  0  0  0  0  0  0  0  0  0
  134.4980  141.2315  161.9245 H   0  0  0  0  0  0  0  0  0  0  0  0
  135.4328  139.5036  163.5300 H   0  0  0  0  0  0  0  0  0  0  0  0
  135.2478  138.2014  162.2373 H   0  0  0  0  0  0  0  0  0  0  0  0
  133.0880  136.8253  163.3682 H   0  0  0  0  0  0  0  0  0  0  0  0
  131.6648  135.0994  162.3394 H   0  0  0  0  0  0  0  0  0  0  0  0
  1  2  1  0
  1 32  1  0
  1 33  1  0
  1 34  1  0
  2  3  1  0
  2 35  1  0
  2 36  1  0
  3  4  2  0
  3 37  1  0
  4  5  1  0
  4 38  1  0
  5  6  1  1
  5  7  1  0
  5 23  1  0
  7 39  1  0
  8  7  1  0
  8 21  2  0
  8  9  1  0
  9 10  1  0
  9 11  1  0
 11 12  2  0
 11 40  1  0
 12 13  1  0
 12 21  1  0
 13 20  1  0
 13 14  2  0
 14 15  1  0
 14 41  1  0
 15 16  2  0
 15 42  1  0
 16 17  1  0
 16 19  1  0
 17 18  1  0
 17 43  1  0
 17 44  1  0
 18 45  1  0
 18 46  1  0
 18 47  1  0
 19 20  2  0
 19 48  1  0
 20 49  1  0
 21 22  1  0
 23 31  1  0
 23 24  2  0
 24 25  1  0
 24 50  1  0
 25 26  2  0
 25 51  1  0
 26 27  1  0
 26 30  1  0
 27 29  1  0
 27 28  1  0
 27 52  1  0
 28 29  1  0
 28 53  1  0
 28 54  1  0
 29 55  1  0
 29 56  1  0
 30 31  2  0
 30 57  1  0
 31 58  1  0
M  CHG  1  21   1
M  END
>  <DOCK_score>  (1) 
-58.237129

>  <SMILES>  (1) 
CCC=C[C@@H](Nc1[nH]cc(-c2ccc(CC)cc2)[nH+]1)c1ccc(C2CC2)cc1

$$$$
