C[C@H](c1ccccc1)C(Cc1ccnn1C)Nc1[nH]cc(-c2ccc(N)cc2)[nH+]1
     RDKit          3D

 56 59  0  0  1  0  0  0  0  0999 V2000
  129.5573  135.6729  162.5143 C   0  0  0  0  0  0  0  0  0  0  0  0
  130.4863  135.3086  161.3545 C   0  0  2  0  0  0  0  0  0  0  0  0
  131.0342  134.3988  161.5999 H   0  0  0  0  0  0  0  0  0  0  0  0
  131.4608  136.4336  161.1189 C   0  0  0  0  0  0  0  0  0  0  0  0
  132.7233  136.1624  160.6253 C   0  0  0  0  0  0  0  0  0  0  0  0
  133.6158  137.1949  160.4054 C   0  0  0  0  0  0  0  0  0  0  0  0
  133.2488  138.4976  160.6868 C   0  0  0  0  0  0  0  0  0  0  0  0
  131.9882  138.7681  161.1853 C   0  0  0  0  0  0  0  0  0  0  0  0
  131.0942  137.7361  161.4015 C   0  0  0  0  0  0  0  0  0  0  0  0
  129.6569  135.0788  160.0895 C   0  0  1  0  0  0  0  0  0  0  0  0
  128.8877  136.3558  159.7451 C   0  0  0  0  0  0  0  0  0  0  0  0
  128.0708  136.1295  158.4992 C   0  0  0  0  0  0  0  0  0  0  0  0
  128.4754  136.3555  157.2278 C   0  0  0  0  0  0  0  0  0  0  0  0
  127.4211  136.0155  156.3737 C   0  0  0  0  0  0  0  0  0  0  0  0
  126.4168  135.6077  157.1065 N   0  0  0  0  0  0  0  0  0  0  0  0
  126.8026  135.6706  158.4518 N   0  0  0  0  0  0  0  0  0  0  0  0
  125.9754  135.3027  159.6036 C   0  0  0  0  0  0  0  0  0  0  0  0
  130.5463  134.7298  158.9789 N   0  0  0  0  0  0  0  0  0  0  0  0
  130.4017  133.5146  158.3318 C   0  0  0  0  0  0  0  0  0  0  0  0
  129.9489  132.3636  158.8990 N   0  0  0  0  0  0  0  0  0  0  0  0
  129.6718  132.2478  159.8213 H   0  0  0  0  0  0  0  0  0  0  0  0
  129.9534  131.3960  157.9222 C   0  0  0  0  0  0  0  0  0  0  0  0
  130.4171  131.9818  156.7907 C   0  0  0  0  0  0  0  0  0  0  0  0
  130.6001  131.3186  155.4764 C   0  0  0  0  0  0  0  0  0  0  0  0
  129.9061  131.7801  154.3591 C   0  0  0  0  0  0  0  0  0  0  0  0
  130.0821  131.1658  153.1371 C   0  0  0  0  0  0  0  0  0  0  0  0
  130.9417  130.0802  153.0214 C   0  0  0  0  0  0  0  0  0  0  0  0
  131.1137  129.4550  151.7840 N   0  0  0  0  0  0  0  0  0  0  0  0
  131.6306  129.6145  154.1354 C   0  0  0  0  0  0  0  0  0  0  0  0
  131.4619  130.2293  155.3581 C   0  0  0  0  0  0  0  0  0  0  0  0
  130.6837  133.2816  157.0730 N   0  0  0  0  0  0  0  0  0  0  0  0
  131.0284  133.9344  156.4438 H   0  0  0  0  0  0  0  0  0  0  0  0
  130.1482  135.8365  163.4155 H   0  0  0  0  0  0  0  0  0  0  0  0
  129.0094  136.5826  162.2690 H   0  0  0  0  0  0  0  0  0  0  0  0
  128.8525  134.8590  162.6848 H   0  0  0  0  0  0  0  0  0  0  0  0
  133.0112  135.1444  160.4086 H   0  0  0  0  0  0  0  0  0  0  0  0
  134.6010  136.9834  160.0163 H   0  0  0  0  0  0  0  0  0  0  0  0
  133.9471  139.3039  160.5174 H   0  0  0  0  0  0  0  0  0  0  0  0
  131.7015  139.7859  161.4054 H   0  0  0  0  0  0  0  0  0  0  0  0
  130.1094  137.9475  161.7909 H   0  0  0  0  0  0  0  0  0  0  0  0
  128.9521  134.2649  160.2599 H   0  0  0  0  0  0  0  0  0  0  0  0
  128.2259  136.6153  160.5713 H   0  0  0  0  0  0  0  0  0  0  0  0
  129.5925  137.1696  159.5747 H   0  0  0  0  0  0  0  0  0  0  0  0
  129.4423  136.7298  156.9258 H   0  0  0  0  0  0  0  0  0  0  0  0
  127.4328  136.0818  155.2958 H   0  0  0  0  0  0  0  0  0  0  0  0
  125.4194  136.1758  159.9452 H   0  0  0  0  0  0  0  0  0  0  0  0
  125.2771  134.5178  159.3135 H   0  0  0  0  0  0  0  0  0  0  0  0
  126.6146  134.9410  160.4090 H   0  0  0  0  0  0  0  0  0  0  0  0
  131.2367  135.3504  158.6970 H   0  0  0  0  0  0  0  0  0  0  0  0
  129.6505  130.3656  158.0359 H   0  0  0  0  0  0  0  0  0  0  0  0
  129.2341  132.6208  154.4495 H   0  0  0  0  0  0  0  0  0  0  0  0
  129.5480  131.5258  152.2703 H   0  0  0  0  0  0  0  0  0  0  0  0
  131.7136  128.6971  151.7025 H   0  0  0  0  0  0  0  0  0  0  0  0
  130.6332  129.7790  151.0062 H   0  0  0  0  0  0  0  0  0  0  0  0
  132.2983  128.7706  154.0433 H   0  0  0  0  0  0  0  0  0  0  0  0
  131.9976  129.8675  156.2233 H   0  0  0  0  0  0  0  0  0  0  0  0
  1  2  1  0
  1 33  1  0
  1 34  1  0
  1 35  1  0
  2  3  1  1
  2  4  1  0
  2 10  1  0
  4  9  1  0
  4  5  2  0
  5  6  1  0
  5 36  1  0
  6  7  2  0
  6 37  1  0
  7  8  1  0
  7 38  1  0
  8  9  2  0
  8 39  1  0
  9 40  1  0
 10 11  1  0
 10 18  1  0
 10 41  1  1
 11 12  1  0
 11 42  1  0
 11 43  1  0
 12 16  1  0
 12 13  2  0
 13 14  1  0
 13 44  1  0
 14 15  2  0
 14 45  1  0
 15 16  1  0
 16 17  1  0
 17 46  1  0
 17 47  1  0
 17 48  1  0
 18 49  1  0
 19 18  1  0
 19 31  2  0
 19 20  1  0
 20 21  1  0
 20 22  1  0
 22 23  2  0
 22 50  1  0
 23 24  1  0
 23 31  1  0
 24 30  1  0
 24 25  2  0
 25 26  1  0
 25 51  1  0
 26 27  2  0
 26 52  1  0
 27 28  1  0
 27 29  1  0
 28 53  1  0
 28 54  1  0
 29 30  2  0
 29 55  1  0
 30 56  1  0
 31 32  1  0
M  CHG  1  31   1
M  END
>  <DOCK_score>  (1) 
-60.801212

>  <SMILES>  (1) 
C[C@H](c1ccccc1)C(Cc1ccnn1C)Nc1[nH]cc(-c2ccc(N)cc2)[nH+]1

$$$$
