CCc1ccc(-c2c[nH]c(N[C@@H](Cc3ccc(C)cc3)C3CCC3)[nH+]2)cc1
     RDKit          3D

 57 60  0  0  1  0  0  0  0  0999 V2000
  129.6683  129.2155  151.1194 C   0  0  0  0  0  0  0  0  0  0  0  0
  130.9894  129.8483  151.5609 C   0  0  0  0  0  0  0  0  0  0  0  0
  130.8110  130.4932  152.9112 C   0  0  0  0  0  0  0  0  0  0  0  0
  131.0438  129.7603  154.0610 C   0  0  0  0  0  0  0  0  0  0  0  0
  130.8875  130.3473  155.3002 C   0  0  0  0  0  0  0  0  0  0  0  0
  130.4833  131.6781  155.3919 C   0  0  0  0  0  0  0  0  0  0  0  0
  130.3082  132.3131  156.7209 C   0  0  0  0  0  0  0  0  0  0  0  0
  129.9488  131.6818  157.8659 C   0  0  0  0  0  0  0  0  0  0  0  0
  129.9048  132.6378  158.8514 N   0  0  0  0  0  0  0  0  0  0  0  0
  129.6773  132.4925  159.7831 H   0  0  0  0  0  0  0  0  0  0  0  0
  130.2391  133.8265  158.2792 C   0  0  0  0  0  0  0  0  0  0  0  0
  130.3130  135.0441  158.9339 N   0  0  0  0  0  0  0  0  0  0  0  0
  129.4512  135.3082  160.0887 C   0  0  1  0  0  0  0  0  0  0  0  0
  129.3853  134.4120  160.7056 H   0  0  0  0  0  0  0  0  0  0  0  0
  130.0415  136.4533  160.9142 C   0  0  0  0  0  0  0  0  0  0  0  0
  131.4183  136.0700  161.3923 C   0  0  0  0  0  0  0  0  0  0  0  0
  131.7225  134.7429  161.6309 C   0  0  0  0  0  0  0  0  0  0  0  0
  132.9871  134.3909  162.0644 C   0  0  0  0  0  0  0  0  0  0  0  0
  133.9440  135.3670  162.2701 C   0  0  0  0  0  0  0  0  0  0  0  0
  135.3206  134.9838  162.7486 C   0  0  0  0  0  0  0  0  0  0  0  0
  133.6381  136.6947  162.0366 C   0  0  0  0  0  0  0  0  0  0  0  0
  132.3752  137.0462  161.5976 C   0  0  0  0  0  0  0  0  0  0  0  0
  128.0533  135.6972  159.6036 C   0  0  0  0  0  0  0  0  0  0  0  0
  127.0500  135.9374  160.7440 C   0  0  0  0  0  0  0  0  0  0  0  0
  126.0071  135.2180  159.8724 C   0  0  0  0  0  0  0  0  0  0  0  0
  127.1850  134.4944  159.1985 C   0  0  0  0  0  0  0  0  0  0  0  0
  130.4852  133.6275  157.0073 N   0  0  0  0  0  0  0  0  0  0  0  0
  130.7491  134.3111  156.3718 H   0  0  0  0  0  0  0  0  0  0  0  0
  130.2448  132.4101  154.2301 C   0  0  0  0  0  0  0  0  0  0  0  0
  130.4097  131.8144  152.9961 C   0  0  0  0  0  0  0  0  0  0  0  0
  128.8998  129.9861  151.0553 H   0  0  0  0  0  0  0  0  0  0  0  0
  129.7972  128.7491  150.1428 H   0  0  0  0  0  0  0  0  0  0  0  0
  129.3663  128.4608  151.8455 H   0  0  0  0  0  0  0  0  0  0  0  0
  131.7578  129.0779  151.6249 H   0  0  0  0  0  0  0  0  0  0  0  0
  131.2914  130.6031  150.8348 H   0  0  0  0  0  0  0  0  0  0  0  0
  131.3524  128.7278  153.9889 H   0  0  0  0  0  0  0  0  0  0  0  0
  131.0741  129.7757  156.1972 H   0  0  0  0  0  0  0  0  0  0  0  0
  129.7372  130.6290  157.9810 H   0  0  0  0  0  0  0  0  0  0  0  0
  130.9354  135.7223  158.6280 H   0  0  0  0  0  0  0  0  0  0  0  0
  130.1075  137.3495  160.2974 H   0  0  0  0  0  0  0  0  0  0  0  0
  129.4002  136.6500  161.7735 H   0  0  0  0  0  0  0  0  0  0  0  0
  130.9736  133.9806  161.4748 H   0  0  0  0  0  0  0  0  0  0  0  0
  133.2262  133.3535  162.2465 H   0  0  0  0  0  0  0  0  0  0  0  0
  135.3417  134.9913  163.8384 H   0  0  0  0  0  0  0  0  0  0  0  0
  135.5660  133.9851  162.3872 H   0  0  0  0  0  0  0  0  0  0  0  0
  136.0500  135.6979  162.3662 H   0  0  0  0  0  0  0  0  0  0  0  0
  134.3856  137.4575  162.1972 H   0  0  0  0  0  0  0  0  0  0  0  0
  132.1362  138.0836  161.4155 H   0  0  0  0  0  0  0  0  0  0  0  0
  128.0700  136.4939  158.8598 H   0  0  0  0  0  0  0  0  0  0  0  0
  127.2959  135.4028  161.6616 H   0  0  0  0  0  0  0  0  0  0  0  0
  126.8256  136.9906  160.9136 H   0  0  0  0  0  0  0  0  0  0  0  0
  125.4632  135.8842  159.2029 H   0  0  0  0  0  0  0  0  0  0  0  0
  125.3503  134.5536  160.4342 H   0  0  0  0  0  0  0  0  0  0  0  0
  127.0695  134.3826  158.1205 H   0  0  0  0  0  0  0  0  0  0  0  0
  127.4686  133.5651  159.6926 H   0  0  0  0  0  0  0  0  0  0  0  0
  129.9310  133.4415  154.2952 H   0  0  0  0  0  0  0  0  0  0  0  0
  130.2248  132.3805  152.0952 H   0  0  0  0  0  0  0  0  0  0  0  0
  1  2  1  0
  1 31  1  0
  1 32  1  0
  1 33  1  0
  2  3  1  0
  2 34  1  0
  2 35  1  0
  3 30  2  0
  3  4  1  0
  4  5  2  0
  4 36  1  0
  5  6  1  0
  5 37  1  0
  6  7  1  0
  6 29  2  0
  7 27  1  0
  7  8  2  0
  8  9  1  0
  8 38  1  0
  9 10  1  0
  9 11  1  0
 11 12  1  0
 11 27  2  0
 12 13  1  0
 12 39  1  0
 13 14  1  1
 13 15  1  0
 13 23  1  0
 15 16  1  0
 15 40  1  0
 15 41  1  0
 16 22  1  0
 16 17  2  0
 17 18  1  0
 17 42  1  0
 18 19  2  0
 18 43  1  0
 19 20  1  0
 19 21  1  0
 20 44  1  0
 20 45  1  0
 20 46  1  0
 21 22  2  0
 21 47  1  0
 22 48  1  0
 23 26  1  0
 23 24  1  0
 23 49  1  0
 24 25  1  0
 24 50  1  0
 24 51  1  0
 25 26  1  0
 25 52  1  0
 25 53  1  0
 26 54  1  0
 26 55  1  0
 27 28  1  0
 29 30  1  0
 29 56  1  0
 30 57  1  0
M  CHG  1  27   1
M  END
>  <DOCK_score>  (1) 
-58.905251

>  <SMILES>  (1) 
CCc1ccc(-c2c[nH]c(N[C@@H](Cc3ccc(C)cc3)C3CCC3)[nH+]2)cc1

$$$$
