C[Si](C)(C)C#CC[C@@H](C=C1CCCC1)Nc1[nH]cc(-c2ccc(N)cc2)[nH+]1
     RDKit          3D

 58 60  0  0  1  0  0  0  0  0999 V2000
  132.7449  140.3461  162.2411 C   0  0  0  0  0  0  0  0  0  0  0  0
  132.6724  138.4848  162.2104 Si  0  0  0  0  0  4  0  0  0  0  0  0
  132.3707  137.8464  163.9344 C   0  0  0  0  0  0  0  0  0  0  0  0
  134.2881  137.8109  161.5726 C   0  0  0  0  0  0  0  0  0  0  0  0
  131.2587  137.9247  161.0712 C   0  0  0  0  0  0  0  0  0  0  0  0
  130.3853  137.5786  160.3672 C   0  0  0  0  0  0  0  0  0  0  0  0
  129.2899  137.1447  159.4847 C   0  0  0  0  0  0  0  0  0  0  0  0
  129.2306  135.6161  159.4595 C   0  0  1  0  0  0  0  0  0  0  0  0
  129.4107  135.2289  160.4624 H   0  0  0  0  0  0  0  0  0  0  0  0
  127.8694  135.1740  158.9873 C   0  0  0  0  0  0  0  0  0  0  0  0
  127.1144  134.4368  159.7635 C   0  0  0  0  0  0  0  0  0  0  0  0
  127.4401  133.9945  161.1749 C   0  0  0  0  0  0  0  0  0  0  0  0
  126.2490  133.1443  161.6632 C   0  0  0  0  0  0  0  0  0  0  0  0
  125.5972  132.6395  160.3507 C   0  0  0  0  0  0  0  0  0  0  0  0
  125.7537  133.8616  159.4123 C   0  0  0  0  0  0  0  0  0  0  0  0
  130.2547  135.1025  158.5465 N   0  0  0  0  0  0  0  0  0  0  0  0
  130.0470  133.9109  157.8730 C   0  0  0  0  0  0  0  0  0  0  0  0
  129.3061  132.8633  158.3260 N   0  0  0  0  0  0  0  0  0  0  0  0
  128.8325  132.8173  159.1712 H   0  0  0  0  0  0  0  0  0  0  0  0
  129.3534  131.8819  157.3643 C   0  0  0  0  0  0  0  0  0  0  0  0
  130.1161  132.3609  156.3509 C   0  0  0  0  0  0  0  0  0  0  0  0
  130.4416  131.6483  155.0909 C   0  0  0  0  0  0  0  0  0  0  0  0
  130.0615  132.1903  153.8641 C   0  0  0  0  0  0  0  0  0  0  0  0
  130.3702  131.5291  152.6942 C   0  0  0  0  0  0  0  0  0  0  0  0
  131.0490  130.3175  152.7378 C   0  0  0  0  0  0  0  0  0  0  0  0
  131.3553  129.6467  151.5512 N   0  0  0  0  0  0  0  0  0  0  0  0
  131.4246  129.7723  153.9602 C   0  0  0  0  0  0  0  0  0  0  0  0
  131.1230  130.4329  155.1325 C   0  0  0  0  0  0  0  0  0  0  0  0
  130.5322  133.6056  156.6942 N   0  0  0  0  0  0  0  0  0  0  0  0
  131.0955  134.1798  156.1520 H   0  0  0  0  0  0  0  0  0  0  0  0
  131.7996  140.7404  162.6142 H   0  0  0  0  0  0  0  0  0  0  0  0
  133.5558  140.6675  162.8946 H   0  0  0  0  0  0  0  0  0  0  0  0
  132.9214  140.7196  161.2324 H   0  0  0  0  0  0  0  0  0  0  0  0
  132.3283  136.7574  163.9165 H   0  0  0  0  0  0  0  0  0  0  0  0
  133.1817  138.1678  164.5880 H   0  0  0  0  0  0  0  0  0  0  0  0
  131.4255  138.2408  164.3076 H   0  0  0  0  0  0  0  0  0  0  0  0
  134.4645  138.1844  160.5639 H   0  0  0  0  0  0  0  0  0  0  0  0
  135.0989  138.1322  162.2261 H   0  0  0  0  0  0  0  0  0  0  0  0
  134.2456  136.7220  161.5546 H   0  0  0  0  0  0  0  0  0  0  0  0
  129.4666  137.5181  158.4760 H   0  0  0  0  0  0  0  0  0  0  0  0
  128.3448  137.5390  159.8578 H   0  0  0  0  0  0  0  0  0  0  0  0
  127.5164  135.4651  158.0090 H   0  0  0  0  0  0  0  0  0  0  0  0
  128.3522  133.3978  161.1773 H   0  0  0  0  0  0  0  0  0  0  0  0
  127.5623  134.8652  161.8191 H   0  0  0  0  0  0  0  0  0  0  0  0
  125.5453  133.7536  162.2305 H   0  0  0  0  0  0  0  0  0  0  0  0
  126.6011  132.3052  162.2634 H   0  0  0  0  0  0  0  0  0  0  0  0
  124.5446  132.4028  160.5067 H   0  0  0  0  0  0  0  0  0  0  0  0
  126.1324  131.7761  159.9556 H   0  0  0  0  0  0  0  0  0  0  0  0
  124.9695  134.5935  159.6062 H   0  0  0  0  0  0  0  0  0  0  0  0
  125.7308  133.5479  158.3686 H   0  0  0  0  0  0  0  0  0  0  0  0
  131.0784  135.5973  158.4140 H   0  0  0  0  0  0  0  0  0  0  0  0
  128.8712  130.9164  157.4060 H   0  0  0  0  0  0  0  0  0  0  0  0
  129.5293  133.1294  153.8300 H   0  0  0  0  0  0  0  0  0  0  0  0
  130.0798  131.9507  151.7433 H   0  0  0  0  0  0  0  0  0  0  0  0
  131.8295  128.8003  151.5814 H   0  0  0  0  0  0  0  0  0  0  0  0
  131.0938  130.0257  150.6983 H   0  0  0  0  0  0  0  0  0  0  0  0
  131.9524  128.8307  153.9919 H   0  0  0  0  0  0  0  0  0  0  0  0
  131.4149  130.0091  156.0820 H   0  0  0  0  0  0  0  0  0  0  0  0
  1  2  1  0
  1 31  1  0
  1 32  1  0
  1 33  1  0
  2  3  1  0
  2  4  1  0
  2  5  1  0
  3 34  1  0
  3 35  1  0
  3 36  1  0
  4 37  1  0
  4 38  1  0
  4 39  1  0
  5  6  3  0
  6  7  1  0
  7  8  1  0
  7 40  1  0
  7 41  1  0
  8  9  1  1
  8 10  1  0
  8 16  1  0
 10 11  2  0
 10 42  1  0
 11 15  1  0
 11 12  1  0
 12 13  1  0
 12 43  1  0
 12 44  1  0
 13 14  1  0
 13 45  1  0
 13 46  1  0
 14 15  1  0
 14 47  1  0
 14 48  1  0
 15 49  1  0
 15 50  1  0
 16 51  1  0
 17 16  1  0
 17 29  2  0
 17 18  1  0
 18 19  1  0
 18 20  1  0
 20 21  2  0
 20 52  1  0
 21 22  1  0
 21 29  1  0
 22 28  1  0
 22 23  2  0
 23 24  1  0
 23 53  1  0
 24 25  2  0
 24 54  1  0
 25 26  1  0
 25 27  1  0
 26 55  1  0
 26 56  1  0
 27 28  2  0
 27 57  1  0
 28 58  1  0
 29 30  1  0
M  CHG  1  29   1
M  END
>  <DOCK_score>  (1) 
-59.543697

>  <SMILES>  (1) 
C[Si](C)(C)C#CC[C@@H](C=C1CCCC1)Nc1[nH]cc(-c2ccc(N)cc2)[nH+]1

$$$$
