CC=C1CCC(NC(N[C@H]2CCC(=O)NC2)=[NH+][C@@H]2COc3cc(Cl)ccc3C2)CC1
     RDKit          3D

 62 65  0  0  1  0  0  0  0  0999 V2000
  130.2595  130.4587  152.8084 C   0  0  0  0  0  0  0  0  0  0  0  0
  130.5923  130.1279  154.2405 C   0  0  0  0  0  0  0  0  0  0  0  0
  130.7571  131.0904  155.1137 C   0  0  0  0  0  0  0  0  0  0  0  0
  130.6240  132.5406  154.7042 C   0  0  0  0  0  0  0  0  0  0  0  0
  129.6504  133.2286  155.6736 C   0  0  0  0  0  0  0  0  0  0  0  0
  130.1351  133.0217  157.1096 C   0  0  0  0  0  0  0  0  0  0  0  0
  129.2601  133.7532  158.0290 N   0  0  0  0  0  0  0  0  0  0  0  0
  129.7624  134.2466  159.2099 C   0  0  0  0  0  0  0  0  0  0  0  0
  128.9412  134.9331  160.0727 N   0  0  0  0  0  0  0  0  0  0  0  0
  127.5121  134.6165  160.1316 C   0  0  1  0  0  0  0  0  0  0  0  0
  127.0604  134.7815  159.1533 H   0  0  0  0  0  0  0  0  0  0  0  0
  127.3261  133.1512  160.5437 C   0  0  0  0  0  0  0  0  0  0  0  0
  125.8419  132.7990  160.4246 C   0  0  0  0  0  0  0  0  0  0  0  0
  125.0086  133.8501  161.0999 C   0  0  0  0  0  0  0  0  0  0  0  0
  123.8606  133.5789  161.3818 O   0  0  0  0  0  0  0  0  0  0  0  0
  125.4632  135.0657  161.4059 N   0  0  0  0  0  0  0  0  0  0  0  0
  126.8308  135.5106  161.1684 C   0  0  0  0  0  0  0  0  0  0  0  0
  131.0172  134.0636  159.5113 N   0  0  0  0  0  0  0  0  0  0  0  0
  131.4828  133.2749  159.1915 H   0  0  0  0  0  0  0  0  0  0  0  0
  131.7245  135.0489  160.3330 C   0  0  2  0  0  0  0  0  0  0  0  0
  131.3003  136.0389  160.1656 H   0  0  0  0  0  0  0  0  0  0  0  0
  133.2139  135.0546  159.9660 C   0  0  0  0  0  0  0  0  0  0  0  0
  133.8563  136.0928  160.7070 O   0  0  0  0  0  0  0  0  0  0  0  0
  133.6247  136.1552  162.0441 C   0  0  0  0  0  0  0  0  0  0  0  0
  134.4909  136.9050  162.8332 C   0  0  0  0  0  0  0  0  0  0  0  0
  134.2835  137.0004  164.1951 C   0  0  0  0  0  0  0  0  0  0  0  0
  135.3672  137.9373  165.1757 Cl  0  0  0  0  0  0  0  0  0  0  0  0
  133.2109  136.3478  164.7774 C   0  0  0  0  0  0  0  0  0  0  0  0
  132.3508  135.6014  163.9966 C   0  0  0  0  0  0  0  0  0  0  0  0
  132.5546  135.5022  162.6301 C   0  0  0  0  0  0  0  0  0  0  0  0
  131.5952  134.6755  161.8119 C   0  0  0  0  0  0  0  0  0  0  0  0
  130.1065  131.5324  157.4571 C   0  0  0  0  0  0  0  0  0  0  0  0
  131.0915  130.7803  156.5560 C   0  0  0  0  0  0  0  0  0  0  0  0
  130.1609  129.5364  152.2359 H   0  0  0  0  0  0  0  0  0  0  0  0
  129.3204  131.0111  152.7718 H   0  0  0  0  0  0  0  0  0  0  0  0
  131.0562  131.0679  152.3815 H   0  0  0  0  0  0  0  0  0  0  0  0
  130.6948  129.0975  154.5468 H   0  0  0  0  0  0  0  0  0  0  0  0
  131.5988  133.0259  154.7538 H   0  0  0  0  0  0  0  0  0  0  0  0
  130.2339  132.5997  153.6881 H   0  0  0  0  0  0  0  0  0  0  0  0
  128.6555  132.7982  155.5602 H   0  0  0  0  0  0  0  0  0  0  0  0
  129.6125  134.2953  155.4528 H   0  0  0  0  0  0  0  0  0  0  0  0
  131.1544  133.3963  157.2042 H   0  0  0  0  0  0  0  0  0  0  0  0
  128.3262  133.8896  157.8047 H   0  0  0  0  0  0  0  0  0  0  0  0
  129.3082  135.6269  160.6425 H   0  0  0  0  0  0  0  0  0  0  0  0
  127.9121  132.5082  159.8870 H   0  0  0  0  0  0  0  0  0  0  0  0
  127.6508  133.0162  161.5754 H   0  0  0  0  0  0  0  0  0  0  0  0
  125.6593  131.8336  160.8965 H   0  0  0  0  0  0  0  0  0  0  0  0
  125.5704  132.7437  159.3704 H   0  0  0  0  0  0  0  0  0  0  0  0
  124.8452  135.6933  161.8122 H   0  0  0  0  0  0  0  0  0  0  0  0
  127.3905  135.4694  162.1029 H   0  0  0  0  0  0  0  0  0  0  0  0
  126.8142  136.5375  160.8034 H   0  0  0  0  0  0  0  0  0  0  0  0
  133.6586  134.0927  160.2210 H   0  0  0  0  0  0  0  0  0  0  0  0
  133.3282  135.2409  158.8981 H   0  0  0  0  0  0  0  0  0  0  0  0
  135.3283  137.4142  162.3793 H   0  0  0  0  0  0  0  0  0  0  0  0
  133.0465  136.4225  165.8424 H   0  0  0  0  0  0  0  0  0  0  0  0
  131.5148  135.0928  164.4535 H   0  0  0  0  0  0  0  0  0  0  0  0
  130.5755  134.8664  162.1464 H   0  0  0  0  0  0  0  0  0  0  0  0
  131.8265  133.6182  161.9406 H   0  0  0  0  0  0  0  0  0  0  0  0
  129.1007  131.1421  157.3014 H   0  0  0  0  0  0  0  0  0  0  0  0
  130.3918  131.3970  158.5002 H   0  0  0  0  0  0  0  0  0  0  0  0
  131.0018  129.7082  156.7303 H   0  0  0  0  0  0  0  0  0  0  0  0
  132.1101  131.1026  156.7731 H   0  0  0  0  0  0  0  0  0  0  0  0
  1  2  1  0
  1 34  1  0
  1 35  1  0
  1 36  1  0
  2  3  2  0
  2 37  1  0
  3 33  1  0
  3  4  1  0
  4  5  1  0
  4 38  1  0
  4 39  1  0
  5  6  1  0
  5 40  1  0
  5 41  1  0
  6  7  1  0
  6 32  1  0
  6 42  1  0
  7 43  1  0
  8  7  1  0
  8  9  1  0
  8 18  2  0
  9 10  1  0
  9 44  1  0
 10 11  1  6
 10 17  1  0
 10 12  1  0
 12 13  1  0
 12 45  1  0
 12 46  1  0
 13 14  1  0
 13 47  1  0
 13 48  1  0
 14 15  2  0
 14 16  1  0
 16 17  1  0
 16 49  1  0
 17 50  1  0
 17 51  1  0
 18 19  1  0
 18 20  1  0
 20 21  1  1
 20 31  1  0
 20 22  1  0
 22 23  1  0
 22 52  1  0
 22 53  1  0
 23 24  1  0
 24 30  2  0
 24 25  1  0
 25 26  2  0
 25 54  1  0
 26 27  1  0
 26 28  1  0
 28 29  2  0
 28 55  1  0
 29 30  1  0
 29 56  1  0
 30 31  1  0
 31 57  1  0
 31 58  1  0
 32 33  1  0
 32 59  1  0
 32 60  1  0
 33 61  1  0
 33 62  1  0
M  CHG  1  18   1
M  END
>  <DOCK_score>  (1) 
-44.182667

>  <SMILES>  (1) 
CC=C1CCC(NC(N[C@H]2CCC(=O)NC2)=[NH+][C@@H]2COc3cc(Cl)ccc3C2)CC1

$$$$
