C[C@@H](Cc1cccc(C2CCC2)c1)[NH2+]C(CO)c1cccc(Br)c1
     RDKit          3D

 51 53  0  0  1  0  0  0  0  0999 V2000
  130.9406  137.4784  162.1100 C   0  0  0  0  0  0  0  0  0  0  0  0
  129.9221  137.9101  161.0530 C   0  0  1  0  0  0  0  0  0  0  0  0
  128.9167  137.8428  161.4685 H   0  0  0  0  0  0  0  0  0  0  0  0
  130.2045  139.3537  160.6320 C   0  0  0  0  0  0  0  0  0  0  0  0
  131.5946  139.4466  160.0576 C   0  0  0  0  0  0  0  0  0  0  0  0
  131.7970  139.2563  158.7032 C   0  0  0  0  0  0  0  0  0  0  0  0
  133.0719  139.3418  158.1763 C   0  0  0  0  0  0  0  0  0  0  0  0
  134.1447  139.6179  159.0036 C   0  0  0  0  0  0  0  0  0  0  0  0
  133.9424  139.8080  160.3574 C   0  0  0  0  0  0  0  0  0  0  0  0
  135.1118  140.1095  161.2590 C   0  0  0  0  0  0  0  0  0  0  0  0
  136.2667  139.1027  161.1274 C   0  0  0  0  0  0  0  0  0  0  0  0
  136.4123  139.1920  162.6573 C   0  0  0  0  0  0  0  0  0  0  0  0
  134.9291  139.5961  162.6971 C   0  0  0  0  0  0  0  0  0  0  0  0
  132.6664  139.7276  160.8837 C   0  0  0  0  0  0  0  0  0  0  0  0
  130.0281  137.0289  159.8824 N   0  0  0  0  0  0  0  0  0  0  0  0
  131.0000  136.8310  159.6973 H   0  0  0  0  0  0  0  0  0  0  0  0
  129.6190  137.4845  159.0804 H   0  0  0  0  0  0  0  0  0  0  0  0
  129.3147  135.7728  160.1488 C   0  0  1  0  0  0  0  0  0  0  0  0
  127.8141  135.9837  159.9370 C   0  0  0  0  0  0  0  0  0  0  0  0
  127.2551  136.6178  161.0892 O   0  0  0  0  0  0  0  0  0  0  0  0
  129.8095  134.7047  159.2078 C   0  0  0  0  0  0  0  0  0  0  0  0
  129.6857  134.8759  157.8414 C   0  0  0  0  0  0  0  0  0  0  0  0
  130.1445  133.8992  156.9777 C   0  0  0  0  0  0  0  0  0  0  0  0
  130.7171  132.7455  157.4801 C   0  0  0  0  0  0  0  0  0  0  0  0
  130.8360  132.5714  158.8470 C   0  0  0  0  0  0  0  0  0  0  0  0
  131.6198  130.9939  159.5348 Br  0  0  0  0  0  0  0  0  0  0  0  0
  130.3818  133.5518  159.7109 C   0  0  0  0  0  0  0  0  0  0  0  0
  130.7394  136.4500  162.4100 H   0  0  0  0  0  0  0  0  0  0  0  0
  131.9461  137.5457  161.6946 H   0  0  0  0  0  0  0  0  0  0  0  0
  130.8621  138.1323  162.9787 H   0  0  0  0  0  0  0  0  0  0  0  0
  129.4789  139.6611  159.8790 H   0  0  0  0  0  0  0  0  0  0  0  0
  130.1259  140.0074  161.5006 H   0  0  0  0  0  0  0  0  0  0  0  0
  130.9588  139.0411  158.0570 H   0  0  0  0  0  0  0  0  0  0  0  0
  133.2299  139.1936  157.1182 H   0  0  0  0  0  0  0  0  0  0  0  0
  135.1408  139.6851  158.5917 H   0  0  0  0  0  0  0  0  0  0  0  0
  135.4312  141.1501  161.2041 H   0  0  0  0  0  0  0  0  0  0  0  0
  135.9517  138.1204  160.7753 H   0  0  0  0  0  0  0  0  0  0  0  0
  137.1262  139.4931  160.5825 H   0  0  0  0  0  0  0  0  0  0  0  0
  137.0889  139.9814  162.9848 H   0  0  0  0  0  0  0  0  0  0  0  0
  136.6167  138.2332  163.1342 H   0  0  0  0  0  0  0  0  0  0  0  0
  134.7104  140.3842  163.4176 H   0  0  0  0  0  0  0  0  0  0  0  0
  134.2477  138.7489  162.7750 H   0  0  0  0  0  0  0  0  0  0  0  0
  132.5078  139.8807  161.9409 H   0  0  0  0  0  0  0  0  0  0  0  0
  129.4963  135.4630  161.1779 H   0  0  0  0  0  0  0  0  0  0  0  0
  127.6557  136.6143  159.0624 H   0  0  0  0  0  0  0  0  0  0  0  0
  127.3300  135.0194  159.7822 H   0  0  0  0  0  0  0  0  0  0  0  0
  126.3044  136.7828  161.0249 H   0  0  0  0  0  0  0  0  0  0  0  0
  129.2345  135.7751  157.4487 H   0  0  0  0  0  0  0  0  0  0  0  0
  130.0517  134.0353  155.9104 H   0  0  0  0  0  0  0  0  0  0  0  0
  131.0719  131.9806  156.8053 H   0  0  0  0  0  0  0  0  0  0  0  0
  130.4747  133.4163  160.7783 H   0  0  0  0  0  0  0  0  0  0  0  0
  1  2  1  0
  1 28  1  0
  1 29  1  0
  1 30  1  0
  2  3  1  1
  2  4  1  0
  2 15  1  0
  4  5  1  0
  4 31  1  0
  4 32  1  0
  5 14  1  0
  5  6  2  0
  6  7  1  0
  6 33  1  0
  7  8  2  0
  7 34  1  0
  8  9  1  0
  8 35  1  0
  9 10  1  0
  9 14  2  0
 10 13  1  0
 10 11  1  0
 10 36  1  0
 11 12  1  0
 11 37  1  0
 11 38  1  0
 12 13  1  0
 12 39  1  0
 12 40  1  0
 13 41  1  0
 13 42  1  0
 14 43  1  0
 15 16  1  0
 15 17  1  0
 15 18  1  0
 18 19  1  0
 18 21  1  0
 18 44  1  1
 19 20  1  0
 19 45  1  0
 19 46  1  0
 20 47  1  0
 21 27  1  0
 21 22  2  0
 22 23  1  0
 22 48  1  0
 23 24  2  0
 23 49  1  0
 24 25  1  0
 24 50  1  0
 25 26  1  0
 25 27  2  0
 27 51  1  0
M  CHG  1  15   1
M  END
>  <DOCK_score>  (1) 
-43.819389

>  <SMILES>  (1) 
C[C@@H](Cc1cccc(C2CCC2)c1)[NH2+]C(CO)c1cccc(Br)c1

$$$$
