Cc1ccc(CCNc2cccc([C@@H]([NH3+])C(=O)Nc3cccc(O)c3)c2)c2ccccc12
     RDKit          3D

 60 63  0  0  1  0  0  0  0  0999 V2000
  130.2538  141.2664  162.8746 C   0  0  0  0  0  0  0  0  0  0  0  0
  131.4614  140.3712  162.9821 C   0  0  0  0  0  0  0  0  0  0  0  0
  132.2206  140.1113  161.8823 C   0  0  0  0  0  0  0  0  0  0  0  0
  133.3408  139.2867  161.9624 C   0  0  0  0  0  0  0  0  0  0  0  0
  133.7085  138.7166  163.1426 C   0  0  0  0  0  0  0  0  0  0  0  0
  134.9230  137.8270  163.2081 C   0  0  0  0  0  0  0  0  0  0  0  0
  134.5103  136.3796  162.9332 C   0  0  0  0  0  0  0  0  0  0  0  0
  133.9091  136.2879  161.6005 N   0  0  0  0  0  0  0  0  0  0  0  0
  132.9299  135.3264  161.3407 C   0  0  0  0  0  0  0  0  0  0  0  0
  132.8115  134.2132  162.1636 C   0  0  0  0  0  0  0  0  0  0  0  0
  131.8421  133.2648  161.9041 C   0  0  0  0  0  0  0  0  0  0  0  0
  130.9859  133.4248  160.8297 C   0  0  0  0  0  0  0  0  0  0  0  0
  131.1046  134.5285  160.0055 C   0  0  0  0  0  0  0  0  0  0  0  0
  130.1734  134.6955  158.8324 C   0  0  1  0  0  0  0  0  0  0  0  0
  130.0248  135.7570  158.6348 H   0  0  0  0  0  0  0  0  0  0  0  0
  130.7587  134.0540  157.6476 N   0  0  0  0  0  0  0  0  0  0  0  0
  131.6464  134.4844  157.4361 H   0  0  0  0  0  0  0  0  0  0  0  0
  130.8963  133.0714  157.8304 H   0  0  0  0  0  0  0  0  0  0  0  0
  130.1352  134.1658  156.8621 H   0  0  0  0  0  0  0  0  0  0  0  0
  128.8474  134.0527  159.1482 C   0  0  0  0  0  0  0  0  0  0  0  0
  128.4309  133.1491  158.4545 O   0  0  0  0  0  0  0  0  0  0  0  0
  128.1243  134.4819  160.2015 N   0  0  0  0  0  0  0  0  0  0  0  0
  126.8932  133.8852  160.4946 C   0  0  0  0  0  0  0  0  0  0  0  0
  126.6752  132.5497  160.1803 C   0  0  0  0  0  0  0  0  0  0  0  0
  125.4598  131.9607  160.4696 C   0  0  0  0  0  0  0  0  0  0  0  0
  124.4601  132.6959  161.0782 C   0  0  0  0  0  0  0  0  0  0  0  0
  124.6702  134.0318  161.3893 C   0  0  0  0  0  0  0  0  0  0  0  0
  123.6843  134.7551  161.9821 O   0  0  0  0  0  0  0  0  0  0  0  0
  125.8886  134.6265  161.1001 C   0  0  0  0  0  0  0  0  0  0  0  0
  132.0721  135.4809  160.2592 C   0  0  0  0  0  0  0  0  0  0  0  0
  132.9464  138.9576  164.2982 C   0  0  0  0  0  0  0  0  0  0  0  0
  133.2992  138.3929  165.5361 C   0  0  0  0  0  0  0  0  0  0  0  0
  132.5403  138.6528  166.6353 C   0  0  0  0  0  0  0  0  0  0  0  0
  131.4194  139.4775  166.5552 C   0  0  0  0  0  0  0  0  0  0  0  0
  131.0513  140.0466  165.3753 C   0  0  0  0  0  0  0  0  0  0  0  0
  131.8102  139.8011  164.2180 C   0  0  0  0  0  0  0  0  0  0  0  0
  129.3762  140.6652  162.6369 H   0  0  0  0  0  0  0  0  0  0  0  0
  130.0965  141.7797  163.8231 H   0  0  0  0  0  0  0  0  0  0  0  0
  130.4153  142.0012  162.0859 H   0  0  0  0  0  0  0  0  0  0  0  0
  131.9501  140.5506  160.9335 H   0  0  0  0  0  0  0  0  0  0  0  0
  133.9259  139.0967  161.0748 H   0  0  0  0  0  0  0  0  0  0  0  0
  135.3703  137.8951  164.1998 H   0  0  0  0  0  0  0  0  0  0  0  0
  135.6482  138.1464  162.4596 H   0  0  0  0  0  0  0  0  0  0  0  0
  133.7851  136.0601  163.6817 H   0  0  0  0  0  0  0  0  0  0  0  0
  135.3888  135.7359  162.9805 H   0  0  0  0  0  0  0  0  0  0  0  0
  134.1912  136.8949  160.8983 H   0  0  0  0  0  0  0  0  0  0  0  0
  133.4767  134.0901  163.0053 H   0  0  0  0  0  0  0  0  0  0  0  0
  131.7495  132.3993  162.5435 H   0  0  0  0  0  0  0  0  0  0  0  0
  130.2254  132.6838  160.6319 H   0  0  0  0  0  0  0  0  0  0  0  0
  128.4574  135.2045  160.7563 H   0  0  0  0  0  0  0  0  0  0  0  0
  127.4564  131.9717  159.7090 H   0  0  0  0  0  0  0  0  0  0  0  0
  125.2920  130.9224  160.2242 H   0  0  0  0  0  0  0  0  0  0  0  0
  123.5126  132.2312  161.3080 H   0  0  0  0  0  0  0  0  0  0  0  0
  123.9237  135.6750  162.1597 H   0  0  0  0  0  0  0  0  0  0  0  0
  126.0554  135.6651  161.3451 H   0  0  0  0  0  0  0  0  0  0  0  0
  132.1612  136.3452  159.6178 H   0  0  0  0  0  0  0  0  0  0  0  0
  134.1649  137.7519  165.6133 H   0  0  0  0  0  0  0  0  0  0  0  0
  132.8108  138.2137  167.5843 H   0  0  0  0  0  0  0  0  0  0  0  0
  130.8346  139.6677  167.4429 H   0  0  0  0  0  0  0  0  0  0  0  0
  130.1802  140.6835  165.3282 H   0  0  0  0  0  0  0  0  0  0  0  0
  1  2  1  0
  1 37  1  0
  1 38  1  0
  1 39  1  0
  2 36  2  0
  2  3  1  0
  3  4  2  0
  3 40  1  0
  4  5  1  0
  4 41  1  0
  5  6  1  0
  5 31  2  0
  6  7  1  0
  6 42  1  0
  6 43  1  0
  7  8  1  0
  7 44  1  0
  7 45  1  0
  8  9  1  0
  8 46  1  0
  9 30  1  0
  9 10  2  0
 10 11  1  0
 10 47  1  0
 11 12  2  0
 11 48  1  0
 12 13  1  0
 12 49  1  0
 13 14  1  0
 13 30  2  0
 14 15  1  6
 14 16  1  0
 14 20  1  0
 16 17  1  0
 16 18  1  0
 16 19  1  0
 20 21  2  0
 20 22  1  0
 22 23  1  0
 22 50  1  0
 23 29  1  0
 23 24  2  0
 24 25  1  0
 24 51  1  0
 25 26  2  0
 25 52  1  0
 26 27  1  0
 26 53  1  0
 27 28  1  0
 27 29  2  0
 28 54  1  0
 29 55  1  0
 30 56  1  0
 31 36  1  0
 31 32  1  0
 32 33  2  0
 32 57  1  0
 33 34  1  0
 33 58  1  0
 34 35  2  0
 34 59  1  0
 35 36  1  0
 35 60  1  0
M  CHG  1  16   1
M  END
>  <DOCK_score>  (1) 
-45.490181

>  <SMILES>  (1) 
Cc1ccc(CCNc2cccc([C@@H]([NH3+])C(=O)Nc3cccc(O)c3)c2)c2ccccc12

$$$$
