CC1=CCc2[nH]c3cc(Nc4[nH]cc(C(C)C)[nH+]4)c(Sc4ccccc4)cc3c2C1
     RDKit          3D

 57 61  0  0  1  0  0  0  0  0999 V2000
  128.4480  140.7420  166.8814 C   0  0  0  0  0  0  0  0  0  0  0  0
  128.0584  139.8012  165.7704 C   0  0  0  0  0  0  0  0  0  0  0  0
  126.8268  139.8138  165.3787 C   0  0  0  0  0  0  0  0  0  0  0  0
  126.2583  138.9507  164.2909 C   0  0  0  0  0  0  0  0  0  0  0  0
  127.3780  138.3470  163.4805 C   0  0  0  0  0  0  0  0  0  0  0  0
  127.2853  137.7439  162.2580 N   0  0  0  0  0  0  0  0  0  0  0  0
  126.4647  137.6305  161.7534 H   0  0  0  0  0  0  0  0  0  0  0  0
  128.5338  137.3208  161.8474 C   0  0  0  0  0  0  0  0  0  0  0  0
  128.9884  136.6668  160.7070 C   0  0  0  0  0  0  0  0  0  0  0  0
  130.3302  136.3661  160.5708 C   0  0  0  0  0  0  0  0  0  0  0  0
  130.7825  135.7073  159.4209 N   0  0  0  0  0  0  0  0  0  0  0  0
  130.2875  134.4536  159.1010 C   0  0  0  0  0  0  0  0  0  0  0  0
  130.6422  133.7105  158.0177 N   0  0  0  0  0  0  0  0  0  0  0  0
  131.2825  133.9585  157.3326 H   0  0  0  0  0  0  0  0  0  0  0  0
  129.9235  132.5384  158.0807 C   0  0  0  0  0  0  0  0  0  0  0  0
  129.1570  132.6075  159.1827 C   0  0  0  0  0  0  0  0  0  0  0  0
  128.1975  131.5470  159.6579 C   0  0  0  0  0  0  0  0  0  0  0  0
  128.7050  130.1697  159.2260 C   0  0  0  0  0  0  0  0  0  0  0  0
  128.0961  131.5978  161.1837 C   0  0  0  0  0  0  0  0  0  0  0  0
  129.3967  133.7810  159.7911 N   0  0  0  0  0  0  0  0  0  0  0  0
  128.9770  134.0838  160.6115 H   0  0  0  0  0  0  0  0  0  0  0  0
  131.2396  136.7111  161.5784 C   0  0  0  0  0  0  0  0  0  0  0  0
  132.9465  136.3143  161.3945 S   0  0  0  0  0  0  0  0  0  0  0  0
  133.6005  137.7395  160.5910 C   0  0  0  0  0  0  0  0  0  0  0  0
  133.5127  138.9852  161.2012 C   0  0  0  0  0  0  0  0  0  0  0  0
  134.0317  140.0988  160.5712 C   0  0  0  0  0  0  0  0  0  0  0  0
  134.6279  139.9778  159.3291 C   0  0  0  0  0  0  0  0  0  0  0  0
  134.7116  138.7409  158.7161 C   0  0  0  0  0  0  0  0  0  0  0  0
  134.2003  137.6218  159.3427 C   0  0  0  0  0  0  0  0  0  0  0  0
  130.8034  137.3646  162.7132 C   0  0  0  0  0  0  0  0  0  0  0  0
  129.4474  137.6739  162.8585 C   0  0  0  0  0  0  0  0  0  0  0  0
  128.6605  138.3349  163.8940 C   0  0  0  0  0  0  0  0  0  0  0  0
  129.1290  138.9167  165.1992 C   0  0  0  0  0  0  0  0  0  0  0  0
  128.7702  141.6926  166.4562 H   0  0  0  0  0  0  0  0  0  0  0  0
  127.5912  140.9078  167.5343 H   0  0  0  0  0  0  0  0  0  0  0  0
  129.2646  140.3061  167.4568 H   0  0  0  0  0  0  0  0  0  0  0  0
  126.1542  140.4991  165.8729 H   0  0  0  0  0  0  0  0  0  0  0  0
  125.6262  139.5561  163.6413 H   0  0  0  0  0  0  0  0  0  0  0  0
  125.6619  138.1537  164.7350 H   0  0  0  0  0  0  0  0  0  0  0  0
  128.2923  136.3936  159.9277 H   0  0  0  0  0  0  0  0  0  0  0  0
  131.4423  136.1287  158.8484 H   0  0  0  0  0  0  0  0  0  0  0  0
  129.9659  131.7198  157.3775 H   0  0  0  0  0  0  0  0  0  0  0  0
  127.2144  131.7251  159.2223 H   0  0  0  0  0  0  0  0  0  0  0  0
  128.7773  130.1336  158.1391 H   0  0  0  0  0  0  0  0  0  0  0  0
  128.0108  129.4027  159.5698 H   0  0  0  0  0  0  0  0  0  0  0  0
  129.6882  129.9917  159.6618 H   0  0  0  0  0  0  0  0  0  0  0  0
  129.0792  131.4198  161.6194 H   0  0  0  0  0  0  0  0  0  0  0  0
  127.7345  132.5791  161.4913 H   0  0  0  0  0  0  0  0  0  0  0  0
  127.4020  130.8308  161.5274 H   0  0  0  0  0  0  0  0  0  0  0  0
  133.0430  139.0813  162.1690 H   0  0  0  0  0  0  0  0  0  0  0  0
  133.9682  141.0662  161.0469 H   0  0  0  0  0  0  0  0  0  0  0  0
  135.0288  140.8513  158.8365 H   0  0  0  0  0  0  0  0  0  0  0  0
  135.1778  138.6500  157.7461 H   0  0  0  0  0  0  0  0  0  0  0  0
  134.2659  136.6562  158.8634 H   0  0  0  0  0  0  0  0  0  0  0  0
  131.5064  137.6336  163.4876 H   0  0  0  0  0  0  0  0  0  0  0  0
  129.3450  138.1097  165.8993 H   0  0  0  0  0  0  0  0  0  0  0  0
  130.0324  139.5032  165.0316 H   0  0  0  0  0  0  0  0  0  0  0  0
  1  2  1  0
  1 34  1  0
  1 35  1  0
  1 36  1  0
  2 33  1  0
  2  3  2  0
  3  4  1  0
  3 37  1  0
  4  5  1  0
  4 38  1  0
  4 39  1  0
  5 32  2  0
  5  6  1  0
  6  7  1  0
  6  8  1  0
  8 31  2  0
  8  9  1  0
  9 10  2  0
  9 40  1  0
 10 11  1  0
 10 22  1  0
 11 41  1  0
 12 11  1  0
 12 20  2  0
 12 13  1  0
 13 14  1  0
 13 15  1  0
 15 16  2  0
 15 42  1  0
 16 17  1  0
 16 20  1  0
 17 18  1  0
 17 19  1  0
 17 43  1  0
 18 44  1  0
 18 45  1  0
 18 46  1  0
 19 47  1  0
 19 48  1  0
 19 49  1  0
 20 21  1  0
 22 23  1  0
 22 30  2  0
 23 24  1  0
 24 29  1  0
 24 25  2  0
 25 26  1  0
 25 50  1  0
 26 27  2  0
 26 51  1  0
 27 28  1  0
 27 52  1  0
 28 29  2  0
 28 53  1  0
 29 54  1  0
 30 31  1  0
 30 55  1  0
 31 32  1  0
 32 33  1  0
 33 56  1  0
 33 57  1  0
M  CHG  1  20   1
M  END
>  <DOCK_score>  (1) 
-48.638496

>  <SMILES>  (1) 
CC1=CCc2[nH]c3cc(Nc4[nH]cc(C(C)C)[nH+]4)c(Sc4ccccc4)cc3c2C1

$$$$
