Cc1ccc(C(Nc2[nH]cc(-c3ccc(O)cc3)[nH+]2)c2ccccc2[C@@]2(O)C=CC(=O)C2)cc1
     RDKit          3D

 60 64  0  0  1  0  0  0  0  0999 V2000
  125.0327  133.0024  161.7836 C   0  0  0  0  0  0  0  0  0  0  0  0
  126.3817  133.5670  161.4191 C   0  0  0  0  0  0  0  0  0  0  0  0
  126.5727  134.1579  160.1841 C   0  0  0  0  0  0  0  0  0  0  0  0
  127.8099  134.6763  159.8500 C   0  0  0  0  0  0  0  0  0  0  0  0
  128.8560  134.6033  160.7508 C   0  0  0  0  0  0  0  0  0  0  0  0
  130.2048  135.1682  160.3863 C   0  0  1  0  0  0  0  0  0  0  0  0
  130.3992  135.0718  158.9374 N   0  0  0  0  0  0  0  0  0  0  0  0
  130.3758  133.8346  158.3165 C   0  0  0  0  0  0  0  0  0  0  0  0
  130.1856  132.6392  158.9383 N   0  0  0  0  0  0  0  0  0  0  0  0
  130.0426  132.5018  159.8879 H   0  0  0  0  0  0  0  0  0  0  0  0
  130.2273  131.6631  157.9715 C   0  0  0  0  0  0  0  0  0  0  0  0
  130.4468  132.2897  156.7893 C   0  0  0  0  0  0  0  0  0  0  0  0
  130.5674  131.6351  155.4635 C   0  0  0  0  0  0  0  0  0  0  0  0
  130.1710  132.3124  154.3116 C   0  0  0  0  0  0  0  0  0  0  0  0
  130.2882  131.7027  153.0798 C   0  0  0  0  0  0  0  0  0  0  0  0
  130.7911  130.4121  152.9878 C   0  0  0  0  0  0  0  0  0  0  0  0
  130.9011  129.8122  151.7732 O   0  0  0  0  0  0  0  0  0  0  0  0
  131.1823  129.7331  154.1336 C   0  0  0  0  0  0  0  0  0  0  0  0
  131.0719  130.3392  155.3676 C   0  0  0  0  0  0  0  0  0  0  0  0
  130.5366  133.6212  157.0333 N   0  0  0  0  0  0  0  0  0  0  0  0
  130.6917  134.3063  156.3644 H   0  0  0  0  0  0  0  0  0  0  0  0
  130.2749  136.6133  160.8074 C   0  0  0  0  0  0  0  0  0  0  0  0
  129.1258  137.3818  160.8352 C   0  0  0  0  0  0  0  0  0  0  0  0
  129.1901  138.7073  161.2215 C   0  0  0  0  0  0  0  0  0  0  0  0
  130.4031  139.2645  161.5811 C   0  0  0  0  0  0  0  0  0  0  0  0
  131.5518  138.4961  161.5540 C   0  0  0  0  0  0  0  0  0  0  0  0
  131.4867  137.1691  161.1716 C   0  0  0  0  0  0  0  0  0  0  0  0
  132.7382  136.3298  161.1475 C   0  0  1  0  0  0  0  0  0  0  0  0
  132.6560  135.3508  160.1098 O   0  0  0  0  0  0  0  0  0  0  0  0
  133.9493  137.2053  160.9435 C   0  0  0  0  0  0  0  0  0  0  0  0
  134.7749  137.1038  161.9754 C   0  0  0  0  0  0  0  0  0  0  0  0
  134.2767  136.1860  162.9939 C   0  0  0  0  0  0  0  0  0  0  0  0
  134.8276  135.9060  164.0382 O   0  0  0  0  0  0  0  0  0  0  0  0
  132.9463  135.6452  162.5098 C   0  0  0  0  0  0  0  0  0  0  0  0
  128.6663  134.0075  161.9835 C   0  0  0  0  0  0  0  0  0  0  0  0
  127.4278  133.4937  162.3196 C   0  0  0  0  0  0  0  0  0  0  0  0
  124.9822  131.9571  161.4790 H   0  0  0  0  0  0  0  0  0  0  0  0
  124.8880  133.0741  162.8615 H   0  0  0  0  0  0  0  0  0  0  0  0
  124.2525  133.5676  161.2737 H   0  0  0  0  0  0  0  0  0  0  0  0
  125.7555  134.2149  159.4805 H   0  0  0  0  0  0  0  0  0  0  0  0
  127.9593  135.1380  158.8852 H   0  0  0  0  0  0  0  0  0  0  0  0
  130.9851  134.6029  160.8958 H   0  0  0  0  0  0  0  0  0  0  0  0
  130.5444  135.8749  158.4131 H   0  0  0  0  0  0  0  0  0  0  0  0
  130.1079  130.6007  158.1241 H   0  0  0  0  0  0  0  0  0  0  0  0
  129.7758  133.3149  154.3829 H   0  0  0  0  0  0  0  0  0  0  0  0
  129.9848  132.2283  152.1866 H   0  0  0  0  0  0  0  0  0  0  0  0
  130.6048  130.3618  151.0347 H   0  0  0  0  0  0  0  0  0  0  0  0
  131.5730  128.7291  154.0587 H   0  0  0  0  0  0  0  0  0  0  0  0
  131.3763  129.8105  156.2588 H   0  0  0  0  0  0  0  0  0  0  0  0
  128.1781  136.9463  160.5545 H   0  0  0  0  0  0  0  0  0  0  0  0
  128.2926  139.3076  161.2427 H   0  0  0  0  0  0  0  0  0  0  0  0
  130.4534  140.3002  161.8830 H   0  0  0  0  0  0  0  0  0  0  0  0
  132.4994  138.9315  161.8345 H   0  0  0  0  0  0  0  0  0  0  0  0
  132.5539  135.7244  159.2237 H   0  0  0  0  0  0  0  0  0  0  0  0
  134.1197  137.8284  160.0780 H   0  0  0  0  0  0  0  0  0  0  0  0
  135.7095  137.6394  162.0531 H   0  0  0  0  0  0  0  0  0  0  0  0
  132.1485  135.9189  163.2002 H   0  0  0  0  0  0  0  0  0  0  0  0
  132.9938  134.5628  162.3898 H   0  0  0  0  0  0  0  0  0  0  0  0
  129.4848  133.9466  162.6855 H   0  0  0  0  0  0  0  0  0  0  0  0
  127.2786  133.0318  163.2844 H   0  0  0  0  0  0  0  0  0  0  0  0
  1  2  1  0
  1 37  1  0
  1 38  1  0
  1 39  1  0
  2 36  2  0
  2  3  1  0
  3  4  2  0
  3 40  1  0
  4  5  1  0
  4 41  1  0
  5  6  1  0
  5 35  2  0
  6  7  1  0
  6 22  1  0
  6 42  1  1
  7 43  1  0
  8  7  1  0
  8 20  2  0
  8  9  1  0
  9 10  1  0
  9 11  1  0
 11 12  2  0
 11 44  1  0
 12 13  1  0
 12 20  1  0
 13 19  1  0
 13 14  2  0
 14 15  1  0
 14 45  1  0
 15 16  2  0
 15 46  1  0
 16 17  1  0
 16 18  1  0
 17 47  1  0
 18 19  2  0
 18 48  1  0
 19 49  1  0
 20 21  1  0
 22 27  1  0
 22 23  2  0
 23 24  1  0
 23 50  1  0
 24 25  2  0
 24 51  1  0
 25 26  1  0
 25 52  1  0
 26 27  2  0
 26 53  1  0
 27 28  1  0
 28 34  1  0
 28 29  1  6
 28 30  1  0
 29 54  1  0
 30 31  2  0
 30 55  1  0
 31 32  1  0
 31 56  1  0
 32 33  2  0
 32 34  1  0
 34 57  1  0
 34 58  1  0
 35 36  1  0
 35 59  1  0
 36 60  1  0
M  CHG  1  20   1
M  END
>  <DOCK_score>  (1) 
-60.281662

>  <SMILES>  (1) 
Cc1ccc(C(Nc2[nH]cc(-c3ccc(O)cc3)[nH+]2)c2ccccc2[C@@]2(O)C=CC(=O)C2)cc1

$$$$
