Cc1ccccc1-n1cc(CNc2[nH]cc(-c3ccc(N)cc3)[nH+]2)c(-c2ccccc2)n1
     RDKit          3D

 57 61  0  0  1  0  0  0  0  0999 V2000
  132.3387  140.0408  163.2930 C   0  0  0  0  0  0  0  0  0  0  0  0
  133.4398  139.7769  162.2984 C   0  0  0  0  0  0  0  0  0  0  0  0
  134.4814  140.6744  162.1656 C   0  0  0  0  0  0  0  0  0  0  0  0
  135.4886  140.4361  161.2490 C   0  0  0  0  0  0  0  0  0  0  0  0
  135.4600  139.2959  160.4668 C   0  0  0  0  0  0  0  0  0  0  0  0
  134.4244  138.3920  160.5987 C   0  0  0  0  0  0  0  0  0  0  0  0
  133.4109  138.6289  161.5182 C   0  0  0  0  0  0  0  0  0  0  0  0
  132.3584  137.7139  161.6541 N   0  0  0  0  0  0  0  0  0  0  0  0
  131.8637  136.9145  160.6732 C   0  0  0  0  0  0  0  0  0  0  0  0
  130.8629  136.1788  161.2038 C   0  0  0  0  0  0  0  0  0  0  0  0
  130.0335  135.1531  160.4750 C   0  0  0  0  0  0  0  0  0  0  0  0
  130.4775  135.0669  159.0815 N   0  0  0  0  0  0  0  0  0  0  0  0
  130.3636  133.8721  158.3914 C   0  0  0  0  0  0  0  0  0  0  0  0
  129.8642  132.7106  158.8946 N   0  0  0  0  0  0  0  0  0  0  0  0
  129.5270  132.5718  159.7935 H   0  0  0  0  0  0  0  0  0  0  0  0
  129.9228  131.7712  157.8925 C   0  0  0  0  0  0  0  0  0  0  0  0
  130.4642  132.3835  156.8107 C   0  0  0  0  0  0  0  0  0  0  0  0
  130.7256  131.7559  155.4921 C   0  0  0  0  0  0  0  0  0  0  0  0
  130.6736  132.5248  154.3305 C   0  0  0  0  0  0  0  0  0  0  0  0
  130.9225  131.9406  153.1065 C   0  0  0  0  0  0  0  0  0  0  0  0
  131.2135  130.5840  153.0292 C   0  0  0  0  0  0  0  0  0  0  0  0
  131.4593  129.9933  151.7874 N   0  0  0  0  0  0  0  0  0  0  0  0
  131.2605  129.8139  154.1857 C   0  0  0  0  0  0  0  0  0  0  0  0
  131.0179  130.3953  155.4124 C   0  0  0  0  0  0  0  0  0  0  0  0
  130.7242  133.6718  157.1471 N   0  0  0  0  0  0  0  0  0  0  0  0
  131.1149  134.3383  156.5606 H   0  0  0  0  0  0  0  0  0  0  0  0
  130.7311  136.5405  162.5592 C   0  0  0  0  0  0  0  0  0  0  0  0
  129.7511  135.9768  163.5201 C   0  0  0  0  0  0  0  0  0  0  0  0
  128.8265  136.8104  164.1460 C   0  0  0  0  0  0  0  0  0  0  0  0
  127.9136  136.2800  165.0349 C   0  0  0  0  0  0  0  0  0  0  0  0
  127.9230  134.9251  165.3136 C   0  0  0  0  0  0  0  0  0  0  0  0
  128.8420  134.0936  164.6992 C   0  0  0  0  0  0  0  0  0  0  0  0
  129.7556  134.6127  163.8042 C   0  0  0  0  0  0  0  0  0  0  0  0
  131.6297  137.4654  162.8243 N   0  0  0  0  0  0  0  0  0  0  0  0
  132.5596  139.5217  164.2257 H   0  0  0  0  0  0  0  0  0  0  0  0
  132.2684  141.1121  163.4813 H   0  0  0  0  0  0  0  0  0  0  0  0
  131.3921  139.6796  162.8914 H   0  0  0  0  0  0  0  0  0  0  0  0
  134.5065  141.5657  162.7753 H   0  0  0  0  0  0  0  0  0  0  0  0
  136.2997  141.1414  161.1440 H   0  0  0  0  0  0  0  0  0  0  0  0
  136.2486  139.1121  159.7520 H   0  0  0  0  0  0  0  0  0  0  0  0
  134.4027  137.5017  159.9877 H   0  0  0  0  0  0  0  0  0  0  0  0
  132.2118  136.8717  159.6518 H   0  0  0  0  0  0  0  0  0  0  0  0
  130.1528  134.1818  160.9551 H   0  0  0  0  0  0  0  0  0  0  0  0
  128.9842  135.4466  160.5045 H   0  0  0  0  0  0  0  0  0  0  0  0
  130.8513  135.8469  158.6425 H   0  0  0  0  0  0  0  0  0  0  0  0
  129.6036  130.7415  157.9565 H   0  0  0  0  0  0  0  0  0  0  0  0
  130.4425  133.5781  154.3894 H   0  0  0  0  0  0  0  0  0  0  0  0
  130.8868  132.5367  152.2068 H   0  0  0  0  0  0  0  0  0  0  0  0
  131.6624  129.0456  151.7330 H   0  0  0  0  0  0  0  0  0  0  0  0
  131.4263  130.5289  150.9802 H   0  0  0  0  0  0  0  0  0  0  0  0
  131.4870  128.7598  154.1235 H   0  0  0  0  0  0  0  0  0  0  0  0
  131.0547  129.7969  156.3107 H   0  0  0  0  0  0  0  0  0  0  0  0
  128.8216  137.8692  163.9328 H   0  0  0  0  0  0  0  0  0  0  0  0
  127.1938  136.9245  165.5172 H   0  0  0  0  0  0  0  0  0  0  0  0
  127.2098  134.5149  166.0134 H   0  0  0  0  0  0  0  0  0  0  0  0
  128.8444  133.0364  164.9200 H   0  0  0  0  0  0  0  0  0  0  0  0
  130.4725  133.9625  163.3248 H   0  0  0  0  0  0  0  0  0  0  0  0
  1  2  1  0
  1 35  1  0
  1 36  1  0
  1 37  1  0
  2  7  2  0
  2  3  1  0
  3  4  2  0
  3 38  1  0
  4  5  1  0
  4 39  1  0
  5  6  2  0
  5 40  1  0
  6  7  1  0
  6 41  1  0
  7  8  1  0
  8 34  1  0
  8  9  1  0
  9 10  2  0
  9 42  1  0
 10 11  1  0
 10 27  1  0
 11 12  1  0
 11 43  1  0
 11 44  1  0
 12 45  1  0
 13 12  1  0
 13 25  2  0
 13 14  1  0
 14 15  1  0
 14 16  1  0
 16 17  2  0
 16 46  1  0
 17 18  1  0
 17 25  1  0
 18 24  1  0
 18 19  2  0
 19 20  1  0
 19 47  1  0
 20 21  2  0
 20 48  1  0
 21 22  1  0
 21 23  1  0
 22 49  1  0
 22 50  1  0
 23 24  2  0
 23 51  1  0
 24 52  1  0
 25 26  1  0
 27 28  1  0
 27 34  2  0
 28 33  1  0
 28 29  2  0
 29 30  1  0
 29 53  1  0
 30 31  2  0
 30 54  1  0
 31 32  1  0
 31 55  1  0
 32 33  2  0
 32 56  1  0
 33 57  1  0
M  CHG  1  25   1
M  END
>  <DOCK_score>  (1) 
-60.914917

>  <SMILES>  (1) 
Cc1ccccc1-n1cc(CNc2[nH]cc(-c3ccc(N)cc3)[nH+]2)c(-c2ccccc2)n1

$$$$
