O=C1CCC(NC(NC2Cc3ccccc3C2)=[NH+][C@@H]2Cc3ccc(Cl)cc3C2)CN1
     RDKit          3D

 58 62  0  0  1  0  0  0  0  0999 V2000
  123.9473  133.4961  161.2807 O   0  0  0  0  0  0  0  0  0  0  0  0
  125.0795  133.8514  161.0303 C   0  0  0  0  0  0  0  0  0  0  0  0
  125.9989  132.8734  160.3572 C   0  0  0  0  0  0  0  0  0  0  0  0
  127.4518  133.3262  160.5218 C   0  0  0  0  0  0  0  0  0  0  0  0
  127.5447  134.8072  160.1352 C   0  0  2  0  0  0  0  0  0  0  0  0
  128.9493  135.2229  160.1156 N   0  0  0  0  0  0  0  0  0  0  0  0
  129.8376  134.6042  159.2682 C   0  0  0  0  0  0  0  0  0  0  0  0
  129.4004  134.0893  158.0707 N   0  0  0  0  0  0  0  0  0  0  0  0
  130.3469  133.4299  157.1676 C   0  0  0  0  0  0  0  0  0  0  0  0
  129.8230  133.4471  155.7159 C   0  0  0  0  0  0  0  0  0  0  0  0
  130.2754  132.1331  155.1160 C   0  0  0  0  0  0  0  0  0  0  0  0
  130.3722  131.7370  153.7924 C   0  0  0  0  0  0  0  0  0  0  0  0
  130.8171  130.4681  153.4775 C   0  0  0  0  0  0  0  0  0  0  0  0
  131.1676  129.5898  154.4860 C   0  0  0  0  0  0  0  0  0  0  0  0
  131.0730  129.9834  155.8064 C   0  0  0  0  0  0  0  0  0  0  0  0
  130.6258  131.2551  156.1243 C   0  0  0  0  0  0  0  0  0  0  0  0
  130.4330  131.9190  157.4708 C   0  0  0  0  0  0  0  0  0  0  0  0
  131.0942  134.5055  159.6002 N   0  0  0  0  0  0  0  0  0  0  0  0
  131.7209  134.0690  159.0023 H   0  0  0  0  0  0  0  0  0  0  0  0
  131.5599  135.0540  160.8763 C   0  0  2  0  0  0  0  0  0  0  0  0
  130.7670  135.0197  161.6233 H   0  0  0  0  0  0  0  0  0  0  0  0
  132.0823  136.4951  160.6962 C   0  0  0  0  0  0  0  0  0  0  0  0
  133.2445  136.6185  161.6582 C   0  0  0  0  0  0  0  0  0  0  0  0
  133.8818  137.7430  162.1559 C   0  0  0  0  0  0  0  0  0  0  0  0
  134.9369  137.6115  163.0368 C   0  0  0  0  0  0  0  0  0  0  0  0
  135.3598  136.3522  163.4242 C   0  0  0  0  0  0  0  0  0  0  0  0
  136.6863  136.1830  164.5311 Cl  0  0  0  0  0  0  0  0  0  0  0  0
  134.7246  135.2292  162.9283 C   0  0  0  0  0  0  0  0  0  0  0  0
  133.6664  135.3603  162.0449 C   0  0  0  0  0  0  0  0  0  0  0  0
  132.8166  134.3055  161.3692 C   0  0  0  0  0  0  0  0  0  0  0  0
  126.7797  135.6324  161.1707 C   0  0  0  0  0  0  0  0  0  0  0  0
  125.4415  135.0897  161.3681 N   0  0  0  0  0  0  0  0  0  0  0  0
  125.7549  132.8182  159.2962 H   0  0  0  0  0  0  0  0  0  0  0  0
  125.8728  131.8896  160.8093 H   0  0  0  0  0  0  0  0  0  0  0  0
  128.0963  132.7357  159.8705 H   0  0  0  0  0  0  0  0  0  0  0  0
  127.7615  133.1976  161.5590 H   0  0  0  0  0  0  0  0  0  0  0  0
  127.1030  134.9563  159.1499 H   0  0  0  0  0  0  0  0  0  0  0  0
  129.2526  135.9348  160.7006 H   0  0  0  0  0  0  0  0  0  0  0  0
  128.4651  134.1626  157.8238 H   0  0  0  0  0  0  0  0  0  0  0  0
  131.3306  133.8950  157.2332 H   0  0  0  0  0  0  0  0  0  0  0  0
  128.7349  133.5122  155.7074 H   0  0  0  0  0  0  0  0  0  0  0  0
  130.2570  134.2829  155.1671 H   0  0  0  0  0  0  0  0  0  0  0  0
  130.0986  132.4225  153.0040 H   0  0  0  0  0  0  0  0  0  0  0  0
  130.8914  130.1622  152.4444 H   0  0  0  0  0  0  0  0  0  0  0  0
  131.5150  128.5968  154.2416 H   0  0  0  0  0  0  0  0  0  0  0  0
  131.3472  129.2969  156.5938 H   0  0  0  0  0  0  0  0  0  0  0  0
  131.2834  131.7115  158.1202 H   0  0  0  0  0  0  0  0  0  0  0  0
  129.5098  131.5734  157.9359 H   0  0  0  0  0  0  0  0  0  0  0  0
  132.4212  136.6493  159.6719 H   0  0  0  0  0  0  0  0  0  0  0  0
  131.3033  137.2141  160.9499 H   0  0  0  0  0  0  0  0  0  0  0  0
  133.5520  138.7262  161.8543 H   0  0  0  0  0  0  0  0  0  0  0  0
  135.4315  138.4904  163.4232 H   0  0  0  0  0  0  0  0  0  0  0  0
  135.0548  134.2463  163.2309 H   0  0  0  0  0  0  0  0  0  0  0  0
  132.5392  133.5293  162.0825 H   0  0  0  0  0  0  0  0  0  0  0  0
  133.3530  133.8707  160.5258 H   0  0  0  0  0  0  0  0  0  0  0  0
  127.3198  135.6127  162.1173 H   0  0  0  0  0  0  0  0  0  0  0  0
  126.7031  136.6632  160.8246 H   0  0  0  0  0  0  0  0  0  0  0  0
  124.7723  135.6652  161.7702 H   0  0  0  0  0  0  0  0  0  0  0  0
  1  2  2  0
  2 32  1  0
  2  3  1  0
  3  4  1  0
  3 33  1  0
  3 34  1  0
  4  5  1  0
  4 35  1  0
  4 36  1  0
  5  6  1  0
  5 31  1  0
  5 37  1  6
  6 38  1  0
  7  6  1  0
  7  8  1  0
  7 18  2  0
  8  9  1  0
  8 39  1  0
  9 17  1  0
  9 10  1  0
  9 40  1  0
 10 11  1  0
 10 41  1  0
 10 42  1  0
 11 16  2  0
 11 12  1  0
 12 13  2  0
 12 43  1  0
 13 14  1  0
 13 44  1  0
 14 15  2  0
 14 45  1  0
 15 16  1  0
 15 46  1  0
 16 17  1  0
 17 47  1  0
 17 48  1  0
 18 19  1  0
 18 20  1  0
 20 21  1  1
 20 30  1  0
 20 22  1  0
 22 23  1  0
 22 49  1  0
 22 50  1  0
 23 29  2  0
 23 24  1  0
 24 25  2  0
 24 51  1  0
 25 26  1  0
 25 52  1  0
 26 27  1  0
 26 28  2  0
 28 29  1  0
 28 53  1  0
 29 30  1  0
 30 54  1  0
 30 55  1  0
 31 32  1  0
 31 56  1  0
 31 57  1  0
 32 58  1  0
M  CHG  1  18   1
M  END
>  <DOCK_score>  (1) 
-47.314419

>  <SMILES>  (1) 
O=C1CCC(NC(NC2Cc3ccccc3C2)=[NH+][C@@H]2Cc3ccc(Cl)cc3C2)CN1

$$$$
