
     RDKit          2D

 33 37  0  0  0  0  0  0  0  0999 V2000
  -11.6913   -6.3107    0.0000 C   0  0  0  0  0  0  0  0  0  0  0  0
  -10.3923   -5.5607    0.0000 C   0  0  0  0  0  0  0  0  0  0  0  0
   -9.0933   -6.3107    0.0000 N   0  0  0  0  0  0  0  0  0  0  0  0
   -7.7942   -5.5607    0.0000 C   0  0  0  0  0  0  0  0  0  0  0  0
   -6.4952   -6.3107    0.0000 C   0  0  0  0  0  0  0  0  0  0  0  0
   -5.1962   -5.5607    0.0000 C   0  0  0  0  0  0  0  0  0  0  0  0
   -5.1962   -4.0607    0.0000 C   0  0  0  0  0  0  0  0  0  0  0  0
   -3.8971   -3.3107    0.0000 C   0  0  0  0  0  0  0  0  0  0  0  0
   -3.8971   -1.8107    0.0000 O   0  0  0  0  0  0  0  0  0  0  0  0
   -2.5981   -4.0607    0.0000 N   0  0  0  0  0  0  0  0  0  0  0  0
   -1.2990   -3.3107    0.0000 C   0  0  0  0  0  0  0  0  0  0  0  0
   -0.0000   -4.0607    0.0000 C   0  0  0  0  0  0  0  0  0  0  0  0
    1.2990   -3.3107    0.0000 C   0  0  0  0  0  0  0  0  0  0  0  0
    1.2990   -1.8107    0.0000 N   0  0  0  0  0  0  0  0  0  0  0  0
   -0.0000   -1.0607    0.0000 C   0  0  0  0  0  0  0  0  0  0  0  0
    1.0607    0.0000    0.0000 C   0  0  0  0  0  0  0  0  0  0  0  0
    0.0000    1.0607    0.0000 C   0  0  0  0  0  0  0  0  0  0  0  0
   -1.0607    0.0000    0.0000 C   0  0  0  0  0  0  0  0  0  0  0  0
   -1.2990   -1.8107    0.0000 C   0  0  0  0  0  0  0  0  0  0  0  0
   -6.4952   -3.3107    0.0000 C   0  0  0  0  0  0  0  0  0  0  0  0
   -7.7942   -4.0607    0.0000 C   0  0  0  0  0  0  0  0  0  0  0  0
  -10.3923   -4.0607    0.0000 C   0  0  0  0  0  0  0  0  0  0  0  0
   -9.0933   -3.3107    0.0000 C   0  0  0  0  0  0  0  0  0  0  0  0
   -9.0933   -1.8107    0.0000 C   0  0  0  0  0  0  0  0  0  0  0  0
  -10.3923   -1.0607    0.0000 C   0  0  0  0  0  0  0  0  0  0  0  0
  -10.3923    0.4393    0.0000 C   0  0  0  0  0  0  0  0  0  0  0  0
   -9.0933    1.1893    0.0000 C   0  0  0  0  0  0  0  0  0  0  0  0
   -9.0933    2.6893    0.0000 C   0  0  0  0  0  0  0  0  0  0  0  0
  -10.3923    3.4393    0.0000 C   0  0  0  0  0  0  0  0  0  0  0  0
  -11.6913    2.6893    0.0000 C   0  0  0  0  0  0  0  0  0  0  0  0
  -11.6913    1.1893    0.0000 C   0  0  0  0  0  0  0  0  0  0  0  0
  -11.6913   -1.8107    0.0000 C   0  0  0  0  0  0  0  0  0  0  0  0
  -11.6913   -3.3107    0.0000 C   0  0  0  0  0  0  0  0  0  0  0  0
  1  2  1  0
  2  3  1  0
  3  4  1  0
  4  5  2  0
  5  6  1  0
  6  7  2  0
  7  8  1  0
  8  9  2  0
  8 10  1  0
 10 11  1  0
 11 12  1  0
 12 13  1  0
 13 14  1  0
 14 15  1  0
 15 16  1  0
 16 17  1  0
 17 18  1  0
 15 19  1  0
  7 20  1  0
 20 21  2  0
  2 22  1  0
 22 23  2  0
 23 24  1  0
 24 25  2  0
 25 26  1  0
 26 27  2  0
 27 28  1  0
 28 29  2  0
 29 30  1  0
 30 31  2  0
 25 32  1  0
 32 33  2  0
 21  4  1  0
 33 22  1  0
 19 11  1  0
 31 26  1  0
 18 15  1  0
M  END
$$$$
