Cc1[nH]c(Br)nc1S[C@@H](CNc1[nH]cc(-c2ccccc2)[nH+]1)SC1=CCCCC1
     RDKit          3D

 54 57  0  0  1  0  0  0  0  0999 V2000
  130.7071  132.0779  154.6573 C   0  0  0  0  0  0  0  0  0  0  0  0
  130.4228  131.6612  156.0773 C   0  0  0  0  0  0  0  0  0  0  0  0
  130.6969  130.4384  156.6450 N   0  0  0  0  0  0  0  0  0  0  0  0
  131.1115  129.6796  156.2054 H   0  0  0  0  0  0  0  0  0  0  0  0
  130.2815  130.4920  157.9283 C   0  0  0  0  0  0  0  0  0  0  0  0
  130.4095  129.0854  159.1857 Br  0  0  0  0  0  0  0  0  0  0  0  0
  129.7759  131.6744  158.1593 N   0  0  0  0  0  0  0  0  0  0  0  0
  129.8484  132.4162  157.0407 C   0  0  0  0  0  0  0  0  0  0  0  0
  129.2871  134.0766  156.8596 S   0  0  0  0  0  0  0  0  0  0  0  0
  128.6381  134.4699  158.5073 C   0  0  1  0  0  0  0  0  0  0  0  0
  127.8316  133.7797  158.7543 H   0  0  0  0  0  0  0  0  0  0  0  0
  129.7579  134.3371  159.5414 C   0  0  0  0  0  0  0  0  0  0  0  0
  130.8419  135.2648  159.2093 N   0  0  0  0  0  0  0  0  0  0  0  0
  131.6287  135.7986  160.2156 C   0  0  0  0  0  0  0  0  0  0  0  0
  131.4934  135.5462  161.5459 N   0  0  0  0  0  0  0  0  0  0  0  0
  130.8342  134.9648  161.9562 H   0  0  0  0  0  0  0  0  0  0  0  0
  132.4647  136.2642  162.2004 C   0  0  0  0  0  0  0  0  0  0  0  0
  133.1596  136.9408  161.2527 C   0  0  0  0  0  0  0  0  0  0  0  0
  134.3040  137.8531  161.4941 C   0  0  0  0  0  0  0  0  0  0  0  0
  134.2293  139.1881  161.1004 C   0  0  0  0  0  0  0  0  0  0  0  0
  135.2947  140.0340  161.3332 C   0  0  0  0  0  0  0  0  0  0  0  0
  136.4398  139.5561  161.9448 C   0  0  0  0  0  0  0  0  0  0  0  0
  136.5215  138.2309  162.3325 C   0  0  0  0  0  0  0  0  0  0  0  0
  135.4599  137.3774  162.1103 C   0  0  0  0  0  0  0  0  0  0  0  0
  132.6234  136.6349  160.0444 N   0  0  0  0  0  0  0  0  0  0  0  0
  132.9276  136.9800  159.1904 H   0  0  0  0  0  0  0  0  0  0  0  0
  128.0040  136.1695  158.5175 S   0  0  0  0  0  0  0  0  0  0  0  0
  127.9819  136.5739  160.2323 C   0  0  0  0  0  0  0  0  0  0  0  0
  128.7020  137.5871  160.6335 C   0  0  0  0  0  0  0  0  0  0  0  0
  128.7876  138.0404  162.0618 C   0  0  0  0  0  0  0  0  0  0  0  0
  127.6287  137.4539  162.8709 C   0  0  0  0  0  0  0  0  0  0  0  0
  127.5607  135.9458  162.5996 C   0  0  0  0  0  0  0  0  0  0  0  0
  127.1320  135.7375  161.1436 C   0  0  0  0  0  0  0  0  0  0  0  0
  131.7022  132.5191  154.6004 H   0  0  0  0  0  0  0  0  0  0  0  0
  130.6587  131.2052  154.0058 H   0  0  0  0  0  0  0  0  0  0  0  0
  129.9660  132.8108  154.3384 H   0  0  0  0  0  0  0  0  0  0  0  0
  129.3679  134.5735  160.5315 H   0  0  0  0  0  0  0  0  0  0  0  0
  130.1389  133.3159  159.5354 H   0  0  0  0  0  0  0  0  0  0  0  0
  131.0084  135.5051  158.2845 H   0  0  0  0  0  0  0  0  0  0  0  0
  132.6385  136.2888  163.2661 H   0  0  0  0  0  0  0  0  0  0  0  0
  133.3377  139.5610  160.6183 H   0  0  0  0  0  0  0  0  0  0  0  0
  135.2361  141.0698  161.0332 H   0  0  0  0  0  0  0  0  0  0  0  0
  137.2729  140.2205  162.1207 H   0  0  0  0  0  0  0  0  0  0  0  0
  137.4177  137.8632  162.8103 H   0  0  0  0  0  0  0  0  0  0  0  0
  135.5247  136.3429  162.4138 H   0  0  0  0  0  0  0  0  0  0  0  0
  129.2698  138.1312  159.8934 H   0  0  0  0  0  0  0  0  0  0  0  0
  129.7327  137.7076  162.4907 H   0  0  0  0  0  0  0  0  0  0  0  0
  128.7396  139.1288  162.0988 H   0  0  0  0  0  0  0  0  0  0  0  0
  127.7991  137.6276  163.9334 H   0  0  0  0  0  0  0  0  0  0  0  0
  126.6943  137.9262  162.5677 H   0  0  0  0  0  0  0  0  0  0  0  0
  128.5414  135.4995  162.7643 H   0  0  0  0  0  0  0  0  0  0  0  0
  126.8295  135.4866  163.2647 H   0  0  0  0  0  0  0  0  0  0  0  0
  126.0868  136.0236  161.0266 H   0  0  0  0  0  0  0  0  0  0  0  0
  127.2481  134.6859  160.8817 H   0  0  0  0  0  0  0  0  0  0  0  0
  1  2  1  0
  1 34  1  0
  1 35  1  0
  1 36  1  0
  2  8  2  0
  2  3  1  0
  3  4  1  0
  3  5  1  0
  5  6  1  0
  5  7  2  0
  7  8  1  0
  8  9  1  0
  9 10  1  0
 10 11  1  1
 10 12  1  0
 10 27  1  0
 12 13  1  0
 12 37  1  0
 12 38  1  0
 13 39  1  0
 14 13  1  0
 14 25  2  0
 14 15  1  0
 15 16  1  0
 15 17  1  0
 17 18  2  0
 17 40  1  0
 18 19  1  0
 18 25  1  0
 19 24  1  0
 19 20  2  0
 20 21  1  0
 20 41  1  0
 21 22  2  0
 21 42  1  0
 22 23  1  0
 22 43  1  0
 23 24  2  0
 23 44  1  0
 24 45  1  0
 25 26  1  0
 27 28  1  0
 28 33  1  0
 28 29  2  0
 29 30  1  0
 29 46  1  0
 30 31  1  0
 30 47  1  0
 30 48  1  0
 31 32  1  0
 31 49  1  0
 31 50  1  0
 32 33  1  0
 32 51  1  0
 32 52  1  0
 33 53  1  0
 33 54  1  0
M  CHG  1  25   1
M  END
>  <DOCK_score>  (1) 
-57.263073

>  <SMILES>  (1) 
Cc1[nH]c(Br)nc1S[C@@H](CNc1[nH]cc(-c2ccccc2)[nH+]1)SC1=CCCCC1

$$$$
