CCc1ccc(-c2c[nH]c(N[C@@H](C3=CCN(c4nc(C)c(C)o4)CC3)c3ccnn3C)[nH+]2)cc1
     RDKit          3D

 66 70  0  0  1  0  0  0  0  0999 V2000
  139.5039  134.1930  163.9191 C   0  0  0  0  0  0  0  0  0  0  0  0
  138.6853  135.2690  164.6352 C   0  0  0  0  0  0  0  0  0  0  0  0
  137.3487  135.4188  163.9554 C   0  0  0  0  0  0  0  0  0  0  0  0
  136.2748  134.6519  164.3707 C   0  0  0  0  0  0  0  0  0  0  0  0
  135.0472  134.7882  163.7551 C   0  0  0  0  0  0  0  0  0  0  0  0
  134.8932  135.6929  162.7061 C   0  0  0  0  0  0  0  0  0  0  0  0
  133.5777  135.8402  162.0371 C   0  0  0  0  0  0  0  0  0  0  0  0
  133.3756  136.1800  160.7399 C   0  0  0  0  0  0  0  0  0  0  0  0
  132.0166  136.2007  160.5403 N   0  0  0  0  0  0  0  0  0  0  0  0
  131.5610  136.4106  159.7101 H   0  0  0  0  0  0  0  0  0  0  0  0
  131.4274  135.8727  161.7225 C   0  0  0  0  0  0  0  0  0  0  0  0
  130.0643  135.7816  161.9461 N   0  0  0  0  0  0  0  0  0  0  0  0
  129.1236  136.0498  160.8556 C   0  0  1  0  0  0  0  0  0  0  0  0
  129.2639  137.0694  160.4970 H   0  0  0  0  0  0  0  0  0  0  0  0
  129.3730  135.0819  159.7277 C   0  0  0  0  0  0  0  0  0  0  0  0
  129.1172  135.4644  158.5137 C   0  0  0  0  0  0  0  0  0  0  0  0
  129.3184  134.5854  157.3132 C   0  0  0  0  0  0  0  0  0  0  0  0
  130.1909  133.4539  157.6515 N   0  0  0  0  0  0  0  0  0  0  0  0
  130.2844  132.5678  156.5955 C   0  0  0  0  0  0  0  0  0  0  0  0
  130.9857  131.4609  156.5855 N   0  0  0  0  0  0  0  0  0  0  0  0
  130.8305  130.8644  155.3874 C   0  0  0  0  0  0  0  0  0  0  0  0
  131.4633  129.5678  154.9524 C   0  0  0  0  0  0  0  0  0  0  0  0
  130.0127  131.6308  154.6512 C   0  0  0  0  0  0  0  0  0  0  0  0
  129.5580  131.3544  153.2412 C   0  0  0  0  0  0  0  0  0  0  0  0
  129.6674  132.6938  155.4103 O   0  0  0  0  0  0  0  0  0  0  0  0
  129.7011  132.7790  158.8649 C   0  0  0  0  0  0  0  0  0  0  0  0
  129.9126  133.7182  160.0572 C   0  0  0  0  0  0  0  0  0  0  0  0
  127.7123  135.8835  161.3573 C   0  0  0  0  0  0  0  0  0  0  0  0
  126.7952  135.0084  160.8839 C   0  0  0  0  0  0  0  0  0  0  0  0
  125.6195  135.1751  161.6231 C   0  0  0  0  0  0  0  0  0  0  0  0
  125.8210  136.1219  162.5033 N   0  0  0  0  0  0  0  0  0  0  0  0
  127.1348  136.5849  162.3552 N   0  0  0  0  0  0  0  0  0  0  0  0
  127.7696  137.6437  163.1439 C   0  0  0  0  0  0  0  0  0  0  0  0
  132.3636  135.6531  162.6131 N   0  0  0  0  0  0  0  0  0  0  0  0
  132.2125  135.3991  163.5370 H   0  0  0  0  0  0  0  0  0  0  0  0
  135.9801  136.4590  162.2883 C   0  0  0  0  0  0  0  0  0  0  0  0
  137.2018  136.3181  162.9148 C   0  0  0  0  0  0  0  0  0  0  0  0
  138.9689  133.2441  163.9569 H   0  0  0  0  0  0  0  0  0  0  0  0
  139.6555  134.4834  162.8795 H   0  0  0  0  0  0  0  0  0  0  0  0
  140.4708  134.0847  164.4109 H   0  0  0  0  0  0  0  0  0  0  0  0
  138.5338  134.9786  165.6748 H   0  0  0  0  0  0  0  0  0  0  0  0
  139.2204  136.2180  164.5973 H   0  0  0  0  0  0  0  0  0  0  0  0
  136.3963  133.9480  165.1808 H   0  0  0  0  0  0  0  0  0  0  0  0
  134.2084  134.1924  164.0832 H   0  0  0  0  0  0  0  0  0  0  0  0
  134.1371  136.3936  160.0045 H   0  0  0  0  0  0  0  0  0  0  0  0
  129.7320  135.5403  162.8249 H   0  0  0  0  0  0  0  0  0  0  0  0
  128.7407  136.4649  158.3597 H   0  0  0  0  0  0  0  0  0  0  0  0
  128.3527  134.2085  156.9761 H   0  0  0  0  0  0  0  0  0  0  0  0
  129.7755  135.1671  156.5126 H   0  0  0  0  0  0  0  0  0  0  0  0
  130.8050  128.7380  155.2096 H   0  0  0  0  0  0  0  0  0  0  0  0
  131.6220  129.5849  153.8741 H   0  0  0  0  0  0  0  0  0  0  0  0
  132.4204  129.4427  155.4586 H   0  0  0  0  0  0  0  0  0  0  0  0
  128.6377  130.7710  153.2640 H   0  0  0  0  0  0  0  0  0  0  0  0
  129.3776  132.2978  152.7261 H   0  0  0  0  0  0  0  0  0  0  0  0
  130.3302  130.7943  152.7138 H   0  0  0  0  0  0  0  0  0  0  0  0
  128.6404  132.5528  158.7555 H   0  0  0  0  0  0  0  0  0  0  0  0
  130.2608  131.8570  159.0226 H   0  0  0  0  0  0  0  0  0  0  0  0
  130.9770  133.7935  160.2797 H   0  0  0  0  0  0  0  0  0  0  0  0
  129.3884  133.3212  160.9266 H   0  0  0  0  0  0  0  0  0  0  0  0
  126.9451  134.3041  160.0789 H   0  0  0  0  0  0  0  0  0  0  0  0
  124.7025  134.6207  161.4881 H   0  0  0  0  0  0  0  0  0  0  0  0
  127.6035  138.6063  162.6604 H   0  0  0  0  0  0  0  0  0  0  0  0
  127.3375  137.6603  164.1444 H   0  0  0  0  0  0  0  0  0  0  0  0
  128.8405  137.4522  163.2138 H   0  0  0  0  0  0  0  0  0  0  0  0
  135.8666  137.1613  161.4758 H   0  0  0  0  0  0  0  0  0  0  0  0
  138.0446  136.9110  162.5917 H   0  0  0  0  0  0  0  0  0  0  0  0
  1  2  1  0
  1 38  1  0
  1 39  1  0
  1 40  1  0
  2  3  1  0
  2 41  1  0
  2 42  1  0
  3 37  2  0
  3  4  1  0
  4  5  2  0
  4 43  1  0
  5  6  1  0
  5 44  1  0
  6  7  1  0
  6 36  2  0
  7 34  1  0
  7  8  2  0
  8  9  1  0
  8 45  1  0
  9 10  1  0
  9 11  1  0
 11 12  1  0
 11 34  2  0
 12 13  1  0
 12 46  1  0
 13 14  1  6
 13 15  1  0
 13 28  1  0
 15 27  1  0
 15 16  2  0
 16 17  1  0
 16 47  1  0
 17 18  1  0
 17 48  1  0
 17 49  1  0
 18 19  1  0
 18 26  1  0
 19 25  1  0
 19 20  2  0
 20 21  1  0
 21 22  1  0
 21 23  2  0
 22 50  1  0
 22 51  1  0
 22 52  1  0
 23 24  1  0
 23 25  1  0
 24 53  1  0
 24 54  1  0
 24 55  1  0
 26 27  1  0
 26 56  1  0
 26 57  1  0
 27 58  1  0
 27 59  1  0
 28 32  1  0
 28 29  2  0
 29 30  1  0
 29 60  1  0
 30 31  2  0
 30 61  1  0
 31 32  1  0
 32 33  1  0
 33 62  1  0
 33 63  1  0
 33 64  1  0
 34 35  1  0
 36 37  1  0
 36 65  1  0
 37 66  1  0
M  CHG  1  34   1
M  END
>  <DOCK_score>  (1) 
-42.380554

>  <SMILES>  (1) 
CCc1ccc(-c2c[nH]c(N[C@@H](C3=CCN(c4nc(C)c(C)o4)CC3)c3ccnn3C)[nH+]2)cc1

$$$$
