CC(=O)C1CC([NH2+]Cc2c[nH]nc2-c2ccc(Nc3ccc(N)cc3)cc2)C1
     RDKit          3D

 54 57  0  0  1  0  0  0  0  0999 V2000
  136.7758  140.5418  162.1737 C   0  0  0  0  0  0  0  0  0  0  0  0
  136.5085  140.2197  160.7259 C   0  0  0  0  0  0  0  0  0  0  0  0
  137.4276  139.9723  159.9828 O   0  0  0  0  0  0  0  0  0  0  0  0
  135.0942  140.2064  160.2056 C   0  0  2  0  0  0  0  0  0  0  0  0
  134.1425  139.3242  161.0308 C   0  0  0  0  0  0  0  0  0  0  0  0
  133.5216  138.8814  159.6954 C   0  0  2  0  0  0  0  0  0  0  0  0
  133.1896  137.4513  159.6463 N   0  0  0  0  0  0  0  0  0  0  0  0
  133.9206  136.9207  160.0963 H   0  0  0  0  0  0  0  0  0  0  0  0
  133.1050  137.1585  158.6845 H   0  0  0  0  0  0  0  0  0  0  0  0
  131.9170  137.2199  160.3425 C   0  0  0  0  0  0  0  0  0  0  0  0
  131.5764  135.7526  160.2921 C   0  0  0  0  0  0  0  0  0  0  0  0
  132.3127  134.7848  159.7039 C   0  0  0  0  0  0  0  0  0  0  0  0
  131.6708  133.6095  159.8769 N   0  0  0  0  0  0  0  0  0  0  0  0
  131.9714  132.7444  159.5573 H   0  0  0  0  0  0  0  0  0  0  0  0
  130.4952  133.8564  160.5974 N   0  0  0  0  0  0  0  0  0  0  0  0
  130.4338  135.1469  160.8501 C   0  0  0  0  0  0  0  0  0  0  0  0
  129.3492  135.8414  161.5872 C   0  0  0  0  0  0  0  0  0  0  0  0
  128.0399  135.7928  161.1113 C   0  0  0  0  0  0  0  0  0  0  0  0
  127.0326  136.4335  161.8010 C   0  0  0  0  0  0  0  0  0  0  0  0
  127.3242  137.1384  162.9634 C   0  0  0  0  0  0  0  0  0  0  0  0
  126.3039  137.7919  163.6569 N   0  0  0  0  0  0  0  0  0  0  0  0
  126.5864  138.9509  164.3895 C   0  0  0  0  0  0  0  0  0  0  0  0
  126.3430  138.9841  165.7570 C   0  0  0  0  0  0  0  0  0  0  0  0
  126.6255  140.1257  166.4803 C   0  0  0  0  0  0  0  0  0  0  0  0
  127.1436  141.2435  165.8393 C   0  0  0  0  0  0  0  0  0  0  0  0
  127.4255  142.4024  166.5719 N   0  0  0  0  0  0  0  0  0  0  0  0
  127.3817  141.2116  164.4715 C   0  0  0  0  0  0  0  0  0  0  0  0
  127.1037  140.0684  163.7489 C   0  0  0  0  0  0  0  0  0  0  0  0
  128.6303  137.1923  163.4366 C   0  0  0  0  0  0  0  0  0  0  0  0
  129.6393  136.5478  162.7533 C   0  0  0  0  0  0  0  0  0  0  0  0
  134.8723  139.2230  159.0443 C   0  0  0  0  0  0  0  0  0  0  0  0
  135.8317  140.7357  162.6830 H   0  0  0  0  0  0  0  0  0  0  0  0
  137.2773  139.6977  162.6470 H   0  0  0  0  0  0  0  0  0  0  0  0
  137.4114  141.4248  162.2380 H   0  0  0  0  0  0  0  0  0  0  0  0
  134.7052  141.2059  160.0116 H   0  0  0  0  0  0  0  0  0  0  0  0
  133.4594  139.8916  161.6631 H   0  0  0  0  0  0  0  0  0  0  0  0
  134.6467  138.5197  161.5660 H   0  0  0  0  0  0  0  0  0  0  0  0
  132.7017  139.5179  159.3627 H   0  0  0  0  0  0  0  0  0  0  0  0
  131.1275  137.7929  159.8564 H   0  0  0  0  0  0  0  0  0  0  0  0
  132.0085  137.5361  161.3816 H   0  0  0  0  0  0  0  0  0  0  0  0
  133.2498  134.9262  159.1861 H   0  0  0  0  0  0  0  0  0  0  0  0
  127.8140  135.2496  160.2056 H   0  0  0  0  0  0  0  0  0  0  0  0
  126.0174  136.3924  161.4350 H   0  0  0  0  0  0  0  0  0  0  0  0
  125.3992  137.4430  163.6310 H   0  0  0  0  0  0  0  0  0  0  0  0
  125.9367  138.1160  166.2547 H   0  0  0  0  0  0  0  0  0  0  0  0
  126.4401  140.1507  167.5440 H   0  0  0  0  0  0  0  0  0  0  0  0
  127.7869  143.1832  166.1241 H   0  0  0  0  0  0  0  0  0  0  0  0
  127.2591  142.4247  167.5273 H   0  0  0  0  0  0  0  0  0  0  0  0
  127.7838  142.0811  163.9729 H   0  0  0  0  0  0  0  0  0  0  0  0
  127.2885  140.0436  162.6850 H   0  0  0  0  0  0  0  0  0  0  0  0
  128.8547  137.7401  164.3399 H   0  0  0  0  0  0  0  0  0  0  0  0
  130.6538  136.5898  163.1213 H   0  0  0  0  0  0  0  0  0  0  0  0
  135.5761  138.3907  159.0365 H   0  0  0  0  0  0  0  0  0  0  0  0
  134.7784  139.7084  158.0729 H   0  0  0  0  0  0  0  0  0  0  0  0
  1  2  1  0
  1 32  1  0
  1 33  1  0
  1 34  1  0
  2  3  2  0
  2  4  1  0
  4 31  1  0
  4  5  1  0
  4 35  1  6
  5  6  1  0
  5 36  1  0
  5 37  1  0
  6  7  1  0
  6 31  1  0
  6 38  1  6
  7  8  1  0
  7  9  1  0
  7 10  1  0
 10 11  1  0
 10 39  1  0
 10 40  1  0
 11 16  1  0
 11 12  2  0
 12 13  1  0
 12 41  1  0
 13 14  1  0
 13 15  1  0
 15 16  2  0
 16 17  1  0
 17 30  1  0
 17 18  2  0
 18 19  1  0
 18 42  1  0
 19 20  2  0
 19 43  1  0
 20 21  1  0
 20 29  1  0
 21 22  1  0
 21 44  1  0
 22 28  1  0
 22 23  2  0
 23 24  1  0
 23 45  1  0
 24 25  2  0
 24 46  1  0
 25 26  1  0
 25 27  1  0
 26 47  1  0
 26 48  1  0
 27 28  2  0
 27 49  1  0
 28 50  1  0
 29 30  2  0
 29 51  1  0
 30 52  1  0
 31 53  1  0
 31 54  1  0
M  CHG  1   7   1
M  END
>  <DOCK_score>  (1) 
-41.625198

>  <SMILES>  (1) 
CC(=O)C1CC([NH2+]Cc2c[nH]nc2-c2ccc(Nc3ccc(N)cc3)cc2)C1

$$$$
