Cc1ccc(-c2nc(N)ccc2Nc2[nH]cc(-c3ccc(N)cc3)[nH+]2)cc1
     RDKit          3D

 48 51  0  0  1  0  0  0  0  0999 V2000
  135.3166  136.0278  162.3628 C   0  0  0  0  0  0  0  0  0  0  0  0
  133.8401  136.0420  162.0613 C   0  0  0  0  0  0  0  0  0  0  0  0
  133.2556  137.1797  161.5345 C   0  0  0  0  0  0  0  0  0  0  0  0
  131.9040  137.1987  161.2564 C   0  0  0  0  0  0  0  0  0  0  0  0
  131.1276  136.0680  161.5068 C   0  0  0  0  0  0  0  0  0  0  0  0
  129.6753  136.0821  161.2103 C   0  0  0  0  0  0  0  0  0  0  0  0
  128.8159  136.4722  162.1448 N   0  0  0  0  0  0  0  0  0  0  0  0
  127.5135  136.4989  161.9200 C   0  0  0  0  0  0  0  0  0  0  0  0
  126.6504  136.9149  162.9304 N   0  0  0  0  0  0  0  0  0  0  0  0
  126.9938  136.1219  160.6848 C   0  0  0  0  0  0  0  0  0  0  0  0
  127.8541  135.7038  159.6855 C   0  0  0  0  0  0  0  0  0  0  0  0
  129.2215  135.6854  159.9496 C   0  0  0  0  0  0  0  0  0  0  0  0
  130.1279  135.2759  158.9664 N   0  0  0  0  0  0  0  0  0  0  0  0
  130.0442  133.9991  158.4362 C   0  0  0  0  0  0  0  0  0  0  0  0
  129.5827  132.8979  159.0895 N   0  0  0  0  0  0  0  0  0  0  0  0
  129.2565  132.8660  160.0024 H   0  0  0  0  0  0  0  0  0  0  0  0
  129.6643  131.8395  158.2165 C   0  0  0  0  0  0  0  0  0  0  0  0
  130.1728  132.3246  157.0566 C   0  0  0  0  0  0  0  0  0  0  0  0
  130.4376  131.5416  155.8247 C   0  0  0  0  0  0  0  0  0  0  0  0
  129.7920  131.8732  154.6346 C   0  0  0  0  0  0  0  0  0  0  0  0
  130.0428  131.1467  153.4897 C   0  0  0  0  0  0  0  0  0  0  0  0
  130.9306  130.0788  153.5237 C   0  0  0  0  0  0  0  0  0  0  0  0
  131.1798  129.3406  152.3641 N   0  0  0  0  0  0  0  0  0  0  0  0
  131.5721  129.7427  154.7107 C   0  0  0  0  0  0  0  0  0  0  0  0
  131.3279  130.4694  155.8569 C   0  0  0  0  0  0  0  0  0  0  0  0
  130.3912  133.6529  157.2201 N   0  0  0  0  0  0  0  0  0  0  0  0
  130.7491  134.2512  156.5457 H   0  0  0  0  0  0  0  0  0  0  0  0
  131.7214  134.9262  162.0428 C   0  0  0  0  0  0  0  0  0  0  0  0
  133.0749  134.9172  162.3119 C   0  0  0  0  0  0  0  0  0  0  0  0
  135.4818  136.3662  163.3857 H   0  0  0  0  0  0  0  0  0  0  0  0
  135.7009  135.0141  162.2490 H   0  0  0  0  0  0  0  0  0  0  0  0
  135.8349  136.6925  161.6718 H   0  0  0  0  0  0  0  0  0  0  0  0
  133.8579  138.0549  161.3407 H   0  0  0  0  0  0  0  0  0  0  0  0
  131.4486  138.0875  160.8451 H   0  0  0  0  0  0  0  0  0  0  0  0
  127.0061  137.1825  163.7923 H   0  0  0  0  0  0  0  0  0  0  0  0
  125.6936  136.9371  162.7723 H   0  0  0  0  0  0  0  0  0  0  0  0
  125.9285  136.1518  160.5096 H   0  0  0  0  0  0  0  0  0  0  0  0
  127.4741  135.4027  158.7204 H   0  0  0  0  0  0  0  0  0  0  0  0
  130.8150  135.8859  158.6559 H   0  0  0  0  0  0  0  0  0  0  0  0
  129.3781  130.8174  158.4160 H   0  0  0  0  0  0  0  0  0  0  0  0
  129.0987  132.7009  154.6084 H   0  0  0  0  0  0  0  0  0  0  0  0
  129.5457  131.4058  152.5665 H   0  0  0  0  0  0  0  0  0  0  0  0
  131.7998  128.5949  152.3872 H   0  0  0  0  0  0  0  0  0  0  0  0
  130.7327  129.5741  151.5357 H   0  0  0  0  0  0  0  0  0  0  0  0
  132.2618  128.9120  154.7351 H   0  0  0  0  0  0  0  0  0  0  0  0
  131.8264  130.2084  156.7786 H   0  0  0  0  0  0  0  0  0  0  0  0
  131.1240  134.0491  162.2434 H   0  0  0  0  0  0  0  0  0  0  0  0
  133.5367  134.0319  162.7233 H   0  0  0  0  0  0  0  0  0  0  0  0
  1  2  1  0
  1 30  1  0
  1 31  1  0
  1 32  1  0
  2 29  2  0
  2  3  1  0
  3  4  2  0
  3 33  1  0
  4  5  1  0
  4 34  1  0
  5  6  1  0
  5 28  2  0
  6 12  1  0
  6  7  2  0
  7  8  1  0
  8  9  1  0
  8 10  2  0
  9 35  1  0
  9 36  1  0
 10 11  1  0
 10 37  1  0
 11 12  2  0
 11 38  1  0
 12 13  1  0
 13 39  1  0
 14 13  1  0
 14 26  2  0
 14 15  1  0
 15 16  1  0
 15 17  1  0
 17 18  2  0
 17 40  1  0
 18 19  1  0
 18 26  1  0
 19 25  1  0
 19 20  2  0
 20 21  1  0
 20 41  1  0
 21 22  2  0
 21 42  1  0
 22 23  1  0
 22 24  1  0
 23 43  1  0
 23 44  1  0
 24 25  2  0
 24 45  1  0
 25 46  1  0
 26 27  1  0
 28 29  1  0
 28 47  1  0
 29 48  1  0
M  CHG  1  26   1
M  END
>  <DOCK_score>  (1) 
-53.419804

>  <SMILES>  (1) 
Cc1ccc(-c2nc(N)ccc2Nc2[nH]cc(-c3ccc(N)cc3)[nH+]2)cc1

$$$$
