Cc1ccccc1[C@H]1C[C@H](Nc2ccc(-c3n[nH]cc3C[NH2+]CC3CC(C4CC4)C3)o2)C1
     RDKit          3D

 67 72  0  0  1  0  0  0  0  0999 V2000
  127.9261  136.3334  166.9432 C   0  0  0  0  0  0  0  0  0  0  0  0
  127.6628  137.8162  166.9993 C   0  0  0  0  0  0  0  0  0  0  0  0
  127.9582  138.5278  168.1472 C   0  0  0  0  0  0  0  0  0  0  0  0
  127.7223  139.8884  168.1968 C   0  0  0  0  0  0  0  0  0  0  0  0
  127.1909  140.5385  167.0979 C   0  0  0  0  0  0  0  0  0  0  0  0
  126.8956  139.8271  165.9504 C   0  0  0  0  0  0  0  0  0  0  0  0
  127.1313  138.4656  165.9011 C   0  0  0  0  0  0  0  0  0  0  0  0
  126.8092  137.6899  164.6499 C   0  0  1  0  0  0  0  0  0  0  0  0
  126.0770  136.9002  164.8182 H   0  0  0  0  0  0  0  0  0  0  0  0
  126.4894  138.5808  163.4379 C   0  0  0  0  0  0  0  0  0  0  0  0
  127.2940  137.5814  162.5902 C   0  0  2  0  0  0  0  0  0  0  0  0
  127.9186  138.0535  161.8320 H   0  0  0  0  0  0  0  0  0  0  0  0
  126.4872  136.4804  162.0580 N   0  0  0  0  0  0  0  0  0  0  0  0
  127.0818  135.4997  161.2724 C   0  0  0  0  0  0  0  0  0  0  0  0
  126.4488  134.4339  160.7220 C   0  0  0  0  0  0  0  0  0  0  0  0
  127.4192  133.7027  160.0087 C   0  0  0  0  0  0  0  0  0  0  0  0
  128.5999  134.3569  160.1671 C   0  0  0  0  0  0  0  0  0  0  0  0
  129.8996  133.9473  159.5960 C   0  0  0  0  0  0  0  0  0  0  0  0
  130.1189  132.8827  158.8498 N   0  0  0  0  0  0  0  0  0  0  0  0
  131.4784  132.8603  158.5133 N   0  0  0  0  0  0  0  0  0  0  0  0
  131.9185  132.1892  157.9684 H   0  0  0  0  0  0  0  0  0  0  0  0
  132.0715  133.9318  159.0830 C   0  0  0  0  0  0  0  0  0  0  0  0
  131.1276  134.6228  159.7574 C   0  0  0  0  0  0  0  0  0  0  0  0
  131.3470  135.8906  160.5422 C   0  0  0  0  0  0  0  0  0  0  0  0
  131.1559  137.0507  159.6615 N   0  0  0  0  0  0  0  0  0  0  0  0
  131.8169  137.0077  158.9004 H   0  0  0  0  0  0  0  0  0  0  0  0
  130.2169  137.0418  159.2924 H   0  0  0  0  0  0  0  0  0  0  0  0
  131.3697  138.2865  160.4265 C   0  0  0  0  0  0  0  0  0  0  0  0
  132.7937  138.3001  160.9861 C   0  0  2  0  0  0  0  0  0  0  0  0
  133.3129  139.7097  161.3148 C   0  0  0  0  0  0  0  0  0  0  0  0
  134.6669  139.2592  160.7414 C   0  0  2  0  0  0  0  0  0  0  0  0
  135.3673  140.3315  159.9044 C   0  0  0  0  0  0  0  0  0  0  0  0
  136.8973  140.3396  159.9039 C   0  0  0  0  0  0  0  0  0  0  0  0
  136.1266  141.4283  160.6535 C   0  0  0  0  0  0  0  0  0  0  0  0
  133.8822  138.2374  159.9017 C   0  0  0  0  0  0  0  0  0  0  0  0
  128.3815  135.4448  160.9354 O   0  0  0  0  0  0  0  0  0  0  0  0
  128.0540  137.2217  163.8778 C   0  0  0  0  0  0  0  0  0  0  0  0
  127.0429  135.7944  167.2858 H   0  0  0  0  0  0  0  0  0  0  0  0
  128.1536  136.0432  165.9174 H   0  0  0  0  0  0  0  0  0  0  0  0
  128.7723  136.0901  167.5858 H   0  0  0  0  0  0  0  0  0  0  0  0
  128.3735  138.0202  169.0053 H   0  0  0  0  0  0  0  0  0  0  0  0
  127.9531  140.4442  169.0935 H   0  0  0  0  0  0  0  0  0  0  0  0
  127.0060  141.6019  167.1367 H   0  0  0  0  0  0  0  0  0  0  0  0
  126.4795  140.3345  165.0925 H   0  0  0  0  0  0  0  0  0  0  0  0
  125.4292  138.6123  163.1866 H   0  0  0  0  0  0  0  0  0  0  0  0
  126.9420  139.5710  163.4923 H   0  0  0  0  0  0  0  0  0  0  0  0
  125.5382  136.4358  162.2536 H   0  0  0  0  0  0  0  0  0  0  0  0
  125.3998  134.1927  160.8116 H   0  0  0  0  0  0  0  0  0  0  0  0
  127.2567  132.7948  159.4470 H   0  0  0  0  0  0  0  0  0  0  0  0
  133.1176  134.1905  159.0115 H   0  0  0  0  0  0  0  0  0  0  0  0
  130.6330  135.9370  161.3643 H   0  0  0  0  0  0  0  0  0  0  0  0
  132.3614  135.9001  160.9408 H   0  0  0  0  0  0  0  0  0  0  0  0
  131.2280  139.1473  159.7730 H   0  0  0  0  0  0  0  0  0  0  0  0
  130.6557  138.3329  161.2487 H   0  0  0  0  0  0  0  0  0  0  0  0
  132.9384  137.5810  161.7923 H   0  0  0  0  0  0  0  0  0  0  0  0
  132.8335  140.4980  160.7345 H   0  0  0  0  0  0  0  0  0  0  0  0
  133.3414  139.9266  162.3827 H   0  0  0  0  0  0  0  0  0  0  0  0
  135.3246  138.8033  161.4815 H   0  0  0  0  0  0  0  0  0  0  0  0
  134.8620  140.6108  158.9798 H   0  0  0  0  0  0  0  0  0  0  0  0
  137.4049  139.5812  160.5000 H   0  0  0  0  0  0  0  0  0  0  0  0
  137.3988  140.6243  158.9789 H   0  0  0  0  0  0  0  0  0  0  0  0
  136.1212  142.4292  160.2217 H   0  0  0  0  0  0  0  0  0  0  0  0
  136.1272  141.3861  161.7426 H   0  0  0  0  0  0  0  0  0  0  0  0
  134.3705  137.2655  159.8289 H   0  0  0  0  0  0  0  0  0  0  0  0
  133.5580  138.6218  158.9346 H   0  0  0  0  0  0  0  0  0  0  0  0
  128.9343  137.8401  164.0524 H   0  0  0  0  0  0  0  0  0  0  0  0
  128.2577  136.1561  163.9829 H   0  0  0  0  0  0  0  0  0  0  0  0
  1  2  1  0
  1 38  1  0
  1 39  1  0
  1 40  1  0
  2  7  2  0
  2  3  1  0
  3  4  2  0
  3 41  1  0
  4  5  1  0
  4 42  1  0
  5  6  2  0
  5 43  1  0
  6  7  1  0
  6 44  1  0
  7  8  1  0
  8  9  1  1
  8 37  1  0
  8 10  1  0
 10 11  1  0
 10 45  1  0
 10 46  1  0
 11 12  1  6
 11 13  1  0
 11 37  1  0
 13 14  1  0
 13 47  1  0
 14 36  1  0
 14 15  2  0
 15 16  1  0
 15 48  1  0
 16 17  2  0
 16 49  1  0
 17 18  1  0
 17 36  1  0
 18 23  1  0
 18 19  2  0
 19 20  1  0
 20 21  1  0
 20 22  1  0
 22 23  2  0
 22 50  1  0
 23 24  1  0
 24 25  1  0
 24 51  1  0
 24 52  1  0
 25 26  1  0
 25 27  1  0
 25 28  1  0
 28 29  1  0
 28 53  1  0
 28 54  1  0
 29 35  1  0
 29 30  1  0
 29 55  1  1
 30 31  1  0
 30 56  1  0
 30 57  1  0
 31 32  1  0
 31 35  1  0
 31 58  1  1
 32 34  1  0
 32 33  1  0
 32 59  1  0
 33 34  1  0
 33 60  1  0
 33 61  1  0
 34 62  1  0
 34 63  1  0
 35 64  1  0
 35 65  1  0
 37 66  1  0
 37 67  1  0
M  CHG  1  25   1
M  END
>  <DOCK_score>  (1) 
-48.162003

>  <SMILES>  (1) 
Cc1ccccc1[C@H]1C[C@H](Nc2ccc(-c3n[nH]cc3C[NH2+]CC3CC(C4CC4)C3)o2)C1

$$$$
