Cc1ccc([C@@H](Nc2[nH]cc(-c3ccc(N)cc3)[nH+]2)C(O)(c2ccccc2)c2ccc(C)cc2)cc1
     RDKit          3D

 67 71  0  0  1  0  0  0  0  0999 V2000
  124.3289  134.2771  161.3965 C   0  0  0  0  0  0  0  0  0  0  0  0
  125.7911  134.6091  161.2447 C   0  0  0  0  0  0  0  0  0  0  0  0
  126.6532  134.4377  162.3116 C   0  0  0  0  0  0  0  0  0  0  0  0
  127.9943  134.7423  162.1723 C   0  0  0  0  0  0  0  0  0  0  0  0
  128.4734  135.2180  160.9660 C   0  0  0  0  0  0  0  0  0  0  0  0
  129.9355  135.5504  160.8143 C   0  0  1  0  0  0  0  0  0  0  0  0
  130.5239  134.9085  161.4700 H   0  0  0  0  0  0  0  0  0  0  0  0
  130.3438  135.3338  159.4241 N   0  0  0  0  0  0  0  0  0  0  0  0
  130.2258  134.0770  158.8557 C   0  0  0  0  0  0  0  0  0  0  0  0
  129.7424  132.9677  159.4784 N   0  0  0  0  0  0  0  0  0  0  0  0
  129.4215  132.9157  160.3923 H   0  0  0  0  0  0  0  0  0  0  0  0
  129.7932  131.9345  158.5729 C   0  0  0  0  0  0  0  0  0  0  0  0
  130.3055  132.4426  157.4249 C   0  0  0  0  0  0  0  0  0  0  0  0
  130.5451  131.6915  156.1682 C   0  0  0  0  0  0  0  0  0  0  0  0
  129.9002  132.0734  154.9929 C   0  0  0  0  0  0  0  0  0  0  0  0
  130.1284  131.3769  153.8249 C   0  0  0  0  0  0  0  0  0  0  0  0
  130.9919  130.2879  153.8214 C   0  0  0  0  0  0  0  0  0  0  0  0
  131.2171  129.5801  152.6382 N   0  0  0  0  0  0  0  0  0  0  0  0
  131.6319  129.9019  154.9932 C   0  0  0  0  0  0  0  0  0  0  0  0
  131.4111  130.5990  156.1623 C   0  0  0  0  0  0  0  0  0  0  0  0
  130.5560  133.7605  157.6273 N   0  0  0  0  0  0  0  0  0  0  0  0
  130.9228  134.3708  156.9687 H   0  0  0  0  0  0  0  0  0  0  0  0
  130.1676  137.0147  161.1918 C   0  0  2  0  0  0  0  0  0  0  0  0
  129.3960  137.8561  160.3323 O   0  0  0  0  0  0  0  0  0  0  0  0
  131.6296  137.3471  161.0400 C   0  0  0  0  0  0  0  0  0  0  0  0
  132.5848  136.3662  161.2302 C   0  0  0  0  0  0  0  0  0  0  0  0
  133.9261  136.6726  161.0961 C   0  0  0  0  0  0  0  0  0  0  0  0
  134.3117  137.9571  160.7616 C   0  0  0  0  0  0  0  0  0  0  0  0
  133.3564  138.9379  160.5709 C   0  0  0  0  0  0  0  0  0  0  0  0
  132.0152  138.6328  160.7097 C   0  0  0  0  0  0  0  0  0  0  0  0
  129.7475  137.2375  162.6218 C   0  0  0  0  0  0  0  0  0  0  0  0
  130.3584  136.5294  163.6399 C   0  0  0  0  0  0  0  0  0  0  0  0
  129.9768  136.7375  164.9521 C   0  0  0  0  0  0  0  0  0  0  0  0
  128.9766  137.6456  165.2453 C   0  0  0  0  0  0  0  0  0  0  0  0
  128.5565  137.8679  166.6754 C   0  0  0  0  0  0  0  0  0  0  0  0
  128.3623  138.3499  164.2269 C   0  0  0  0  0  0  0  0  0  0  0  0
  128.7476  138.1459  162.9152 C   0  0  0  0  0  0  0  0  0  0  0  0
  127.6104  135.3943  159.9007 C   0  0  0  0  0  0  0  0  0  0  0  0
  126.2703  135.0844  160.0382 C   0  0  0  0  0  0  0  0  0  0  0  0
  123.7895  135.1604  161.7388 H   0  0  0  0  0  0  0  0  0  0  0  0
  123.9276  133.9561  160.4353 H   0  0  0  0  0  0  0  0  0  0  0  0
  124.2122  133.4751  162.1252 H   0  0  0  0  0  0  0  0  0  0  0  0
  126.2787  134.0664  163.2540 H   0  0  0  0  0  0  0  0  0  0  0  0
  128.6678  134.6087  163.0060 H   0  0  0  0  0  0  0  0  0  0  0  0
  130.6968  136.0710  158.9018 H   0  0  0  0  0  0  0  0  0  0  0  0
  129.4841  130.9138  158.7432 H   0  0  0  0  0  0  0  0  0  0  0  0
  129.2255  132.9166  154.9963 H   0  0  0  0  0  0  0  0  0  0  0  0
  129.6325  131.6751  152.9130 H   0  0  0  0  0  0  0  0  0  0  0  0
  131.8198  128.8201  152.6348 H   0  0  0  0  0  0  0  0  0  0  0  0
  130.7709  129.8489  151.8199 H   0  0  0  0  0  0  0  0  0  0  0  0
  132.3025  129.0554  154.9882 H   0  0  0  0  0  0  0  0  0  0  0  0
  131.9089  130.2991  157.0726 H   0  0  0  0  0  0  0  0  0  0  0  0
  129.6132  137.7654  159.3945 H   0  0  0  0  0  0  0  0  0  0  0  0
  132.2834  135.3618  161.4882 H   0  0  0  0  0  0  0  0  0  0  0  0
  134.6727  135.9072  161.2491 H   0  0  0  0  0  0  0  0  0  0  0  0
  135.3594  138.1954  160.6527 H   0  0  0  0  0  0  0  0  0  0  0  0
  133.6577  139.9424  160.3129 H   0  0  0  0  0  0  0  0  0  0  0  0
  131.2689  139.3991  160.5607 H   0  0  0  0  0  0  0  0  0  0  0  0
  131.1364  135.8163  163.4103 H   0  0  0  0  0  0  0  0  0  0  0  0
  130.4571  136.1875  165.7478 H   0  0  0  0  0  0  0  0  0  0  0  0
  127.7523  137.1774  166.9295 H   0  0  0  0  0  0  0  0  0  0  0  0
  129.4066  137.6943  167.3351 H   0  0  0  0  0  0  0  0  0  0  0  0
  128.2065  138.8932  166.7961 H   0  0  0  0  0  0  0  0  0  0  0  0
  127.5809  139.0594  164.4559 H   0  0  0  0  0  0  0  0  0  0  0  0
  128.2674  138.6959  162.1194 H   0  0  0  0  0  0  0  0  0  0  0  0
  127.9839  135.7701  158.9596 H   0  0  0  0  0  0  0  0  0  0  0  0
  125.5967  135.2179  159.2046 H   0  0  0  0  0  0  0  0  0  0  0  0
  1  2  1  0
  1 40  1  0
  1 41  1  0
  1 42  1  0
  2 39  2  0
  2  3  1  0
  3  4  2  0
  3 43  1  0
  4  5  1  0
  4 44  1  0
  5  6  1  0
  5 38  2  0
  6  7  1  1
  6  8  1  0
  6 23  1  0
  8 45  1  0
  9  8  1  0
  9 21  2  0
  9 10  1  0
 10 11  1  0
 10 12  1  0
 12 13  2  0
 12 46  1  0
 13 14  1  0
 13 21  1  0
 14 20  1  0
 14 15  2  0
 15 16  1  0
 15 47  1  0
 16 17  2  0
 16 48  1  0
 17 18  1  0
 17 19  1  0
 18 49  1  0
 18 50  1  0
 19 20  2  0
 19 51  1  0
 20 52  1  0
 21 22  1  0
 23 24  1  6
 23 25  1  0
 23 31  1  0
 24 53  1  0
 25 30  1  0
 25 26  2  0
 26 27  1  0
 26 54  1  0
 27 28  2  0
 27 55  1  0
 28 29  1  0
 28 56  1  0
 29 30  2  0
 29 57  1  0
 30 58  1  0
 31 37  1  0
 31 32  2  0
 32 33  1  0
 32 59  1  0
 33 34  2  0
 33 60  1  0
 34 35  1  0
 34 36  1  0
 35 61  1  0
 35 62  1  0
 35 63  1  0
 36 37  2  0
 36 64  1  0
 37 65  1  0
 38 39  1  0
 38 66  1  0
 39 67  1  0
M  CHG  1  21   1
M  END
>  <DOCK_score>  (1) 
-58.560234

>  <SMILES>  (1) 
Cc1ccc([C@@H](Nc2[nH]cc(-c3ccc(N)cc3)[nH+]2)C(O)(c2ccccc2)c2ccc(C)cc2)cc1

$$$$
