C[C@H](NC(NC1CC=CC1)=[NH+][C@H]1CCC(=O)NC1)c1cccc(O)c1
     RDKit          3D

 52 54  0  0  1  0  0  0  0  0999 V2000
  132.9990  134.5747  161.7836 C   0  0  0  0  0  0  0  0  0  0  0  0
  131.8137  135.3246  161.1722 C   0  0  2  0  0  0  0  0  0  0  0  0
  131.0026  135.3761  161.8986 H   0  0  0  0  0  0  0  0  0  0  0  0
  131.3530  134.6169  159.9751 N   0  0  0  0  0  0  0  0  0  0  0  0
  130.0294  134.6766  159.6079 C   0  0  0  0  0  0  0  0  0  0  0  0
  129.5971  134.0125  158.4844 N   0  0  0  0  0  0  0  0  0  0  0  0
  130.5468  133.2412  157.6786 C   0  0  0  0  0  0  0  0  0  0  0  0
  130.0227  133.0483  156.2365 C   0  0  0  0  0  0  0  0  0  0  0  0
  130.4499  131.6497  155.8565 C   0  0  0  0  0  0  0  0  0  0  0  0
  130.7823  130.9569  156.9115 C   0  0  0  0  0  0  0  0  0  0  0  0
  130.6324  131.7779  158.1710 C   0  0  0  0  0  0  0  0  0  0  0  0
  129.1846  135.3630  160.3248 N   0  0  0  0  0  0  0  0  0  0  0  0
  129.4864  136.1438  160.8148 H   0  0  0  0  0  0  0  0  0  0  0  0
  127.7791  134.9550  160.3909 C   0  0  1  0  0  0  0  0  0  0  0  0
  127.3464  134.9703  159.3905 H   0  0  0  0  0  0  0  0  0  0  0  0
  127.6807  133.5411  160.9762 C   0  0  0  0  0  0  0  0  0  0  0  0
  126.2280  133.0714  160.8641 C   0  0  0  0  0  0  0  0  0  0  0  0
  125.3056  134.1333  161.3900 C   0  0  0  0  0  0  0  0  0  0  0  0
  124.1708  133.8167  161.6781 O   0  0  0  0  0  0  0  0  0  0  0  0
  125.6677  135.4058  161.5579 N   0  0  0  0  0  0  0  0  0  0  0  0
  127.0083  135.9152  161.2978 C   0  0  0  0  0  0  0  0  0  0  0  0
  132.2417  136.7201  160.7973 C   0  0  0  0  0  0  0  0  0  0  0  0
  133.2630  136.9076  159.8841 C   0  0  0  0  0  0  0  0  0  0  0  0
  133.6582  138.1865  159.5385 C   0  0  0  0  0  0  0  0  0  0  0  0
  133.0329  139.2808  160.1046 C   0  0  0  0  0  0  0  0  0  0  0  0
  132.0044  139.0954  161.0168 C   0  0  0  0  0  0  0  0  0  0  0  0
  131.3842  140.1700  161.5710 O   0  0  0  0  0  0  0  0  0  0  0  0
  131.6135  137.8107  161.3664 C   0  0  0  0  0  0  0  0  0  0  0  0
  133.2872  135.0523  162.7200 H   0  0  0  0  0  0  0  0  0  0  0  0
  132.7142  133.5402  161.9759 H   0  0  0  0  0  0  0  0  0  0  0  0
  133.8398  134.5973  161.0904 H   0  0  0  0  0  0  0  0  0  0  0  0
  131.9818  134.1061  159.4415 H   0  0  0  0  0  0  0  0  0  0  0  0
  128.6633  134.0547  158.2253 H   0  0  0  0  0  0  0  0  0  0  0  0
  131.5297  133.7123  157.6786 H   0  0  0  0  0  0  0  0  0  0  0  0
  128.9364  133.1332  156.2127 H   0  0  0  0  0  0  0  0  0  0  0  0
  130.4763  133.7791  155.5669 H   0  0  0  0  0  0  0  0  0  0  0  0
  130.4770  131.2729  154.8447 H   0  0  0  0  0  0  0  0  0  0  0  0
  131.1200  129.9312  156.8873 H   0  0  0  0  0  0  0  0  0  0  0  0
  131.5005  131.6447  158.8168 H   0  0  0  0  0  0  0  0  0  0  0  0
  129.7196  131.5008  158.6985 H   0  0  0  0  0  0  0  0  0  0  0  0
  128.3286  132.8664  160.4166 H   0  0  0  0  0  0  0  0  0  0  0  0
  127.9821  133.5558  162.0235 H   0  0  0  0  0  0  0  0  0  0  0  0
  126.0970  132.1581  161.4443 H   0  0  0  0  0  0  0  0  0  0  0  0
  125.9927  132.8729  159.8184 H   0  0  0  0  0  0  0  0  0  0  0  0
  124.9967  136.0316  161.8724 H   0  0  0  0  0  0  0  0  0  0  0  0
  127.5415  136.0250  162.2422 H   0  0  0  0  0  0  0  0  0  0  0  0
  126.9329  136.8877  160.8116 H   0  0  0  0  0  0  0  0  0  0  0  0
  133.7527  136.0535  159.4400 H   0  0  0  0  0  0  0  0  0  0  0  0
  134.4562  138.3303  158.8251 H   0  0  0  0  0  0  0  0  0  0  0  0
  133.3417  140.2797  159.8339 H   0  0  0  0  0  0  0  0  0  0  0  0
  130.6812  139.9404  162.1942 H   0  0  0  0  0  0  0  0  0  0  0  0
  130.8160  137.6637  162.0795 H   0  0  0  0  0  0  0  0  0  0  0  0
  1  2  1  0
  1 29  1  0
  1 30  1  0
  1 31  1  0
  2  3  1  1
  2  4  1  0
  2 22  1  0
  4 32  1  0
  5  4  1  0
  5  6  1  0
  5 12  2  0
  6  7  1  0
  6 33  1  0
  7 11  1  0
  7  8  1  0
  7 34  1  0
  8  9  1  0
  8 35  1  0
  8 36  1  0
  9 10  2  0
  9 37  1  0
 10 11  1  0
 10 38  1  0
 11 39  1  0
 11 40  1  0
 12 13  1  0
 12 14  1  0
 14 15  1  6
 14 21  1  0
 14 16  1  0
 16 17  1  0
 16 41  1  0
 16 42  1  0
 17 18  1  0
 17 43  1  0
 17 44  1  0
 18 19  2  0
 18 20  1  0
 20 21  1  0
 20 45  1  0
 21 46  1  0
 21 47  1  0
 22 28  1  0
 22 23  2  0
 23 24  1  0
 23 48  1  0
 24 25  2  0
 24 49  1  0
 25 26  1  0
 25 50  1  0
 26 27  1  0
 26 28  2  0
 27 51  1  0
 28 52  1  0
M  CHG  1  12   1
M  END
>  <DOCK_score>  (1) 
-43.062042

>  <SMILES>  (1) 
C[C@H](NC(NC1CC=CC1)=[NH+][C@H]1CCC(=O)NC1)c1cccc(O)c1

$$$$
