CCOC(=O)c1oc2ccc(NCC3CC=CC3)cc2c1C[NH2+][C@@H]1COC2(CC2)C1
     RDKit          3D

 61 65  0  0  1  0  0  0  0  0999 V2000
  126.8264  141.4218  165.4630 C   0  0  0  0  0  0  0  0  0  0  0  0
  128.1262  140.8737  164.8707 C   0  0  0  0  0  0  0  0  0  0  0  0
  127.8166  139.8520  163.8866 O   0  0  0  0  0  0  0  0  0  0  0  0
  128.8594  139.2634  163.2661 C   0  0  0  0  0  0  0  0  0  0  0  0
  129.9963  139.5955  163.5406 O   0  0  0  0  0  0  0  0  0  0  0  0
  128.6217  138.2217  162.2594 C   0  0  0  0  0  0  0  0  0  0  0  0
  127.4078  137.7704  161.8803 O   0  0  0  0  0  0  0  0  0  0  0  0
  127.5245  136.8089  160.9421 C   0  0  0  0  0  0  0  0  0  0  0  0
  126.5951  136.0445  160.2460 C   0  0  0  0  0  0  0  0  0  0  0  0
  127.0184  135.1141  159.3234 C   0  0  0  0  0  0  0  0  0  0  0  0
  128.3776  134.9257  159.0751 C   0  0  0  0  0  0  0  0  0  0  0  0
  128.7902  133.9758  158.1343 N   0  0  0  0  0  0  0  0  0  0  0  0
  130.1598  133.4568  158.1698 C   0  0  0  0  0  0  0  0  0  0  0  0
  130.1758  132.0228  157.6363 C   0  0  0  0  0  0  0  0  0  0  0  0
  129.4386  131.0640  158.5999 C   0  0  0  0  0  0  0  0  0  0  0  0
  130.2426  129.7845  158.5571 C   0  0  0  0  0  0  0  0  0  0  0  0
  131.4249  129.9890  158.0431 C   0  0  0  0  0  0  0  0  0  0  0  0
  131.6073  131.4386  157.6578 C   0  0  0  0  0  0  0  0  0  0  0  0
  129.3180  135.6752  159.7562 C   0  0  0  0  0  0  0  0  0  0  0  0
  128.8969  136.6217  160.6940 C   0  0  0  0  0  0  0  0  0  0  0  0
  129.5913  137.5619  161.5726 C   0  0  0  0  0  0  0  0  0  0  0  0
  131.0805  137.7591  161.6926 C   0  0  0  0  0  0  0  0  0  0  0  0
  131.6769  137.8134  160.3512 N   0  0  0  0  0  0  0  0  0  0  0  0
  131.4901  136.9493  159.8649 H   0  0  0  0  0  0  0  0  0  0  0  0
  131.2762  138.5828  159.8359 H   0  0  0  0  0  0  0  0  0  0  0  0
  133.1285  138.0056  160.4682 C   0  0  2  0  0  0  0  0  0  0  0  0
  133.5842  137.1850  161.0223 H   0  0  0  0  0  0  0  0  0  0  0  0
  133.4544  139.3686  161.1307 C   0  0  0  0  0  0  0  0  0  0  0  0
  134.7793  139.6743  160.6425 O   0  0  0  0  0  0  0  0  0  0  0  0
  134.8168  139.2791  159.2643 C   0  0  0  0  0  0  0  0  0  0  0  0
  136.1329  139.2614  158.4905 C   0  0  0  0  0  0  0  0  0  0  0  0
  135.0641  140.3067  158.1622 C   0  0  0  0  0  0  0  0  0  0  0  0
  133.7800  138.1591  159.0714 C   0  0  0  0  0  0  0  0  0  0  0  0
  126.2193  141.8550  164.6682 H   0  0  0  0  0  0  0  0  0  0  0  0
  126.2751  140.6122  165.9411 H   0  0  0  0  0  0  0  0  0  0  0  0
  127.0589  142.1889  166.2017 H   0  0  0  0  0  0  0  0  0  0  0  0
  128.7334  140.4404  165.6656 H   0  0  0  0  0  0  0  0  0  0  0  0
  128.6776  141.6833  164.3926 H   0  0  0  0  0  0  0  0  0  0  0  0
  125.5394  136.1809  160.4287 H   0  0  0  0  0  0  0  0  0  0  0  0
  126.2901  134.5244  158.7865 H   0  0  0  0  0  0  0  0  0  0  0  0
  128.1696  133.6609  157.4588 H   0  0  0  0  0  0  0  0  0  0  0  0
  130.8016  134.0824  157.5493 H   0  0  0  0  0  0  0  0  0  0  0  0
  130.5257  133.4666  159.1965 H   0  0  0  0  0  0  0  0  0  0  0  0
  129.7488  131.9756  156.6346 H   0  0  0  0  0  0  0  0  0  0  0  0
  129.4301  131.4733  159.6101 H   0  0  0  0  0  0  0  0  0  0  0  0
  128.4209  130.8855  158.2529 H   0  0  0  0  0  0  0  0  0  0  0  0
  129.8853  128.8269  158.9055 H   0  0  0  0  0  0  0  0  0  0  0  0
  132.1741  129.2225  157.9102 H   0  0  0  0  0  0  0  0  0  0  0  0
  132.0634  131.5146  156.6707 H   0  0  0  0  0  0  0  0  0  0  0  0
  132.2172  131.9546  158.3994 H   0  0  0  0  0  0  0  0  0  0  0  0
  130.3711  135.5307  159.5648 H   0  0  0  0  0  0  0  0  0  0  0  0
  131.2821  138.6926  162.2180 H   0  0  0  0  0  0  0  0  0  0  0  0
  131.5134  136.9280  162.2493 H   0  0  0  0  0  0  0  0  0  0  0  0
  132.7428  140.1301  160.8115 H   0  0  0  0  0  0  0  0  0  0  0  0
  133.4549  139.2769  162.2168 H   0  0  0  0  0  0  0  0  0  0  0  0
  137.0276  139.6027  159.0111 H   0  0  0  0  0  0  0  0  0  0  0  0
  136.2847  138.4544  157.7737 H   0  0  0  0  0  0  0  0  0  0  0  0
  134.5128  140.1872  157.2295 H   0  0  0  0  0  0  0  0  0  0  0  0
  135.2558  141.3356  158.4669 H   0  0  0  0  0  0  0  0  0  0  0  0
  134.2700  137.2320  158.7744 H   0  0  0  0  0  0  0  0  0  0  0  0
  133.0343  138.4520  158.3322 H   0  0  0  0  0  0  0  0  0  0  0  0
  1  2  1  0
  1 34  1  0
  1 35  1  0
  1 36  1  0
  2  3  1  0
  2 37  1  0
  2 38  1  0
  3  4  1  0
  4  5  2  0
  4  6  1  0
  6 21  2  0
  6  7  1  0
  7  8  1  0
  8 20  2  0
  8  9  1  0
  9 10  2  0
  9 39  1  0
 10 11  1  0
 10 40  1  0
 11 12  1  0
 11 19  2  0
 12 13  1  0
 12 41  1  0
 13 14  1  0
 13 42  1  0
 13 43  1  0
 14 18  1  0
 14 15  1  0
 14 44  1  0
 15 16  1  0
 15 45  1  0
 15 46  1  0
 16 17  2  0
 16 47  1  0
 17 18  1  0
 17 48  1  0
 18 49  1  0
 18 50  1  0
 19 20  1  0
 19 51  1  0
 20 21  1  0
 21 22  1  0
 22 23  1  0
 22 52  1  0
 22 53  1  0
 23 24  1  0
 23 25  1  0
 23 26  1  0
 26 27  1  1
 26 33  1  0
 26 28  1  0
 28 29  1  0
 28 54  1  0
 28 55  1  0
 29 30  1  0
 30 32  1  0
 30 31  1  0
 30 33  1  0
 31 32  1  0
 31 56  1  0
 31 57  1  0
 32 58  1  0
 32 59  1  0
 33 60  1  0
 33 61  1  0
M  CHG  1  23   1
M  END
>  <DOCK_score>  (1) 
-41.360729

>  <SMILES>  (1) 
CCOC(=O)c1oc2ccc(NCC3CC=CC3)cc2c1C[NH2+][C@@H]1COC2(CC2)C1

$$$$
