CC[C@@H]([NH2+]Cc1ccc(Nc2ccccc2)cc1)c1cc[nH]n1
     RDKit          3D

 46 48  0  0  1  0  0  0  0  0999 V2000
  128.2747  135.8032  156.9008 C   0  0  0  0  0  0  0  0  0  0  0  0
  128.9623  134.5768  157.5042 C   0  0  0  0  0  0  0  0  0  0  0  0
  129.3047  134.8532  158.9695 C   0  0  1  0  0  0  0  0  0  0  0  0
  129.7945  133.9795  159.3993 H   0  0  0  0  0  0  0  0  0  0  0  0
  130.2062  136.0102  159.0520 N   0  0  0  0  0  0  0  0  0  0  0  0
  130.8805  135.9651  158.3026 H   0  0  0  0  0  0  0  0  0  0  0  0
  129.6699  136.8609  158.9711 H   0  0  0  0  0  0  0  0  0  0  0  0
  130.9071  135.9938  160.3428 C   0  0  0  0  0  0  0  0  0  0  0  0
  131.8321  137.1807  160.4272 C   0  0  0  0  0  0  0  0  0  0  0  0
  133.1213  137.0182  160.9005 C   0  0  0  0  0  0  0  0  0  0  0  0
  133.9730  138.1028  160.9748 C   0  0  0  0  0  0  0  0  0  0  0  0
  133.5304  139.3596  160.5831 C   0  0  0  0  0  0  0  0  0  0  0  0
  134.3880  140.4598  160.6615 N   0  0  0  0  0  0  0  0  0  0  0  0
  134.9237  140.8415  161.8940 C   0  0  0  0  0  0  0  0  0  0  0  0
  136.1723  141.4482  161.9521 C   0  0  0  0  0  0  0  0  0  0  0  0
  136.6978  141.8277  163.1714 C   0  0  0  0  0  0  0  0  0  0  0  0
  135.9872  141.5953  164.3349 C   0  0  0  0  0  0  0  0  0  0  0  0
  134.7463  140.9874  164.2812 C   0  0  0  0  0  0  0  0  0  0  0  0
  134.2127  140.6096  163.0648 C   0  0  0  0  0  0  0  0  0  0  0  0
  132.2324  139.5205  160.1133 C   0  0  0  0  0  0  0  0  0  0  0  0
  131.3877  138.4306  160.0368 C   0  0  0  0  0  0  0  0  0  0  0  0
  128.0397  135.1469  159.7342 C   0  0  0  0  0  0  0  0  0  0  0  0
  126.9499  134.2822  159.8798 C   0  0  0  0  0  0  0  0  0  0  0  0
  126.0175  134.9106  160.6325 C   0  0  0  0  0  0  0  0  0  0  0  0
  126.5001  136.1296  160.9520 N   0  0  0  0  0  0  0  0  0  0  0  0
  126.0469  136.8008  161.4859 H   0  0  0  0  0  0  0  0  0  0  0  0
  127.7735  136.2524  160.3813 N   0  0  0  0  0  0  0  0  0  0  0  0
  128.1362  135.6522  155.8304 H   0  0  0  0  0  0  0  0  0  0  0  0
  127.3043  135.9463  157.3763 H   0  0  0  0  0  0  0  0  0  0  0  0
  128.8939  136.6848  157.0664 H   0  0  0  0  0  0  0  0  0  0  0  0
  129.8772  134.3643  156.9511 H   0  0  0  0  0  0  0  0  0  0  0  0
  128.2933  133.7184  157.4431 H   0  0  0  0  0  0  0  0  0  0  0  0
  130.1789  136.0423  161.1522 H   0  0  0  0  0  0  0  0  0  0  0  0
  131.4866  135.0747  160.4299 H   0  0  0  0  0  0  0  0  0  0  0  0
  133.4636  136.0415  161.2089 H   0  0  0  0  0  0  0  0  0  0  0  0
  134.9810  137.9745  161.3406 H   0  0  0  0  0  0  0  0  0  0  0  0
  134.6102  140.9594  159.8604 H   0  0  0  0  0  0  0  0  0  0  0  0
  136.7298  141.6259  161.0443 H   0  0  0  0  0  0  0  0  0  0  0  0
  137.6666  142.3027  163.2169 H   0  0  0  0  0  0  0  0  0  0  0  0
  136.4024  141.8892  165.2875 H   0  0  0  0  0  0  0  0  0  0  0  0
  134.1940  140.8074  165.1917 H   0  0  0  0  0  0  0  0  0  0  0  0
  133.2438  140.1343  163.0237 H   0  0  0  0  0  0  0  0  0  0  0  0
  131.8846  140.4965  159.8085 H   0  0  0  0  0  0  0  0  0  0  0  0
  130.3791  138.5546  159.6711 H   0  0  0  0  0  0  0  0  0  0  0  0
  126.8672  133.2887  159.4643 H   0  0  0  0  0  0  0  0  0  0  0  0
  125.0586  134.5088  160.9248 H   0  0  0  0  0  0  0  0  0  0  0  0
  1  2  1  0
  1 28  1  0
  1 29  1  0
  1 30  1  0
  2  3  1  0
  2 31  1  0
  2 32  1  0
  3  4  1  1
  3  5  1  0
  3 22  1  0
  5  6  1  0
  5  7  1  0
  5  8  1  0
  8  9  1  0
  8 33  1  0
  8 34  1  0
  9 21  1  0
  9 10  2  0
 10 11  1  0
 10 35  1  0
 11 12  2  0
 11 36  1  0
 12 13  1  0
 12 20  1  0
 13 14  1  0
 13 37  1  0
 14 19  1  0
 14 15  2  0
 15 16  1  0
 15 38  1  0
 16 17  2  0
 16 39  1  0
 17 18  1  0
 17 40  1  0
 18 19  2  0
 18 41  1  0
 19 42  1  0
 20 21  2  0
 20 43  1  0
 21 44  1  0
 22 27  2  0
 22 23  1  0
 23 24  2  0
 23 45  1  0
 24 25  1  0
 24 46  1  0
 25 26  1  0
 25 27  1  0
M  CHG  1   5   1
M  END
>  <DOCK_score>  (1) 
-42.959545

>  <SMILES>  (1) 
CC[C@@H]([NH2+]Cc1ccc(Nc2ccccc2)cc1)c1cc[nH]n1

$$$$
