Cc1cccc2c1CC[C@@H]2[NH2+]C1CCCCN(Cc2cc(F)cc(NCc3cccs3)c2)C1
     RDKit          3D

 68 72  0  0  1  0  0  0  0  0999 V2000
  134.7022  138.9260  162.7432 C   0  0  0  0  0  0  0  0  0  0  0  0
  133.6175  138.6172  161.7437 C   0  0  0  0  0  0  0  0  0  0  0  0
  133.1215  139.6206  160.9339 C   0  0  0  0  0  0  0  0  0  0  0  0
  132.1265  139.3385  160.0172 C   0  0  0  0  0  0  0  0  0  0  0  0
  131.6299  138.0536  159.9123 C   0  0  0  0  0  0  0  0  0  0  0  0
  132.1259  137.0467  160.7229 C   0  0  0  0  0  0  0  0  0  0  0  0
  133.1213  137.3290  161.6399 C   0  0  0  0  0  0  0  0  0  0  0  0
  133.4893  136.0718  162.3985 C   0  0  0  0  0  0  0  0  0  0  0  0
  132.9286  134.9100  161.5512 C   0  0  0  0  0  0  0  0  0  0  0  0
  131.7572  135.5807  160.8028 C   0  0  2  0  0  0  0  0  0  0  0  0
  130.8293  135.4523  161.3601 H   0  0  0  0  0  0  0  0  0  0  0  0
  131.6232  135.0145  159.4539 N   0  0  0  0  0  0  0  0  0  0  0  0
  132.5384  134.8038  159.0852 H   0  0  0  0  0  0  0  0  0  0  0  0
  131.1640  135.6824  158.8529 H   0  0  0  0  0  0  0  0  0  0  0  0
  130.8251  133.7828  159.5170 C   0  0  2  0  0  0  0  0  0  0  0  0
  131.1378  132.9150  158.2774 C   0  0  0  0  0  0  0  0  0  0  0  0
  130.6813  131.5061  158.5425 C   0  0  0  0  0  0  0  0  0  0  0  0
  129.2403  131.2376  158.0606 C   0  0  0  0  0  0  0  0  0  0  0  0
  128.2900  132.4075  158.3799 C   0  0  0  0  0  0  0  0  0  0  0  0
  128.5287  132.9539  159.6936 N   0  0  0  0  0  0  0  0  0  0  0  0
  127.2649  133.3015  160.3569 C   0  0  0  0  0  0  0  0  0  0  0  0
  127.5540  133.8677  161.7233 C   0  0  0  0  0  0  0  0  0  0  0  0
  128.4808  133.2515  162.5439 C   0  0  0  0  0  0  0  0  0  0  0  0
  128.7492  133.7688  163.8003 C   0  0  0  0  0  0  0  0  0  0  0  0
  129.6549  133.1642  164.6000 F   0  0  0  0  0  0  0  0  0  0  0  0
  128.0907  134.9045  164.2365 C   0  0  0  0  0  0  0  0  0  0  0  0
  127.1603  135.5244  163.4131 C   0  0  0  0  0  0  0  0  0  0  0  0
  126.4934  136.6711  163.8501 N   0  0  0  0  0  0  0  0  0  0  0  0
  127.0514  137.4712  164.9433 C   0  0  0  0  0  0  0  0  0  0  0  0
  126.6561  138.9141  164.7622 C   0  0  0  0  0  0  0  0  0  0  0  0
  127.3533  139.8223  164.0779 C   0  0  0  0  0  0  0  0  0  0  0  0
  126.7919  141.0873  164.0481 C   0  0  0  0  0  0  0  0  0  0  0  0
  125.6389  141.2063  164.7082 C   0  0  0  0  0  0  0  0  0  0  0  0
  125.2011  139.6562  165.4146 S   0  0  0  0  0  0  0  0  0  0  0  0
  126.8972  135.0044  162.1517 C   0  0  0  0  0  0  0  0  0  0  0  0
  129.4110  134.1345  159.5829 C   0  0  0  0  0  0  0  0  0  0  0  0
  135.6772  138.7824  162.2775 H   0  0  0  0  0  0  0  0  0  0  0  0
  134.6067  139.9598  163.0751 H   0  0  0  0  0  0  0  0  0  0  0  0
  134.6072  138.2590  163.6002 H   0  0  0  0  0  0  0  0  0  0  0  0
  133.5112  140.6245  161.0171 H   0  0  0  0  0  0  0  0  0  0  0  0
  131.7373  140.1218  159.3837 H   0  0  0  0  0  0  0  0  0  0  0  0
  130.8521  137.8340  159.1959 H   0  0  0  0  0  0  0  0  0  0  0  0
  133.0273  136.0770  163.3858 H   0  0  0  0  0  0  0  0  0  0  0  0
  134.5722  135.9870  162.4872 H   0  0  0  0  0  0  0  0  0  0  0  0
  132.5691  134.1030  162.1898 H   0  0  0  0  0  0  0  0  0  0  0  0
  133.6786  134.5451  160.8494 H   0  0  0  0  0  0  0  0  0  0  0  0
  131.0966  133.2299  160.4163 H   0  0  0  0  0  0  0  0  0  0  0  0
  130.6104  133.3129  157.4106 H   0  0  0  0  0  0  0  0  0  0  0  0
  132.2113  132.9216  158.0886 H   0  0  0  0  0  0  0  0  0  0  0  0
  131.3554  130.8173  158.0333 H   0  0  0  0  0  0  0  0  0  0  0  0
  130.7337  131.3162  159.6146 H   0  0  0  0  0  0  0  0  0  0  0  0
  128.8671  130.3363  158.5470 H   0  0  0  0  0  0  0  0  0  0  0  0
  129.2524  131.0762  156.9827 H   0  0  0  0  0  0  0  0  0  0  0  0
  127.2606  132.0531  158.3250 H   0  0  0  0  0  0  0  0  0  0  0  0
  128.4344  133.1926  157.6377 H   0  0  0  0  0  0  0  0  0  0  0  0
  126.7340  134.0438  159.7610 H   0  0  0  0  0  0  0  0  0  0  0  0
  126.6491  132.4078  160.4569 H   0  0  0  0  0  0  0  0  0  0  0  0
  128.9959  132.3650  162.2047 H   0  0  0  0  0  0  0  0  0  0  0  0
  128.2997  135.3082  165.2161 H   0  0  0  0  0  0  0  0  0  0  0  0
  125.6609  136.9379  163.4298 H   0  0  0  0  0  0  0  0  0  0  0  0
  126.6654  137.1054  165.8948 H   0  0  0  0  0  0  0  0  0  0  0  0
  128.1382  137.3885  164.9359 H   0  0  0  0  0  0  0  0  0  0  0  0
  128.2852  139.5885  163.5847 H   0  0  0  0  0  0  0  0  0  0  0  0
  127.2525  141.9151  163.5293 H   0  0  0  0  0  0  0  0  0  0  0  0
  125.0603  142.1144  164.7919 H   0  0  0  0  0  0  0  0  0  0  0  0
  126.1768  135.4869  161.5080 H   0  0  0  0  0  0  0  0  0  0  0  0
  129.2488  134.7766  160.4486 H   0  0  0  0  0  0  0  0  0  0  0  0
  129.1447  134.6886  158.6828 H   0  0  0  0  0  0  0  0  0  0  0  0
  1  2  1  0
  1 37  1  0
  1 38  1  0
  1 39  1  0
  2  7  2  0
  2  3  1  0
  3  4  2  0
  3 40  1  0
  4  5  1  0
  4 41  1  0
  5  6  2  0
  5 42  1  0
  6 10  1  0
  6  7  1  0
  7  8  1  0
  8  9  1  0
  8 43  1  0
  8 44  1  0
  9 10  1  0
  9 45  1  0
  9 46  1  0
 10 11  1  1
 10 12  1  0
 12 13  1  0
 12 14  1  0
 12 15  1  0
 15 36  1  0
 15 16  1  0
 15 47  1  1
 16 17  1  0
 16 48  1  0
 16 49  1  0
 17 18  1  0
 17 50  1  0
 17 51  1  0
 18 19  1  0
 18 52  1  0
 18 53  1  0
 19 20  1  0
 19 54  1  0
 19 55  1  0
 20 21  1  0
 20 36  1  0
 21 22  1  0
 21 56  1  0
 21 57  1  0
 22 35  1  0
 22 23  2  0
 23 24  1  0
 23 58  1  0
 24 25  1  0
 24 26  2  0
 26 27  1  0
 26 59  1  0
 27 28  1  0
 27 35  2  0
 28 29  1  0
 28 60  1  0
 29 30  1  0
 29 61  1  0
 29 62  1  0
 30 34  1  0
 30 31  2  0
 31 32  1  0
 31 63  1  0
 32 33  2  0
 32 64  1  0
 33 34  1  0
 33 65  1  0
 35 66  1  0
 36 67  1  0
 36 68  1  0
M  CHG  1  12   1
M  END
>  <DOCK_score>  (1) 
-45.375092

>  <SMILES>  (1) 
Cc1cccc2c1CC[C@@H]2[NH2+]C1CCCCN(Cc2cc(F)cc(NCc3cccs3)c2)C1

$$$$
