C[C@@H](Cc1c[nH]c2ccc(O)cc12)[NH2+]C1CC=C(c2ccc(-c3ccc(F)cc3)cn2)CC1
     RDKit          3D

 62 66  0  0  1  0  0  0  0  0999 V2000
  129.3244  137.1426  159.2746 C   0  0  0  0  0  0  0  0  0  0  0  0
  129.2734  135.6410  159.5632 C   0  0  1  0  0  0  0  0  0  0  0  0
  128.8867  135.4773  160.5691 H   0  0  0  0  0  0  0  0  0  0  0  0
  128.3567  134.9572  158.5469 C   0  0  0  0  0  0  0  0  0  0  0  0
  127.9119  133.6234  159.0893 C   0  0  0  0  0  0  0  0  0  0  0  0
  128.5331  132.4454  158.9203 C   0  0  0  0  0  0  0  0  0  0  0  0
  127.8364  131.4551  159.5567 N   0  0  0  0  0  0  0  0  0  0  0  0
  128.0900  130.5190  159.5758 H   0  0  0  0  0  0  0  0  0  0  0  0
  126.7197  131.9861  160.1672 C   0  0  0  0  0  0  0  0  0  0  0  0
  125.6945  131.4348  160.9286 C   0  0  0  0  0  0  0  0  0  0  0  0
  124.6890  132.2398  161.4151 C   0  0  0  0  0  0  0  0  0  0  0  0
  124.6858  133.6075  161.1527 C   0  0  0  0  0  0  0  0  0  0  0  0
  123.6821  134.3875  161.6361 O   0  0  0  0  0  0  0  0  0  0  0  0
  125.6943  134.1738  160.3992 C   0  0  0  0  0  0  0  0  0  0  0  0
  126.7194  133.3668  159.9005 C   0  0  0  0  0  0  0  0  0  0  0  0
  130.6257  135.0765  159.4606 N   0  0  0  0  0  0  0  0  0  0  0  0
  130.5640  134.0789  159.3218 H   0  0  0  0  0  0  0  0  0  0  0  0
  131.1068  135.4956  158.6789 H   0  0  0  0  0  0  0  0  0  0  0  0
  131.3673  135.3539  160.6980 C   0  0  2  0  0  0  0  0  0  0  0  0
  132.8689  135.2129  160.4398 C   0  0  0  0  0  0  0  0  0  0  0  0
  133.6200  135.2323  161.7401 C   0  0  0  0  0  0  0  0  0  0  0  0
  133.0610  135.0372  162.9113 C   0  0  0  0  0  0  0  0  0  0  0  0
  133.9237  135.0800  164.1089 C   0  0  0  0  0  0  0  0  0  0  0  0
  133.3921  135.5086  165.3271 C   0  0  0  0  0  0  0  0  0  0  0  0
  134.2056  135.5406  166.4424 C   0  0  0  0  0  0  0  0  0  0  0  0
  135.5420  135.1496  166.3035 C   0  0  0  0  0  0  0  0  0  0  0  0
  136.4561  135.1726  167.4708 C   0  0  0  0  0  0  0  0  0  0  0  0
  137.8194  135.3982  167.2868 C   0  0  0  0  0  0  0  0  0  0  0  0
  138.6656  135.4230  168.3763 C   0  0  0  0  0  0  0  0  0  0  0  0
  138.1637  135.2143  169.6507 C   0  0  0  0  0  0  0  0  0  0  0  0
  138.9969  135.2341  170.7141 F   0  0  0  0  0  0  0  0  0  0  0  0
  136.8101  134.9851  169.8380 C   0  0  0  0  0  0  0  0  0  0  0  0
  135.9557  134.9631  168.7551 C   0  0  0  0  0  0  0  0  0  0  0  0
  136.0031  134.7384  165.0538 C   0  0  0  0  0  0  0  0  0  0  0  0
  135.1977  134.7158  164.0137 N   0  0  0  0  0  0  0  0  0  0  0  0
  131.5963  134.7725  163.1045 C   0  0  0  0  0  0  0  0  0  0  0  0
  130.9586  134.3471  161.7804 C   0  0  0  0  0  0  0  0  0  0  0  0
  129.8201  137.3123  158.3187 H   0  0  0  0  0  0  0  0  0  0  0  0
  128.3099  137.5393  159.2331 H   0  0  0  0  0  0  0  0  0  0  0  0
  129.8794  137.6462  160.0661 H   0  0  0  0  0  0  0  0  0  0  0  0
  128.8980  134.8072  157.6127 H   0  0  0  0  0  0  0  0  0  0  0  0
  127.4842  135.5846  158.3647 H   0  0  0  0  0  0  0  0  0  0  0  0
  129.4478  132.3011  158.3645 H   0  0  0  0  0  0  0  0  0  0  0  0
  125.6873  130.3754  161.1384 H   0  0  0  0  0  0  0  0  0  0  0  0
  123.8952  131.8065  162.0054 H   0  0  0  0  0  0  0  0  0  0  0  0
  123.7639  135.3226  161.4037 H   0  0  0  0  0  0  0  0  0  0  0  0
  125.6908  135.2347  160.1967 H   0  0  0  0  0  0  0  0  0  0  0  0
  131.1475  136.3660  161.0374 H   0  0  0  0  0  0  0  0  0  0  0  0
  133.0606  134.2691  159.9291 H   0  0  0  0  0  0  0  0  0  0  0  0
  133.2065  136.0367  159.8110 H   0  0  0  0  0  0  0  0  0  0  0  0
  134.6828  135.4214  161.7092 H   0  0  0  0  0  0  0  0  0  0  0  0
  132.3567  135.8077  165.3969 H   0  0  0  0  0  0  0  0  0  0  0  0
  133.8206  135.8641  167.3982 H   0  0  0  0  0  0  0  0  0  0  0  0
  138.2121  135.5567  166.2933 H   0  0  0  0  0  0  0  0  0  0  0  0
  139.7214  135.6009  168.2350 H   0  0  0  0  0  0  0  0  0  0  0  0
  136.4233  134.8230  170.8332 H   0  0  0  0  0  0  0  0  0  0  0  0
  134.9009  134.7844  168.9018 H   0  0  0  0  0  0  0  0  0  0  0  0
  137.0332  134.4353  164.9380 H   0  0  0  0  0  0  0  0  0  0  0  0
  131.1099  135.6788  163.4652 H   0  0  0  0  0  0  0  0  0  0  0  0
  131.4666  133.9783  163.8397 H   0  0  0  0  0  0  0  0  0  0  0  0
  129.8735  134.3393  161.8822 H   0  0  0  0  0  0  0  0  0  0  0  0
  131.3078  133.3519  161.5053 H   0  0  0  0  0  0  0  0  0  0  0  0
  1  2  1  0
  1 38  1  0
  1 39  1  0
  1 40  1  0
  2  3  1  1
  2  4  1  0
  2 16  1  0
  4  5  1  0
  4 41  1  0
  4 42  1  0
  5 15  1  0
  5  6  2  0
  6  7  1  0
  6 43  1  0
  7  8  1  0
  7  9  1  0
  9 15  2  0
  9 10  1  0
 10 11  2  0
 10 44  1  0
 11 12  1  0
 11 45  1  0
 12 13  1  0
 12 14  2  0
 13 46  1  0
 14 15  1  0
 14 47  1  0
 16 17  1  0
 16 18  1  0
 16 19  1  0
 19 37  1  0
 19 20  1  0
 19 48  1  1
 20 21  1  0
 20 49  1  0
 20 50  1  0
 21 22  2  0
 21 51  1  0
 22 23  1  0
 22 36  1  0
 23 35  1  0
 23 24  2  0
 24 25  1  0
 24 52  1  0
 25 26  2  0
 25 53  1  0
 26 27  1  0
 26 34  1  0
 27 33  1  0
 27 28  2  0
 28 29  1  0
 28 54  1  0
 29 30  2  0
 29 55  1  0
 30 31  1  0
 30 32  1  0
 32 33  2  0
 32 56  1  0
 33 57  1  0
 34 35  2  0
 34 58  1  0
 36 37  1  0
 36 59  1  0
 36 60  1  0
 37 61  1  0
 37 62  1  0
M  CHG  1  16   1
M  END
>  <DOCK_score>  (1) 
-49.875416

>  <SMILES>  (1) 
C[C@@H](Cc1c[nH]c2ccc(O)cc12)[NH2+]C1CC=C(c2ccc(-c3ccc(F)cc3)cn2)CC1

$$$$
