C[C@H](Cc1ccc(Oc2ccc(O)cc2)cc1)Nc1[nH]cc(-c2ccc(F)cc2)[nH+]1
     RDKit          3D

 53 56  0  0  1  0  0  0  0  0999 V2000
  129.0542  136.6759  160.5796 C   0  0  0  0  0  0  0  0  0  0  0  0
  129.6940  135.3040  160.3578 C   0  0  2  0  0  0  0  0  0  0  0  0
  128.9572  134.5241  160.5509 H   0  0  0  0  0  0  0  0  0  0  0  0
  130.8787  135.1336  161.3108 C   0  0  0  0  0  0  0  0  0  0  0  0
  131.8972  136.2117  161.0438 C   0  0  0  0  0  0  0  0  0  0  0  0
  131.8224  137.4148  161.7213 C   0  0  0  0  0  0  0  0  0  0  0  0
  132.7545  138.4050  161.4780 C   0  0  0  0  0  0  0  0  0  0  0  0
  133.7667  138.1911  160.5533 C   0  0  0  0  0  0  0  0  0  0  0  0
  134.6848  139.1633  160.3123 O   0  0  0  0  0  0  0  0  0  0  0  0
  135.2271  139.8080  161.3794 C   0  0  0  0  0  0  0  0  0  0  0  0
  135.3519  141.1895  161.3652 C   0  0  0  0  0  0  0  0  0  0  0  0
  135.9023  141.8444  162.4496 C   0  0  0  0  0  0  0  0  0  0  0  0
  136.3307  141.1207  163.5527 C   0  0  0  0  0  0  0  0  0  0  0  0
  136.8734  141.7654  164.6198 O   0  0  0  0  0  0  0  0  0  0  0  0
  136.2107  139.7390  163.5648 C   0  0  0  0  0  0  0  0  0  0  0  0
  135.6550  139.0844  162.4829 C   0  0  0  0  0  0  0  0  0  0  0  0
  133.8363  136.9849  159.8710 C   0  0  0  0  0  0  0  0  0  0  0  0
  132.9051  135.9959  160.1221 C   0  0  0  0  0  0  0  0  0  0  0  0
  130.1621  135.2015  158.9734 N   0  0  0  0  0  0  0  0  0  0  0  0
  130.1941  133.9694  158.3428 C   0  0  0  0  0  0  0  0  0  0  0  0
  129.8134  132.7858  158.8961 N   0  0  0  0  0  0  0  0  0  0  0  0
  129.4741  132.6545  159.7953 H   0  0  0  0  0  0  0  0  0  0  0  0
  129.9989  131.8107  157.9458 C   0  0  0  0  0  0  0  0  0  0  0  0
  130.4870  132.4263  156.8406 C   0  0  0  0  0  0  0  0  0  0  0  0
  130.8396  131.7682  155.5587 C   0  0  0  0  0  0  0  0  0  0  0  0
  130.7223  132.4673  154.3587 C   0  0  0  0  0  0  0  0  0  0  0  0
  131.0563  131.8529  153.1692 C   0  0  0  0  0  0  0  0  0  0  0  0
  131.4967  130.5394  153.1655 C   0  0  0  0  0  0  0  0  0  0  0  0
  131.8173  129.9399  151.9980 F   0  0  0  0  0  0  0  0  0  0  0  0
  131.6100  129.8388  154.3554 C   0  0  0  0  0  0  0  0  0  0  0  0
  131.2835  130.4472  155.5502 C   0  0  0  0  0  0  0  0  0  0  0  0
  130.5906  133.7513  157.1128 N   0  0  0  0  0  0  0  0  0  0  0  0
  130.9096  134.4288  156.4963 H   0  0  0  0  0  0  0  0  0  0  0  0
  128.7059  136.7522  161.6097 H   0  0  0  0  0  0  0  0  0  0  0  0
  129.7909  137.4558  160.3866 H   0  0  0  0  0  0  0  0  0  0  0  0
  128.2102  136.7974  159.9008 H   0  0  0  0  0  0  0  0  0  0  0  0
  131.3344  134.1561  161.1528 H   0  0  0  0  0  0  0  0  0  0  0  0
  130.5303  135.2099  162.3408 H   0  0  0  0  0  0  0  0  0  0  0  0
  131.0343  137.5807  162.4409 H   0  0  0  0  0  0  0  0  0  0  0  0
  132.6956  139.3443  162.0073 H   0  0  0  0  0  0  0  0  0  0  0  0
  135.0184  141.7530  160.5063 H   0  0  0  0  0  0  0  0  0  0  0  0
  135.9996  142.9200  162.4385 H   0  0  0  0  0  0  0  0  0  0  0  0
  137.1418  141.1779  165.3394 H   0  0  0  0  0  0  0  0  0  0  0  0
  136.5483  139.1751  164.4220 H   0  0  0  0  0  0  0  0  0  0  0  0
  135.5582  138.0087  162.4940 H   0  0  0  0  0  0  0  0  0  0  0  0
  134.6205  136.8177  159.1475 H   0  0  0  0  0  0  0  0  0  0  0  0
  132.9614  135.0553  159.5946 H   0  0  0  0  0  0  0  0  0  0  0  0
  130.4497  135.9968  158.4986 H   0  0  0  0  0  0  0  0  0  0  0  0
  129.7945  130.7561  158.0575 H   0  0  0  0  0  0  0  0  0  0  0  0
  130.3745  133.4897  154.3602 H   0  0  0  0  0  0  0  0  0  0  0  0
  130.9700  132.3952  152.2393 H   0  0  0  0  0  0  0  0  0  0  0  0
  131.9538  128.8151  154.3478 H   0  0  0  0  0  0  0  0  0  0  0  0
  131.3724  129.9003  156.4773 H   0  0  0  0  0  0  0  0  0  0  0  0
  1  2  1  0
  1 34  1  0
  1 35  1  0
  1 36  1  0
  2  3  1  1
  2  4  1  0
  2 19  1  0
  4  5  1  0
  4 37  1  0
  4 38  1  0
  5 18  1  0
  5  6  2  0
  6  7  1  0
  6 39  1  0
  7  8  2  0
  7 40  1  0
  8  9  1  0
  8 17  1  0
  9 10  1  0
 10 16  1  0
 10 11  2  0
 11 12  1  0
 11 41  1  0
 12 13  2  0
 12 42  1  0
 13 14  1  0
 13 15  1  0
 14 43  1  0
 15 16  2  0
 15 44  1  0
 16 45  1  0
 17 18  2  0
 17 46  1  0
 18 47  1  0
 19 48  1  0
 20 19  1  0
 20 32  2  0
 20 21  1  0
 21 22  1  0
 21 23  1  0
 23 24  2  0
 23 49  1  0
 24 25  1  0
 24 32  1  0
 25 31  1  0
 25 26  2  0
 26 27  1  0
 26 50  1  0
 27 28  2  0
 27 51  1  0
 28 29  1  0
 28 30  1  0
 30 31  2  0
 30 52  1  0
 31 53  1  0
 32 33  1  0
M  CHG  1  32   1
M  END
>  <DOCK_score>  (1) 
-56.179909

>  <SMILES>  (1) 
C[C@H](Cc1ccc(Oc2ccc(O)cc2)cc1)Nc1[nH]cc(-c2ccc(F)cc2)[nH+]1

$$$$
