CCc1ccc(-c2c[nH]c(N[C@H](C=Cc3ccc(N)cc3)C3=CCCC3)[nH+]2)cc1
     RDKit          3D

 58 61  0  0  1  0  0  0  0  0999 V2000
  129.9031  128.7684  151.0371 C   0  0  0  0  0  0  0  0  0  0  0  0
  131.1029  129.6397  151.4138 C   0  0  0  0  0  0  0  0  0  0  0  0
  130.8073  130.3748  152.6958 C   0  0  0  0  0  0  0  0  0  0  0  0
  131.1363  129.8011  153.9102 C   0  0  0  0  0  0  0  0  0  0  0  0
  130.8731  130.4720  155.0873 C   0  0  0  0  0  0  0  0  0  0  0  0
  130.2641  131.7251  155.0508 C   0  0  0  0  0  0  0  0  0  0  0  0
  129.9737  132.4487  156.3127 C   0  0  0  0  0  0  0  0  0  0  0  0
  129.1831  132.0070  157.3221 C   0  0  0  0  0  0  0  0  0  0  0  0
  129.1903  132.9819  158.2898 N   0  0  0  0  0  0  0  0  0  0  0  0
  128.7157  132.9556  159.1354 H   0  0  0  0  0  0  0  0  0  0  0  0
  129.9858  133.9918  157.8431 C   0  0  0  0  0  0  0  0  0  0  0  0
  130.2575  135.1658  158.5244 N   0  0  0  0  0  0  0  0  0  0  0  0
  129.6674  135.3999  159.8448 C   0  0  2  0  0  0  0  0  0  0  0  0
  128.5804  135.3878  159.7641 H   0  0  0  0  0  0  0  0  0  0  0  0
  130.1173  136.7406  160.3655 C   0  0  0  0  0  0  0  0  0  0  0  0
  129.3308  137.4350  161.1765 C   0  0  0  0  0  0  0  0  0  0  0  0
  129.7721  138.7494  161.6871 C   0  0  0  0  0  0  0  0  0  0  0  0
  130.7810  139.4533  161.0271 C   0  0  0  0  0  0  0  0  0  0  0  0
  131.1871  140.6811  161.5031 C   0  0  0  0  0  0  0  0  0  0  0  0
  130.6003  141.2143  162.6454 C   0  0  0  0  0  0  0  0  0  0  0  0
  131.0177  142.4551  163.1281 N   0  0  0  0  0  0  0  0  0  0  0  0
  129.5988  140.5133  163.3078 C   0  0  0  0  0  0  0  0  0  0  0  0
  129.1849  139.2874  162.8337 C   0  0  0  0  0  0  0  0  0  0  0  0
  130.1131  134.3171  160.7934 C   0  0  0  0  0  0  0  0  0  0  0  0
  131.2542  133.6888  160.7128 C   0  0  0  0  0  0  0  0  0  0  0  0
  131.3913  132.6662  161.8168 C   0  0  0  0  0  0  0  0  0  0  0  0
  130.3053  133.0512  162.8482 C   0  0  0  0  0  0  0  0  0  0  0  0
  129.2947  133.8119  161.9588 C   0  0  0  0  0  0  0  0  0  0  0  0
  130.4567  133.6669  156.6639 N   0  0  0  0  0  0  0  0  0  0  0  0
  131.0534  134.2115  156.1269 H   0  0  0  0  0  0  0  0  0  0  0  0
  129.9296  132.2961  153.8242 C   0  0  0  0  0  0  0  0  0  0  0  0
  130.2026  131.6187  152.6532 C   0  0  0  0  0  0  0  0  0  0  0  0
  129.7134  128.0484  151.8332 H   0  0  0  0  0  0  0  0  0  0  0  0
  129.0244  129.3987  150.9004 H   0  0  0  0  0  0  0  0  0  0  0  0
  130.1169  128.2368  150.1099 H   0  0  0  0  0  0  0  0  0  0  0  0
  131.9814  129.0100  151.5501 H   0  0  0  0  0  0  0  0  0  0  0  0
  131.2924  130.3603  150.6173 H   0  0  0  0  0  0  0  0  0  0  0  0
  131.6038  128.8280  153.9375 H   0  0  0  0  0  0  0  0  0  0  0  0
  131.1347  130.0250  156.0350 H   0  0  0  0  0  0  0  0  0  0  0  0
  128.6497  131.0686  157.3581 H   0  0  0  0  0  0  0  0  0  0  0  0
  130.8389  135.8334  158.1277 H   0  0  0  0  0  0  0  0  0  0  0  0
  131.0805  137.1360  160.0781 H   0  0  0  0  0  0  0  0  0  0  0  0
  128.3677  137.0397  161.4638 H   0  0  0  0  0  0  0  0  0  0  0  0
  131.2401  139.0377  160.1423 H   0  0  0  0  0  0  0  0  0  0  0  0
  131.9648  141.2279  160.9906 H   0  0  0  0  0  0  0  0  0  0  0  0
  130.6092  142.8279  163.9250 H   0  0  0  0  0  0  0  0  0  0  0  0
  131.7163  142.9450  162.6667 H   0  0  0  0  0  0  0  0  0  0  0  0
  129.1451  140.9297  164.1949 H   0  0  0  0  0  0  0  0  0  0  0  0
  128.4072  138.7432  163.3489 H   0  0  0  0  0  0  0  0  0  0  0  0
  132.0031  133.8764  159.9576 H   0  0  0  0  0  0  0  0  0  0  0  0
  132.3814  132.7223  162.2690 H   0  0  0  0  0  0  0  0  0  0  0  0
  131.2070  131.6649  161.4273 H   0  0  0  0  0  0  0  0  0  0  0  0
  130.7135  133.7020  163.6215 H   0  0  0  0  0  0  0  0  0  0  0  0
  129.8498  132.1634  163.2868 H   0  0  0  0  0  0  0  0  0  0  0  0
  128.8595  134.6471  162.5076 H   0  0  0  0  0  0  0  0  0  0  0  0
  128.5131  133.1373  161.6097 H   0  0  0  0  0  0  0  0  0  0  0  0
  129.4573  133.2669  153.7901 H   0  0  0  0  0  0  0  0  0  0  0  0
  129.9435  132.0601  151.7022 H   0  0  0  0  0  0  0  0  0  0  0  0
  1  2  1  0
  1 33  1  0
  1 34  1  0
  1 35  1  0
  2  3  1  0
  2 36  1  0
  2 37  1  0
  3 32  2  0
  3  4  1  0
  4  5  2  0
  4 38  1  0
  5  6  1  0
  5 39  1  0
  6  7  1  0
  6 31  2  0
  7 29  1  0
  7  8  2  0
  8  9  1  0
  8 40  1  0
  9 10  1  0
  9 11  1  0
 11 12  1  0
 11 29  2  0
 12 13  1  0
 12 41  1  0
 13 14  1  6
 13 15  1  0
 13 24  1  0
 15 16  2  0
 15 42  1  0
 16 17  1  0
 16 43  1  0
 17 23  1  0
 17 18  2  0
 18 19  1  0
 18 44  1  0
 19 20  2  0
 19 45  1  0
 20 21  1  0
 20 22  1  0
 21 46  1  0
 21 47  1  0
 22 23  2  0
 22 48  1  0
 23 49  1  0
 24 28  1  0
 24 25  2  0
 25 26  1  0
 25 50  1  0
 26 27  1  0
 26 51  1  0
 26 52  1  0
 27 28  1  0
 27 53  1  0
 27 54  1  0
 28 55  1  0
 28 56  1  0
 29 30  1  0
 31 32  1  0
 31 57  1  0
 32 58  1  0
M  CHG  1  29   1
M  END
>  <DOCK_score>  (1) 
-58.833916

>  <SMILES>  (1) 
CCc1ccc(-c2c[nH]c(N[C@H](C=Cc3ccc(N)cc3)C3=CCCC3)[nH+]2)cc1

$$$$
