O=C1CC[C@H]([NH+]=C(NCC2CC=CCC2)N[C@H]2CC=CCC2)CN1
     RDKit          3D

 55 57  0  0  1  0  0  0  0  0999 V2000
  124.1260  133.9852  161.8137 O   0  0  0  0  0  0  0  0  0  0  0  0
  125.2624  134.2541  161.4862 C   0  0  0  0  0  0  0  0  0  0  0  0
  126.1436  133.1407  160.9972 C   0  0  0  0  0  0  0  0  0  0  0  0
  127.6106  133.5739  161.0548 C   0  0  0  0  0  0  0  0  0  0  0  0
  127.7350  134.9527  160.3951 C   0  0  2  0  0  0  0  0  0  0  0  0
  127.2819  134.9262  159.4041 H   0  0  0  0  0  0  0  0  0  0  0  0
  129.1494  135.3163  160.2793 N   0  0  0  0  0  0  0  0  0  0  0  0
  129.4818  136.1163  160.7158 H   0  0  0  0  0  0  0  0  0  0  0  0
  129.9611  134.5650  159.5898 C   0  0  0  0  0  0  0  0  0  0  0  0
  131.2896  134.4901  159.9357 N   0  0  0  0  0  0  0  0  0  0  0  0
  131.6930  134.6577  161.3340 C   0  0  0  0  0  0  0  0  0  0  0  0
  133.0959  135.2654  161.3909 C   0  0  1  0  0  0  0  0  0  0  0  0
  133.0885  136.6402  160.7190 C   0  0  0  0  0  0  0  0  0  0  0  0
  134.3768  137.3581  160.9965 C   0  0  0  0  0  0  0  0  0  0  0  0
  135.2008  137.0308  161.9396 C   0  0  0  0  0  0  0  0  0  0  0  0
  134.9881  135.8813  162.8806 C   0  0  0  0  0  0  0  0  0  0  0  0
  133.5222  135.4426  162.8537 C   0  0  0  0  0  0  0  0  0  0  0  0
  129.4888  133.8474  158.5164 N   0  0  0  0  0  0  0  0  0  0  0  0
  130.4011  133.0028  157.7413 C   0  0  1  0  0  0  0  0  0  0  0  0
  131.4046  133.4276  157.7673 H   0  0  0  0  0  0  0  0  0  0  0  0
  130.4243  131.5920  158.3334 C   0  0  0  0  0  0  0  0  0  0  0  0
  131.1388  130.6536  157.4056 C   0  0  0  0  0  0  0  0  0  0  0  0
  131.3734  130.9061  156.1579 C   0  0  0  0  0  0  0  0  0  0  0  0
  130.9729  132.1771  155.4675 C   0  0  0  0  0  0  0  0  0  0  0  0
  129.9122  132.9119  156.2903 C   0  0  0  0  0  0  0  0  0  0  0  0
  127.0109  135.9796  161.2667 C   0  0  0  0  0  0  0  0  0  0  0  0
  125.6627  135.5227  161.5801 N   0  0  0  0  0  0  0  0  0  0  0  0
  125.8789  132.8945  159.9689 H   0  0  0  0  0  0  0  0  0  0  0  0
  126.0001  132.2634  161.6280 H   0  0  0  0  0  0  0  0  0  0  0  0
  128.2273  132.8533  160.5178 H   0  0  0  0  0  0  0  0  0  0  0  0
  127.9357  133.6334  162.0934 H   0  0  0  0  0  0  0  0  0  0  0  0
  131.9597  134.3262  159.2539 H   0  0  0  0  0  0  0  0  0  0  0  0
  130.9893  135.3201  161.8382 H   0  0  0  0  0  0  0  0  0  0  0  0
  131.6972  133.6869  161.8298 H   0  0  0  0  0  0  0  0  0  0  0  0
  133.7999  134.6105  160.8775 H   0  0  0  0  0  0  0  0  0  0  0  0
  132.9689  136.5158  159.6428 H   0  0  0  0  0  0  0  0  0  0  0  0
  132.2581  137.2286  161.1092 H   0  0  0  0  0  0  0  0  0  0  0  0
  134.6322  138.2005  160.3707 H   0  0  0  0  0  0  0  0  0  0  0  0
  136.0972  137.6216  162.0563 H   0  0  0  0  0  0  0  0  0  0  0  0
  135.6211  135.0463  162.5798 H   0  0  0  0  0  0  0  0  0  0  0  0
  135.2526  136.1888  163.8922 H   0  0  0  0  0  0  0  0  0  0  0  0
  132.9027  136.2048  163.3262 H   0  0  0  0  0  0  0  0  0  0  0  0
  133.4132  134.4967  163.3841 H   0  0  0  0  0  0  0  0  0  0  0  0
  128.5523  133.9031  158.2699 H   0  0  0  0  0  0  0  0  0  0  0  0
  130.9390  131.6117  159.2941 H   0  0  0  0  0  0  0  0  0  0  0  0
  129.4016  131.2442  158.4787 H   0  0  0  0  0  0  0  0  0  0  0  0
  131.4780  129.7087  157.8035 H   0  0  0  0  0  0  0  0  0  0  0  0
  131.8896  130.1556  155.5776 H   0  0  0  0  0  0  0  0  0  0  0  0
  131.8480  132.8166  155.3519 H   0  0  0  0  0  0  0  0  0  0  0  0
  130.5653  131.9413  154.4846 H   0  0  0  0  0  0  0  0  0  0  0  0
  128.9728  132.3603  156.2540 H   0  0  0  0  0  0  0  0  0  0  0  0
  129.7674  133.9150  155.8889 H   0  0  0  0  0  0  0  0  0  0  0  0
  127.5674  136.1223  162.1930 H   0  0  0  0  0  0  0  0  0  0  0  0
  126.9549  136.9288  160.7339 H   0  0  0  0  0  0  0  0  0  0  0  0
  125.0162  136.1828  161.8755 H   0  0  0  0  0  0  0  0  0  0  0  0
  1  2  2  0
  2 27  1  0
  2  3  1  0
  3  4  1  0
  3 28  1  0
  3 29  1  0
  4  5  1  0
  4 30  1  0
  4 31  1  0
  5  6  1  6
  5  7  1  0
  5 26  1  0
  7  8  1  0
  9  7  2  0
  9 10  1  0
  9 18  1  0
 10 11  1  0
 10 32  1  0
 11 12  1  0
 11 33  1  0
 11 34  1  0
 12 17  1  0
 12 13  1  0
 12 35  1  6
 13 14  1  0
 13 36  1  0
 13 37  1  0
 14 15  2  0
 14 38  1  0
 15 16  1  0
 15 39  1  0
 16 17  1  0
 16 40  1  0
 16 41  1  0
 17 42  1  0
 17 43  1  0
 18 19  1  0
 18 44  1  0
 19 20  1  6
 19 25  1  0
 19 21  1  0
 21 22  1  0
 21 45  1  0
 21 46  1  0
 22 23  2  0
 22 47  1  0
 23 24  1  0
 23 48  1  0
 24 25  1  0
 24 49  1  0
 24 50  1  0
 25 51  1  0
 25 52  1  0
 26 27  1  0
 26 53  1  0
 26 54  1  0
 27 55  1  0
M  CHG  1   7   1
M  END
>  <DOCK_score>  (1) 
-45.294228

>  <SMILES>  (1) 
O=C1CC[C@H]([NH+]=C(NCC2CC=CCC2)N[C@H]2CC=CCC2)CN1

$$$$
