CCC[NH2+]Cc1c[nH]nc1-c1ccc(N[C@H]2CC(OC)C2(C)C)o1
     RDKit          3D

 53 55  0  0  1  0  0  0  0  0999 V2000
  134.2899  138.3210  159.2263 C   0  0  0  0  0  0  0  0  0  0  0  0
  134.0330  137.9970  160.6994 C   0  0  0  0  0  0  0  0  0  0  0  0
  132.5860  137.5318  160.8744 C   0  0  0  0  0  0  0  0  0  0  0  0
  132.3563  136.3301  160.0614 N   0  0  0  0  0  0  0  0  0  0  0  0
  132.9834  135.5977  160.3590 H   0  0  0  0  0  0  0  0  0  0  0  0
  132.5258  136.5438  159.0899 H   0  0  0  0  0  0  0  0  0  0  0  0
  130.9670  135.8834  160.2293 C   0  0  0  0  0  0  0  0  0  0  0  0
  130.7314  134.6506  159.3953 C   0  0  0  0  0  0  0  0  0  0  0  0
  131.6414  134.0363  158.6093 C   0  0  0  0  0  0  0  0  0  0  0  0
  131.0442  132.9717  158.0310 N   0  0  0  0  0  0  0  0  0  0  0  0
  131.4628  132.3492  157.4163 H   0  0  0  0  0  0  0  0  0  0  0  0
  129.7173  132.9192  158.4768 N   0  0  0  0  0  0  0  0  0  0  0  0
  129.5207  133.9328  159.2968 C   0  0  0  0  0  0  0  0  0  0  0  0
  128.2586  134.2559  159.9937 C   0  0  0  0  0  0  0  0  0  0  0  0
  127.0947  133.5609  159.8961 C   0  0  0  0  0  0  0  0  0  0  0  0
  126.1588  134.2140  160.7221 C   0  0  0  0  0  0  0  0  0  0  0  0
  126.7958  135.2728  161.2817 C   0  0  0  0  0  0  0  0  0  0  0  0
  126.2322  136.1843  162.1669 N   0  0  0  0  0  0  0  0  0  0  0  0
  127.0685  136.8382  163.1764 C   0  0  1  0  0  0  0  0  0  0  0  0
  128.0491  137.1223  162.7943 H   0  0  0  0  0  0  0  0  0  0  0  0
  126.3509  137.9689  163.9323 C   0  0  0  0  0  0  0  0  0  0  0  0
  127.0508  137.4574  165.2025 C   0  0  1  0  0  0  0  0  0  0  0  0
  126.2168  137.4765  166.3627 O   0  0  0  0  0  0  0  0  0  0  0  0
  126.9368  137.4466  167.5966 C   0  0  0  0  0  0  0  0  0  0  0  0
  127.1241  136.0822  164.5142 C   0  0  0  0  0  0  0  0  0  0  0  0
  125.8995  135.2019  164.7720 C   0  0  0  0  0  0  0  0  0  0  0  0
  128.4456  135.3476  164.7488 C   0  0  0  0  0  0  0  0  0  0  0  0
  128.0638  135.2916  160.8370 O   0  0  0  0  0  0  0  0  0  0  0  0
  133.6124  139.1121  158.9047 H   0  0  0  0  0  0  0  0  0  0  0  0
  135.3207  138.6524  159.1016 H   0  0  0  0  0  0  0  0  0  0  0  0
  134.1194  137.4293  158.6230 H   0  0  0  0  0  0  0  0  0  0  0  0
  134.2035  138.8889  161.3025 H   0  0  0  0  0  0  0  0  0  0  0  0
  134.7104  137.2059  161.0209 H   0  0  0  0  0  0  0  0  0  0  0  0
  131.9085  138.3230  160.5529 H   0  0  0  0  0  0  0  0  0  0  0  0
  132.4029  137.3010  161.9238 H   0  0  0  0  0  0  0  0  0  0  0  0
  130.2896  136.6745  159.9077 H   0  0  0  0  0  0  0  0  0  0  0  0
  130.7840  135.6526  161.2787 H   0  0  0  0  0  0  0  0  0  0  0  0
  132.6673  134.3426  158.4678 H   0  0  0  0  0  0  0  0  0  0  0  0
  126.9207  132.6776  159.2995 H   0  0  0  0  0  0  0  0  0  0  0  0
  125.1300  133.9260  160.8802 H   0  0  0  0  0  0  0  0  0  0  0  0
  125.2851  136.3874  162.1163 H   0  0  0  0  0  0  0  0  0  0  0  0
  126.6692  138.9668  163.6303 H   0  0  0  0  0  0  0  0  0  0  0  0
  125.2669  137.8587  163.9565 H   0  0  0  0  0  0  0  0  0  0  0  0
  128.0271  137.9100  165.3756 H   0  0  0  0  0  0  0  0  0  0  0  0
  127.5913  138.3161  167.6567 H   0  0  0  0  0  0  0  0  0  0  0  0
  126.2328  137.4635  168.4287 H   0  0  0  0  0  0  0  0  0  0  0  0
  127.5356  136.5370  167.6460 H   0  0  0  0  0  0  0  0  0  0  0  0
  125.8144  134.4570  163.9807 H   0  0  0  0  0  0  0  0  0  0  0  0
  126.0087  134.6998  165.7333 H   0  0  0  0  0  0  0  0  0  0  0  0
  125.0029  135.8215  164.7856 H   0  0  0  0  0  0  0  0  0  0  0  0
  129.2657  136.0657  164.7467 H   0  0  0  0  0  0  0  0  0  0  0  0
  128.4118  134.8375  165.7114 H   0  0  0  0  0  0  0  0  0  0  0  0
  128.6007  134.6166  163.9553 H   0  0  0  0  0  0  0  0  0  0  0  0
  1  2  1  0
  1 29  1  0
  1 30  1  0
  1 31  1  0
  2  3  1  0
  2 32  1  0
  2 33  1  0
  3  4  1  0
  3 34  1  0
  3 35  1  0
  4  5  1  0
  4  6  1  0
  4  7  1  0
  7  8  1  0
  7 36  1  0
  7 37  1  0
  8 13  1  0
  8  9  2  0
  9 10  1  0
  9 38  1  0
 10 11  1  0
 10 12  1  0
 12 13  2  0
 13 14  1  0
 14 28  1  0
 14 15  2  0
 15 16  1  0
 15 39  1  0
 16 17  2  0
 16 40  1  0
 17 18  1  0
 17 28  1  0
 18 19  1  0
 18 41  1  0
 19 20  1  6
 19 25  1  0
 19 21  1  0
 21 22  1  0
 21 42  1  0
 21 43  1  0
 22 23  1  0
 22 25  1  0
 22 44  1  1
 23 24  1  0
 24 45  1  0
 24 46  1  0
 24 47  1  0
 25 26  1  0
 25 27  1  0
 26 48  1  0
 26 49  1  0
 26 50  1  0
 27 51  1  0
 27 52  1  0
 27 53  1  0
M  CHG  1   4   1
M  END
>  <DOCK_score>  (1) 
-43.566479

>  <SMILES>  (1) 
CCC[NH2+]Cc1c[nH]nc1-c1ccc(N[C@H]2CC(OC)C2(C)C)o1

$$$$
