C[C@@H](Cc1ccccc1)C[NH+](C)C1c2cc(O)ccc2-c2ccc(O)cc21
     RDKit          3D

 53 56  0  0  1  0  0  0  0  0999 V2000
  132.0974  137.2747  160.5846 C   0  0  0  0  0  0  0  0  0  0  0  0
  130.5915  137.1262  160.8115 C   0  0  1  0  0  0  0  0  0  0  0  0
  130.4082  136.8127  161.8391 H   0  0  0  0  0  0  0  0  0  0  0  0
  129.9027  138.4686  160.5574 C   0  0  0  0  0  0  0  0  0  0  0  0
  130.4540  139.5033  161.5043 C   0  0  0  0  0  0  0  0  0  0  0  0
  129.8584  139.6998  162.7363 C   0  0  0  0  0  0  0  0  0  0  0  0
  130.3669  140.6455  163.6068 C   0  0  0  0  0  0  0  0  0  0  0  0
  131.4646  141.4020  163.2414 C   0  0  0  0  0  0  0  0  0  0  0  0
  132.0569  141.2092  162.0072 C   0  0  0  0  0  0  0  0  0  0  0  0
  131.5516  140.2599  161.1388 C   0  0  0  0  0  0  0  0  0  0  0  0
  130.0320  136.0759  159.8499 C   0  0  0  0  0  0  0  0  0  0  0  0
  128.7444  135.5837  160.3578 N   0  0  2  0  0  0  0  0  0  0  0  0
  128.2161  136.3546  160.7380 H   0  0  0  0  0  0  0  0  0  0  0  0
  128.9821  134.5866  161.4099 C   0  0  0  0  0  0  0  0  0  0  0  0
  127.9886  134.9664  159.2598 C   0  0  0  0  0  0  0  0  0  0  0  0
  128.7274  133.7600  158.7342 C   0  0  0  0  0  0  0  0  0  0  0  0
  129.9734  133.6154  158.1635 C   0  0  0  0  0  0  0  0  0  0  0  0
  130.4104  132.3613  157.7588 C   0  0  0  0  0  0  0  0  0  0  0  0
  131.6371  132.2192  157.1917 O   0  0  0  0  0  0  0  0  0  0  0  0
  129.5959  131.2514  157.9390 C   0  0  0  0  0  0  0  0  0  0  0  0
  128.3513  131.3909  158.5141 C   0  0  0  0  0  0  0  0  0  0  0  0
  127.9050  132.6514  158.9181 C   0  0  0  0  0  0  0  0  0  0  0  0
  126.6338  133.0792  159.5527 C   0  0  0  0  0  0  0  0  0  0  0  0
  125.5062  132.3483  159.9340 C   0  0  0  0  0  0  0  0  0  0  0  0
  124.4330  132.9886  160.5149 C   0  0  0  0  0  0  0  0  0  0  0  0
  124.4682  134.3607  160.7242 C   0  0  0  0  0  0  0  0  0  0  0  0
  123.4084  134.9881  161.2983 O   0  0  0  0  0  0  0  0  0  0  0  0
  125.5870  135.0916  160.3473 C   0  0  0  0  0  0  0  0  0  0  0  0
  126.6618  134.4551  159.7654 C   0  0  0  0  0  0  0  0  0  0  0  0
  132.5778  136.3016  160.6863 H   0  0  0  0  0  0  0  0  0  0  0  0
  132.2771  137.6658  159.5832 H   0  0  0  0  0  0  0  0  0  0  0  0
  132.5100  137.9624  161.3227 H   0  0  0  0  0  0  0  0  0  0  0  0
  130.0862  138.7823  159.5296 H   0  0  0  0  0  0  0  0  0  0  0  0
  128.8300  138.3629  160.7190 H   0  0  0  0  0  0  0  0  0  0  0  0
  128.9981  139.1117  163.0200 H   0  0  0  0  0  0  0  0  0  0  0  0
  129.9039  140.7963  164.5708 H   0  0  0  0  0  0  0  0  0  0  0  0
  131.8591  142.1440  163.9197 H   0  0  0  0  0  0  0  0  0  0  0  0
  132.9143  141.8005  161.7216 H   0  0  0  0  0  0  0  0  0  0  0  0
  132.0142  140.1095  160.1745 H   0  0  0  0  0  0  0  0  0  0  0  0
  130.7331  135.2451  159.7714 H   0  0  0  0  0  0  0  0  0  0  0  0
  129.8875  136.5237  158.8668 H   0  0  0  0  0  0  0  0  0  0  0  0
  128.0308  134.1582  161.7261 H   0  0  0  0  0  0  0  0  0  0  0  0
  129.6256  133.7964  161.0231 H   0  0  0  0  0  0  0  0  0  0  0  0
  129.4659  135.0650  162.2615 H   0  0  0  0  0  0  0  0  0  0  0  0
  127.8318  135.6888  158.4587 H   0  0  0  0  0  0  0  0  0  0  0  0
  130.6086  134.4784  158.0277 H   0  0  0  0  0  0  0  0  0  0  0  0
  132.1318  133.0463  157.1119 H   0  0  0  0  0  0  0  0  0  0  0  0
  129.9388  130.2757  157.6277 H   0  0  0  0  0  0  0  0  0  0  0  0
  127.7207  130.5251  158.6530 H   0  0  0  0  0  0  0  0  0  0  0  0
  125.4751  131.2807  159.7730 H   0  0  0  0  0  0  0  0  0  0  0  0
  123.5621  132.4214  160.8085 H   0  0  0  0  0  0  0  0  0  0  0  0
  123.5255  135.9423  161.4027 H   0  0  0  0  0  0  0  0  0  0  0  0
  125.6147  136.1589  160.5099 H   0  0  0  0  0  0  0  0  0  0  0  0
  1  2  1  0
  1 30  1  0
  1 31  1  0
  1 32  1  0
  2  3  1  1
  2  4  1  0
  2 11  1  0
  4  5  1  0
  4 33  1  0
  4 34  1  0
  5 10  1  0
  5  6  2  0
  6  7  1  0
  6 35  1  0
  7  8  2  0
  7 36  1  0
  8  9  1  0
  8 37  1  0
  9 10  2  0
  9 38  1  0
 10 39  1  0
 11 12  1  0
 11 40  1  0
 11 41  1  0
 12 13  1  1
 12 14  1  0
 12 15  1  0
 14 42  1  0
 14 43  1  0
 14 44  1  0
 15 29  1  0
 15 16  1  0
 15 45  1  0
 16 22  1  0
 16 17  2  0
 17 18  1  0
 17 46  1  0
 18 19  1  0
 18 20  2  0
 19 47  1  0
 20 21  1  0
 20 48  1  0
 21 22  2  0
 21 49  1  0
 22 23  1  0
 23 29  2  0
 23 24  1  0
 24 25  2  0
 24 50  1  0
 25 26  1  0
 25 51  1  0
 26 27  1  0
 26 28  2  0
 27 52  1  0
 28 29  1  0
 28 53  1  0
M  CHG  1  12   1
M  END
>  <DOCK_score>  (1) 
-44.539001

>  <SMILES>  (1) 
C[C@@H](Cc1ccccc1)C[NH+](C)C1c2cc(O)ccc2-c2ccc(O)cc21

$$$$
