Cc1ccc(C=C[C@@H](Cc2ccccc2)Nc2[nH]cc(-c3ccc(N)cc3)[nH+]2)cc1
     RDKit          3D

 57 60  0  0  1  0  0  0  0  0999 V2000
  137.3521  138.6866  162.3873 C   0  0  0  0  0  0  0  0  0  0  0  0
  136.0410  138.1216  161.9048 C   0  0  0  0  0  0  0  0  0  0  0  0
  135.2607  137.3645  162.7603 C   0  0  0  0  0  0  0  0  0  0  0  0
  134.0594  136.8443  162.3247 C   0  0  0  0  0  0  0  0  0  0  0  0
  133.6319  137.0833  161.0182 C   0  0  0  0  0  0  0  0  0  0  0  0
  132.3458  136.5291  160.5449 C   0  0  0  0  0  0  0  0  0  0  0  0
  131.4221  136.1573  161.4199 C   0  0  0  0  0  0  0  0  0  0  0  0
  130.1110  135.5921  160.9373 C   0  0  1  0  0  0  0  0  0  0  0  0
  129.9862  134.5812  161.3253 H   0  0  0  0  0  0  0  0  0  0  0  0
  128.9627  136.4737  161.4320 C   0  0  0  0  0  0  0  0  0  0  0  0
  127.6754  135.6913  161.3917 C   0  0  0  0  0  0  0  0  0  0  0  0
  126.8885  135.7133  160.2554 C   0  0  0  0  0  0  0  0  0  0  0  0
  125.7101  134.9917  160.2165 C   0  0  0  0  0  0  0  0  0  0  0  0
  125.3133  134.2565  161.3180 C   0  0  0  0  0  0  0  0  0  0  0  0
  126.0976  134.2386  162.4562 C   0  0  0  0  0  0  0  0  0  0  0  0
  127.2786  134.9561  162.4930 C   0  0  0  0  0  0  0  0  0  0  0  0
  130.1040  135.5573  159.4727 N   0  0  0  0  0  0  0  0  0  0  0  0
  129.9529  134.3513  158.8097 C   0  0  0  0  0  0  0  0  0  0  0  0
  129.2577  133.2758  159.2695 N   0  0  0  0  0  0  0  0  0  0  0  0
  128.7831  133.2163  160.1135 H   0  0  0  0  0  0  0  0  0  0  0  0
  129.3525  132.2888  158.3172 C   0  0  0  0  0  0  0  0  0  0  0  0
  130.1022  132.7902  157.3047 C   0  0  0  0  0  0  0  0  0  0  0  0
  130.4711  132.0785  156.0563 C   0  0  0  0  0  0  0  0  0  0  0  0
  130.0780  132.5885  154.8200 C   0  0  0  0  0  0  0  0  0  0  0  0
  130.4264  131.9281  153.6606 C   0  0  0  0  0  0  0  0  0  0  0  0
  131.1590  130.7493  153.7246 C   0  0  0  0  0  0  0  0  0  0  0  0
  131.5059  130.0791  152.5489 N   0  0  0  0  0  0  0  0  0  0  0  0
  131.5475  130.2357  154.9567 C   0  0  0  0  0  0  0  0  0  0  0  0
  131.2063  130.8958  156.1183 C   0  0  0  0  0  0  0  0  0  0  0  0
  130.4513  134.0592  157.6330 N   0  0  0  0  0  0  0  0  0  0  0  0
  130.9863  134.6549  157.0854 H   0  0  0  0  0  0  0  0  0  0  0  0
  134.4261  137.8429  160.1585 C   0  0  0  0  0  0  0  0  0  0  0  0
  135.6225  138.3626  160.6084 C   0  0  0  0  0  0  0  0  0  0  0  0
  138.1505  137.9714  162.1899 H   0  0  0  0  0  0  0  0  0  0  0  0
  137.5612  139.6186  161.8622 H   0  0  0  0  0  0  0  0  0  0  0  0
  137.2926  138.8785  163.4586 H   0  0  0  0  0  0  0  0  0  0  0  0
  135.5930  137.1799  163.7713 H   0  0  0  0  0  0  0  0  0  0  0  0
  133.4510  136.2537  162.9936 H   0  0  0  0  0  0  0  0  0  0  0  0
  132.1607  136.4229  159.4862 H   0  0  0  0  0  0  0  0  0  0  0  0
  131.6090  136.2593  162.4787 H   0  0  0  0  0  0  0  0  0  0  0  0
  129.1631  136.7910  162.4554 H   0  0  0  0  0  0  0  0  0  0  0  0
  128.8752  137.3505  160.7903 H   0  0  0  0  0  0  0  0  0  0  0  0
  127.1963  136.2913  159.3965 H   0  0  0  0  0  0  0  0  0  0  0  0
  125.0972  135.0059  159.3275 H   0  0  0  0  0  0  0  0  0  0  0  0
  124.3904  133.6963  161.2893 H   0  0  0  0  0  0  0  0  0  0  0  0
  125.7874  133.6646  163.3167 H   0  0  0  0  0  0  0  0  0  0  0  0
  127.8912  134.9424  163.3824 H   0  0  0  0  0  0  0  0  0  0  0  0
  130.2051  136.3791  158.9675 H   0  0  0  0  0  0  0  0  0  0  0  0
  128.9140  131.3031  158.3662 H   0  0  0  0  0  0  0  0  0  0  0  0
  129.5045  133.5023  154.7699 H   0  0  0  0  0  0  0  0  0  0  0  0
  130.1260  132.3252  152.7024 H   0  0  0  0  0  0  0  0  0  0  0  0
  132.0177  129.2555  152.5932 H   0  0  0  0  0  0  0  0  0  0  0  0
  131.2354  130.4359  151.6892 H   0  0  0  0  0  0  0  0  0  0  0  0
  132.1168  129.3192  155.0042 H   0  0  0  0  0  0  0  0  0  0  0  0
  131.5085  130.4969  157.0752 H   0  0  0  0  0  0  0  0  0  0  0  0
  134.1029  138.0277  159.1447 H   0  0  0  0  0  0  0  0  0  0  0  0
  136.2360  138.9548  159.9455 H   0  0  0  0  0  0  0  0  0  0  0  0
  1  2  1  0
  1 34  1  0
  1 35  1  0
  1 36  1  0
  2 33  2  0
  2  3  1  0
  3  4  2  0
  3 37  1  0
  4  5  1  0
  4 38  1  0
  5  6  1  0
  5 32  2  0
  6  7  2  0
  6 39  1  0
  7  8  1  0
  7 40  1  0
  8  9  1  1
  8 10  1  0
  8 17  1  0
 10 11  1  0
 10 41  1  0
 10 42  1  0
 11 16  1  0
 11 12  2  0
 12 13  1  0
 12 43  1  0
 13 14  2  0
 13 44  1  0
 14 15  1  0
 14 45  1  0
 15 16  2  0
 15 46  1  0
 16 47  1  0
 17 48  1  0
 18 17  1  0
 18 30  2  0
 18 19  1  0
 19 20  1  0
 19 21  1  0
 21 22  2  0
 21 49  1  0
 22 23  1  0
 22 30  1  0
 23 29  1  0
 23 24  2  0
 24 25  1  0
 24 50  1  0
 25 26  2  0
 25 51  1  0
 26 27  1  0
 26 28  1  0
 27 52  1  0
 27 53  1  0
 28 29  2  0
 28 54  1  0
 29 55  1  0
 30 31  1  0
 32 33  1  0
 32 56  1  0
 33 57  1  0
M  CHG  1  30   1
M  END
>  <DOCK_score>  (1) 
-56.039955

>  <SMILES>  (1) 
Cc1ccc(C=C[C@@H](Cc2ccccc2)Nc2[nH]cc(-c3ccc(N)cc3)[nH+]2)cc1

$$$$
