Cc1[nH]c(N[C@@H]2C[C@@H](O)C[C@H]2[C@@H](O)c2c[nH]c3ccccc23)[nH+]c1C
     RDKit          3D

 50 53  0  0  1  0  0  0  0  0999 V2000
  130.6372  129.8159  157.8391 C   0  0  0  0  0  0  0  0  0  0  0  0
  130.6558  131.2894  157.5231 C   0  0  0  0  0  0  0  0  0  0  0  0
  130.3762  132.3017  158.3883 N   0  0  0  0  0  0  0  0  0  0  0  0
  130.1281  132.2009  159.3207 H   0  0  0  0  0  0  0  0  0  0  0  0
  130.5012  133.4531  157.7347 C   0  0  0  0  0  0  0  0  0  0  0  0
  130.2994  134.7105  158.2715 N   0  0  0  0  0  0  0  0  0  0  0  0
  129.9128  134.8534  159.6774 C   0  0  2  0  0  0  0  0  0  0  0  0
  130.4617  134.1385  160.2904 H   0  0  0  0  0  0  0  0  0  0  0  0
  128.3986  134.6281  159.8331 C   0  0  0  0  0  0  0  0  0  0  0  0
  127.8150  135.9366  160.4049 C   0  0  1  0  0  0  0  0  0  0  0  0
  127.4395  136.5701  159.6014 H   0  0  0  0  0  0  0  0  0  0  0  0
  126.7764  135.6551  161.3452 O   0  0  0  0  0  0  0  0  0  0  0  0
  129.0169  136.6120  161.1110 C   0  0  0  0  0  0  0  0  0  0  0  0
  130.1965  136.2909  160.1599 C   0  0  1  0  0  0  0  0  0  0  0  0
  130.2069  136.9830  159.3179 H   0  0  0  0  0  0  0  0  0  0  0  0
  131.5252  136.3495  160.9161 C   0  0  1  0  0  0  0  0  0  0  0  0
  131.3790  135.9931  161.9358 H   0  0  0  0  0  0  0  0  0  0  0  0
  132.4859  135.5229  160.2559 O   0  0  0  0  0  0  0  0  0  0  0  0
  132.0231  137.7716  160.9475 C   0  0  0  0  0  0  0  0  0  0  0  0
  132.8198  138.3588  160.0406 C   0  0  0  0  0  0  0  0  0  0  0  0
  133.0604  139.6564  160.4019 N   0  0  0  0  0  0  0  0  0  0  0  0
  133.6095  140.2812  159.9027 H   0  0  0  0  0  0  0  0  0  0  0  0
  132.4078  139.9430  161.5798 C   0  0  0  0  0  0  0  0  0  0  0  0
  132.3151  141.0841  162.3704 C   0  0  0  0  0  0  0  0  0  0  0  0
  131.5633  141.0578  163.5243 C   0  0  0  0  0  0  0  0  0  0  0  0
  130.8957  139.9026  163.9082 C   0  0  0  0  0  0  0  0  0  0  0  0
  130.9731  138.7708  163.1469 C   0  0  0  0  0  0  0  0  0  0  0  0
  131.7243  138.7770  161.9700 C   0  0  0  0  0  0  0  0  0  0  0  0
  130.8470  133.1933  156.4770 N   0  0  0  0  0  0  0  0  0  0  0  0
  130.9999  133.8519  155.7815 H   0  0  0  0  0  0  0  0  0  0  0  0
  130.9520  131.8441  156.3353 C   0  0  0  0  0  0  0  0  0  0  0  0
  131.3264  131.1064  155.0756 C   0  0  0  0  0  0  0  0  0  0  0  0
  129.6416  129.4159  157.6471 H   0  0  0  0  0  0  0  0  0  0  0  0
  131.3633  129.3005  157.2107 H   0  0  0  0  0  0  0  0  0  0  0  0
  130.8930  129.6661  158.8879 H   0  0  0  0  0  0  0  0  0  0  0  0
  130.4137  135.4985  157.7174 H   0  0  0  0  0  0  0  0  0  0  0  0
  128.2127  133.8040  160.5218 H   0  0  0  0  0  0  0  0  0  0  0  0
  127.9508  134.4120  158.8632 H   0  0  0  0  0  0  0  0  0  0  0  0
  127.0441  135.0631  162.0615 H   0  0  0  0  0  0  0  0  0  0  0  0
  129.1834  136.1732  162.0947 H   0  0  0  0  0  0  0  0  0  0  0  0
  128.8647  137.6886  161.1877 H   0  0  0  0  0  0  0  0  0  0  0  0
  132.6660  135.7823  159.3418 H   0  0  0  0  0  0  0  0  0  0  0  0
  133.2128  137.8783  159.1568 H   0  0  0  0  0  0  0  0  0  0  0  0
  132.8304  141.9877  162.0800 H   0  0  0  0  0  0  0  0  0  0  0  0
  131.4929  141.9446  164.1368 H   0  0  0  0  0  0  0  0  0  0  0  0
  130.3108  139.8986  164.8161 H   0  0  0  0  0  0  0  0  0  0  0  0
  130.4512  137.8758  163.4520 H   0  0  0  0  0  0  0  0  0  0  0  0
  130.4256  130.8837  154.5037 H   0  0  0  0  0  0  0  0  0  0  0  0
  131.9933  131.7262  154.4763 H   0  0  0  0  0  0  0  0  0  0  0  0
  131.8309  130.1760  155.3357 H   0  0  0  0  0  0  0  0  0  0  0  0
  1  2  1  0
  1 33  1  0
  1 34  1  0
  1 35  1  0
  2 31  2  0
  2  3  1  0
  3  4  1  0
  3  5  1  0
  5  6  1  0
  5 29  2  0
  6  7  1  0
  6 36  1  0
  7  8  1  1
  7 14  1  0
  7  9  1  0
  9 10  1  0
  9 37  1  0
  9 38  1  0
 10 11  1  6
 10 12  1  0
 10 13  1  0
 12 39  1  0
 13 14  1  0
 13 40  1  0
 13 41  1  0
 14 15  1  6
 14 16  1  0
 16 17  1  1
 16 18  1  0
 16 19  1  0
 18 42  1  0
 19 28  1  0
 19 20  2  0
 20 21  1  0
 20 43  1  0
 21 22  1  0
 21 23  1  0
 23 28  2  0
 23 24  1  0
 24 25  2  0
 24 44  1  0
 25 26  1  0
 25 45  1  0
 26 27  2  0
 26 46  1  0
 27 28  1  0
 27 47  1  0
 29 30  1  0
 29 31  1  0
 31 32  1  0
 32 48  1  0
 32 49  1  0
 32 50  1  0
M  CHG  1  29   1
M  END
>  <DOCK_score>  (1) 
-50.864853

>  <SMILES>  (1) 
Cc1[nH]c(N[C@@H]2C[C@@H](O)C[C@H]2[C@@H](O)c2c[nH]c3ccccc23)[nH+]c1C

$$$$
