Oc1cc(Br)cc(CNC(NC2CC=CC2)=[NH+]Cc2nc(-c3ccccc3)c[nH]2)c1
     RDKit          3D

 55 58  0  0  1  0  0  0  0  0999 V2000
  124.5656  135.7667  163.4660 O   0  0  0  0  0  0  0  0  0  0  0  0
  125.7936  135.7888  164.0478 C   0  0  0  0  0  0  0  0  0  0  0  0
  125.9450  135.3850  165.3664 C   0  0  0  0  0  0  0  0  0  0  0  0
  127.1950  135.4088  165.9557 C   0  0  0  0  0  0  0  0  0  0  0  0
  127.4027  134.8591  167.7532 Br  0  0  0  0  0  0  0  0  0  0  0  0
  128.2952  135.8297  165.2298 C   0  0  0  0  0  0  0  0  0  0  0  0
  128.1451  136.2378  163.9176 C   0  0  0  0  0  0  0  0  0  0  0  0
  129.3444  136.7014  163.1316 C   0  0  0  0  0  0  0  0  0  0  0  0
  129.3181  136.0958  161.7980 N   0  0  0  0  0  0  0  0  0  0  0  0
  130.3182  136.3741  160.8966 C   0  0  0  0  0  0  0  0  0  0  0  0
  130.2933  135.8056  159.6451 N   0  0  0  0  0  0  0  0  0  0  0  0
  129.2011  134.9033  159.2719 C   0  0  0  0  0  0  0  0  0  0  0  0
  129.2691  133.5860  160.0789 C   0  0  0  0  0  0  0  0  0  0  0  0
  128.8494  132.5140  159.1003 C   0  0  0  0  0  0  0  0  0  0  0  0
  128.9091  132.9500  157.8715 C   0  0  0  0  0  0  0  0  0  0  0  0
  129.3784  134.3856  157.8257 C   0  0  0  0  0  0  0  0  0  0  0  0
  131.2900  137.1769  161.2286 N   0  0  0  0  0  0  0  0  0  0  0  0
  131.3075  137.5779  162.1117 H   0  0  0  0  0  0  0  0  0  0  0  0
  132.3557  137.4735  160.2681 C   0  0  0  0  0  0  0  0  0  0  0  0
  133.3474  138.4195  160.8945 C   0  0  0  0  0  0  0  0  0  0  0  0
  133.2707  138.9069  162.1010 N   0  0  0  0  0  0  0  0  0  0  0  0
  134.3297  139.7122  162.3218 C   0  0  0  0  0  0  0  0  0  0  0  0
  134.6167  140.4579  163.5720 C   0  0  0  0  0  0  0  0  0  0  0  0
  135.9339  140.7228  163.9415 C   0  0  0  0  0  0  0  0  0  0  0  0
  136.1948  141.4219  165.1025 C   0  0  0  0  0  0  0  0  0  0  0  0
  135.1521  141.8492  165.9048 C   0  0  0  0  0  0  0  0  0  0  0  0
  133.8429  141.5840  165.5458 C   0  0  0  0  0  0  0  0  0  0  0  0
  133.5701  140.8908  164.3840 C   0  0  0  0  0  0  0  0  0  0  0  0
  135.0833  139.7230  161.1913 C   0  0  0  0  0  0  0  0  0  0  0  0
  134.4565  138.9041  160.2940 N   0  0  0  0  0  0  0  0  0  0  0  0
  134.7535  138.7073  159.3919 H   0  0  0  0  0  0  0  0  0  0  0  0
  126.8976  136.2156  163.3242 C   0  0  0  0  0  0  0  0  0  0  0  0
  124.5607  136.0661  162.5466 H   0  0  0  0  0  0  0  0  0  0  0  0
  125.0870  135.0527  165.9318 H   0  0  0  0  0  0  0  0  0  0  0  0
  129.2720  135.8433  165.6902 H   0  0  0  0  0  0  0  0  0  0  0  0
  130.2559  136.4018  163.6488 H   0  0  0  0  0  0  0  0  0  0  0  0
  129.3199  137.7872  163.0381 H   0  0  0  0  0  0  0  0  0  0  0  0
  128.5929  135.5015  161.5494 H   0  0  0  0  0  0  0  0  0  0  0  0
  130.9990  136.0019  159.0091 H   0  0  0  0  0  0  0  0  0  0  0  0
  128.2341  135.3904  159.3975 H   0  0  0  0  0  0  0  0  0  0  0  0
  130.2864  133.4057  160.4265 H   0  0  0  0  0  0  0  0  0  0  0  0
  128.5795  133.6213  160.9223 H   0  0  0  0  0  0  0  0  0  0  0  0
  128.5404  131.5179  159.3808 H   0  0  0  0  0  0  0  0  0  0  0  0
  128.6558  132.3621  157.0016 H   0  0  0  0  0  0  0  0  0  0  0  0
  128.7630  134.9645  157.1371 H   0  0  0  0  0  0  0  0  0  0  0  0
  130.4265  134.4349  157.5305 H   0  0  0  0  0  0  0  0  0  0  0  0
  132.8613  136.5489  159.9896 H   0  0  0  0  0  0  0  0  0  0  0  0
  131.9254  137.9344  159.3790 H   0  0  0  0  0  0  0  0  0  0  0  0
  136.7490  140.3856  163.3183 H   0  0  0  0  0  0  0  0  0  0  0  0
  137.2151  141.6317  165.3877 H   0  0  0  0  0  0  0  0  0  0  0  0
  135.3610  142.3916  166.8150 H   0  0  0  0  0  0  0  0  0  0  0  0
  133.0326  141.9201  166.1757 H   0  0  0  0  0  0  0  0  0  0  0  0
  132.5475  140.6846  164.1045 H   0  0  0  0  0  0  0  0  0  0  0  0
  135.9994  140.2722  161.0322 H   0  0  0  0  0  0  0  0  0  0  0  0
  126.7818  136.5308  162.2977 H   0  0  0  0  0  0  0  0  0  0  0  0
  1  2  1  0
  1 33  1  0
  2 32  2  0
  2  3  1  0
  3  4  2  0
  3 34  1  0
  4  5  1  0
  4  6  1  0
  6  7  2  0
  6 35  1  0
  7  8  1  0
  7 32  1  0
  8  9  1  0
  8 36  1  0
  8 37  1  0
  9 38  1  0
 10  9  1  0
 10 11  1  0
 10 17  2  0
 11 12  1  0
 11 39  1  0
 12 16  1  0
 12 13  1  0
 12 40  1  0
 13 14  1  0
 13 41  1  0
 13 42  1  0
 14 15  2  0
 14 43  1  0
 15 16  1  0
 15 44  1  0
 16 45  1  0
 16 46  1  0
 17 18  1  0
 17 19  1  0
 19 20  1  0
 19 47  1  0
 19 48  1  0
 20 30  1  0
 20 21  2  0
 21 22  1  0
 22 23  1  0
 22 29  2  0
 23 28  1  0
 23 24  2  0
 24 25  1  0
 24 49  1  0
 25 26  2  0
 25 50  1  0
 26 27  1  0
 26 51  1  0
 27 28  2  0
 27 52  1  0
 28 53  1  0
 29 30  1  0
 29 54  1  0
 30 31  1  0
 32 55  1  0
M  CHG  1  17   1
M  END
>  <DOCK_score>  (1) 
-44.560497

>  <SMILES>  (1) 
Oc1cc(Br)cc(CNC(NC2CC=CC2)=[NH+]Cc2nc(-c3ccccc3)c[nH]2)c1

$$$$
