Cc1ccc([C@H](Nc2[nH]cc(-c3ccc(N)cc3)[nH+]2)c2ccccn2)cc1
     RDKit          3D

 49 52  0  0  1  0  0  0  0  0999 V2000
  130.8104  140.5516  162.2866 C   0  0  0  0  0  0  0  0  0  0  0  0
  130.5066  139.1704  161.7664 C   0  0  0  0  0  0  0  0  0  0  0  0
  130.3547  138.1173  162.6488 C   0  0  0  0  0  0  0  0  0  0  0  0
  130.0704  136.8513  162.1721 C   0  0  0  0  0  0  0  0  0  0  0  0
  129.9438  136.6373  160.8122 C   0  0  0  0  0  0  0  0  0  0  0  0
  129.6348  135.2569  160.2923 C   0  0  2  0  0  0  0  0  0  0  0  0
  130.0519  134.5117  160.9696 H   0  0  0  0  0  0  0  0  0  0  0  0
  130.2257  135.0927  158.9618 N   0  0  0  0  0  0  0  0  0  0  0  0
  130.0732  133.8979  158.2794 C   0  0  0  0  0  0  0  0  0  0  0  0
  129.3954  132.8080  158.7312 N   0  0  0  0  0  0  0  0  0  0  0  0
  128.9362  132.7288  159.5821 H   0  0  0  0  0  0  0  0  0  0  0  0
  129.4818  131.8396  157.7592 C   0  0  0  0  0  0  0  0  0  0  0  0
  130.2092  132.3661  156.7432 C   0  0  0  0  0  0  0  0  0  0  0  0
  130.5620  131.6808  155.4756 C   0  0  0  0  0  0  0  0  0  0  0  0
  130.1429  132.2102  154.2559 C   0  0  0  0  0  0  0  0  0  0  0  0
  130.4764  131.5744  153.0786 C   0  0  0  0  0  0  0  0  0  0  0  0
  131.2199  130.4009  153.1078 C   0  0  0  0  0  0  0  0  0  0  0  0
  131.5516  129.7557  151.9141 N   0  0  0  0  0  0  0  0  0  0  0  0
  131.6345  129.8682  154.3232 C   0  0  0  0  0  0  0  0  0  0  0  0
  131.3082  130.5036  155.5026 C   0  0  0  0  0  0  0  0  0  0  0  0
  130.5532  133.6319  157.0889 N   0  0  0  0  0  0  0  0  0  0  0  0
  131.0734  134.2423  156.5432 H   0  0  0  0  0  0  0  0  0  0  0  0
  128.1413  135.0759  160.2044 C   0  0  0  0  0  0  0  0  0  0  0  0
  127.3975  135.9162  159.3973 C   0  0  0  0  0  0  0  0  0  0  0  0
  126.0249  135.7380  159.3196 C   0  0  0  0  0  0  0  0  0  0  0  0
  125.4478  134.7232  160.0682 C   0  0  0  0  0  0  0  0  0  0  0  0
  126.2549  133.9256  160.8568 C   0  0  0  0  0  0  0  0  0  0  0  0
  127.5585  134.1211  160.9024 N   0  0  0  0  0  0  0  0  0  0  0  0
  130.1009  137.6893  159.9294 C   0  0  0  0  0  0  0  0  0  0  0  0
  130.3843  138.9554  160.4063 C   0  0  0  0  0  0  0  0  0  0  0  0
  131.8902  140.6869  162.3493 H   0  0  0  0  0  0  0  0  0  0  0  0
  130.3898  141.2954  161.6099 H   0  0  0  0  0  0  0  0  0  0  0  0
  130.3710  140.6717  163.2769 H   0  0  0  0  0  0  0  0  0  0  0  0
  130.4537  138.2845  163.7113 H   0  0  0  0  0  0  0  0  0  0  0  0
  129.9476  136.0294  162.8618 H   0  0  0  0  0  0  0  0  0  0  0  0
  130.7238  135.8212  158.5591 H   0  0  0  0  0  0  0  0  0  0  0  0
  129.0526  130.8493  157.7975 H   0  0  0  0  0  0  0  0  0  0  0  0
  129.5610  133.1197  154.2329 H   0  0  0  0  0  0  0  0  0  0  0  0
  130.1559  131.9865  152.1332 H   0  0  0  0  0  0  0  0  0  0  0  0
  132.0711  128.9360  151.9341 H   0  0  0  0  0  0  0  0  0  0  0  0
  131.2630  130.1261  151.0659 H   0  0  0  0  0  0  0  0  0  0  0  0
  132.2122  128.9559  154.3436 H   0  0  0  0  0  0  0  0  0  0  0  0
  131.6306  130.0898  156.4466 H   0  0  0  0  0  0  0  0  0  0  0  0
  127.8801  136.6996  158.8318 H   0  0  0  0  0  0  0  0  0  0  0  0
  125.4190  136.3767  158.6942 H   0  0  0  0  0  0  0  0  0  0  0  0
  124.3809  134.5586  160.0355 H   0  0  0  0  0  0  0  0  0  0  0  0
  125.8133  133.1333  161.4426 H   0  0  0  0  0  0  0  0  0  0  0  0
  130.0027  137.5219  158.8669 H   0  0  0  0  0  0  0  0  0  0  0  0
  130.5074  139.7772  159.7166 H   0  0  0  0  0  0  0  0  0  0  0  0
  1  2  1  0
  1 31  1  0
  1 32  1  0
  1 33  1  0
  2 30  2  0
  2  3  1  0
  3  4  2  0
  3 34  1  0
  4  5  1  0
  4 35  1  0
  5  6  1  0
  5 29  2  0
  6  7  1  1
  6  8  1  0
  6 23  1  0
  8 36  1  0
  9  8  1  0
  9 21  2  0
  9 10  1  0
 10 11  1  0
 10 12  1  0
 12 13  2  0
 12 37  1  0
 13 14  1  0
 13 21  1  0
 14 20  1  0
 14 15  2  0
 15 16  1  0
 15 38  1  0
 16 17  2  0
 16 39  1  0
 17 18  1  0
 17 19  1  0
 18 40  1  0
 18 41  1  0
 19 20  2  0
 19 42  1  0
 20 43  1  0
 21 22  1  0
 23 28  1  0
 23 24  2  0
 24 25  1  0
 24 44  1  0
 25 26  2  0
 25 45  1  0
 26 27  1  0
 26 46  1  0
 27 28  2  0
 27 47  1  0
 29 30  1  0
 29 48  1  0
 30 49  1  0
M  CHG  1  21   1
M  END
>  <DOCK_score>  (1) 
-56.889839

>  <SMILES>  (1) 
Cc1ccc([C@H](Nc2[nH]cc(-c3ccc(N)cc3)[nH+]2)c2ccccn2)cc1

$$$$
