Nc1ccc(Cc2ccc(Nc3ccc(-c4n[nH]cc4C[NH2+]CCO)o3)cc2)cc1
     RDKit          3D

 56 59  0  0  0  0  0  0  0  0999 V2000
  126.3619  143.6097  168.2855 N   0  0  0  0  0  0  0  0  0  0  0  0
  127.1631  142.6244  167.7041 C   0  0  0  0  0  0  0  0  0  0  0  0
  127.2341  141.3593  168.2734 C   0  0  0  0  0  0  0  0  0  0  0  0
  128.0269  140.3873  167.6958 C   0  0  0  0  0  0  0  0  0  0  0  0
  128.7499  140.6723  166.5519 C   0  0  0  0  0  0  0  0  0  0  0  0
  129.6144  139.6090  165.9242 C   0  0  0  0  0  0  0  0  0  0  0  0
  128.8051  138.8338  164.9165 C   0  0  0  0  0  0  0  0  0  0  0  0
  128.1067  137.7076  165.3122 C   0  0  0  0  0  0  0  0  0  0  0  0
  127.3642  136.9948  164.3915 C   0  0  0  0  0  0  0  0  0  0  0  0
  127.3191  137.4106  163.0666 C   0  0  0  0  0  0  0  0  0  0  0  0
  126.5689  136.6921  162.1325 N   0  0  0  0  0  0  0  0  0  0  0  0
  127.1564  135.6523  161.4209 C   0  0  0  0  0  0  0  0  0  0  0  0
  126.5179  134.5481  160.9589 C   0  0  0  0  0  0  0  0  0  0  0  0
  127.4823  133.7613  160.2996 C   0  0  0  0  0  0  0  0  0  0  0  0
  128.6640  134.4267  160.3925 C   0  0  0  0  0  0  0  0  0  0  0  0
  129.9579  133.9738  159.8415 C   0  0  0  0  0  0  0  0  0  0  0  0
  130.1696  132.8556  159.1754 N   0  0  0  0  0  0  0  0  0  0  0  0
  131.5264  132.8044  158.8320 N   0  0  0  0  0  0  0  0  0  0  0  0
  131.9617  132.0922  158.3376 H   0  0  0  0  0  0  0  0  0  0  0  0
  132.1230  133.9211  159.3028 C   0  0  0  0  0  0  0  0  0  0  0  0
  131.1868  134.6605  159.9352 C   0  0  0  0  0  0  0  0  0  0  0  0
  131.4130  135.9865  160.6145 C   0  0  0  0  0  0  0  0  0  0  0  0
  131.2106  137.0731  159.6468 N   0  0  0  0  0  0  0  0  0  0  0  0
  131.8632  136.9703  158.8842 H   0  0  0  0  0  0  0  0  0  0  0  0
  130.2675  137.0346  159.2901 H   0  0  0  0  0  0  0  0  0  0  0  0
  131.4311  138.3659  160.3089 C   0  0  0  0  0  0  0  0  0  0  0  0
  131.2202  139.4976  159.3011 C   0  0  0  0  0  0  0  0  0  0  0  0
  132.1444  139.3519  158.2210 O   0  0  0  0  0  0  0  0  0  0  0  0
  128.4538  135.5691  161.0793 O   0  0  0  0  0  0  0  0  0  0  0  0
  128.0263  138.5394  162.6715 C   0  0  0  0  0  0  0  0  0  0  0  0
  128.7618  139.2508  163.5988 C   0  0  0  0  0  0  0  0  0  0  0  0
  128.6861  141.9322  165.9857 C   0  0  0  0  0  0  0  0  0  0  0  0
  127.8908  142.9073  166.5550 C   0  0  0  0  0  0  0  0  0  0  0  0
  125.8541  143.4109  169.0877 H   0  0  0  0  0  0  0  0  0  0  0  0
  126.3132  144.4928  167.8870 H   0  0  0  0  0  0  0  0  0  0  0  0
  126.6694  141.1360  169.1665 H   0  0  0  0  0  0  0  0  0  0  0  0
  128.0828  139.4036  168.1380 H   0  0  0  0  0  0  0  0  0  0  0  0
  129.9762  138.9319  166.6978 H   0  0  0  0  0  0  0  0  0  0  0  0
  130.4624  140.0779  165.4257 H   0  0  0  0  0  0  0  0  0  0  0  0
  128.1425  137.3848  166.3422 H   0  0  0  0  0  0  0  0  0  0  0  0
  126.8194  136.1151  164.7010 H   0  0  0  0  0  0  0  0  0  0  0  0
  125.6381  136.9187  161.9805 H   0  0  0  0  0  0  0  0  0  0  0  0
  125.4695  134.3161  161.0752 H   0  0  0  0  0  0  0  0  0  0  0  0
  127.3151  132.8115  159.8134 H   0  0  0  0  0  0  0  0  0  0  0  0
  133.1669  134.1763  159.1949 H   0  0  0  0  0  0  0  0  0  0  0  0
  130.7080  136.0976  161.4383 H   0  0  0  0  0  0  0  0  0  0  0  0
  132.4317  136.0284  160.9999 H   0  0  0  0  0  0  0  0  0  0  0  0
  130.7260  138.4770  161.1328 H   0  0  0  0  0  0  0  0  0  0  0  0
  132.4498  138.4075  160.6944 H   0  0  0  0  0  0  0  0  0  0  0  0
  130.2015  139.4559  158.9158 H   0  0  0  0  0  0  0  0  0  0  0  0
  131.3839  140.4567  159.7925 H   0  0  0  0  0  0  0  0  0  0  0  0
  132.0562  138.5192  157.7375 H   0  0  0  0  0  0  0  0  0  0  0  0
  127.9970  138.8627  161.6415 H   0  0  0  0  0  0  0  0  0  0  0  0
  129.3080  140.1312  163.2934 H   0  0  0  0  0  0  0  0  0  0  0  0
  129.2556  142.1530  165.0950 H   0  0  0  0  0  0  0  0  0  0  0  0
  127.8379  143.8899  166.1099 H   0  0  0  0  0  0  0  0  0  0  0  0
  1  2  1  0
  1 34  1  0
  1 35  1  0
  2 33  2  0
  2  3  1  0
  3  4  2  0
  3 36  1  0
  4  5  1  0
  4 37  1  0
  5  6  1  0
  5 32  2  0
  6  7  1  0
  6 38  1  0
  6 39  1  0
  7 31  1  0
  7  8  2  0
  8  9  1  0
  8 40  1  0
  9 10  2  0
  9 41  1  0
 10 11  1  0
 10 30  1  0
 11 12  1  0
 11 42  1  0
 12 29  1  0
 12 13  2  0
 13 14  1  0
 13 43  1  0
 14 15  2  0
 14 44  1  0
 15 16  1  0
 15 29  1  0
 16 21  1  0
 16 17  2  0
 17 18  1  0
 18 19  1  0
 18 20  1  0
 20 21  2  0
 20 45  1  0
 21 22  1  0
 22 23  1  0
 22 46  1  0
 22 47  1  0
 23 24  1  0
 23 25  1  0
 23 26  1  0
 26 27  1  0
 26 48  1  0
 26 49  1  0
 27 28  1  0
 27 50  1  0
 27 51  1  0
 28 52  1  0
 30 31  2  0
 30 53  1  0
 31 54  1  0
 32 33  1  0
 32 55  1  0
 33 56  1  0
M  CHG  1  23   1
M  END
>  <DOCK_score>  (1) 
-47.39101

>  <SMILES>  (1) 
Nc1ccc(Cc2ccc(Nc3ccc(-c4n[nH]cc4C[NH2+]CCO)o3)cc2)cc1

$$$$
