NNc1ccc([C@H](Nc2[nH]cc(-c3ccc(C4=CCC=CC4)cc3)[nH+]2)C2=CCOCC2)cn1
     RDKit          3D

 62 66  0  0  1  0  0  0  0  0999 V2000
  134.1726  140.9948  163.7611 N   0  0  0  0  0  0  0  0  0  0  0  0
  133.5967  140.7470  162.5474 N   0  0  0  0  0  0  0  0  0  0  0  0
  133.1125  139.4773  162.2544 C   0  0  0  0  0  0  0  0  0  0  0  0
  133.2180  138.4635  163.2015 C   0  0  0  0  0  0  0  0  0  0  0  0
  132.7322  137.2052  162.8966 C   0  0  0  0  0  0  0  0  0  0  0  0
  132.1549  137.0016  161.6500 C   0  0  0  0  0  0  0  0  0  0  0  0
  131.6123  135.6468  161.2746 C   0  0  2  0  0  0  0  0  0  0  0  0
  132.1812  134.8723  161.7889 H   0  0  0  0  0  0  0  0  0  0  0  0
  131.7288  135.4581  159.8265 N   0  0  0  0  0  0  0  0  0  0  0  0
  131.2922  134.2804  159.2446 C   0  0  0  0  0  0  0  0  0  0  0  0
  130.7337  133.2295  159.9050 N   0  0  0  0  0  0  0  0  0  0  0  0
  130.5717  133.1715  160.8596 H   0  0  0  0  0  0  0  0  0  0  0  0
  130.4423  132.2661  158.9705 C   0  0  0  0  0  0  0  0  0  0  0  0
  130.8307  132.7555  157.7662 C   0  0  0  0  0  0  0  0  0  0  0  0
  130.7105  132.0611  156.4622 C   0  0  0  0  0  0  0  0  0  0  0  0
  129.9496  132.6267  155.4385 C   0  0  0  0  0  0  0  0  0  0  0  0
  129.8415  131.9847  154.2255 C   0  0  0  0  0  0  0  0  0  0  0  0
  130.4851  130.7625  154.0228 C   0  0  0  0  0  0  0  0  0  0  0  0
  130.3654  130.0702  152.7236 C   0  0  0  0  0  0  0  0  0  0  0  0
  130.4302  128.7565  152.6995 C   0  0  0  0  0  0  0  0  0  0  0  0
  130.3133  127.9647  151.4309 C   0  0  0  0  0  0  0  0  0  0  0  0
  130.6027  128.8178  150.2331 C   0  0  0  0  0  0  0  0  0  0  0  0
  130.5443  130.1137  150.2567 C   0  0  0  0  0  0  0  0  0  0  0  0
  130.1810  130.8933  151.4838 C   0  0  0  0  0  0  0  0  0  0  0  0
  131.2423  130.1936  155.0502 C   0  0  0  0  0  0  0  0  0  0  0  0
  131.3536  130.8393  156.2611 C   0  0  0  0  0  0  0  0  0  0  0  0
  131.3434  133.9960  157.9663 N   0  0  0  0  0  0  0  0  0  0  0  0
  131.6937  134.5783  157.2740 H   0  0  0  0  0  0  0  0  0  0  0  0
  130.1630  135.5568  161.6779 C   0  0  0  0  0  0  0  0  0  0  0  0
  129.2531  135.9255  160.8262 C   0  0  0  0  0  0  0  0  0  0  0  0
  127.7832  135.8824  161.1337 C   0  0  0  0  0  0  0  0  0  0  0  0
  127.5452  135.0710  162.2857 O   0  0  0  0  0  0  0  0  0  0  0  0
  128.3809  135.4170  163.3972 C   0  0  0  0  0  0  0  0  0  0  0  0
  129.8246  135.0379  163.0482 C   0  0  0  0  0  0  0  0  0  0  0  0
  132.0883  138.0512  160.7563 C   0  0  0  0  0  0  0  0  0  0  0  0
  132.5556  139.2433  161.0763 N   0  0  0  0  0  0  0  0  0  0  0  0
  134.4746  141.9553  163.8286 H   0  0  0  0  0  0  0  0  0  0  0  0
  133.5439  140.7598  164.5145 H   0  0  0  0  0  0  0  0  0  0  0  0
  133.5257  141.4567  161.8902 H   0  0  0  0  0  0  0  0  0  0  0  0
  133.6727  138.6570  164.1618 H   0  0  0  0  0  0  0  0  0  0  0  0
  132.8006  136.3987  163.6118 H   0  0  0  0  0  0  0  0  0  0  0  0
  132.1082  136.1601  159.2750 H   0  0  0  0  0  0  0  0  0  0  0  0
  129.9899  131.3035  159.1584 H   0  0  0  0  0  0  0  0  0  0  0  0
  129.4487  133.5705  155.5964 H   0  0  0  0  0  0  0  0  0  0  0  0
  129.2559  132.4245  153.4319 H   0  0  0  0  0  0  0  0  0  0  0  0
  130.5693  128.2273  153.6306 H   0  0  0  0  0  0  0  0  0  0  0  0
  129.3034  127.5631  151.3479 H   0  0  0  0  0  0  0  0  0  0  0  0
  131.0245  127.1392  151.4617 H   0  0  0  0  0  0  0  0  0  0  0  0
  130.8718  128.3313  149.3072 H   0  0  0  0  0  0  0  0  0  0  0  0
  130.7673  130.6559  149.3495 H   0  0  0  0  0  0  0  0  0  0  0  0
  129.1389  131.2055  151.4141 H   0  0  0  0  0  0  0  0  0  0  0  0
  130.8157  131.7777  151.5452 H   0  0  0  0  0  0  0  0  0  0  0  0
  131.7401  129.2480  154.8947 H   0  0  0  0  0  0  0  0  0  0  0  0
  131.9389  130.4001  157.0553 H   0  0  0  0  0  0  0  0  0  0  0  0
  129.5674  136.2785  159.8551 H   0  0  0  0  0  0  0  0  0  0  0  0
  127.4240  136.8939  161.3237 H   0  0  0  0  0  0  0  0  0  0  0  0
  127.2476  135.4653  160.2809 H   0  0  0  0  0  0  0  0  0  0  0  0
  128.3145  136.4882  163.5870 H   0  0  0  0  0  0  0  0  0  0  0  0
  128.0612  134.8668  164.2820 H   0  0  0  0  0  0  0  0  0  0  0  0
  129.9322  133.9534  163.0626 H   0  0  0  0  0  0  0  0  0  0  0  0
  130.5009  135.4790  163.7806 H   0  0  0  0  0  0  0  0  0  0  0  0
  131.6446  137.8961  159.7840 H   0  0  0  0  0  0  0  0  0  0  0  0
  1  2  1  0
  1 37  1  0
  1 38  1  0
  2  3  1  0
  2 39  1  0
  3 36  2  0
  3  4  1  0
  4  5  2  0
  4 40  1  0
  5  6  1  0
  5 41  1  0
  6  7  1  0
  6 35  2  0
  7  8  1  1
  7  9  1  0
  7 29  1  0
  9 42  1  0
 10  9  1  0
 10 27  2  0
 10 11  1  0
 11 12  1  0
 11 13  1  0
 13 14  2  0
 13 43  1  0
 14 15  1  0
 14 27  1  0
 15 26  1  0
 15 16  2  0
 16 17  1  0
 16 44  1  0
 17 18  2  0
 17 45  1  0
 18 19  1  0
 18 25  1  0
 19 24  1  0
 19 20  2  0
 20 21  1  0
 20 46  1  0
 21 22  1  0
 21 47  1  0
 21 48  1  0
 22 23  2  0
 22 49  1  0
 23 24  1  0
 23 50  1  0
 24 51  1  0
 24 52  1  0
 25 26  2  0
 25 53  1  0
 26 54  1  0
 27 28  1  0
 29 34  1  0
 29 30  2  0
 30 31  1  0
 30 55  1  0
 31 32  1  0
 31 56  1  0
 31 57  1  0
 32 33  1  0
 33 34  1  0
 33 58  1  0
 33 59  1  0
 34 60  1  0
 34 61  1  0
 35 36  1  0
 35 62  1  0
M  CHG  1  27   1
M  END
>  <DOCK_score>  (1) 
-61.346169

>  <SMILES>  (1) 
NNc1ccc([C@H](Nc2[nH]cc(-c3ccc(C4=CCC=CC4)cc3)[nH+]2)C2=CCOCC2)cn1

$$$$
