CC[N@@H+](Cc1cnn(C)c1)Cc1c(C(=O)NC2=CC(=O)CC2)[nH]c(C)c1C
     RDKit          3D

 55 57  0  0  1  0  0  0  0  0999 V2000
  129.1992  132.6267  163.7956 C   0  0  0  0  0  0  0  0  0  0  0  0
  128.1933  132.9518  162.6896 C   0  0  0  0  0  0  0  0  0  0  0  0
  128.9013  133.5252  161.5371 N   0  0  1  0  0  0  0  0  0  0  0  0
  128.2380  133.7397  160.8076 H   0  0  0  0  0  0  0  0  0  0  0  0
  129.5911  134.7552  161.9487 C   0  0  0  0  0  0  0  0  0  0  0  0
  128.5819  135.7489  162.4636 C   0  0  0  0  0  0  0  0  0  0  0  0
  127.3600  136.0675  161.8622 C   0  0  0  0  0  0  0  0  0  0  0  0
  126.7619  136.9652  162.6025 N   0  0  0  0  0  0  0  0  0  0  0  0
  127.5900  137.2542  163.6946 N   0  0  0  0  0  0  0  0  0  0  0  0
  127.3020  138.2119  164.7652 C   0  0  0  0  0  0  0  0  0  0  0  0
  128.7004  136.4949  163.5862 C   0  0  0  0  0  0  0  0  0  0  0  0
  129.8850  132.5565  161.0353 C   0  0  0  0  0  0  0  0  0  0  0  0
  130.2524  132.9033  159.6155 C   0  0  0  0  0  0  0  0  0  0  0  0
  131.2766  133.7358  159.2137 C   0  0  0  0  0  0  0  0  0  0  0  0
  132.2093  134.4480  160.0915 C   0  0  0  0  0  0  0  0  0  0  0  0
  132.5108  133.9745  161.1709 O   0  0  0  0  0  0  0  0  0  0  0  0
  132.7330  135.6275  159.7030 N   0  0  0  0  0  0  0  0  0  0  0  0
  133.6041  136.2925  160.5227 C   0  0  0  0  0  0  0  0  0  0  0  0
  134.1817  137.4737  160.2428 C   0  0  0  0  0  0  0  0  0  0  0  0
  135.0335  137.9229  161.2566 C   0  0  0  0  0  0  0  0  0  0  0  0
  135.6729  138.9559  161.2411 O   0  0  0  0  0  0  0  0  0  0  0  0
  135.0196  136.9084  162.3789 C   0  0  0  0  0  0  0  0  0  0  0  0
  134.0573  135.8136  161.8818 C   0  0  0  0  0  0  0  0  0  0  0  0
  131.2588  133.7802  157.8376 N   0  0  0  0  0  0  0  0  0  0  0  0
  131.8654  134.2923  157.2803 H   0  0  0  0  0  0  0  0  0  0  0  0
  130.2544  132.9871  157.3916 C   0  0  0  0  0  0  0  0  0  0  0  0
  129.8964  132.7559  155.9462 C   0  0  0  0  0  0  0  0  0  0  0  0
  129.6203  132.4415  158.4574 C   0  0  0  0  0  0  0  0  0  0  0  0
  128.4426  131.5028  158.4038 C   0  0  0  0  0  0  0  0  0  0  0  0
  129.6740  133.5465  164.1369 H   0  0  0  0  0  0  0  0  0  0  0  0
  128.6812  132.1538  164.6301 H   0  0  0  0  0  0  0  0  0  0  0  0
  129.9587  131.9479  163.4080 H   0  0  0  0  0  0  0  0  0  0  0  0
  127.4634  133.6707  163.0619 H   0  0  0  0  0  0  0  0  0  0  0  0
  127.6814  132.0394  162.3841 H   0  0  0  0  0  0  0  0  0  0  0  0
  130.3077  134.5236  162.7367 H   0  0  0  0  0  0  0  0  0  0  0  0
  130.1164  135.1807  161.0936 H   0  0  0  0  0  0  0  0  0  0  0  0
  126.9751  135.6432  160.9465 H   0  0  0  0  0  0  0  0  0  0  0  0
  127.6864  139.1935  164.4878 H   0  0  0  0  0  0  0  0  0  0  0  0
  126.2244  138.2734  164.9174 H   0  0  0  0  0  0  0  0  0  0  0  0
  127.7809  137.8814  165.6869 H   0  0  0  0  0  0  0  0  0  0  0  0
  129.5341  136.4843  164.2728 H   0  0  0  0  0  0  0  0  0  0  0  0
  129.4565  131.5548  161.0654 H   0  0  0  0  0  0  0  0  0  0  0  0
  130.7778  132.5887  161.6599 H   0  0  0  0  0  0  0  0  0  0  0  0
  132.4927  136.0051  158.8425 H   0  0  0  0  0  0  0  0  0  0  0  0
  134.0083  138.0185  159.3265 H   0  0  0  0  0  0  0  0  0  0  0  0
  136.0171  136.4980  162.5350 H   0  0  0  0  0  0  0  0  0  0  0  0
  134.6454  137.3604  163.2975 H   0  0  0  0  0  0  0  0  0  0  0  0
  134.5787  134.8604  161.7944 H   0  0  0  0  0  0  0  0  0  0  0  0
  133.2066  135.7200  162.5569 H   0  0  0  0  0  0  0  0  0  0  0  0
  129.1696  133.5032  155.6277 H   0  0  0  0  0  0  0  0  0  0  0  0
  130.7935  132.8368  155.3323 H   0  0  0  0  0  0  0  0  0  0  0  0
  129.4673  131.7603  155.8329 H   0  0  0  0  0  0  0  0  0  0  0  0
  127.5175  132.0790  158.4208 H   0  0  0  0  0  0  0  0  0  0  0  0
  128.4878  130.9151  157.4869 H   0  0  0  0  0  0  0  0  0  0  0  0
  128.4707  130.8351  159.2650 H   0  0  0  0  0  0  0  0  0  0  0  0
  1  2  1  0
  1 30  1  0
  1 31  1  0
  1 32  1  0
  2  3  1  0
  2 33  1  0
  2 34  1  0
  3  4  1  6
  3  5  1  0
  3 12  1  0
  5  6  1  0
  5 35  1  0
  5 36  1  0
  6 11  2  0
  6  7  1  0
  7  8  2  0
  7 37  1  0
  8  9  1  0
  9 10  1  0
  9 11  1  0
 10 38  1  0
 10 39  1  0
 10 40  1  0
 11 41  1  0
 12 13  1  0
 12 42  1  0
 12 43  1  0
 13 28  1  0
 13 14  2  0
 14 15  1  0
 14 24  1  0
 15 16  2  0
 15 17  1  0
 17 18  1  0
 17 44  1  0
 18 23  1  0
 18 19  2  0
 19 20  1  0
 19 45  1  0
 20 21  2  0
 20 22  1  0
 22 23  1  0
 22 46  1  0
 22 47  1  0
 23 48  1  0
 23 49  1  0
 24 25  1  0
 24 26  1  0
 26 27  1  0
 26 28  2  0
 27 50  1  0
 27 51  1  0
 27 52  1  0
 28 29  1  0
 29 53  1  0
 29 54  1  0
 29 55  1  0
M  CHG  1   3   1
M  END
>  <DOCK_score>  (1) 
-44.078022

>  <SMILES>  (1) 
CC[N@@H+](Cc1cnn(C)c1)Cc1c(C(=O)NC2=CC(=O)CC2)[nH]c(C)c1C

$$$$
