Oc1ccc(Nc2[nH]cc(-c3ccc(F)cc3)[nH+]2)cc1
     RDKit          3D

 33 35  0  0  1  0  0  0  0  0999 V2000
  126.4921  136.0963  161.7641 O   0  0  0  0  0  0  0  0  0  0  0  0
  127.3910  135.7679  160.7980 C   0  0  0  0  0  0  0  0  0  0  0  0
  128.6088  135.2032  161.1475 C   0  0  0  0  0  0  0  0  0  0  0  0
  129.5222  134.8694  160.1672 C   0  0  0  0  0  0  0  0  0  0  0  0
  129.2215  135.0992  158.8309 C   0  0  0  0  0  0  0  0  0  0  0  0
  130.1472  134.7614  157.8364 N   0  0  0  0  0  0  0  0  0  0  0  0
  130.1208  133.4999  157.2654 C   0  0  0  0  0  0  0  0  0  0  0  0
  129.7189  132.3568  157.8858 N   0  0  0  0  0  0  0  0  0  0  0  0
  129.4023  132.2798  158.7994 H   0  0  0  0  0  0  0  0  0  0  0  0
  129.8413  131.3331  156.9779 C   0  0  0  0  0  0  0  0  0  0  0  0
  130.3226  131.8779  155.8329 C   0  0  0  0  0  0  0  0  0  0  0  0
  130.6197  131.1477  154.5763 C   0  0  0  0  0  0  0  0  0  0  0  0
  129.9559  131.4851  153.3981 C   0  0  0  0  0  0  0  0  0  0  0  0
  130.2392  130.8066  152.2305 C   0  0  0  0  0  0  0  0  0  0  0  0
  131.1732  129.7840  152.2302 C   0  0  0  0  0  0  0  0  0  0  0  0
  131.4433  129.1188  151.0858 F   0  0  0  0  0  0  0  0  0  0  0  0
  131.8319  129.4413  153.4005 C   0  0  0  0  0  0  0  0  0  0  0  0
  131.5591  130.1182  154.5716 C   0  0  0  0  0  0  0  0  0  0  0  0
  130.4840  133.2085  156.0399 N   0  0  0  0  0  0  0  0  0  0  0  0
  130.8156  133.8434  155.3857 H   0  0  0  0  0  0  0  0  0  0  0  0
  128.0042  135.6694  158.4823 C   0  0  0  0  0  0  0  0  0  0  0  0
  127.0899  135.9982  159.4636 C   0  0  0  0  0  0  0  0  0  0  0  0
  125.6737  136.4836  161.4244 H   0  0  0  0  0  0  0  0  0  0  0  0
  128.8429  135.0249  162.1867 H   0  0  0  0  0  0  0  0  0  0  0  0
  130.4706  134.4300  160.4394 H   0  0  0  0  0  0  0  0  0  0  0  0
  130.8044  135.4123  157.5445 H   0  0  0  0  0  0  0  0  0  0  0  0
  129.6040  130.2929  157.1452 H   0  0  0  0  0  0  0  0  0  0  0  0
  129.2240  132.2792  153.3982 H   0  0  0  0  0  0  0  0  0  0  0  0
  129.7283  131.0702  151.3163 H   0  0  0  0  0  0  0  0  0  0  0  0
  132.5594  128.6431  153.3960 H   0  0  0  0  0  0  0  0  0  0  0  0
  132.0731  129.8508  155.4830 H   0  0  0  0  0  0  0  0  0  0  0  0
  127.7710  135.8522  157.4438 H   0  0  0  0  0  0  0  0  0  0  0  0
  126.1417  136.4385  159.1924 H   0  0  0  0  0  0  0  0  0  0  0  0
  1  2  1  0
  1 23  1  0
  2 22  2  0
  2  3  1  0
  3  4  2  0
  3 24  1  0
  4  5  1  0
  4 25  1  0
  5  6  1  0
  5 21  2  0
  6 26  1  0
  7  6  1  0
  7 19  2  0
  7  8  1  0
  8  9  1  0
  8 10  1  0
 10 11  2  0
 10 27  1  0
 11 12  1  0
 11 19  1  0
 12 18  1  0
 12 13  2  0
 13 14  1  0
 13 28  1  0
 14 15  2  0
 14 29  1  0
 15 16  1  0
 15 17  1  0
 17 18  2  0
 17 30  1  0
 18 31  1  0
 19 20  1  0
 21 22  1  0
 21 32  1  0
 22 33  1  0
M  CHG  1  19   1
M  END
>  <DOCK_score>  (1) 
-47.89653

>  <SMILES>  (1) 
Oc1ccc(Nc2[nH]cc(-c3ccc(F)cc3)[nH+]2)cc1

$$$$
