C=C[NH2+]C[C@H]1C=CCCC12CC(CN(C(=O)C(F)F)c1ccc(-c3ccccn3)cc1)C2
     RDKit          3D

 62 65  0  0  1  0  0  0  0  0999 V2000
  134.5574  138.3375  157.0589 C   0  0  0  0  0  0  0  0  0  0  0  0
  134.2054  139.1255  158.0444 C   0  0  0  0  0  0  0  0  0  0  0  0
  133.9021  138.5849  159.2974 N   0  0  0  0  0  0  0  0  0  0  0  0
  134.5308  138.9652  159.9889 H   0  0  0  0  0  0  0  0  0  0  0  0
  134.0050  137.5816  159.2648 H   0  0  0  0  0  0  0  0  0  0  0  0
  132.5182  138.9238  159.6550 C   0  0  0  0  0  0  0  0  0  0  0  0
  132.1861  138.3321  161.0263 C   0  0  1  0  0  0  0  0  0  0  0  0
  132.6234  137.3370  161.1063 H   0  0  0  0  0  0  0  0  0  0  0  0
  132.7531  139.2149  162.1019 C   0  0  0  0  0  0  0  0  0  0  0  0
  132.0430  139.9987  162.8455 C   0  0  0  0  0  0  0  0  0  0  0  0
  130.5527  140.1409  162.7685 C   0  0  0  0  0  0  0  0  0  0  0  0
  130.0320  139.6022  161.4333 C   0  0  0  0  0  0  0  0  0  0  0  0
  130.6714  138.2352  161.1839 C   0  0  2  0  0  0  0  0  0  0  0  0
  130.2184  137.1546  162.1717 C   0  0  0  0  0  0  0  0  0  0  0  0
  129.0799  136.8459  161.1835 C   0  0  2  0  0  0  0  0  0  0  0  0
  128.7978  135.3509  161.0218 C   0  0  0  0  0  0  0  0  0  0  0  0
  128.0769  135.1229  159.7670 N   0  0  0  0  0  0  0  0  0  0  0  0
  126.8782  135.7043  159.5632 C   0  0  0  0  0  0  0  0  0  0  0  0
  126.3962  136.4164  160.4186 O   0  0  0  0  0  0  0  0  0  0  0  0
  126.1366  135.4699  158.2724 C   0  0  0  0  0  0  0  0  0  0  0  0
  124.7592  135.5455  158.5054 F   0  0  0  0  0  0  0  0  0  0  0  0
  126.5058  136.4442  157.3387 F   0  0  0  0  0  0  0  0  0  0  0  0
  128.6322  134.3025  158.7812 C   0  0  0  0  0  0  0  0  0  0  0  0
  128.9015  134.8191  157.5192 C   0  0  0  0  0  0  0  0  0  0  0  0
  129.4488  134.0117  156.5452 C   0  0  0  0  0  0  0  0  0  0  0  0
  129.7327  132.6759  156.8268 C   0  0  0  0  0  0  0  0  0  0  0  0
  130.3214  131.8055  155.7809 C   0  0  0  0  0  0  0  0  0  0  0  0
  130.0344  132.0471  154.4385 C   0  0  0  0  0  0  0  0  0  0  0  0
  130.5909  131.2258  153.4737 C   0  0  0  0  0  0  0  0  0  0  0  0
  131.4174  130.1885  153.8830 C   0  0  0  0  0  0  0  0  0  0  0  0
  131.6549  130.0026  155.2320 C   0  0  0  0  0  0  0  0  0  0  0  0
  131.1169  130.8026  156.1304 N   0  0  0  0  0  0  0  0  0  0  0  0
  129.4568  132.1586  158.0920 C   0  0  0  0  0  0  0  0  0  0  0  0
  128.9148  132.9713  159.0645 C   0  0  0  0  0  0  0  0  0  0  0  0
  129.9829  137.4253  160.0804 C   0  0  0  0  0  0  0  0  0  0  0  0
  134.6131  137.2702  157.2144 H   0  0  0  0  0  0  0  0  0  0  0  0
  134.7916  138.7551  156.0908 H   0  0  0  0  0  0  0  0  0  0  0  0
  134.1496  140.1927  157.8889 H   0  0  0  0  0  0  0  0  0  0  0  0
  131.8389  138.5130  158.9079 H   0  0  0  0  0  0  0  0  0  0  0  0
  132.4070  140.0075  159.6903 H   0  0  0  0  0  0  0  0  0  0  0  0
  133.8207  139.1933  162.2640 H   0  0  0  0  0  0  0  0  0  0  0  0
  132.5637  140.5974  163.5782 H   0  0  0  0  0  0  0  0  0  0  0  0
  130.2860  141.1937  162.8610 H   0  0  0  0  0  0  0  0  0  0  0  0
  130.0949  139.5831  163.5853 H   0  0  0  0  0  0  0  0  0  0  0  0
  130.3038  140.2867  160.6297 H   0  0  0  0  0  0  0  0  0  0  0  0
  128.9478  139.4982  161.4761 H   0  0  0  0  0  0  0  0  0  0  0  0
  129.8730  137.5518  163.1260 H   0  0  0  0  0  0  0  0  0  0  0  0
  130.9315  136.3381  162.2857 H   0  0  0  0  0  0  0  0  0  0  0  0
  128.1771  137.4299  161.3617 H   0  0  0  0  0  0  0  0  0  0  0  0
  128.1908  135.0031  161.8578 H   0  0  0  0  0  0  0  0  0  0  0  0
  129.7399  134.8030  161.0043 H   0  0  0  0  0  0  0  0  0  0  0  0
  126.3858  134.4822  157.8845 H   0  0  0  0  0  0  0  0  0  0  0  0
  128.6814  135.8538  157.3015 H   0  0  0  0  0  0  0  0  0  0  0  0
  129.6579  134.4137  155.5648 H   0  0  0  0  0  0  0  0  0  0  0  0
  129.3869  132.8637  154.1552 H   0  0  0  0  0  0  0  0  0  0  0  0
  130.3869  131.3886  152.4258 H   0  0  0  0  0  0  0  0  0  0  0  0
  131.8671  129.5300  153.1547 H   0  0  0  0  0  0  0  0  0  0  0  0
  132.2936  129.1934  155.5539 H   0  0  0  0  0  0  0  0  0  0  0  0
  129.6713  131.1230  158.3110 H   0  0  0  0  0  0  0  0  0  0  0  0
  128.7050  132.5722  160.0459 H   0  0  0  0  0  0  0  0  0  0  0  0
  130.6313  136.6846  159.6125 H   0  0  0  0  0  0  0  0  0  0  0  0
  129.4483  138.0397  159.3560 H   0  0  0  0  0  0  0  0  0  0  0  0
  1  2  2  0
  1 36  1  0
  1 37  1  0
  2  3  1  0
  2 38  1  0
  3  4  1  0
  3  5  1  0
  3  6  1  0
  6  7  1  0
  6 39  1  0
  6 40  1  0
  7  8  1  6
  7 13  1  0
  7  9  1  0
  9 10  2  0
  9 41  1  0
 10 11  1  0
 10 42  1  0
 11 12  1  0
 11 43  1  0
 11 44  1  0
 12 45  1  0
 12 46  1  0
 13 12  1  1
 13 35  1  0
 13 14  1  0
 14 15  1  0
 14 47  1  0
 14 48  1  0
 15 16  1  0
 15 35  1  0
 15 49  1  1
 16 17  1  0
 16 50  1  0
 16 51  1  0
 17 18  1  0
 17 23  1  0
 18 19  2  0
 18 20  1  0
 20 21  1  0
 20 22  1  0
 20 52  1  0
 23 34  1  0
 23 24  2  0
 24 25  1  0
 24 53  1  0
 25 26  2  0
 25 54  1  0
 26 27  1  0
 26 33  1  0
 27 32  1  0
 27 28  2  0
 28 29  1  0
 28 55  1  0
 29 30  2  0
 29 56  1  0
 30 31  1  0
 30 57  1  0
 31 32  2  0
 31 58  1  0
 33 34  2  0
 33 59  1  0
 34 60  1  0
 35 61  1  0
 35 62  1  0
M  CHG  1   3   1
M  END
>  <DOCK_score>  (1) 
-42.527424

>  <SMILES>  (1) 
C=C[NH2+]C[C@H]1C=CCCC12CC(CN(C(=O)C(F)F)c1ccc(-c3ccccn3)cc1)C2

$$$$
