O=C1CC[C@H](NC(NC2CC2)=[NH+][C@H]2COc3cc(O)ccc3C2)CN1
     RDKit          3D

 50 53  0  0  1  0  0  0  0  0999 V2000
  123.6594  133.8101  161.5643 O   0  0  0  0  0  0  0  0  0  0  0  0
  124.8225  134.0364  161.3056 C   0  0  0  0  0  0  0  0  0  0  0  0
  125.6620  132.9143  160.7656 C   0  0  0  0  0  0  0  0  0  0  0  0
  127.1465  133.2556  160.9159 C   0  0  0  0  0  0  0  0  0  0  0  0
  127.3757  134.6713  160.3729 C   0  0  2  0  0  0  0  0  0  0  0  0
  126.9664  134.7474  159.3656 H   0  0  0  0  0  0  0  0  0  0  0  0
  128.8118  134.9596  160.3430 N   0  0  0  0  0  0  0  0  0  0  0  0
  129.5498  134.6601  159.2223 C   0  0  0  0  0  0  0  0  0  0  0  0
  128.9402  134.0899  158.1300 N   0  0  0  0  0  0  0  0  0  0  0  0
  129.7267  133.7707  156.9358 C   0  0  0  0  0  0  0  0  0  0  0  0
  129.6115  132.3530  156.3723 C   0  0  0  0  0  0  0  0  0  0  0  0
  130.8873  132.7870  157.0966 C   0  0  0  0  0  0  0  0  0  0  0  0
  130.8275  134.9166  159.1957 N   0  0  0  0  0  0  0  0  0  0  0  0
  131.2622  135.1285  158.3549 H   0  0  0  0  0  0  0  0  0  0  0  0
  131.6059  134.8910  160.4366 C   0  0  1  0  0  0  0  0  0  0  0  0
  130.9542  134.6410  161.2739 H   0  0  0  0  0  0  0  0  0  0  0  0
  132.7258  133.8489  160.3229 C   0  0  0  0  0  0  0  0  0  0  0  0
  133.3993  133.7734  161.5803 O   0  0  0  0  0  0  0  0  0  0  0  0
  133.7954  134.9370  162.1590 C   0  0  0  0  0  0  0  0  0  0  0  0
  134.7464  134.8827  163.1720 C   0  0  0  0  0  0  0  0  0  0  0  0
  135.1695  136.0459  163.7924 C   0  0  0  0  0  0  0  0  0  0  0  0
  136.0995  135.9907  164.7817 O   0  0  0  0  0  0  0  0  0  0  0  0
  134.6417  137.2685  163.4011 C   0  0  0  0  0  0  0  0  0  0  0  0
  133.6989  137.3211  162.3947 C   0  0  0  0  0  0  0  0  0  0  0  0
  133.2746  136.1592  161.7703 C   0  0  0  0  0  0  0  0  0  0  0  0
  132.2461  136.2612  160.6723 C   0  0  0  0  0  0  0  0  0  0  0  0
  126.6707  135.6713  161.2902 C   0  0  0  0  0  0  0  0  0  0  0  0
  125.2874  135.2685  161.5155 N   0  0  0  0  0  0  0  0  0  0  0  0
  125.4299  132.7636  159.7113 H   0  0  0  0  0  0  0  0  0  0  0  0
  125.4428  132.0003  161.3175 H   0  0  0  0  0  0  0  0  0  0  0  0
  127.7459  132.5435  160.3487 H   0  0  0  0  0  0  0  0  0  0  0  0
  127.4274  133.2162  161.9684 H   0  0  0  0  0  0  0  0  0  0  0  0
  129.2419  135.3619  161.1138 H   0  0  0  0  0  0  0  0  0  0  0  0
  127.9893  133.8992  158.1497 H   0  0  0  0  0  0  0  0  0  0  0  0
  129.8534  134.5868  156.2244 H   0  0  0  0  0  0  0  0  0  0  0  0
  128.9506  131.6577  156.8899 H   0  0  0  0  0  0  0  0  0  0  0  0
  129.6623  132.2361  155.2897 H   0  0  0  0  0  0  0  0  0  0  0  0
  131.7776  132.9555  156.4906 H   0  0  0  0  0  0  0  0  0  0  0  0
  131.0658  132.3772  158.0908 H   0  0  0  0  0  0  0  0  0  0  0  0
  132.2990  132.8767  160.0762 H   0  0  0  0  0  0  0  0  0  0  0  0
  133.4294  134.1491  159.5465 H   0  0  0  0  0  0  0  0  0  0  0  0
  135.1562  133.9306  163.4756 H   0  0  0  0  0  0  0  0  0  0  0  0
  136.3304  136.8532  165.1528 H   0  0  0  0  0  0  0  0  0  0  0  0
  134.9682  138.1777  163.8840 H   0  0  0  0  0  0  0  0  0  0  0  0
  133.2895  138.2734  162.0918 H   0  0  0  0  0  0  0  0  0  0  0  0
  132.7275  136.5992  159.7547 H   0  0  0  0  0  0  0  0  0  0  0  0
  131.4762  136.9762  160.9628 H   0  0  0  0  0  0  0  0  0  0  0  0
  127.1919  135.7125  162.2465 H   0  0  0  0  0  0  0  0  0  0  0  0
  126.6909  136.6590  160.8295 H   0  0  0  0  0  0  0  0  0  0  0  0
  124.6657  135.9406  161.8360 H   0  0  0  0  0  0  0  0  0  0  0  0
  1  2  2  0
  2 28  1  0
  2  3  1  0
  3  4  1  0
  3 29  1  0
  3 30  1  0
  4  5  1  0
  4 31  1  0
  4 32  1  0
  5  6  1  6
  5  7  1  0
  5 27  1  0
  7 33  1  0
  8  7  1  0
  8  9  1  0
  8 13  2  0
  9 10  1  0
  9 34  1  0
 10 12  1  0
 10 11  1  0
 10 35  1  0
 11 12  1  0
 11 36  1  0
 11 37  1  0
 12 38  1  0
 12 39  1  0
 13 14  1  0
 13 15  1  0
 15 16  1  1
 15 26  1  0
 15 17  1  0
 17 18  1  0
 17 40  1  0
 17 41  1  0
 18 19  1  0
 19 25  2  0
 19 20  1  0
 20 21  2  0
 20 42  1  0
 21 22  1  0
 21 23  1  0
 22 43  1  0
 23 24  2  0
 23 44  1  0
 24 25  1  0
 24 45  1  0
 25 26  1  0
 26 46  1  0
 26 47  1  0
 27 28  1  0
 27 48  1  0
 27 49  1  0
 28 50  1  0
M  CHG  1  13   1
M  END
>  <DOCK_score>  (1) 
-47.335163

>  <SMILES>  (1) 
O=C1CC[C@H](NC(NC2CC2)=[NH+][C@H]2COc3cc(O)ccc3C2)CN1

$$$$
