Nc1ccc(-c2c[nH]c(N[C@@H](Cc3ccccc3)c3cccc4ccccc34)[nH+]2)cc1
     RDKit          3D

 56 60  0  0  1  0  0  0  0  0999 V2000
  130.6861  129.8394  151.9696 N   0  0  0  0  0  0  0  0  0  0  0  0
  130.6490  130.4833  153.2087 C   0  0  0  0  0  0  0  0  0  0  0  0
  130.2746  131.8190  153.2865 C   0  0  0  0  0  0  0  0  0  0  0  0
  130.2381  132.4561  154.5089 C   0  0  0  0  0  0  0  0  0  0  0  0
  130.5770  131.7589  155.6675 C   0  0  0  0  0  0  0  0  0  0  0  0
  130.5390  132.4424  156.9837 C   0  0  0  0  0  0  0  0  0  0  0  0
  130.2704  131.8593  158.1779 C   0  0  0  0  0  0  0  0  0  0  0  0
  130.3395  132.8494  159.1294 N   0  0  0  0  0  0  0  0  0  0  0  0
  130.1946  132.7415  160.0825 H   0  0  0  0  0  0  0  0  0  0  0  0
  130.6485  134.0085  158.4870 C   0  0  0  0  0  0  0  0  0  0  0  0
  130.8111  135.2449  159.0881 N   0  0  0  0  0  0  0  0  0  0  0  0
  130.0649  135.5711  160.3059 C   0  0  1  0  0  0  0  0  0  0  0  0
  130.3227  134.8607  161.0913 H   0  0  0  0  0  0  0  0  0  0  0  0
  130.4249  136.9868  160.7608 C   0  0  0  0  0  0  0  0  0  0  0  0
  131.9035  137.0634  161.0420 C   0  0  0  0  0  0  0  0  0  0  0  0
  132.5818  138.2533  160.8552 C   0  0  0  0  0  0  0  0  0  0  0  0
  133.9372  138.3248  161.1179 C   0  0  0  0  0  0  0  0  0  0  0  0
  134.6162  137.2037  161.5572 C   0  0  0  0  0  0  0  0  0  0  0  0
  133.9387  136.0124  161.7388 C   0  0  0  0  0  0  0  0  0  0  0  0
  132.5825  135.9424  161.4812 C   0  0  0  0  0  0  0  0  0  0  0  0
  128.5864  135.4945  160.0248 C   0  0  0  0  0  0  0  0  0  0  0  0
  128.1116  135.7691  158.7788 C   0  0  0  0  0  0  0  0  0  0  0  0
  126.7481  135.7039  158.5002 C   0  0  0  0  0  0  0  0  0  0  0  0
  125.8509  135.3639  159.4658 C   0  0  0  0  0  0  0  0  0  0  0  0
  126.3032  135.0738  160.7639 C   0  0  0  0  0  0  0  0  0  0  0  0
  125.4071  134.7194  161.7870 C   0  0  0  0  0  0  0  0  0  0  0  0
  125.8817  134.4454  163.0328 C   0  0  0  0  0  0  0  0  0  0  0  0
  127.2456  134.5110  163.3116 C   0  0  0  0  0  0  0  0  0  0  0  0
  128.1429  134.8501  162.3462 C   0  0  0  0  0  0  0  0  0  0  0  0
  127.6905  135.1400  161.0474 C   0  0  0  0  0  0  0  0  0  0  0  0
  130.7614  133.7623  157.2045 N   0  0  0  0  0  0  0  0  0  0  0  0
  130.9722  134.4188  156.5223 H   0  0  0  0  0  0  0  0  0  0  0  0
  130.9573  130.4202  155.5869 C   0  0  0  0  0  0  0  0  0  0  0  0
  130.9873  129.7856  154.3629 C   0  0  0  0  0  0  0  0  0  0  0  0
  130.4501  130.3253  151.1638 H   0  0  0  0  0  0  0  0  0  0  0  0
  130.9475  128.9069  151.9147 H   0  0  0  0  0  0  0  0  0  0  0  0
  130.0122  132.3586  152.3886 H   0  0  0  0  0  0  0  0  0  0  0  0
  129.9468  133.4943  154.5686 H   0  0  0  0  0  0  0  0  0  0  0  0
  130.0447  130.8171  158.3490 H   0  0  0  0  0  0  0  0  0  0  0  0
  131.4191  135.8952  158.7030 H   0  0  0  0  0  0  0  0  0  0  0  0
  130.1673  137.6974  159.9754 H   0  0  0  0  0  0  0  0  0  0  0  0
  129.8697  137.2297  161.6667 H   0  0  0  0  0  0  0  0  0  0  0  0
  132.0523  139.1280  160.5078 H   0  0  0  0  0  0  0  0  0  0  0  0
  134.4664  139.2553  160.9756 H   0  0  0  0  0  0  0  0  0  0  0  0
  135.6758  137.2583  161.7581 H   0  0  0  0  0  0  0  0  0  0  0  0
  134.4693  135.1364  162.0817 H   0  0  0  0  0  0  0  0  0  0  0  0
  132.0533  135.0115  161.6229 H   0  0  0  0  0  0  0  0  0  0  0  0
  128.8025  136.0411  157.9945 H   0  0  0  0  0  0  0  0  0  0  0  0
  126.3976  135.9269  157.5031 H   0  0  0  0  0  0  0  0  0  0  0  0
  124.7963  135.3217  159.2363 H   0  0  0  0  0  0  0  0  0  0  0  0
  124.3475  134.6645  161.5856 H   0  0  0  0  0  0  0  0  0  0  0  0
  125.1908  134.1736  163.8171 H   0  0  0  0  0  0  0  0  0  0  0  0
  127.5960  134.2891  164.3088 H   0  0  0  0  0  0  0  0  0  0  0  0
  129.1969  134.8961  162.5767 H   0  0  0  0  0  0  0  0  0  0  0  0
  131.2243  129.8793  156.4827 H   0  0  0  0  0  0  0  0  0  0  0  0
  131.2779  128.7473  154.3004 H   0  0  0  0  0  0  0  0  0  0  0  0
  1  2  1  0
  1 35  1  0
  1 36  1  0
  2 34  2  0
  2  3  1  0
  3  4  2  0
  3 37  1  0
  4  5  1  0
  4 38  1  0
  5  6  1  0
  5 33  2  0
  6 31  1  0
  6  7  2  0
  7  8  1  0
  7 39  1  0
  8  9  1  0
  8 10  1  0
 10 11  1  0
 10 31  2  0
 11 12  1  0
 11 40  1  0
 12 13  1  1
 12 14  1  0
 12 21  1  0
 14 15  1  0
 14 41  1  0
 14 42  1  0
 15 20  1  0
 15 16  2  0
 16 17  1  0
 16 43  1  0
 17 18  2  0
 17 44  1  0
 18 19  1  0
 18 45  1  0
 19 20  2  0
 19 46  1  0
 20 47  1  0
 21 30  1  0
 21 22  2  0
 22 23  1  0
 22 48  1  0
 23 24  2  0
 23 49  1  0
 24 25  1  0
 24 50  1  0
 25 30  2  0
 25 26  1  0
 26 27  2  0
 26 51  1  0
 27 28  1  0
 27 52  1  0
 28 29  2  0
 28 53  1  0
 29 30  1  0
 29 54  1  0
 31 32  1  0
 33 34  1  0
 33 55  1  0
 34 56  1  0
M  CHG  1  31   1
M  END
>  <DOCK_score>  (1) 
-61.983517

>  <SMILES>  (1) 
Nc1ccc(-c2c[nH]c(N[C@@H](Cc3ccccc3)c3cccc4ccccc34)[nH+]2)cc1

$$$$
