CC1=CCCN(c2ccc(C(=O)[C@H](N)c3ccccc3)c(C[NH2+]C(C)C)c2)C1
     RDKit          3D

 60 62  0  0  1  0  0  0  0  0999 V2000
  131.2287  132.1164  153.9890 C   0  0  0  0  0  0  0  0  0  0  0  0
  131.1185  131.6915  155.4306 C   0  0  0  0  0  0  0  0  0  0  0  0
  131.4614  130.4792  155.7440 C   0  0  0  0  0  0  0  0  0  0  0  0
  131.3849  129.9462  157.1474 C   0  0  0  0  0  0  0  0  0  0  0  0
  131.2607  131.1088  158.1355 C   0  0  0  0  0  0  0  0  0  0  0  0
  130.1964  132.0103  157.6637 N   0  0  0  0  0  0  0  0  0  0  0  0
  129.8498  132.9284  158.6465 C   0  0  0  0  0  0  0  0  0  0  0  0
  128.5439  132.9677  159.1309 C   0  0  0  0  0  0  0  0  0  0  0  0
  128.2001  133.8653  160.1005 C   0  0  0  0  0  0  0  0  0  0  0  0
  129.1605  134.7542  160.6018 C   0  0  0  0  0  0  0  0  0  0  0  0
  128.7946  135.7237  161.6410 C   0  0  0  0  0  0  0  0  0  0  0  0
  129.3663  136.7919  161.7024 O   0  0  0  0  0  0  0  0  0  0  0  0
  127.7043  135.3948  162.6279 C   0  0  2  0  0  0  0  0  0  0  0  0
  127.6743  134.3173  162.7906 H   0  0  0  0  0  0  0  0  0  0  0  0
  126.4109  135.8458  162.0972 N   0  0  0  0  0  0  0  0  0  0  0  0
  127.9821  136.0925  163.9344 C   0  0  0  0  0  0  0  0  0  0  0  0
  128.7300  135.4607  164.9102 C   0  0  0  0  0  0  0  0  0  0  0  0
  128.9886  136.1024  166.1069 C   0  0  0  0  0  0  0  0  0  0  0  0
  128.4913  137.3726  166.3314 C   0  0  0  0  0  0  0  0  0  0  0  0
  127.7390  138.0024  165.3578 C   0  0  0  0  0  0  0  0  0  0  0  0
  127.4841  137.3623  164.1593 C   0  0  0  0  0  0  0  0  0  0  0  0
  130.4724  134.7109  160.1122 C   0  0  0  0  0  0  0  0  0  0  0  0
  131.5107  135.6609  160.6512 C   0  0  0  0  0  0  0  0  0  0  0  0
  131.5132  136.8907  159.8477 N   0  0  0  0  0  0  0  0  0  0  0  0
  131.7293  136.6651  158.8883 H   0  0  0  0  0  0  0  0  0  0  0  0
  130.6037  137.3250  159.8945 H   0  0  0  0  0  0  0  0  0  0  0  0
  132.5255  137.8166  160.3729 C   0  0  0  0  0  0  0  0  0  0  0  0
  133.9081  137.4027  159.8647 C   0  0  0  0  0  0  0  0  0  0  0  0
  132.2122  139.2373  159.8988 C   0  0  0  0  0  0  0  0  0  0  0  0
  130.8087  133.8069  159.1454 C   0  0  0  0  0  0  0  0  0  0  0  0
  130.6171  132.6910  156.4324 C   0  0  0  0  0  0  0  0  0  0  0  0
  132.2188  132.5350  153.8083 H   0  0  0  0  0  0  0  0  0  0  0  0
  131.0761  131.2521  153.3427 H   0  0  0  0  0  0  0  0  0  0  0  0
  130.4709  132.8697  153.7733 H   0  0  0  0  0  0  0  0  0  0  0  0
  131.8176  129.8249  154.9621 H   0  0  0  0  0  0  0  0  0  0  0  0
  130.5150  129.2962  157.2414 H   0  0  0  0  0  0  0  0  0  0  0  0
  132.2881  129.3776  157.3690 H   0  0  0  0  0  0  0  0  0  0  0  0
  132.2050  131.6509  158.1840 H   0  0  0  0  0  0  0  0  0  0  0  0
  131.0043  130.7246  159.1228 H   0  0  0  0  0  0  0  0  0  0  0  0
  127.8035  132.2848  158.7414 H   0  0  0  0  0  0  0  0  0  0  0  0
  127.1887  133.8924  160.4784 H   0  0  0  0  0  0  0  0  0  0  0  0
  126.4131  136.8422  161.9377 H   0  0  0  0  0  0  0  0  0  0  0  0
  126.1714  135.3453  161.2543 H   0  0  0  0  0  0  0  0  0  0  0  0
  129.1153  134.4668  164.7361 H   0  0  0  0  0  0  0  0  0  0  0  0
  129.5767  135.6105  166.8674 H   0  0  0  0  0  0  0  0  0  0  0  0
  128.6910  137.8730  167.2674 H   0  0  0  0  0  0  0  0  0  0  0  0
  127.3504  138.9949  165.5331 H   0  0  0  0  0  0  0  0  0  0  0  0
  126.8963  137.8544  163.3986 H   0  0  0  0  0  0  0  0  0  0  0  0
  131.2771  135.9045  161.6876 H   0  0  0  0  0  0  0  0  0  0  0  0
  132.4934  135.1918  160.6007 H   0  0  0  0  0  0  0  0  0  0  0  0
  132.5149  137.7866  161.4626 H   0  0  0  0  0  0  0  0  0  0  0  0
  133.9186  137.4327  158.7752 H   0  0  0  0  0  0  0  0  0  0  0  0
  134.6590  138.0898  160.2545 H   0  0  0  0  0  0  0  0  0  0  0  0
  134.1311  136.3907  160.2024 H   0  0  0  0  0  0  0  0  0  0  0  0
  132.2228  139.2674  158.8093 H   0  0  0  0  0  0  0  0  0  0  0  0
  131.2274  139.5322  160.2610 H   0  0  0  0  0  0  0  0  0  0  0  0
  132.9634  139.9243  160.2886 H   0  0  0  0  0  0  0  0  0  0  0  0
  131.8198  133.7729  158.7675 H   0  0  0  0  0  0  0  0  0  0  0  0
  129.7692  133.2306  156.0106 H   0  0  0  0  0  0  0  0  0  0  0  0
  131.4146  133.3967  156.6647 H   0  0  0  0  0  0  0  0  0  0  0  0
  1  2  1  0
  1 32  1  0
  1 33  1  0
  1 34  1  0
  2 31  1  0
  2  3  2  0
  3  4  1  0
  3 35  1  0
  4  5  1  0
  4 36  1  0
  4 37  1  0
  5  6  1  0
  5 38  1  0
  5 39  1  0
  6  7  1  0
  6 31  1  0
  7 30  1  0
  7  8  2  0
  8  9  1  0
  8 40  1  0
  9 10  2  0
  9 41  1  0
 10 11  1  0
 10 22  1  0
 11 12  2  0
 11 13  1  0
 13 14  1  1
 13 15  1  0
 13 16  1  0
 15 42  1  0
 15 43  1  0
 16 21  1  0
 16 17  2  0
 17 18  1  0
 17 44  1  0
 18 19  2  0
 18 45  1  0
 19 20  1  0
 19 46  1  0
 20 21  2  0
 20 47  1  0
 21 48  1  0
 22 23  1  0
 22 30  2  0
 23 24  1  0
 23 49  1  0
 23 50  1  0
 24 25  1  0
 24 26  1  0
 24 27  1  0
 27 28  1  0
 27 29  1  0
 27 51  1  0
 28 52  1  0
 28 53  1  0
 28 54  1  0
 29 55  1  0
 29 56  1  0
 29 57  1  0
 30 58  1  0
 31 59  1  0
 31 60  1  0
M  CHG  1  24   1
M  END
>  <DOCK_score>  (1) 
-47.764847

>  <SMILES>  (1) 
CC1=CCCN(c2ccc(C(=O)[C@H](N)c3ccccc3)c(C[NH2+]C(C)C)c2)C1

$$$$
