CC=C[C@H](Nc1[nH]cc(-c2ccc(C(F)(F)F)cc2)[nH+]1)c1ccccc1
     RDKit          3D

 45 47  0  0  1  0  0  0  0  0999 V2000
  130.4814  138.3585  162.0836 C   0  0  0  0  0  0  0  0  0  0  0  0
  130.1239  137.0025  161.5318 C   0  0  0  0  0  0  0  0  0  0  0  0
  129.4473  136.9078  160.4141 C   0  0  0  0  0  0  0  0  0  0  0  0
  129.0896  135.5518  159.8624 C   0  0  2  0  0  0  0  0  0  0  0  0
  128.9725  134.8447  160.6836 H   0  0  0  0  0  0  0  0  0  0  0  0
  130.1560  135.0911  158.9697 N   0  0  0  0  0  0  0  0  0  0  0  0
  130.0495  133.8625  158.3406 C   0  0  0  0  0  0  0  0  0  0  0  0
  129.3900  132.7766  158.8286 N   0  0  0  0  0  0  0  0  0  0  0  0
  128.9144  132.7246  159.6722 H   0  0  0  0  0  0  0  0  0  0  0  0
  129.5225  131.7677  157.9057 C   0  0  0  0  0  0  0  0  0  0  0  0
  130.2586  132.2656  156.8813 C   0  0  0  0  0  0  0  0  0  0  0  0
  130.6556  131.5322  155.6547 C   0  0  0  0  0  0  0  0  0  0  0  0
  130.2508  131.9925  154.4028 C   0  0  0  0  0  0  0  0  0  0  0  0
  130.6284  131.3095  153.2645 C   0  0  0  0  0  0  0  0  0  0  0  0
  131.3970  130.1631  153.3654 C   0  0  0  0  0  0  0  0  0  0  0  0
  131.8004  129.4181  152.1191 C   0  0  0  0  0  0  0  0  0  0  0  0
  131.2827  130.0735  150.9958 F   0  0  0  0  0  0  0  0  0  0  0  0
  133.1959  129.3763  152.0318 F   0  0  0  0  0  0  0  0  0  0  0  0
  131.2964  128.1146  152.1712 F   0  0  0  0  0  0  0  0  0  0  0  0
  131.7963  129.6990  154.6051 C   0  0  0  0  0  0  0  0  0  0  0  0
  131.4298  130.3772  155.7498 C   0  0  0  0  0  0  0  0  0  0  0  0
  130.5624  133.5550  157.1744 N   0  0  0  0  0  0  0  0  0  0  0  0
  131.0786  134.1531  156.6115 H   0  0  0  0  0  0  0  0  0  0  0  0
  127.7971  135.6473  159.0935 C   0  0  0  0  0  0  0  0  0  0  0  0
  126.5922  135.4404  159.7386 C   0  0  0  0  0  0  0  0  0  0  0  0
  125.4063  135.5323  159.0343 C   0  0  0  0  0  0  0  0  0  0  0  0
  125.4258  135.8219  157.6827 C   0  0  0  0  0  0  0  0  0  0  0  0
  126.6310  136.0236  157.0364 C   0  0  0  0  0  0  0  0  0  0  0  0
  127.8166  135.9360  157.7417 C   0  0  0  0  0  0  0  0  0  0  0  0
  131.0935  138.8957  161.3590 H   0  0  0  0  0  0  0  0  0  0  0  0
  129.5700  138.9232  162.2790 H   0  0  0  0  0  0  0  0  0  0  0  0
  131.0398  138.2373  163.0120 H   0  0  0  0  0  0  0  0  0  0  0  0
  130.4254  136.1088  162.0580 H   0  0  0  0  0  0  0  0  0  0  0  0
  129.1458  137.8015  159.8880 H   0  0  0  0  0  0  0  0  0  0  0  0
  130.9367  135.6470  158.8195 H   0  0  0  0  0  0  0  0  0  0  0  0
  129.1180  130.7692  157.9815 H   0  0  0  0  0  0  0  0  0  0  0  0
  129.6469  132.8842  154.3234 H   0  0  0  0  0  0  0  0  0  0  0  0
  130.3193  131.6679  152.2936 H   0  0  0  0  0  0  0  0  0  0  0  0
  132.3961  128.8039  154.6776 H   0  0  0  0  0  0  0  0  0  0  0  0
  131.7422  130.0135  156.7176 H   0  0  0  0  0  0  0  0  0  0  0  0
  126.5771  135.2104  160.7938 H   0  0  0  0  0  0  0  0  0  0  0  0
  124.4646  135.3751  159.5394 H   0  0  0  0  0  0  0  0  0  0  0  0
  124.4993  135.8911  157.1320 H   0  0  0  0  0  0  0  0  0  0  0  0
  126.6463  136.2500  155.9806 H   0  0  0  0  0  0  0  0  0  0  0  0
  128.7582  136.0936  157.2368 H   0  0  0  0  0  0  0  0  0  0  0  0
  1  2  1  0
  1 30  1  0
  1 31  1  0
  1 32  1  0
  2  3  2  0
  2 33  1  0
  3  4  1  0
  3 34  1  0
  4  5  1  1
  4  6  1  0
  4 24  1  0
  6 35  1  0
  7  6  1  0
  7 22  2  0
  7  8  1  0
  8  9  1  0
  8 10  1  0
 10 11  2  0
 10 36  1  0
 11 12  1  0
 11 22  1  0
 12 21  1  0
 12 13  2  0
 13 14  1  0
 13 37  1  0
 14 15  2  0
 14 38  1  0
 15 16  1  0
 15 20  1  0
 16 17  1  0
 16 18  1  0
 16 19  1  0
 20 21  2  0
 20 39  1  0
 21 40  1  0
 22 23  1  0
 24 29  1  0
 24 25  2  0
 25 26  1  0
 25 41  1  0
 26 27  2  0
 26 42  1  0
 27 28  1  0
 27 43  1  0
 28 29  2  0
 28 44  1  0
 29 45  1  0
M  CHG  1  22   1
M  END
>  <DOCK_score>  (1) 
-56.417961

>  <SMILES>  (1) 
CC=C[C@H](Nc1[nH]cc(-c2ccc(C(F)(F)F)cc2)[nH+]1)c1ccccc1

$$$$
