O=C1CC[C@H]([NH+]=C(NC2CCCC2)NC2Cc3ccccc3C2)CN1
     RDKit          3D

 54 57  0  0  1  0  0  0  0  0999 V2000
  124.2329  133.7088  161.4558 O   0  0  0  0  0  0  0  0  0  0  0  0
  125.3885  134.0348  161.2849 C   0  0  0  0  0  0  0  0  0  0  0  0
  126.3137  133.0531  160.6248 C   0  0  0  0  0  0  0  0  0  0  0  0
  127.7683  133.4491  160.8899 C   0  0  0  0  0  0  0  0  0  0  0  0
  127.9306  134.9401  160.5709 C   0  0  2  0  0  0  0  0  0  0  0  0
  127.5543  135.1427  159.5682 H   0  0  0  0  0  0  0  0  0  0  0  0
  129.3465  135.3080  160.6481 N   0  0  0  0  0  0  0  0  0  0  0  0
  129.6381  135.9854  161.2783 H   0  0  0  0  0  0  0  0  0  0  0  0
  130.2147  134.7252  159.8699 C   0  0  0  0  0  0  0  0  0  0  0  0
  129.8015  133.7652  158.9767 N   0  0  0  0  0  0  0  0  0  0  0  0
  130.7096  132.6808  158.5946 C   0  0  0  0  0  0  0  0  0  0  0  0
  129.9926  131.7020  157.6421 C   0  0  0  0  0  0  0  0  0  0  0  0
  130.5282  130.3082  158.0570 C   0  0  0  0  0  0  0  0  0  0  0  0
  130.6281  130.4248  159.5983 C   0  0  0  0  0  0  0  0  0  0  0  0
  131.1141  131.8692  159.8378 C   0  0  0  0  0  0  0  0  0  0  0  0
  131.5435  135.0704  159.9423 N   0  0  0  0  0  0  0  0  0  0  0  0
  131.9838  136.0933  160.8941 C   0  0  0  0  0  0  0  0  0  0  0  0
  131.4197  137.4781  160.5112 C   0  0  0  0  0  0  0  0  0  0  0  0
  132.5142  138.4629  160.8759 C   0  0  0  0  0  0  0  0  0  0  0  0
  132.4622  139.8357  161.0513 C   0  0  0  0  0  0  0  0  0  0  0  0
  133.6024  140.5366  161.3915 C   0  0  0  0  0  0  0  0  0  0  0  0
  134.8003  139.8665  161.5575 C   0  0  0  0  0  0  0  0  0  0  0  0
  134.8541  138.4977  161.3831 C   0  0  0  0  0  0  0  0  0  0  0  0
  133.7117  137.7930  161.0419 C   0  0  0  0  0  0  0  0  0  0  0  0
  133.5084  136.3131  160.7971 C   0  0  0  0  0  0  0  0  0  0  0  0
  127.1332  135.7525  161.5921 C   0  0  0  0  0  0  0  0  0  0  0  0
  125.7697  135.2455  161.6935 N   0  0  0  0  0  0  0  0  0  0  0  0
  126.1298  133.0484  159.5504 H   0  0  0  0  0  0  0  0  0  0  0  0
  126.1306  132.0566  161.0266 H   0  0  0  0  0  0  0  0  0  0  0  0
  128.4301  132.8632  160.2522 H   0  0  0  0  0  0  0  0  0  0  0  0
  128.0126  133.2691  161.9369 H   0  0  0  0  0  0  0  0  0  0  0  0
  128.9102  133.8078  158.5965 H   0  0  0  0  0  0  0  0  0  0  0  0
  131.5967  133.0900  158.1111 H   0  0  0  0  0  0  0  0  0  0  0  0
  128.9131  131.7533  157.7841 H   0  0  0  0  0  0  0  0  0  0  0  0
  130.2528  131.9184  156.6060 H   0  0  0  0  0  0  0  0  0  0  0  0
  131.5095  130.1262  157.6190 H   0  0  0  0  0  0  0  0  0  0  0  0
  129.8283  129.5221  157.7737 H   0  0  0  0  0  0  0  0  0  0  0  0
  131.3518  129.7092  159.9889 H   0  0  0  0  0  0  0  0  0  0  0  0
  129.6526  130.2691  160.0589 H   0  0  0  0  0  0  0  0  0  0  0  0
  132.1974  131.8839  159.9571 H   0  0  0  0  0  0  0  0  0  0  0  0
  130.6346  132.2821  160.7254 H   0  0  0  0  0  0  0  0  0  0  0  0
  132.1896  134.6367  159.3631 H   0  0  0  0  0  0  0  0  0  0  0  0
  131.6949  135.8248  161.9103 H   0  0  0  0  0  0  0  0  0  0  0  0
  131.2151  137.5205  159.4414 H   0  0  0  0  0  0  0  0  0  0  0  0
  130.5132  137.6874  161.0791 H   0  0  0  0  0  0  0  0  0  0  0  0
  131.5268  140.3599  160.9218 H   0  0  0  0  0  0  0  0  0  0  0  0
  133.5584  141.6070  161.5280 H   0  0  0  0  0  0  0  0  0  0  0  0
  135.6930  140.4131  161.8232 H   0  0  0  0  0  0  0  0  0  0  0  0
  135.7903  137.9750  161.5127 H   0  0  0  0  0  0  0  0  0  0  0  0
  134.0239  135.7293  161.5597 H   0  0  0  0  0  0  0  0  0  0  0  0
  133.8676  136.0396  159.8051 H   0  0  0  0  0  0  0  0  0  0  0  0
  127.6158  135.6795  162.5666 H   0  0  0  0  0  0  0  0  0  0  0  0
  127.1099  136.7973  161.2823 H   0  0  0  0  0  0  0  0  0  0  0  0
  125.0970  135.8273  162.0808 H   0  0  0  0  0  0  0  0  0  0  0  0
  1  2  2  0
  2 27  1  0
  2  3  1  0
  3  4  1  0
  3 28  1  0
  3 29  1  0
  4  5  1  0
  4 30  1  0
  4 31  1  0
  5  6  1  6
  5  7  1  0
  5 26  1  0
  7  8  1  0
  9  7  2  0
  9 10  1  0
  9 16  1  0
 10 11  1  0
 10 32  1  0
 11 15  1  0
 11 12  1  0
 11 33  1  0
 12 13  1  0
 12 34  1  0
 12 35  1  0
 13 14  1  0
 13 36  1  0
 13 37  1  0
 14 15  1  0
 14 38  1  0
 14 39  1  0
 15 40  1  0
 15 41  1  0
 16 17  1  0
 16 42  1  0
 17 25  1  0
 17 18  1  0
 17 43  1  0
 18 19  1  0
 18 44  1  0
 18 45  1  0
 19 24  2  0
 19 20  1  0
 20 21  2  0
 20 46  1  0
 21 22  1  0
 21 47  1  0
 22 23  2  0
 22 48  1  0
 23 24  1  0
 23 49  1  0
 24 25  1  0
 25 50  1  0
 25 51  1  0
 26 27  1  0
 26 52  1  0
 26 53  1  0
 27 54  1  0
M  CHG  1   7   1
M  END
>  <DOCK_score>  (1) 
-43.311516

>  <SMILES>  (1) 
O=C1CC[C@H]([NH+]=C(NC2CCCC2)NC2Cc3ccccc3C2)CN1

$$$$
