ClC(Cl)=CCCNc1ccc(Nc2ccc(Nc3[nH]c4ccccc4[nH+]3)cc2)cc1
     RDKit          3D

 52 55  0  0  0  0  0  0  0  0999 V2000
  127.2126  139.5372  171.7697 Cl  0  0  0  0  0  0  0  0  0  0  0  0
  127.9527  137.9712  171.6546 C   0  0  0  0  0  0  0  0  0  0  0  0
  127.4089  136.6770  172.6759 Cl  0  0  0  0  0  0  0  0  0  0  0  0
  128.9240  137.7654  170.7950 C   0  0  0  0  0  0  0  0  0  0  0  0
  129.3961  138.8889  169.9085 C   0  0  0  0  0  0  0  0  0  0  0  0
  128.5896  138.8861  168.6083 C   0  0  0  0  0  0  0  0  0  0  0  0
  128.7791  137.6074  167.9189 N   0  0  0  0  0  0  0  0  0  0  0  0
  128.1365  137.3682  166.6985 C   0  0  0  0  0  0  0  0  0  0  0  0
  128.3166  136.1563  166.0450 C   0  0  0  0  0  0  0  0  0  0  0  0
  127.6876  135.9225  164.8382 C   0  0  0  0  0  0  0  0  0  0  0  0
  126.8659  136.8955  164.2835 C   0  0  0  0  0  0  0  0  0  0  0  0
  126.2236  136.6564  163.0628 N   0  0  0  0  0  0  0  0  0  0  0  0
  126.9784  136.3911  161.9149 C   0  0  0  0  0  0  0  0  0  0  0  0
  126.4612  135.5745  160.9172 C   0  0  0  0  0  0  0  0  0  0  0  0
  127.2044  135.3158  159.7828 C   0  0  0  0  0  0  0  0  0  0  0  0
  128.4736  135.8623  159.6445 C   0  0  0  0  0  0  0  0  0  0  0  0
  129.2298  135.5950  158.4958 N   0  0  0  0  0  0  0  0  0  0  0  0
  129.5652  134.2988  158.1792 C   0  0  0  0  0  0  0  0  0  0  0  0
  129.2292  133.2276  158.8949 N   0  0  0  0  0  0  0  0  0  0  0  0
  128.7134  133.2334  159.7164 H   0  0  0  0  0  0  0  0  0  0  0  0
  129.7323  132.1155  158.2729 C   0  0  0  0  0  0  0  0  0  0  0  0
  129.6934  130.7532  158.5561 C   0  0  0  0  0  0  0  0  0  0  0  0
  130.3202  129.8604  157.7140 C   0  0  0  0  0  0  0  0  0  0  0  0
  130.9901  130.3095  156.5854 C   0  0  0  0  0  0  0  0  0  0  0  0
  131.0378  131.6546  156.2899 C   0  0  0  0  0  0  0  0  0  0  0  0
  130.4101  132.5701  157.1298 C   0  0  0  0  0  0  0  0  0  0  0  0
  130.2777  133.9335  157.1155 N   0  0  0  0  0  0  0  0  0  0  0  0
  130.6418  134.5316  156.4442 H   0  0  0  0  0  0  0  0  0  0  0  0
  128.9929  136.6741  160.6443 C   0  0  0  0  0  0  0  0  0  0  0  0
  128.2479  136.9371  161.7765 C   0  0  0  0  0  0  0  0  0  0  0  0
  126.6859  138.1075  164.9373 C   0  0  0  0  0  0  0  0  0  0  0  0
  127.3191  138.3430  166.1415 C   0  0  0  0  0  0  0  0  0  0  0  0
  129.3845  136.7912  170.7234 H   0  0  0  0  0  0  0  0  0  0  0  0
  130.4532  138.7524  169.6806 H   0  0  0  0  0  0  0  0  0  0  0  0
  129.2551  139.8403  170.4214 H   0  0  0  0  0  0  0  0  0  0  0  0
  128.9311  139.6987  167.9671 H   0  0  0  0  0  0  0  0  0  0  0  0
  127.5325  139.0228  168.8362 H   0  0  0  0  0  0  0  0  0  0  0  0
  129.3501  136.9265  168.3080 H   0  0  0  0  0  0  0  0  0  0  0  0
  128.9520  135.3982  166.4782 H   0  0  0  0  0  0  0  0  0  0  0  0
  127.8310  134.9817  164.3276 H   0  0  0  0  0  0  0  0  0  0  0  0
  125.2550  136.6755  163.0126 H   0  0  0  0  0  0  0  0  0  0  0  0
  125.4761  135.1456  161.0268 H   0  0  0  0  0  0  0  0  0  0  0  0
  126.8005  134.6846  159.0050 H   0  0  0  0  0  0  0  0  0  0  0  0
  129.5170  136.3238  157.9238 H   0  0  0  0  0  0  0  0  0  0  0  0
  129.1733  130.3970  159.4330 H   0  0  0  0  0  0  0  0  0  0  0  0
  130.2893  128.8036  157.9342 H   0  0  0  0  0  0  0  0  0  0  0  0
  131.4774  129.5998  155.9332 H   0  0  0  0  0  0  0  0  0  0  0  0
  131.5605  131.9975  155.4092 H   0  0  0  0  0  0  0  0  0  0  0  0
  129.9797  137.0992  160.5364 H   0  0  0  0  0  0  0  0  0  0  0  0
  128.6519  137.5684  162.5542 H   0  0  0  0  0  0  0  0  0  0  0  0
  126.0510  138.8660  164.5037 H   0  0  0  0  0  0  0  0  0  0  0  0
  127.1793  139.2855  166.6499 H   0  0  0  0  0  0  0  0  0  0  0  0
  1  2  1  0
  2  3  1  0
  2  4  2  0
  4  5  1  0
  4 33  1  0
  5  6  1  0
  5 34  1  0
  5 35  1  0
  6  7  1  0
  6 36  1  0
  6 37  1  0
  7  8  1  0
  7 38  1  0
  8 32  2  0
  8  9  1  0
  9 10  2  0
  9 39  1  0
 10 11  1  0
 10 40  1  0
 11 12  1  0
 11 31  2  0
 12 13  1  0
 12 41  1  0
 13 30  1  0
 13 14  2  0
 14 15  1  0
 14 42  1  0
 15 16  2  0
 15 43  1  0
 16 17  1  0
 16 29  1  0
 17 18  1  0
 17 44  1  0
 18 27  1  0
 18 19  2  0
 19 20  1  0
 19 21  1  0
 21 26  2  0
 21 22  1  0
 22 23  2  0
 22 45  1  0
 23 24  1  0
 23 46  1  0
 24 25  2  0
 24 47  1  0
 25 26  1  0
 25 48  1  0
 26 27  1  0
 27 28  1  0
 29 30  2  0
 29 49  1  0
 30 50  1  0
 31 32  1  0
 31 51  1  0
 32 52  1  0
M  CHG  1  19   1
M  END
>  <DOCK_score>  (1) 
-45.69503

>  <SMILES>  (1) 
ClC(Cl)=CCCNc1ccc(Nc2ccc(Nc3[nH]c4ccccc4[nH+]3)cc2)cc1

$$$$
