Brc1ccc(-c2c[nH]c(N[C@H](CCc3ccccc3)c3ccccc3)[nH+]2)cc1
     RDKit          3D

 51 54  0  0  1  0  0  0  0  0999 V2000
  131.2154  129.3757  151.8186 Br  0  0  0  0  0  0  0  0  0  0  0  0
  130.8344  130.4059  153.3578 C   0  0  0  0  0  0  0  0  0  0  0  0
  130.2324  131.6453  153.2265 C   0  0  0  0  0  0  0  0  0  0  0  0
  129.9521  132.4012  154.3466 C   0  0  0  0  0  0  0  0  0  0  0  0
  130.2764  131.9145  155.6116 C   0  0  0  0  0  0  0  0  0  0  0  0
  129.9774  132.7227  156.8191 C   0  0  0  0  0  0  0  0  0  0  0  0
  129.1738  132.3539  157.8472 C   0  0  0  0  0  0  0  0  0  0  0  0
  129.1775  133.3912  158.7480 N   0  0  0  0  0  0  0  0  0  0  0  0
  128.6916  133.4256  159.5868 H   0  0  0  0  0  0  0  0  0  0  0  0
  129.9839  134.3644  158.2432 C   0  0  0  0  0  0  0  0  0  0  0  0
  130.2560  135.5799  158.8473 N   0  0  0  0  0  0  0  0  0  0  0  0
  129.6540  135.9052  160.1427 C   0  0  2  0  0  0  0  0  0  0  0  0
  128.5677  135.8937  160.0516 H   0  0  0  0  0  0  0  0  0  0  0  0
  130.1141  137.2959  160.5842 C   0  0  0  0  0  0  0  0  0  0  0  0
  131.6387  137.3119  160.7120 C   0  0  0  0  0  0  0  0  0  0  0  0
  132.0920  138.6818  161.1469 C   0  0  0  0  0  0  0  0  0  0  0  0
  133.3340  139.1527  160.7640 C   0  0  0  0  0  0  0  0  0  0  0  0
  133.7477  140.4112  161.1589 C   0  0  0  0  0  0  0  0  0  0  0  0
  132.9243  141.1946  161.9449 C   0  0  0  0  0  0  0  0  0  0  0  0
  131.6840  140.7215  162.3327 C   0  0  0  0  0  0  0  0  0  0  0  0
  131.2680  139.4651  161.9334 C   0  0  0  0  0  0  0  0  0  0  0  0
  130.0829  134.8857  161.1663 C   0  0  0  0  0  0  0  0  0  0  0  0
  129.2503  134.5775  162.2258 C   0  0  0  0  0  0  0  0  0  0  0  0
  129.6420  133.6395  163.1625 C   0  0  0  0  0  0  0  0  0  0  0  0
  130.8698  133.0156  163.0443 C   0  0  0  0  0  0  0  0  0  0  0  0
  131.7047  133.3277  161.9876 C   0  0  0  0  0  0  0  0  0  0  0  0
  131.3114  134.2629  161.0488 C   0  0  0  0  0  0  0  0  0  0  0  0
  130.4600  133.9613  157.0906 N   0  0  0  0  0  0  0  0  0  0  0  0
  131.0609  134.4677  156.5220 H   0  0  0  0  0  0  0  0  0  0  0  0
  130.8878  130.6683  155.7381 C   0  0  0  0  0  0  0  0  0  0  0  0
  131.1580  129.9178  154.6121 C   0  0  0  0  0  0  0  0  0  0  0  0
  129.9819  132.0216  152.2457 H   0  0  0  0  0  0  0  0  0  0  0  0
  129.4821  133.3680  154.2429 H   0  0  0  0  0  0  0  0  0  0  0  0
  128.6344  131.4229  157.9403 H   0  0  0  0  0  0  0  0  0  0  0  0
  130.8454  136.2162  158.4130 H   0  0  0  0  0  0  0  0  0  0  0  0
  129.8038  138.0334  159.8439 H   0  0  0  0  0  0  0  0  0  0  0  0
  129.6661  137.5379  161.5480 H   0  0  0  0  0  0  0  0  0  0  0  0
  131.9490  136.5745  161.4524 H   0  0  0  0  0  0  0  0  0  0  0  0
  132.0867  137.0700  159.7482 H   0  0  0  0  0  0  0  0  0  0  0  0
  133.9795  138.5389  160.1534 H   0  0  0  0  0  0  0  0  0  0  0  0
  134.7165  140.7806  160.8568 H   0  0  0  0  0  0  0  0  0  0  0  0
  133.2489  142.1760  162.2576 H   0  0  0  0  0  0  0  0  0  0  0  0
  131.0404  141.3334  162.9473 H   0  0  0  0  0  0  0  0  0  0  0  0
  130.2995  139.0954  162.2361 H   0  0  0  0  0  0  0  0  0  0  0  0
  128.2924  135.0674  162.3201 H   0  0  0  0  0  0  0  0  0  0  0  0
  128.9899  133.3960  163.9883 H   0  0  0  0  0  0  0  0  0  0  0  0
  131.1770  132.2847  163.7776 H   0  0  0  0  0  0  0  0  0  0  0  0
  132.6642  132.8405  161.8954 H   0  0  0  0  0  0  0  0  0  0  0  0
  131.9636  134.5066  160.2232 H   0  0  0  0  0  0  0  0  0  0  0  0
  131.1454  130.2888  156.7158 H   0  0  0  0  0  0  0  0  0  0  0  0
  131.6274  128.9498  154.7092 H   0  0  0  0  0  0  0  0  0  0  0  0
  1  2  1  0
  2 31  2  0
  2  3  1  0
  3  4  2  0
  3 32  1  0
  4  5  1  0
  4 33  1  0
  5  6  1  0
  5 30  2  0
  6 28  1  0
  6  7  2  0
  7  8  1  0
  7 34  1  0
  8  9  1  0
  8 10  1  0
 10 11  1  0
 10 28  2  0
 11 12  1  0
 11 35  1  0
 12 13  1  6
 12 14  1  0
 12 22  1  0
 14 15  1  0
 14 36  1  0
 14 37  1  0
 15 16  1  0
 15 38  1  0
 15 39  1  0
 16 21  1  0
 16 17  2  0
 17 18  1  0
 17 40  1  0
 18 19  2  0
 18 41  1  0
 19 20  1  0
 19 42  1  0
 20 21  2  0
 20 43  1  0
 21 44  1  0
 22 27  1  0
 22 23  2  0
 23 24  1  0
 23 45  1  0
 24 25  2  0
 24 46  1  0
 25 26  1  0
 25 47  1  0
 26 27  2  0
 26 48  1  0
 27 49  1  0
 28 29  1  0
 30 31  1  0
 30 50  1  0
 31 51  1  0
M  CHG  1  28   1
M  END
>  <DOCK_score>  (1) 
-58.074295

>  <SMILES>  (1) 
Brc1ccc(-c2c[nH]c(N[C@H](CCc3ccccc3)c3ccccc3)[nH+]2)cc1

$$$$
