C1=C(Cc2ccc([C@H](Nc3[nH]cc(-c4cccnc4)[nH+]3)c3ccccc3)cc2)CCC1
     RDKit          3D

 58 62  0  0  1  0  0  0  0  0999 V2000
  131.3841  141.7724  164.0683 C   0  0  0  0  0  0  0  0  0  0  0  0
  132.0262  141.0093  163.2263 C   0  0  0  0  0  0  0  0  0  0  0  0
  131.7228  140.9221  161.7527 C   0  0  0  0  0  0  0  0  0  0  0  0
  131.3461  139.5061  161.4002 C   0  0  0  0  0  0  0  0  0  0  0  0
  130.0240  139.1074  161.4604 C   0  0  0  0  0  0  0  0  0  0  0  0
  129.6780  137.8096  161.1330 C   0  0  0  0  0  0  0  0  0  0  0  0
  130.6551  136.9084  160.7541 C   0  0  0  0  0  0  0  0  0  0  0  0
  130.2784  135.4926  160.4008 C   0  0  2  0  0  0  0  0  0  0  0  0
  130.7886  134.8023  161.0726 H   0  0  0  0  0  0  0  0  0  0  0  0
  130.6752  135.2122  159.0188 N   0  0  0  0  0  0  0  0  0  0  0  0
  130.4300  133.9662  158.4674 C   0  0  0  0  0  0  0  0  0  0  0  0
  129.8360  132.9205  159.1044 N   0  0  0  0  0  0  0  0  0  0  0  0
  129.5109  132.9142  160.0183 H   0  0  0  0  0  0  0  0  0  0  0  0
  129.7790  131.8766  158.2133 C   0  0  0  0  0  0  0  0  0  0  0  0
  130.3471  132.3113  157.0612 C   0  0  0  0  0  0  0  0  0  0  0  0
  130.5135  131.5204  155.8173 C   0  0  0  0  0  0  0  0  0  0  0  0
  129.9203  131.9413  154.6233 C   0  0  0  0  0  0  0  0  0  0  0  0
  130.1105  131.1715  153.4890 C   0  0  0  0  0  0  0  0  0  0  0  0
  130.8645  130.0150  153.5746 C   0  0  0  0  0  0  0  0  0  0  0  0
  131.4074  129.6402  154.7168 N   0  0  0  0  0  0  0  0  0  0  0  0
  131.2586  130.3431  155.8211 C   0  0  0  0  0  0  0  0  0  0  0  0
  130.7370  133.5973  157.2479 N   0  0  0  0  0  0  0  0  0  0  0  0
  131.1728  134.1549  156.5844 H   0  0  0  0  0  0  0  0  0  0  0  0
  128.7878  135.3198  160.5403 C   0  0  0  0  0  0  0  0  0  0  0  0
  128.2492  134.9112  161.7460 C   0  0  0  0  0  0  0  0  0  0  0  0
  126.8815  134.7569  161.8752 C   0  0  0  0  0  0  0  0  0  0  0  0
  126.0533  135.0025  160.7961 C   0  0  0  0  0  0  0  0  0  0  0  0
  126.5923  135.4060  159.5888 C   0  0  0  0  0  0  0  0  0  0  0  0
  127.9596  135.5645  159.4608 C   0  0  0  0  0  0  0  0  0  0  0  0
  131.9780  137.3057  160.6991 C   0  0  0  0  0  0  0  0  0  0  0  0
  132.3236  138.6046  161.0222 C   0  0  0  0  0  0  0  0  0  0  0  0
  133.1131  140.2242  163.9230 C   0  0  0  0  0  0  0  0  0  0  0  0
  133.3121  140.9446  165.2768 C   0  0  0  0  0  0  0  0  0  0  0  0
  131.9359  141.6235  165.4672 C   0  0  0  0  0  0  0  0  0  0  0  0
  130.5659  142.4245  163.8006 H   0  0  0  0  0  0  0  0  0  0  0  0
  130.8949  141.5890  161.5122 H   0  0  0  0  0  0  0  0  0  0  0  0
  132.6039  141.2164  161.1823 H   0  0  0  0  0  0  0  0  0  0  0  0
  129.2610  139.8104  161.7601 H   0  0  0  0  0  0  0  0  0  0  0  0
  128.6443  137.4992  161.1756 H   0  0  0  0  0  0  0  0  0  0  0  0
  131.1097  135.8996  158.4900 H   0  0  0  0  0  0  0  0  0  0  0  0
  129.3648  130.8962  158.3964 H   0  0  0  0  0  0  0  0  0  0  0  0
  129.3323  132.8464  154.5861 H   0  0  0  0  0  0  0  0  0  0  0  0
  129.6713  131.4682  152.5480 H   0  0  0  0  0  0  0  0  0  0  0  0
  131.0112  129.4095  152.6925 H   0  0  0  0  0  0  0  0  0  0  0  0
  131.7187  130.0038  156.7374 H   0  0  0  0  0  0  0  0  0  0  0  0
  128.8967  134.7157  162.5880 H   0  0  0  0  0  0  0  0  0  0  0  0
  126.4603  134.4420  162.8185 H   0  0  0  0  0  0  0  0  0  0  0  0
  124.9850  134.8794  160.8962 H   0  0  0  0  0  0  0  0  0  0  0  0
  125.9453  135.5979  158.7457 H   0  0  0  0  0  0  0  0  0  0  0  0
  128.3807  135.8798  158.5175 H   0  0  0  0  0  0  0  0  0  0  0  0
  132.7416  136.6015  160.4031 H   0  0  0  0  0  0  0  0  0  0  0  0
  133.3571  138.9150  160.9792 H   0  0  0  0  0  0  0  0  0  0  0  0
  134.0337  140.2503  163.3401 H   0  0  0  0  0  0  0  0  0  0  0  0
  132.7958  139.1940  164.0844 H   0  0  0  0  0  0  0  0  0  0  0  0
  133.5095  140.2297  166.0754 H   0  0  0  0  0  0  0  0  0  0  0  0
  134.1085  141.6861  165.2120 H   0  0  0  0  0  0  0  0  0  0  0  0
  131.2813  140.9927  166.0685 H   0  0  0  0  0  0  0  0  0  0  0  0
  132.0560  142.6013  165.9339 H   0  0  0  0  0  0  0  0  0  0  0  0
  1 34  1  0
  1  2  2  0
  1 35  1  0
  2  3  1  0
  2 32  1  0
  3  4  1  0
  3 36  1  0
  3 37  1  0
  4 31  1  0
  4  5  2  0
  5  6  1  0
  5 38  1  0
  6  7  2  0
  6 39  1  0
  7  8  1  0
  7 30  1  0
  8  9  1  1
  8 10  1  0
  8 24  1  0
 10 40  1  0
 11 10  1  0
 11 22  2  0
 11 12  1  0
 12 13  1  0
 12 14  1  0
 14 15  2  0
 14 41  1  0
 15 16  1  0
 15 22  1  0
 16 21  1  0
 16 17  2  0
 17 18  1  0
 17 42  1  0
 18 19  2  0
 18 43  1  0
 19 20  1  0
 19 44  1  0
 20 21  2  0
 21 45  1  0
 22 23  1  0
 24 29  1  0
 24 25  2  0
 25 26  1  0
 25 46  1  0
 26 27  2  0
 26 47  1  0
 27 28  1  0
 27 48  1  0
 28 29  2  0
 28 49  1  0
 29 50  1  0
 30 31  2  0
 30 51  1  0
 31 52  1  0
 32 33  1  0
 32 53  1  0
 32 54  1  0
 33 34  1  0
 33 55  1  0
 33 56  1  0
 34 57  1  0
 34 58  1  0
M  CHG  1  22   1
M  END
>  <DOCK_score>  (1) 
-56.825691

>  <SMILES>  (1) 
C1=C(Cc2ccc([C@H](Nc3[nH]cc(-c4cccnc4)[nH+]3)c3ccccc3)cc2)CCC1

$$$$
