O=C1CC[C@H]([NH+]=C(NCc2cccc(O)c2)NC2CC=CC2)CN1
     RDKit          3D

 49 51  0  0  1  0  0  0  0  0999 V2000
  123.6930  133.6345  161.3767 O   0  0  0  0  0  0  0  0  0  0  0  0
  124.8706  133.8515  161.1845 C   0  0  0  0  0  0  0  0  0  0  0  0
  125.7455  132.7050  160.7656 C   0  0  0  0  0  0  0  0  0  0  0  0
  127.2162  133.0605  160.9970 C   0  0  0  0  0  0  0  0  0  0  0  0
  127.4809  134.4450  160.3933 C   0  0  2  0  0  0  0  0  0  0  0  0
  127.1408  134.4636  159.3578 H   0  0  0  0  0  0  0  0  0  0  0  0
  128.9155  134.7376  160.4447 N   0  0  0  0  0  0  0  0  0  0  0  0
  129.2920  135.1835  161.2195 H   0  0  0  0  0  0  0  0  0  0  0  0
  129.6859  134.3985  159.4496 C   0  0  0  0  0  0  0  0  0  0  0  0
  129.1523  133.7663  158.3515 N   0  0  0  0  0  0  0  0  0  0  0  0
  129.7591  133.9541  157.0313 C   0  0  0  0  0  0  0  0  0  0  0  0
  130.2130  132.6217  156.4931 C   0  0  0  0  0  0  0  0  0  0  0  0
  129.9511  132.2821  155.1784 C   0  0  0  0  0  0  0  0  0  0  0  0
  130.3671  131.0610  154.6813 C   0  0  0  0  0  0  0  0  0  0  0  0
  131.0457  130.1766  155.4975 C   0  0  0  0  0  0  0  0  0  0  0  0
  131.3092  130.5146  156.8168 C   0  0  0  0  0  0  0  0  0  0  0  0
  131.9770  129.6465  157.6214 O   0  0  0  0  0  0  0  0  0  0  0  0
  130.8953  131.7430  157.3117 C   0  0  0  0  0  0  0  0  0  0  0  0
  131.0321  134.6731  159.4979 N   0  0  0  0  0  0  0  0  0  0  0  0
  131.6008  135.3470  160.6680 C   0  0  0  0  0  0  0  0  0  0  0  0
  132.9391  136.0366  160.3153 C   0  0  0  0  0  0  0  0  0  0  0  0
  133.8059  135.8397  161.5381 C   0  0  0  0  0  0  0  0  0  0  0  0
  133.3236  134.9048  162.3108 C   0  0  0  0  0  0  0  0  0  0  0  0
  132.0552  134.3215  161.7325 C   0  0  0  0  0  0  0  0  0  0  0  0
  126.7140  135.4899  161.2015 C   0  0  0  0  0  0  0  0  0  0  0  0
  125.3195  135.0953  161.3568 N   0  0  0  0  0  0  0  0  0  0  0  0
  125.4900  131.8218  161.3511 H   0  0  0  0  0  0  0  0  0  0  0  0
  125.5868  132.4963  159.7075 H   0  0  0  0  0  0  0  0  0  0  0  0
  127.4250  133.0805  162.0665 H   0  0  0  0  0  0  0  0  0  0  0  0
  127.8532  132.3208  160.5119 H   0  0  0  0  0  0  0  0  0  0  0  0
  128.3740  133.1960  158.4508 H   0  0  0  0  0  0  0  0  0  0  0  0
  129.0253  134.3892  156.3528 H   0  0  0  0  0  0  0  0  0  0  0  0
  130.6159  134.6223  157.1171 H   0  0  0  0  0  0  0  0  0  0  0  0
  129.4212  132.9724  154.5387 H   0  0  0  0  0  0  0  0  0  0  0  0
  130.1617  130.7984  153.6541 H   0  0  0  0  0  0  0  0  0  0  0  0
  131.3710  129.2230  155.1086 H   0  0  0  0  0  0  0  0  0  0  0  0
  132.1129  129.9705  158.5224 H   0  0  0  0  0  0  0  0  0  0  0  0
  131.1036  132.0105  158.3372 H   0  0  0  0  0  0  0  0  0  0  0  0
  131.6055  134.4208  158.7572 H   0  0  0  0  0  0  0  0  0  0  0  0
  130.8921  136.0600  161.0889 H   0  0  0  0  0  0  0  0  0  0  0  0
  133.3943  135.5608  159.4466 H   0  0  0  0  0  0  0  0  0  0  0  0
  132.7811  137.0988  160.1281 H   0  0  0  0  0  0  0  0  0  0  0  0
  134.7057  136.3996  161.7453 H   0  0  0  0  0  0  0  0  0  0  0  0
  133.7722  134.5894  163.2411 H   0  0  0  0  0  0  0  0  0  0  0  0
  131.2966  134.2182  162.5083 H   0  0  0  0  0  0  0  0  0  0  0  0
  132.2565  133.3561  161.2682 H   0  0  0  0  0  0  0  0  0  0  0  0
  126.7616  136.4506  160.6889 H   0  0  0  0  0  0  0  0  0  0  0  0
  127.1728  135.5868  162.1855 H   0  0  0  0  0  0  0  0  0  0  0  0
  124.6770  135.7814  161.5969 H   0  0  0  0  0  0  0  0  0  0  0  0
  1  2  2  0
  2 26  1  0
  2  3  1  0
  3  4  1  0
  3 27  1  0
  3 28  1  0
  4  5  1  0
  4 29  1  0
  4 30  1  0
  5  6  1  6
  5  7  1  0
  5 25  1  0
  7  8  1  0
  9  7  2  0
  9 10  1  0
  9 19  1  0
 10 11  1  0
 10 31  1  0
 11 12  1  0
 11 32  1  0
 11 33  1  0
 12 18  1  0
 12 13  2  0
 13 14  1  0
 13 34  1  0
 14 15  2  0
 14 35  1  0
 15 16  1  0
 15 36  1  0
 16 17  1  0
 16 18  2  0
 17 37  1  0
 18 38  1  0
 19 20  1  0
 19 39  1  0
 20 24  1  0
 20 21  1  0
 20 40  1  0
 21 22  1  0
 21 41  1  0
 21 42  1  0
 22 23  2  0
 22 43  1  0
 23 24  1  0
 23 44  1  0
 24 45  1  0
 24 46  1  0
 25 26  1  0
 25 47  1  0
 25 48  1  0
 26 49  1  0
M  CHG  1   7   1
M  END
>  <DOCK_score>  (1) 
-48.046528

>  <SMILES>  (1) 
O=C1CC[C@H]([NH+]=C(NCc2cccc(O)c2)NC2CC=CC2)CN1

$$$$
