c1ccc(CC[C@@H](Nc2[nH]cc(-c3ccccc3)[nH+]2)c2ccccc2)cc1
     RDKit          3D

 51 54  0  0  1  0  0  0  0  0999 V2000
  126.1300  132.7490  160.8491 C   0  0  0  0  0  0  0  0  0  0  0  0
  126.1255  133.1527  159.5271 C   0  0  0  0  0  0  0  0  0  0  0  0
  126.8358  134.2754  159.1449 C   0  0  0  0  0  0  0  0  0  0  0  0
  127.5506  134.9941  160.0848 C   0  0  0  0  0  0  0  0  0  0  0  0
  128.3253  136.2177  159.6679 C   0  0  0  0  0  0  0  0  0  0  0  0
  129.5458  136.3824  160.5757 C   0  0  0  0  0  0  0  0  0  0  0  0
  130.4407  135.1471  160.4563 C   0  0  1  0  0  0  0  0  0  0  0  0
  129.8804  134.2621  160.7578 H   0  0  0  0  0  0  0  0  0  0  0  0
  130.8817  134.9961  159.0674 N   0  0  0  0  0  0  0  0  0  0  0  0
  130.5641  133.8485  158.3611 C   0  0  0  0  0  0  0  0  0  0  0  0
  129.8480  132.7953  158.8406 N   0  0  0  0  0  0  0  0  0  0  0  0
  129.4712  132.7144  159.7309 H   0  0  0  0  0  0  0  0  0  0  0  0
  129.7616  131.8657  157.8331 C   0  0  0  0  0  0  0  0  0  0  0  0
  130.4219  132.3795  156.7659 C   0  0  0  0  0  0  0  0  0  0  0  0
  130.5910  131.7242  155.4459 C   0  0  0  0  0  0  0  0  0  0  0  0
  130.0945  132.3325  154.2943 C   0  0  0  0  0  0  0  0  0  0  0  0
  130.2588  131.7206  153.0683 C   0  0  0  0  0  0  0  0  0  0  0  0
  130.9057  130.5014  152.9820 C   0  0  0  0  0  0  0  0  0  0  0  0
  131.3959  129.8901  154.1226 C   0  0  0  0  0  0  0  0  0  0  0  0
  131.2419  130.4954  155.3532 C   0  0  0  0  0  0  0  0  0  0  0  0
  130.9004  133.5988  157.1192 N   0  0  0  0  0  0  0  0  0  0  0  0
  131.4132  134.1896  156.5456 H   0  0  0  0  0  0  0  0  0  0  0  0
  131.6429  135.3094  161.3502 C   0  0  0  0  0  0  0  0  0  0  0  0
  132.7938  135.8983  160.8608 C   0  0  0  0  0  0  0  0  0  0  0  0
  133.8951  136.0511  161.6821 C   0  0  0  0  0  0  0  0  0  0  0  0
  133.8484  135.6070  162.9906 C   0  0  0  0  0  0  0  0  0  0  0  0
  132.6996  135.0130  163.4782 C   0  0  0  0  0  0  0  0  0  0  0  0
  131.5968  134.8641  162.6581 C   0  0  0  0  0  0  0  0  0  0  0  0
  127.5593  134.5873  161.4058 C   0  0  0  0  0  0  0  0  0  0  0  0
  126.8449  133.4678  161.7890 C   0  0  0  0  0  0  0  0  0  0  0  0
  125.5753  131.8717  161.1476 H   0  0  0  0  0  0  0  0  0  0  0  0
  125.5673  132.5910  158.7927 H   0  0  0  0  0  0  0  0  0  0  0  0
  126.8326  134.5907  158.1120 H   0  0  0  0  0  0  0  0  0  0  0  0
  127.6878  137.0977  159.7530 H   0  0  0  0  0  0  0  0  0  0  0  0
  128.6535  136.1054  158.6346 H   0  0  0  0  0  0  0  0  0  0  0  0
  129.2177  136.4947  161.6090 H   0  0  0  0  0  0  0  0  0  0  0  0
  130.1061  137.2674  160.2743 H   0  0  0  0  0  0  0  0  0  0  0  0
  131.3963  135.7001  158.6426 H   0  0  0  0  0  0  0  0  0  0  0  0
  129.2631  130.9087  157.8815 H   0  0  0  0  0  0  0  0  0  0  0  0
  129.5856  133.2828  154.3609 H   0  0  0  0  0  0  0  0  0  0  0  0
  129.8782  132.1929  152.1748 H   0  0  0  0  0  0  0  0  0  0  0  0
  131.0288  130.0244  152.0210 H   0  0  0  0  0  0  0  0  0  0  0  0
  131.9004  128.9380  154.0495 H   0  0  0  0  0  0  0  0  0  0  0  0
  131.6253  130.0177  156.2427 H   0  0  0  0  0  0  0  0  0  0  0  0
  132.8313  136.2421  159.8377 H   0  0  0  0  0  0  0  0  0  0  0  0
  134.7927  136.5151  161.3011 H   0  0  0  0  0  0  0  0  0  0  0  0
  134.7105  135.7232  163.6307 H   0  0  0  0  0  0  0  0  0  0  0  0
  132.6633  134.6658  164.5002 H   0  0  0  0  0  0  0  0  0  0  0  0
  130.6991  134.4003  163.0393 H   0  0  0  0  0  0  0  0  0  0  0  0
  128.1215  135.1464  162.1393 H   0  0  0  0  0  0  0  0  0  0  0  0
  126.8486  133.1520  162.8217 H   0  0  0  0  0  0  0  0  0  0  0  0
  1 30  2  0
  1  2  1  0
  1 31  1  0
  2  3  2  0
  2 32  1  0
  3  4  1  0
  3 33  1  0
  4  5  1  0
  4 29  2  0
  5  6  1  0
  5 34  1  0
  5 35  1  0
  6  7  1  0
  6 36  1  0
  6 37  1  0
  7  8  1  1
  7  9  1  0
  7 23  1  0
  9 38  1  0
 10  9  1  0
 10 21  2  0
 10 11  1  0
 11 12  1  0
 11 13  1  0
 13 14  2  0
 13 39  1  0
 14 15  1  0
 14 21  1  0
 15 20  1  0
 15 16  2  0
 16 17  1  0
 16 40  1  0
 17 18  2  0
 17 41  1  0
 18 19  1  0
 18 42  1  0
 19 20  2  0
 19 43  1  0
 20 44  1  0
 21 22  1  0
 23 28  1  0
 23 24  2  0
 24 25  1  0
 24 45  1  0
 25 26  2  0
 25 46  1  0
 26 27  1  0
 26 47  1  0
 27 28  2  0
 27 48  1  0
 28 49  1  0
 29 30  1  0
 29 50  1  0
 30 51  1  0
M  CHG  1  21   1
M  END
>  <DOCK_score>  (1) 
-58.361912

>  <SMILES>  (1) 
c1ccc(CC[C@@H](Nc2[nH]cc(-c3ccccc3)[nH+]2)c2ccccc2)cc1

$$$$
