C[NH2+][C@@H](C(=O)Nc1cccc(O)c1)c1cccc(-c2ccccc2)c1
     RDKit          3D

 46 48  0  0  1  0  0  0  0  0999 V2000
  130.9411  132.2540  157.2781 C   0  0  0  0  0  0  0  0  0  0  0  0
  131.6155  132.6917  158.5076 N   0  0  0  0  0  0  0  0  0  0  0  0
  132.5245  133.0647  158.2782 H   0  0  0  0  0  0  0  0  0  0  0  0
  131.7222  131.9053  159.1308 H   0  0  0  0  0  0  0  0  0  0  0  0
  130.8111  133.7309  159.1640 C   0  0  1  0  0  0  0  0  0  0  0  0
  130.6957  134.5804  158.4908 H   0  0  0  0  0  0  0  0  0  0  0  0
  129.4535  133.1738  159.5068 C   0  0  0  0  0  0  0  0  0  0  0  0
  129.3275  131.9932  159.7545 O   0  0  0  0  0  0  0  0  0  0  0  0
  128.3794  133.9872  159.5379 N   0  0  0  0  0  0  0  0  0  0  0  0
  127.1189  133.4699  159.8561 C   0  0  0  0  0  0  0  0  0  0  0  0
  126.8057  132.1548  159.5360 C   0  0  0  0  0  0  0  0  0  0  0  0
  125.5634  131.6425  159.8554 C   0  0  0  0  0  0  0  0  0  0  0  0
  124.6249  132.4395  160.4835 C   0  0  0  0  0  0  0  0  0  0  0  0
  124.9303  133.7555  160.8004 C   0  0  0  0  0  0  0  0  0  0  0  0
  124.0064  134.5381  161.4176 O   0  0  0  0  0  0  0  0  0  0  0  0
  126.1780  134.2716  160.4867 C   0  0  0  0  0  0  0  0  0  0  0  0
  131.5028  134.1799  160.4253 C   0  0  0  0  0  0  0  0  0  0  0  0
  131.2361  133.5421  161.6235 C   0  0  0  0  0  0  0  0  0  0  0  0
  131.8674  133.9488  162.7848 C   0  0  0  0  0  0  0  0  0  0  0  0
  132.7729  134.9903  162.7528 C   0  0  0  0  0  0  0  0  0  0  0  0
  133.0410  135.6399  161.5499 C   0  0  0  0  0  0  0  0  0  0  0  0
  134.0083  136.7645  161.5105 C   0  0  0  0  0  0  0  0  0  0  0  0
  133.8541  137.7871  160.5765 C   0  0  0  0  0  0  0  0  0  0  0  0
  134.7564  138.8310  160.5446 C   0  0  0  0  0  0  0  0  0  0  0  0
  135.8123  138.8633  161.4376 C   0  0  0  0  0  0  0  0  0  0  0  0
  135.9704  137.8508  162.3667 C   0  0  0  0  0  0  0  0  0  0  0  0
  135.0740  136.8021  162.4074 C   0  0  0  0  0  0  0  0  0  0  0  0
  132.4016  135.2262  160.3828 C   0  0  0  0  0  0  0  0  0  0  0  0
  129.9592  131.8510  157.5261 H   0  0  0  0  0  0  0  0  0  0  0  0
  130.8258  133.1036  156.6050 H   0  0  0  0  0  0  0  0  0  0  0  0
  131.5380  131.4828  156.7911 H   0  0  0  0  0  0  0  0  0  0  0  0
  128.4801  134.9313  159.3398 H   0  0  0  0  0  0  0  0  0  0  0  0
  127.5356  131.5313  159.0412 H   0  0  0  0  0  0  0  0  0  0  0  0
  125.3230  130.6187  159.6095 H   0  0  0  0  0  0  0  0  0  0  0  0
  123.6529  132.0374  160.7283 H   0  0  0  0  0  0  0  0  0  0  0  0
  124.3106  135.4383  161.5975 H   0  0  0  0  0  0  0  0  0  0  0  0
  126.4175  135.2955  160.7329 H   0  0  0  0  0  0  0  0  0  0  0  0
  130.5320  132.7236  161.6523 H   0  0  0  0  0  0  0  0  0  0  0  0
  131.6555  133.4473  163.7176 H   0  0  0  0  0  0  0  0  0  0  0  0
  133.2693  135.3037  163.6593 H   0  0  0  0  0  0  0  0  0  0  0  0
  133.0296  137.7630  159.8791 H   0  0  0  0  0  0  0  0  0  0  0  0
  134.6402  139.6217  159.8183 H   0  0  0  0  0  0  0  0  0  0  0  0
  136.5163  139.6818  161.4089 H   0  0  0  0  0  0  0  0  0  0  0  0
  136.7966  137.8809  163.0615 H   0  0  0  0  0  0  0  0  0  0  0  0
  135.1978  136.0123  163.1336 H   0  0  0  0  0  0  0  0  0  0  0  0
  132.6095  135.7233  159.4468 H   0  0  0  0  0  0  0  0  0  0  0  0
  1  2  1  0
  1 29  1  0
  1 30  1  0
  1 31  1  0
  2  3  1  0
  2  4  1  0
  2  5  1  0
  5  6  1  6
  5  7  1  0
  5 17  1  0
  7  8  2  0
  7  9  1  0
  9 10  1  0
  9 32  1  0
 10 16  1  0
 10 11  2  0
 11 12  1  0
 11 33  1  0
 12 13  2  0
 12 34  1  0
 13 14  1  0
 13 35  1  0
 14 15  1  0
 14 16  2  0
 15 36  1  0
 16 37  1  0
 17 28  1  0
 17 18  2  0
 18 19  1  0
 18 38  1  0
 19 20  2  0
 19 39  1  0
 20 21  1  0
 20 40  1  0
 21 22  1  0
 21 28  2  0
 22 27  1  0
 22 23  2  0
 23 24  1  0
 23 41  1  0
 24 25  2  0
 24 42  1  0
 25 26  1  0
 25 43  1  0
 26 27  2  0
 26 44  1  0
 27 45  1  0
 28 46  1  0
M  CHG  1   2   1
M  END
>  <DOCK_score>  (1) 
-43.026825

>  <SMILES>  (1) 
C[NH2+][C@@H](C(=O)Nc1cccc(O)c1)c1cccc(-c2ccccc2)c1

$$$$
