Cn1nccc1[C@H](C[C@@H]1CCCC[C@H]1O)Nc1[nH]cc(-c2ccc(N)cc2)[nH+]1
     RDKit          3D

 57 60  0  0  1  0  0  0  0  0999 V2000
  127.3491  133.9749  162.1843 C   0  0  0  0  0  0  0  0  0  0  0  0
  126.9648  134.6602  160.9477 N   0  0  0  0  0  0  0  0  0  0  0  0
  125.6657  135.0383  160.5847 N   0  0  0  0  0  0  0  0  0  0  0  0
  125.7213  135.6191  159.4136 C   0  0  0  0  0  0  0  0  0  0  0  0
  127.0562  135.6340  158.9962 C   0  0  0  0  0  0  0  0  0  0  0  0
  127.8001  135.0414  159.9588 C   0  0  0  0  0  0  0  0  0  0  0  0
  129.2929  134.8375  159.9287 C   0  0  2  0  0  0  0  0  0  0  0  0
  129.5477  133.9353  160.4847 H   0  0  0  0  0  0  0  0  0  0  0  0
  129.9852  136.0430  160.5679 C   0  0  0  0  0  0  0  0  0  0  0  0
  131.5008  135.8362  160.5374 C   0  0  2  0  0  0  0  0  0  0  0  0
  131.7872  135.3877  159.5861 H   0  0  0  0  0  0  0  0  0  0  0  0
  131.9121  134.9088  161.6828 C   0  0  0  0  0  0  0  0  0  0  0  0
  133.4276  134.7019  161.6523 C   0  0  0  0  0  0  0  0  0  0  0  0
  134.1300  136.0518  161.8118 C   0  0  0  0  0  0  0  0  0  0  0  0
  133.7188  136.9792  160.6664 C   0  0  0  0  0  0  0  0  0  0  0  0
  132.2031  137.1860  160.6969 C   0  0  1  0  0  0  0  0  0  0  0  0
  131.9167  137.6344  161.6483 H   0  0  0  0  0  0  0  0  0  0  0  0
  131.8190  138.0522  159.6272 O   0  0  0  0  0  0  0  0  0  0  0  0
  129.7389  134.6978  158.5403 N   0  0  0  0  0  0  0  0  0  0  0  0
  129.7890  133.4456  157.9521 C   0  0  0  0  0  0  0  0  0  0  0  0
  129.4572  132.2723  158.5561 N   0  0  0  0  0  0  0  0  0  0  0  0
  129.1456  132.1635  159.4683 H   0  0  0  0  0  0  0  0  0  0  0  0
  129.6449  131.2695  157.6347 C   0  0  0  0  0  0  0  0  0  0  0  0
  130.0854  131.8592  156.4960 C   0  0  0  0  0  0  0  0  0  0  0  0
  130.4225  131.1666  155.2281 C   0  0  0  0  0  0  0  0  0  0  0  0
  129.7368  131.4828  154.0563 C   0  0  0  0  0  0  0  0  0  0  0  0
  130.0521  130.8382  152.8788 C   0  0  0  0  0  0  0  0  0  0  0  0
  131.0530  129.8741  152.8597 C   0  0  0  0  0  0  0  0  0  0  0  0
  131.3709  129.2223  151.6657 N   0  0  0  0  0  0  0  0  0  0  0  0
  131.7377  129.5569  154.0268 C   0  0  0  0  0  0  0  0  0  0  0  0
  131.4257  130.1990  155.2066 C   0  0  0  0  0  0  0  0  0  0  0  0
  130.1689  133.1940  156.7230 N   0  0  0  0  0  0  0  0  0  0  0  0
  130.4610  133.8569  156.0779 H   0  0  0  0  0  0  0  0  0  0  0  0
  127.5771  134.7131  162.9531 H   0  0  0  0  0  0  0  0  0  0  0  0
  126.5269  133.3429  162.5200 H   0  0  0  0  0  0  0  0  0  0  0  0
  128.2290  133.3586  161.9997 H   0  0  0  0  0  0  0  0  0  0  0  0
  124.8815  136.0177  158.8638 H   0  0  0  0  0  0  0  0  0  0  0  0
  127.4277  136.0462  158.0697 H   0  0  0  0  0  0  0  0  0  0  0  0
  129.7303  136.9453  160.0118 H   0  0  0  0  0  0  0  0  0  0  0  0
  129.6534  136.1470  161.6009 H   0  0  0  0  0  0  0  0  0  0  0  0
  131.6257  135.3572  162.6340 H   0  0  0  0  0  0  0  0  0  0  0  0
  131.4118  133.9471  161.5691 H   0  0  0  0  0  0  0  0  0  0  0  0
  133.7207  134.0412  162.4683 H   0  0  0  0  0  0  0  0  0  0  0  0
  133.7141  134.2534  160.7010 H   0  0  0  0  0  0  0  0  0  0  0  0
  133.8437  136.5001  162.7630 H   0  0  0  0  0  0  0  0  0  0  0  0
  135.2097  135.9043  161.7901 H   0  0  0  0  0  0  0  0  0  0  0  0
  134.2192  137.9408  160.7801 H   0  0  0  0  0  0  0  0  0  0  0  0
  134.0052  136.5307  159.7152 H   0  0  0  0  0  0  0  0  0  0  0  0
  132.0435  137.7159  158.7488 H   0  0  0  0  0  0  0  0  0  0  0  0
  129.9990  135.4827  158.0332 H   0  0  0  0  0  0  0  0  0  0  0  0
  129.4746  130.2141  157.7884 H   0  0  0  0  0  0  0  0  0  0  0  0
  128.9562  132.2290  154.0716 H   0  0  0  0  0  0  0  0  0  0  0  0
  129.5209  131.0827  151.9708 H   0  0  0  0  0  0  0  0  0  0  0  0
  132.0688  128.5489  151.6516 H   0  0  0  0  0  0  0  0  0  0  0  0
  130.8935  129.4431  150.8507 H   0  0  0  0  0  0  0  0  0  0  0  0
  132.5148  128.8072  154.0097 H   0  0  0  0  0  0  0  0  0  0  0  0
  131.9580  129.9521  156.1133 H   0  0  0  0  0  0  0  0  0  0  0  0
  1  2  1  0
  1 34  1  0
  1 35  1  0
  1 36  1  0
  2  6  1  0
  2  3  1  0
  3  4  2  0
  4  5  1  0
  4 37  1  0
  5  6  2  0
  5 38  1  0
  6  7  1  0
  7  8  1  1
  7  9  1  0
  7 19  1  0
  9 10  1  0
  9 39  1  0
  9 40  1  0
 10 11  1  6
 10 16  1  0
 10 12  1  0
 12 13  1  0
 12 41  1  0
 12 42  1  0
 13 14  1  0
 13 43  1  0
 13 44  1  0
 14 15  1  0
 14 45  1  0
 14 46  1  0
 15 16  1  0
 15 47  1  0
 15 48  1  0
 16 17  1  1
 16 18  1  0
 18 49  1  0
 19 50  1  0
 20 19  1  0
 20 32  2  0
 20 21  1  0
 21 22  1  0
 21 23  1  0
 23 24  2  0
 23 51  1  0
 24 25  1  0
 24 32  1  0
 25 31  1  0
 25 26  2  0
 26 27  1  0
 26 52  1  0
 27 28  2  0
 27 53  1  0
 28 29  1  0
 28 30  1  0
 29 54  1  0
 29 55  1  0
 30 31  2  0
 30 56  1  0
 31 57  1  0
 32 33  1  0
M  CHG  1  32   1
M  END
>  <DOCK_score>  (1) 
-60.961193

>  <SMILES>  (1) 
Cn1nccc1[C@H](C[C@@H]1CCCC[C@H]1O)Nc1[nH]cc(-c2ccc(N)cc2)[nH+]1

$$$$
