OC1(c2ccccc2)C=C([NH2+][C@@H](Cc2ccccc2)Cc2cccnc2)CCC1
     RDKit          3D

 58 61  0  0  1  0  0  0  0  0999 V2000
  130.7430  136.1948  162.5245 O   0  0  0  0  0  0  0  0  0  0  0  0
  131.9569  135.8407  161.8589 C   0  0  2  0  0  0  0  0  0  0  0  0
  132.9635  136.9488  162.0326 C   0  0  0  0  0  0  0  0  0  0  0  0
  132.9341  137.7375  163.1675 C   0  0  0  0  0  0  0  0  0  0  0  0
  133.8540  138.7573  163.3245 C   0  0  0  0  0  0  0  0  0  0  0  0
  134.8096  138.9821  162.3512 C   0  0  0  0  0  0  0  0  0  0  0  0
  134.8396  138.1926  161.2169 C   0  0  0  0  0  0  0  0  0  0  0  0
  133.9166  137.1761  161.0576 C   0  0  0  0  0  0  0  0  0  0  0  0
  131.6830  135.6425  160.3968 C   0  0  0  0  0  0  0  0  0  0  0  0
  131.5833  134.4839  159.8282 C   0  0  0  0  0  0  0  0  0  0  0  0
  131.3161  134.4477  158.4564 N   0  0  0  0  0  0  0  0  0  0  0  0
  131.7067  135.2670  158.0158 H   0  0  0  0  0  0  0  0  0  0  0  0
  131.7303  133.6199  158.0549 H   0  0  0  0  0  0  0  0  0  0  0  0
  129.8630  134.4217  158.2412 C   0  0  1  0  0  0  0  0  0  0  0  0
  129.3977  133.7716  158.9821 H   0  0  0  0  0  0  0  0  0  0  0  0
  129.3013  135.8379  158.3807 C   0  0  0  0  0  0  0  0  0  0  0  0
  127.8206  135.7666  158.6514 C   0  0  0  0  0  0  0  0  0  0  0  0
  126.9245  135.7695  157.5987 C   0  0  0  0  0  0  0  0  0  0  0  0
  125.5664  135.6994  157.8468 C   0  0  0  0  0  0  0  0  0  0  0  0
  125.1038  135.6367  159.1479 C   0  0  0  0  0  0  0  0  0  0  0  0
  125.9996  135.6389  160.2007 C   0  0  0  0  0  0  0  0  0  0  0  0
  127.3579  135.7038  159.9525 C   0  0  0  0  0  0  0  0  0  0  0  0
  129.5649  133.8907  156.8377 C   0  0  0  0  0  0  0  0  0  0  0  0
  130.1182  132.4957  156.7003 C   0  0  0  0  0  0  0  0  0  0  0  0
  130.5459  132.0283  155.4668 C   0  0  0  0  0  0  0  0  0  0  0  0
  131.0478  130.7385  155.3879 C   0  0  0  0  0  0  0  0  0  0  0  0
  131.1046  129.9666  156.5331 C   0  0  0  0  0  0  0  0  0  0  0  0
  130.6887  130.4441  157.6896 N   0  0  0  0  0  0  0  0  0  0  0  0
  130.2109  131.6681  157.8031 C   0  0  0  0  0  0  0  0  0  0  0  0
  131.7373  133.1771  160.5497 C   0  0  0  0  0  0  0  0  0  0  0  0
  131.5991  133.3889  162.0589 C   0  0  0  0  0  0  0  0  0  0  0  0
  132.5119  134.5512  162.4679 C   0  0  0  0  0  0  0  0  0  0  0  0
  130.0471  135.5269  162.4550 H   0  0  0  0  0  0  0  0  0  0  0  0
  132.1895  137.5600  163.9294 H   0  0  0  0  0  0  0  0  0  0  0  0
  133.8283  139.3765  164.2091 H   0  0  0  0  0  0  0  0  0  0  0  0
  135.5306  139.7765  162.4756 H   0  0  0  0  0  0  0  0  0  0  0  0
  135.5841  138.3704  160.4548 H   0  0  0  0  0  0  0  0  0  0  0  0
  133.9398  136.5595  160.1712 H   0  0  0  0  0  0  0  0  0  0  0  0
  131.5617  136.5211  159.7805 H   0  0  0  0  0  0  0  0  0  0  0  0
  129.7977  136.3458  159.2077 H   0  0  0  0  0  0  0  0  0  0  0  0
  129.4757  136.3905  157.4576 H   0  0  0  0  0  0  0  0  0  0  0  0
  127.2858  135.8231  156.5823 H   0  0  0  0  0  0  0  0  0  0  0  0
  124.8666  135.6980  157.0242 H   0  0  0  0  0  0  0  0  0  0  0  0
  124.0427  135.5863  159.3419 H   0  0  0  0  0  0  0  0  0  0  0  0
  125.6382  135.5903  161.2174 H   0  0  0  0  0  0  0  0  0  0  0  0
  128.0578  135.7060  160.7752 H   0  0  0  0  0  0  0  0  0  0  0  0
  128.4867  133.8713  156.6781 H   0  0  0  0  0  0  0  0  0  0  0  0
  130.0302  134.5408  156.0968 H   0  0  0  0  0  0  0  0  0  0  0  0
  130.4893  132.6542  154.5886 H   0  0  0  0  0  0  0  0  0  0  0  0
  131.3902  130.3418  154.4435 H   0  0  0  0  0  0  0  0  0  0  0  0
  131.4937  128.9605  156.4799 H   0  0  0  0  0  0  0  0  0  0  0  0
  129.8844  132.0263  158.7682 H   0  0  0  0  0  0  0  0  0  0  0  0
  130.9677  132.4839  160.2101 H   0  0  0  0  0  0  0  0  0  0  0  0
  132.7206  132.7591  160.3341 H   0  0  0  0  0  0  0  0  0  0  0  0
  130.5642  133.6301  162.3018 H   0  0  0  0  0  0  0  0  0  0  0  0
  131.8970  132.4820  162.5850 H   0  0  0  0  0  0  0  0  0  0  0  0
  133.5212  134.3751  162.0958 H   0  0  0  0  0  0  0  0  0  0  0  0
  132.5283  134.6366  163.5543 H   0  0  0  0  0  0  0  0  0  0  0  0
  1 33  1  0
  2  1  1  1
  2 32  1  0
  2  3  1  0
  2  9  1  0
  3  8  1  0
  3  4  2  0
  4  5  1  0
  4 34  1  0
  5  6  2  0
  5 35  1  0
  6  7  1  0
  6 36  1  0
  7  8  2  0
  7 37  1  0
  8 38  1  0
  9 10  2  0
  9 39  1  0
 10 11  1  0
 10 30  1  0
 11 12  1  0
 11 13  1  0
 11 14  1  0
 14 15  1  1
 14 16  1  0
 14 23  1  0
 16 17  1  0
 16 40  1  0
 16 41  1  0
 17 22  1  0
 17 18  2  0
 18 19  1  0
 18 42  1  0
 19 20  2  0
 19 43  1  0
 20 21  1  0
 20 44  1  0
 21 22  2  0
 21 45  1  0
 22 46  1  0
 23 24  1  0
 23 47  1  0
 23 48  1  0
 24 29  1  0
 24 25  2  0
 25 26  1  0
 25 49  1  0
 26 27  2  0
 26 50  1  0
 27 28  1  0
 27 51  1  0
 28 29  2  0
 29 52  1  0
 30 31  1  0
 30 53  1  0
 30 54  1  0
 31 32  1  0
 31 55  1  0
 31 56  1  0
 32 57  1  0
 32 58  1  0
M  CHG  1  11   1
M  END
>  <DOCK_score>  (1) 
-56.366516

>  <SMILES>  (1) 
OC1(c2ccccc2)C=C([NH2+][C@@H](Cc2ccccc2)Cc2cccnc2)CCC1

$$$$
