Oc1cccc(Nc2[nH]cc(C3CC3)[nH+]2)c1
     RDKit          3D

 30 32  0  0  1  0  0  0  0  0999 V2000
  125.5848  135.5391  159.8673 O   0  0  0  0  0  0  0  0  0  0  0  0
  126.9036  135.8473  159.9798 C   0  0  0  0  0  0  0  0  0  0  0  0
  127.3487  136.6151  161.0473 C   0  0  0  0  0  0  0  0  0  0  0  0
  128.6884  136.9339  161.1603 C   0  0  0  0  0  0  0  0  0  0  0  0
  129.5911  136.4801  160.2180 C   0  0  0  0  0  0  0  0  0  0  0  0
  129.1523  135.7066  159.1505 C   0  0  0  0  0  0  0  0  0  0  0  0
  130.0653  135.2472  158.1973 N   0  0  0  0  0  0  0  0  0  0  0  0
  129.8342  134.0512  157.5363 C   0  0  0  0  0  0  0  0  0  0  0  0
  129.1687  132.9779  158.0426 N   0  0  0  0  0  0  0  0  0  0  0  0
  128.7718  132.9089  158.9250 H   0  0  0  0  0  0  0  0  0  0  0  0
  129.1622  132.0101  157.0643 C   0  0  0  0  0  0  0  0  0  0  0  0
  129.8242  132.5152  156.0091 C   0  0  0  0  0  0  0  0  0  0  0  0
  130.0744  131.8065  154.7030 C   0  0  0  0  0  0  0  0  0  0  0  0
  131.2422  130.8194  154.6471 C   0  0  0  0  0  0  0  0  0  0  0  0
  131.3464  132.1701  153.9343 C   0  0  0  0  0  0  0  0  0  0  0  0
  130.2249  133.7597  156.3182 N   0  0  0  0  0  0  0  0  0  0  0  0
  130.7250  134.3498  155.7329 H   0  0  0  0  0  0  0  0  0  0  0  0
  127.8055  135.3903  159.0323 C   0  0  0  0  0  0  0  0  0  0  0  0
  125.0343  135.9022  160.5745 H   0  0  0  0  0  0  0  0  0  0  0  0
  126.6462  136.9675  161.7880 H   0  0  0  0  0  0  0  0  0  0  0  0
  129.0313  137.5350  161.9895 H   0  0  0  0  0  0  0  0  0  0  0  0
  130.6384  136.7273  160.3109 H   0  0  0  0  0  0  0  0  0  0  0  0
  130.8607  135.7654  157.9984 H   0  0  0  0  0  0  0  0  0  0  0  0
  128.7145  131.0296  157.1330 H   0  0  0  0  0  0  0  0  0  0  0  0
  129.1851  131.5673  154.1199 H   0  0  0  0  0  0  0  0  0  0  0  0
  131.8294  130.6828  155.5552 H   0  0  0  0  0  0  0  0  0  0  0  0
  131.1212  129.9311  154.0271 H   0  0  0  0  0  0  0  0  0  0  0  0
  131.2940  132.1698  152.8456 H   0  0  0  0  0  0  0  0  0  0  0  0
  132.0020  132.9221  154.3733 H   0  0  0  0  0  0  0  0  0  0  0  0
  127.4616  134.7895  158.2034 H   0  0  0  0  0  0  0  0  0  0  0  0
  1  2  1  0
  1 19  1  0
  2 18  2  0
  2  3  1  0
  3  4  2  0
  3 20  1  0
  4  5  1  0
  4 21  1  0
  5  6  2  0
  5 22  1  0
  6  7  1  0
  6 18  1  0
  7 23  1  0
  8  7  1  0
  8 16  2  0
  8  9  1  0
  9 10  1  0
  9 11  1  0
 11 12  2  0
 11 24  1  0
 12 13  1  0
 12 16  1  0
 13 15  1  0
 13 14  1  0
 13 25  1  0
 14 15  1  0
 14 26  1  0
 14 27  1  0
 15 28  1  0
 15 29  1  0
 16 17  1  0
 18 30  1  0
M  CHG  1  16   1
M  END
>  <DOCK_score>  (1) 
-45.312763

>  <SMILES>  (1) 
Oc1cccc(Nc2[nH]cc(C3CC3)[nH+]2)c1

$$$$
