[NH3+]CC1C=CCC(C[C@@H]2CCCN2c2c(O)ccc3cc(O)ccc23)=C1
     RDKit          3D

 53 56  0  0  1  0  0  0  0  0999 V2000
  132.9925  137.2039  162.4991 N   0  0  0  0  0  0  0  0  0  0  0  0
  133.0216  138.2110  162.5546 H   0  0  0  0  0  0  0  0  0  0  0  0
  133.9143  136.8519  162.2887 H   0  0  0  0  0  0  0  0  0  0  0  0
  132.3519  136.9258  161.7709 H   0  0  0  0  0  0  0  0  0  0  0  0
  132.5405  136.6554  163.7847 C   0  0  0  0  0  0  0  0  0  0  0  0
  132.4963  135.1284  163.7003 C   0  0  2  0  0  0  0  0  0  0  0  0
  133.8751  134.6056  163.4297 C   0  0  0  0  0  0  0  0  0  0  0  0
  134.2693  134.2384  162.2484 C   0  0  0  0  0  0  0  0  0  0  0  0
  133.3805  134.2896  161.0423 C   0  0  0  0  0  0  0  0  0  0  0  0
  131.9353  134.3513  161.4365 C   0  0  0  0  0  0  0  0  0  0  0  0
  130.8934  133.9650  160.4186 C   0  0  0  0  0  0  0  0  0  0  0  0
  130.6058  132.4662  160.5268 C   0  0  2  0  0  0  0  0  0  0  0  0
  130.5846  132.1675  161.5748 H   0  0  0  0  0  0  0  0  0  0  0  0
  131.6891  131.6680  159.7715 C   0  0  0  0  0  0  0  0  0  0  0  0
  130.8819  130.5159  159.1172 C   0  0  0  0  0  0  0  0  0  0  0  0
  129.5506  131.2261  158.7669 C   0  0  0  0  0  0  0  0  0  0  0  0
  129.3120  132.1566  159.8908 N   0  0  0  0  0  0  0  0  0  0  0  0
  128.6789  133.3217  159.4505 C   0  0  0  0  0  0  0  0  0  0  0  0
  129.2942  134.1420  158.5227 C   0  0  0  0  0  0  0  0  0  0  0  0
  130.5219  133.8094  158.0388 O   0  0  0  0  0  0  0  0  0  0  0  0
  128.6668  135.3037  158.0738 C   0  0  0  0  0  0  0  0  0  0  0  0
  127.4409  135.6659  158.5442 C   0  0  0  0  0  0  0  0  0  0  0  0
  126.7861  134.8616  159.4919 C   0  0  0  0  0  0  0  0  0  0  0  0
  125.5208  135.2131  159.9925 C   0  0  0  0  0  0  0  0  0  0  0  0
  124.9113  134.4090  160.9126 C   0  0  0  0  0  0  0  0  0  0  0  0
  123.6877  134.7504  161.3955 O   0  0  0  0  0  0  0  0  0  0  0  0
  125.5293  133.2387  161.3640 C   0  0  0  0  0  0  0  0  0  0  0  0
  126.7536  132.8709  160.8991 C   0  0  0  0  0  0  0  0  0  0  0  0
  127.4100  133.6747  159.9522 C   0  0  0  0  0  0  0  0  0  0  0  0
  131.5428  134.7234  162.6166 C   0  0  0  0  0  0  0  0  0  0  0  0
  131.5447  137.0357  164.0121 H   0  0  0  0  0  0  0  0  0  0  0  0
  133.2327  136.9559  164.5714 H   0  0  0  0  0  0  0  0  0  0  0  0
  132.1460  134.7289  164.6522 H   0  0  0  0  0  0  0  0  0  0  0  0
  134.5720  134.5357  164.2518 H   0  0  0  0  0  0  0  0  0  0  0  0
  135.2800  133.8761  162.1304 H   0  0  0  0  0  0  0  0  0  0  0  0
  133.6282  135.1726  160.4532 H   0  0  0  0  0  0  0  0  0  0  0  0
  133.5472  133.3983  160.4375 H   0  0  0  0  0  0  0  0  0  0  0  0
  129.9772  134.5251  160.6060 H   0  0  0  0  0  0  0  0  0  0  0  0
  131.2607  134.1933  159.4182 H   0  0  0  0  0  0  0  0  0  0  0  0
  132.1634  132.2871  159.0098 H   0  0  0  0  0  0  0  0  0  0  0  0
  132.4310  131.2731  160.4655 H   0  0  0  0  0  0  0  0  0  0  0  0
  130.7167  129.7038  159.8253 H   0  0  0  0  0  0  0  0  0  0  0  0
  131.3788  130.1518  158.2178 H   0  0  0  0  0  0  0  0  0  0  0  0
  128.7404  130.5003  158.6966 H   0  0  0  0  0  0  0  0  0  0  0  0
  129.6475  131.7775  157.8317 H   0  0  0  0  0  0  0  0  0  0  0  0
  130.8751  134.4394  157.3958 H   0  0  0  0  0  0  0  0  0  0  0  0
  129.1628  135.9283  157.3457 H   0  0  0  0  0  0  0  0  0  0  0  0
  126.9722  136.5715  158.1883 H   0  0  0  0  0  0  0  0  0  0  0  0
  125.0329  136.1141  159.6510 H   0  0  0  0  0  0  0  0  0  0  0  0
  123.3357  135.5731  161.0290 H   0  0  0  0  0  0  0  0  0  0  0  0
  125.0277  132.6183  162.0919 H   0  0  0  0  0  0  0  0  0  0  0  0
  127.2193  131.9644  161.2566 H   0  0  0  0  0  0  0  0  0  0  0  0
  130.4837  134.7426  162.8266 H   0  0  0  0  0  0  0  0  0  0  0  0
  1  2  1  0
  1  3  1  0
  1  4  1  0
  1  5  1  0
  5  6  1  0
  5 31  1  0
  5 32  1  0
  6 30  1  0
  6  7  1  0
  6 33  1  1
  7  8  2  0
  7 34  1  0
  8  9  1  0
  8 35  1  0
  9 10  1  0
  9 36  1  0
  9 37  1  0
 10 11  1  0
 10 30  2  0
 11 12  1  0
 11 38  1  0
 11 39  1  0
 12 13  1  1
 12 17  1  0
 12 14  1  0
 14 15  1  0
 14 40  1  0
 14 41  1  0
 15 16  1  0
 15 42  1  0
 15 43  1  0
 16 17  1  0
 16 44  1  0
 16 45  1  0
 17 18  1  0
 18 29  1  0
 18 19  2  0
 19 20  1  0
 19 21  1  0
 20 46  1  0
 21 22  2  0
 21 47  1  0
 22 23  1  0
 22 48  1  0
 23 29  2  0
 23 24  1  0
 24 25  2  0
 24 49  1  0
 25 26  1  0
 25 27  1  0
 26 50  1  0
 27 28  2  0
 27 51  1  0
 28 29  1  0
 28 52  1  0
 30 53  1  0
M  CHG  1   1   1
M  END
>  <DOCK_score>  (1) 
-42.001183

>  <SMILES>  (1) 
[NH3+]CC1C=CCC(C[C@@H]2CCCN2c2c(O)ccc3cc(O)ccc23)=C1

$$$$
