C1=C(CNc2ccc(-c3n[nH]cc3C[NH2+]C[C@@H]3C[C@H]4CC[C@H]4C3)o2)CCC1
     RDKit          3D

 58 62  0  0  1  0  0  0  0  0999 V2000
  128.9570  136.3952  164.4445 C   0  0  0  0  0  0  0  0  0  0  0  0
  127.6951  136.5195  164.1234 C   0  0  0  0  0  0  0  0  0  0  0  0
  127.1960  137.0569  162.8070 C   0  0  0  0  0  0  0  0  0  0  0  0
  126.3891  136.0343  162.1365 N   0  0  0  0  0  0  0  0  0  0  0  0
  126.9933  135.1284  161.2724 C   0  0  0  0  0  0  0  0  0  0  0  0
  126.3622  134.1353  160.5977 C   0  0  0  0  0  0  0  0  0  0  0  0
  127.3435  133.4641  159.8415 C   0  0  0  0  0  0  0  0  0  0  0  0
  128.5281  134.0780  160.1003 C   0  0  0  0  0  0  0  0  0  0  0  0
  129.8386  133.7067  159.5277 C   0  0  0  0  0  0  0  0  0  0  0  0
  130.0632  132.7277  158.6736 N   0  0  0  0  0  0  0  0  0  0  0  0
  131.4331  132.7116  158.3816 N   0  0  0  0  0  0  0  0  0  0  0  0
  131.8794  132.0946  157.7807 H   0  0  0  0  0  0  0  0  0  0  0  0
  132.0250  133.7041  159.0807 C   0  0  0  0  0  0  0  0  0  0  0  0
  131.0708  134.3406  159.7930 C   0  0  0  0  0  0  0  0  0  0  0  0
  131.2843  135.5168  160.7106 C   0  0  0  0  0  0  0  0  0  0  0  0
  132.1573  136.4985  160.0532 N   0  0  0  0  0  0  0  0  0  0  0  0
  133.0464  136.0701  159.8429 H   0  0  0  0  0  0  0  0  0  0  0  0
  131.7249  136.8134  159.1977 H   0  0  0  0  0  0  0  0  0  0  0  0
  132.3656  137.6450  160.9477 C   0  0  0  0  0  0  0  0  0  0  0  0
  133.2748  138.6674  160.2631 C   0  0  2  0  0  0  0  0  0  0  0  0
  133.0136  138.7477  159.2079 H   0  0  0  0  0  0  0  0  0  0  0  0
  134.7420  138.2402  160.4067 C   0  0  0  0  0  0  0  0  0  0  0  0
  135.4749  139.3617  161.1608 C   0  0  1  0  0  0  0  0  0  0  0  0
  135.8334  139.0886  162.1533 H   0  0  0  0  0  0  0  0  0  0  0  0
  136.4735  140.1257  160.2724 C   0  0  0  0  0  0  0  0  0  0  0  0
  135.2323  140.9183  159.7408 C   0  0  0  0  0  0  0  0  0  0  0  0
  134.5536  140.6001  161.0802 C   0  0  1  0  0  0  0  0  0  0  0  0
  134.6841  141.3470  161.8634 H   0  0  0  0  0  0  0  0  0  0  0  0
  133.1307  140.0352  160.9464 C   0  0  0  0  0  0  0  0  0  0  0  0
  128.3019  135.0856  160.9694 O   0  0  0  0  0  0  0  0  0  0  0  0
  126.8026  136.0522  165.2495 C   0  0  0  0  0  0  0  0  0  0  0  0
  127.7232  136.0066  166.4912 C   0  0  0  0  0  0  0  0  0  0  0  0
  129.1120  135.8263  165.8358 C   0  0  0  0  0  0  0  0  0  0  0  0
  129.7802  136.6639  163.7992 H   0  0  0  0  0  0  0  0  0  0  0  0
  126.5860  137.9427  162.9840 H   0  0  0  0  0  0  0  0  0  0  0  0
  128.0452  137.3207  162.1766 H   0  0  0  0  0  0  0  0  0  0  0  0
  125.4333  135.9893  162.2957 H   0  0  0  0  0  0  0  0  0  0  0  0
  125.3078  133.9043  160.6320 H   0  0  0  0  0  0  0  0  0  0  0  0
  127.1853  132.6208  159.1856 H   0  0  0  0  0  0  0  0  0  0  0  0
  133.0769  133.9486  159.0688 H   0  0  0  0  0  0  0  0  0  0  0  0
  130.3238  135.9795  160.9377 H   0  0  0  0  0  0  0  0  0  0  0  0
  131.7513  135.1765  161.6349 H   0  0  0  0  0  0  0  0  0  0  0  0
  131.4050  138.1077  161.1749 H   0  0  0  0  0  0  0  0  0  0  0  0
  132.8326  137.3047  161.8719 H   0  0  0  0  0  0  0  0  0  0  0  0
  134.8035  137.3113  160.9735 H   0  0  0  0  0  0  0  0  0  0  0  0
  135.1860  138.1026  159.4209 H   0  0  0  0  0  0  0  0  0  0  0  0
  137.1743  140.7430  160.8346 H   0  0  0  0  0  0  0  0  0  0  0  0
  136.9637  139.4986  159.5278 H   0  0  0  0  0  0  0  0  0  0  0  0
  134.7507  140.4464  158.8843 H   0  0  0  0  0  0  0  0  0  0  0  0
  135.4202  141.9811  159.5882 H   0  0  0  0  0  0  0  0  0  0  0  0
  132.5206  140.6981  160.3328 H   0  0  0  0  0  0  0  0  0  0  0  0
  132.6806  139.9162  161.9319 H   0  0  0  0  0  0  0  0  0  0  0  0
  126.4070  135.0597  165.0336 H   0  0  0  0  0  0  0  0  0  0  0  0
  125.9879  136.7590  165.4067 H   0  0  0  0  0  0  0  0  0  0  0  0
  127.6726  136.9411  167.0503 H   0  0  0  0  0  0  0  0  0  0  0  0
  127.4782  135.1572  167.1290 H   0  0  0  0  0  0  0  0  0  0  0  0
  129.8687  136.3812  166.3907 H   0  0  0  0  0  0  0  0  0  0  0  0
  129.3754  134.7697  165.7886 H   0  0  0  0  0  0  0  0  0  0  0  0
  1 33  1  0
  1  2  2  0
  1 34  1  0
  2  3  1  0
  2 31  1  0
  3  4  1  0
  3 35  1  0
  3 36  1  0
  4  5  1  0
  4 37  1  0
  5 30  1  0
  5  6  2  0
  6  7  1  0
  6 38  1  0
  7  8  2  0
  7 39  1  0
  8  9  1  0
  8 30  1  0
  9 14  1  0
  9 10  2  0
 10 11  1  0
 11 12  1  0
 11 13  1  0
 13 14  2  0
 13 40  1  0
 14 15  1  0
 15 16  1  0
 15 41  1  0
 15 42  1  0
 16 17  1  0
 16 18  1  0
 16 19  1  0
 19 20  1  0
 19 43  1  0
 19 44  1  0
 20 21  1  6
 20 29  1  0
 20 22  1  0
 22 23  1  0
 22 45  1  0
 22 46  1  0
 23 24  1  1
 23 27  1  0
 23 25  1  0
 25 26  1  0
 25 47  1  0
 25 48  1  0
 26 27  1  0
 26 49  1  0
 26 50  1  0
 27 28  1  1
 27 29  1  0
 29 51  1  0
 29 52  1  0
 31 32  1  0
 31 53  1  0
 31 54  1  0
 32 33  1  0
 32 55  1  0
 32 56  1  0
 33 57  1  0
 33 58  1  0
M  CHG  1  16   1
M  END
>  <DOCK_score>  (1) 
-46.372826

>  <SMILES>  (1) 
C1=C(CNc2ccc(-c3n[nH]cc3C[NH2+]C[C@@H]3C[C@H]4CC[C@H]4C3)o2)CCC1

$$$$
