O=C1CC[C@H](NC(NC2COC2)=[NH+][C@H]2COc3cc(Cl)ccc3C2)CN1
     RDKit          3D

 50 53  0  0  1  0  0  0  0  0999 V2000
  124.3101  135.7357  164.1639 O   0  0  0  0  0  0  0  0  0  0  0  0
  125.4432  135.7326  163.7317 C   0  0  0  0  0  0  0  0  0  0  0  0
  126.5691  135.4718  164.6906 C   0  0  0  0  0  0  0  0  0  0  0  0
  127.8935  135.9314  164.0763 C   0  0  0  0  0  0  0  0  0  0  0  0
  127.9921  135.3624  162.6557 C   0  0  2  0  0  0  0  0  0  0  0  0
  127.8237  134.2858  162.6804 H   0  0  0  0  0  0  0  0  0  0  0  0
  129.3218  135.6394  162.1065 N   0  0  0  0  0  0  0  0  0  0  0  0
  129.6422  135.2202  160.8370 C   0  0  0  0  0  0  0  0  0  0  0  0
  130.5457  135.9334  160.0850 N   0  0  0  0  0  0  0  0  0  0  0  0
  131.1671  137.1399  160.6367 C   0  0  0  0  0  0  0  0  0  0  0  0
  130.1554  138.1792  161.1553 C   0  0  0  0  0  0  0  0  0  0  0  0
  130.9940  139.1540  160.5035 O   0  0  0  0  0  0  0  0  0  0  0  0
  131.5329  138.1929  159.5736 C   0  0  0  0  0  0  0  0  0  0  0  0
  129.0894  134.1467  160.3461 N   0  0  0  0  0  0  0  0  0  0  0  0
  128.1966  133.8899  160.6253 H   0  0  0  0  0  0  0  0  0  0  0  0
  129.8165  133.3280  159.3728 C   0  0  1  0  0  0  0  0  0  0  0  0
  130.8882  133.4035  159.5570 H   0  0  0  0  0  0  0  0  0  0  0  0
  129.3719  131.8647  159.4934 C   0  0  0  0  0  0  0  0  0  0  0  0
  130.1700  131.0776  158.6081 O   0  0  0  0  0  0  0  0  0  0  0  0
  130.3021  131.5031  157.3248 C   0  0  0  0  0  0  0  0  0  0  0  0
  130.7559  130.5993  156.3694 C   0  0  0  0  0  0  0  0  0  0  0  0
  130.9079  130.9953  155.0553 C   0  0  0  0  0  0  0  0  0  0  0  0
  131.4750  129.8641  153.8669 Cl  0  0  0  0  0  0  0  0  0  0  0  0
  130.6079  132.2953  154.6866 C   0  0  0  0  0  0  0  0  0  0  0  0
  130.1514  133.1924  155.6319 C   0  0  0  0  0  0  0  0  0  0  0  0
  130.0007  132.8013  156.9521 C   0  0  0  0  0  0  0  0  0  0  0  0
  129.5015  133.8107  157.9548 C   0  0  0  0  0  0  0  0  0  0  0  0
  126.9279  136.0318  161.7852 C   0  0  0  0  0  0  0  0  0  0  0  0
  125.6227  135.9608  162.4300 N   0  0  0  0  0  0  0  0  0  0  0  0
  126.6210  134.4047  164.9063 H   0  0  0  0  0  0  0  0  0  0  0  0
  126.3902  136.0188  165.6163 H   0  0  0  0  0  0  0  0  0  0  0  0
  128.7245  135.5628  164.6777 H   0  0  0  0  0  0  0  0  0  0  0  0
  127.9222  137.0203  164.0383 H   0  0  0  0  0  0  0  0  0  0  0  0
  129.9761  136.1185  162.6386 H   0  0  0  0  0  0  0  0  0  0  0  0
  130.7718  135.6375  159.1893 H   0  0  0  0  0  0  0  0  0  0  0  0
  131.9743  136.9217  161.3359 H   0  0  0  0  0  0  0  0  0  0  0  0
  129.1628  138.0862  160.7147 H   0  0  0  0  0  0  0  0  0  0  0  0
  130.1348  138.2708  162.2413 H   0  0  0  0  0  0  0  0  0  0  0  0
  132.6048  138.2955  159.4051 H   0  0  0  0  0  0  0  0  0  0  0  0
  130.9624  138.1028  158.6491 H   0  0  0  0  0  0  0  0  0  0  0  0
  129.5132  131.5214  160.5182 H   0  0  0  0  0  0  0  0  0  0  0  0
  128.3212  131.7762  159.2174 H   0  0  0  0  0  0  0  0  0  0  0  0
  130.9905  129.5849  156.6564 H   0  0  0  0  0  0  0  0  0  0  0  0
  130.7272  132.6068  153.6594 H   0  0  0  0  0  0  0  0  0  0  0  0
  129.9140  134.2050  155.3411 H   0  0  0  0  0  0  0  0  0  0  0  0
  129.9918  134.7684  157.7803 H   0  0  0  0  0  0  0  0  0  0  0  0
  128.4237  133.9300  157.8434 H   0  0  0  0  0  0  0  0  0  0  0  0
  127.1958  137.0768  161.6283 H   0  0  0  0  0  0  0  0  0  0  0  0
  126.8812  135.5263  160.8207 H   0  0  0  0  0  0  0  0  0  0  0  0
  124.8354  136.0874  161.8778 H   0  0  0  0  0  0  0  0  0  0  0  0
  1  2  2  0
  2 29  1  0
  2  3  1  0
  3  4  1  0
  3 30  1  0
  3 31  1  0
  4  5  1  0
  4 32  1  0
  4 33  1  0
  5  6  1  1
  5  7  1  0
  5 28  1  0
  7 34  1  0
  8  7  1  0
  8  9  1  0
  8 14  2  0
  9 10  1  0
  9 35  1  0
 10 13  1  0
 10 11  1  0
 10 36  1  0
 11 12  1  0
 11 37  1  0
 11 38  1  0
 12 13  1  0
 13 39  1  0
 13 40  1  0
 14 15  1  0
 14 16  1  0
 16 17  1  1
 16 27  1  0
 16 18  1  0
 18 19  1  0
 18 41  1  0
 18 42  1  0
 19 20  1  0
 20 26  2  0
 20 21  1  0
 21 22  2  0
 21 43  1  0
 22 23  1  0
 22 24  1  0
 24 25  2  0
 24 44  1  0
 25 26  1  0
 25 45  1  0
 26 27  1  0
 27 46  1  0
 27 47  1  0
 28 29  1  0
 28 48  1  0
 28 49  1  0
 29 50  1  0
M  CHG  1  14   1
M  END
>  <DOCK_score>  (1) 
-41.308098

>  <SMILES>  (1) 
O=C1CC[C@H](NC(NC2COC2)=[NH+][C@H]2COc3cc(Cl)ccc3C2)CN1

$$$$
