Nc1ccc(-c2c[nH]c(N[C@H](CNc3ccccc3)c3cccc(O)c3)[nH+]2)cc1
     RDKit          3D

 53 56  0  0  1  0  0  0  0  0999 V2000
  131.0174  129.6883  151.7587 N   0  0  0  0  0  0  0  0  0  0  0  0
  130.8255  130.3400  152.9793 C   0  0  0  0  0  0  0  0  0  0  0  0
  130.0706  131.5058  153.0321 C   0  0  0  0  0  0  0  0  0  0  0  0
  129.8794  132.1507  154.2358 C   0  0  0  0  0  0  0  0  0  0  0  0
  130.4439  131.6325  155.4003 C   0  0  0  0  0  0  0  0  0  0  0  0
  130.2395  132.3245  156.6965 C   0  0  0  0  0  0  0  0  0  0  0  0
  129.6460  131.7991  157.7966 C   0  0  0  0  0  0  0  0  0  0  0  0
  129.6664  132.7747  158.7650 N   0  0  0  0  0  0  0  0  0  0  0  0
  129.3143  132.6980  159.6655 H   0  0  0  0  0  0  0  0  0  0  0  0
  130.2724  133.8678  158.2268 C   0  0  0  0  0  0  0  0  0  0  0  0
  130.4879  135.0717  158.8757 N   0  0  0  0  0  0  0  0  0  0  0  0
  130.0483  135.2453  160.2623 C   0  0  2  0  0  0  0  0  0  0  0  0
  130.2469  134.3322  160.8235 H   0  0  0  0  0  0  0  0  0  0  0  0
  128.5479  135.5438  160.2882 C   0  0  0  0  0  0  0  0  0  0  0  0
  127.8177  134.4287  159.6803 N   0  0  0  0  0  0  0  0  0  0  0  0
  127.3821  133.3643  160.4730 C   0  0  0  0  0  0  0  0  0  0  0  0
  126.3593  132.5372  160.0267 C   0  0  0  0  0  0  0  0  0  0  0  0
  125.9343  131.4826  160.8109 C   0  0  0  0  0  0  0  0  0  0  0  0
  126.5188  131.2561  162.0436 C   0  0  0  0  0  0  0  0  0  0  0  0
  127.5337  132.0809  162.4931 C   0  0  0  0  0  0  0  0  0  0  0  0
  127.9671  133.1339  161.7117 C   0  0  0  0  0  0  0  0  0  0  0  0
  130.7995  136.3925  160.8875 C   0  0  0  0  0  0  0  0  0  0  0  0
  131.5865  136.1763  162.0039 C   0  0  0  0  0  0  0  0  0  0  0  0
  132.2775  137.2263  162.5792 C   0  0  0  0  0  0  0  0  0  0  0  0
  132.1833  138.4949  162.0398 C   0  0  0  0  0  0  0  0  0  0  0  0
  131.3943  138.7144  160.9203 C   0  0  0  0  0  0  0  0  0  0  0  0
  131.3003  139.9611  160.3876 O   0  0  0  0  0  0  0  0  0  0  0  0
  130.7058  137.6577  160.3415 C   0  0  0  0  0  0  0  0  0  0  0  0
  130.6134  133.5949  156.9908 N   0  0  0  0  0  0  0  0  0  0  0  0
  131.0614  134.2043  156.3835 H   0  0  0  0  0  0  0  0  0  0  0  0
  131.2055  130.4663  155.3441 C   0  0  0  0  0  0  0  0  0  0  0  0
  131.3892  129.8215  154.1391 C   0  0  0  0  0  0  0  0  0  0  0  0
  130.6242  130.0490  150.9489 H   0  0  0  0  0  0  0  0  0  0  0  0
  131.5443  128.8744  151.7211 H   0  0  0  0  0  0  0  0  0  0  0  0
  129.6338  131.9070  152.1295 H   0  0  0  0  0  0  0  0  0  0  0  0
  129.2926  133.0563  154.2764 H   0  0  0  0  0  0  0  0  0  0  0  0
  129.2355  130.8049  157.8934 H   0  0  0  0  0  0  0  0  0  0  0  0
  130.9298  135.8001  158.4121 H   0  0  0  0  0  0  0  0  0  0  0  0
  128.2209  135.6729  161.3199 H   0  0  0  0  0  0  0  0  0  0  0  0
  128.3494  136.4570  159.7270 H   0  0  0  0  0  0  0  0  0  0  0  0
  127.6366  134.4295  158.7273 H   0  0  0  0  0  0  0  0  0  0  0  0
  125.8995  132.7162  159.0661 H   0  0  0  0  0  0  0  0  0  0  0  0
  125.1420  130.8368  160.4628 H   0  0  0  0  0  0  0  0  0  0  0  0
  126.1815  130.4336  162.6567 H   0  0  0  0  0  0  0  0  0  0  0  0
  127.9880  131.9014  163.4564 H   0  0  0  0  0  0  0  0  0  0  0  0
  128.7596  133.7780  162.0635 H   0  0  0  0  0  0  0  0  0  0  0  0
  131.6617  135.1854  162.4268 H   0  0  0  0  0  0  0  0  0  0  0  0
  132.8919  137.0550  163.4508 H   0  0  0  0  0  0  0  0  0  0  0  0
  132.7239  139.3148  162.4892 H   0  0  0  0  0  0  0  0  0  0  0  0
  131.8184  140.6294  160.8568 H   0  0  0  0  0  0  0  0  0  0  0  0
  130.0947  137.8252  159.4672 H   0  0  0  0  0  0  0  0  0  0  0  0
  131.6476  130.0657  156.2443 H   0  0  0  0  0  0  0  0  0  0  0  0
  131.9758  128.9157  154.0956 H   0  0  0  0  0  0  0  0  0  0  0  0
  1  2  1  0
  1 33  1  0
  1 34  1  0
  2 32  2  0
  2  3  1  0
  3  4  2  0
  3 35  1  0
  4  5  1  0
  4 36  1  0
  5  6  1  0
  5 31  2  0
  6 29  1  0
  6  7  2  0
  7  8  1  0
  7 37  1  0
  8  9  1  0
  8 10  1  0
 10 11  1  0
 10 29  2  0
 11 12  1  0
 11 38  1  0
 12 13  1  1
 12 14  1  0
 12 22  1  0
 14 15  1  0
 14 39  1  0
 14 40  1  0
 15 16  1  0
 15 41  1  0
 16 21  1  0
 16 17  2  0
 17 18  1  0
 17 42  1  0
 18 19  2  0
 18 43  1  0
 19 20  1  0
 19 44  1  0
 20 21  2  0
 20 45  1  0
 21 46  1  0
 22 28  1  0
 22 23  2  0
 23 24  1  0
 23 47  1  0
 24 25  2  0
 24 48  1  0
 25 26  1  0
 25 49  1  0
 26 27  1  0
 26 28  2  0
 27 50  1  0
 28 51  1  0
 29 30  1  0
 31 32  1  0
 31 52  1  0
 32 53  1  0
M  CHG  1  29   1
M  END
>  <DOCK_score>  (1) 
-59.982555

>  <SMILES>  (1) 
Nc1ccc(-c2c[nH]c(N[C@H](CNc3ccccc3)c3cccc(O)c3)[nH+]2)cc1

$$$$
