CCc1ccc(-c2c[nH]c(N[C@H](c3ccncn3)c3cccc(N)c3N)[nH+]2)cc1
     RDKit          3D

 53 56  0  0  1  0  0  0  0  0999 V2000
  130.4181  128.0926  151.8788 C   0  0  0  0  0  0  0  0  0  0  0  0
  131.3765  129.2762  152.0242 C   0  0  0  0  0  0  0  0  0  0  0  0
  131.0856  130.0029  153.3120 C   0  0  0  0  0  0  0  0  0  0  0  0
  131.7359  129.6313  154.4745 C   0  0  0  0  0  0  0  0  0  0  0  0
  131.4778  130.2969  155.6557 C   0  0  0  0  0  0  0  0  0  0  0  0
  130.5513  131.3378  155.6778 C   0  0  0  0  0  0  0  0  0  0  0  0
  130.2656  132.0533  156.9454 C   0  0  0  0  0  0  0  0  0  0  0  0
  129.7852  131.4970  158.0851 C   0  0  0  0  0  0  0  0  0  0  0  0
  129.6698  132.5102  159.0054 N   0  0  0  0  0  0  0  0  0  0  0  0
  129.3519  132.4242  159.9178 H   0  0  0  0  0  0  0  0  0  0  0  0
  130.0835  133.6572  158.4007 C   0  0  0  0  0  0  0  0  0  0  0  0
  130.1225  134.9098  158.9887 N   0  0  0  0  0  0  0  0  0  0  0  0
  129.1614  135.2566  160.0385 C   0  0  2  0  0  0  0  0  0  0  0  0
  129.2749  134.5688  160.8764 H   0  0  0  0  0  0  0  0  0  0  0  0
  127.7610  135.1548  159.4911 C   0  0  0  0  0  0  0  0  0  0  0  0
  127.3690  135.9357  158.4149 C   0  0  0  0  0  0  0  0  0  0  0  0
  126.0726  135.8047  157.9431 C   0  0  0  0  0  0  0  0  0  0  0  0
  125.2544  134.9511  158.5377 N   0  0  0  0  0  0  0  0  0  0  0  0
  125.6607  134.2281  159.5618 C   0  0  0  0  0  0  0  0  0  0  0  0
  126.8874  134.3228  160.0345 N   0  0  0  0  0  0  0  0  0  0  0  0
  129.4162  136.6659  160.5073 C   0  0  0  0  0  0  0  0  0  0  0  0
  129.9379  137.6019  159.6329 C   0  0  0  0  0  0  0  0  0  0  0  0
  130.1678  138.8971  160.0571 C   0  0  0  0  0  0  0  0  0  0  0  0
  129.8881  139.2618  161.3616 C   0  0  0  0  0  0  0  0  0  0  0  0
  129.3704  138.3286  162.2463 C   0  0  0  0  0  0  0  0  0  0  0  0
  129.0861  138.6957  163.5672 N   0  0  0  0  0  0  0  0  0  0  0  0
  129.1330  137.0227  161.8166 C   0  0  0  0  0  0  0  0  0  0  0  0
  128.6096  136.0753  162.7049 N   0  0  0  0  0  0  0  0  0  0  0  0
  130.4442  133.3790  157.1717 N   0  0  0  0  0  0  0  0  0  0  0  0
  130.7825  134.0192  156.5263 H   0  0  0  0  0  0  0  0  0  0  0  0
  129.8947  131.7045  154.5044 C   0  0  0  0  0  0  0  0  0  0  0  0
  130.1649  131.0357  153.3278 C   0  0  0  0  0  0  0  0  0  0  0  0
  130.6284  127.5671  150.9473 H   0  0  0  0  0  0  0  0  0  0  0  0
  130.5530  127.4112  152.7188 H   0  0  0  0  0  0  0  0  0  0  0  0
  129.3905  128.4559  151.8671 H   0  0  0  0  0  0  0  0  0  0  0  0
  132.4036  128.9135  152.0355 H   0  0  0  0  0  0  0  0  0  0  0  0
  131.2411  129.9582  151.1838 H   0  0  0  0  0  0  0  0  0  0  0  0
  132.4500  128.8214  154.4572 H   0  0  0  0  0  0  0  0  0  0  0  0
  131.9896  130.0088  156.5621 H   0  0  0  0  0  0  0  0  0  0  0  0
  129.5399  130.4566  158.2394 H   0  0  0  0  0  0  0  0  0  0  0  0
  130.7864  135.5580  158.7056 H   0  0  0  0  0  0  0  0  0  0  0  0
  128.0584  136.6269  157.9530 H   0  0  0  0  0  0  0  0  0  0  0  0
  125.7333  136.3944  157.1045 H   0  0  0  0  0  0  0  0  0  0  0  0
  124.9699  133.5401  160.0264 H   0  0  0  0  0  0  0  0  0  0  0  0
  130.1625  137.3211  158.6146 H   0  0  0  0  0  0  0  0  0  0  0  0
  130.5712  139.6254  159.3692 H   0  0  0  0  0  0  0  0  0  0  0  0
  130.0734  140.2735  161.6911 H   0  0  0  0  0  0  0  0  0  0  0  0
  128.7235  138.0417  164.1851 H   0  0  0  0  0  0  0  0  0  0  0  0
  129.2516  139.6041  163.8647 H   0  0  0  0  0  0  0  0  0  0  0  0
  128.4449  135.1680  162.4046 H   0  0  0  0  0  0  0  0  0  0  0  0
  128.4119  136.3266  163.6208 H   0  0  0  0  0  0  0  0  0  0  0  0
  129.1757  132.5103  154.5158 H   0  0  0  0  0  0  0  0  0  0  0  0
  129.6570  131.3193  152.4179 H   0  0  0  0  0  0  0  0  0  0  0  0
  1  2  1  0
  1 33  1  0
  1 34  1  0
  1 35  1  0
  2  3  1  0
  2 36  1  0
  2 37  1  0
  3 32  2  0
  3  4  1  0
  4  5  2  0
  4 38  1  0
  5  6  1  0
  5 39  1  0
  6  7  1  0
  6 31  2  0
  7 29  1  0
  7  8  2  0
  8  9  1  0
  8 40  1  0
  9 10  1  0
  9 11  1  0
 11 12  1  0
 11 29  2  0
 12 13  1  0
 12 41  1  0
 13 14  1  1
 13 15  1  0
 13 21  1  0
 15 20  1  0
 15 16  2  0
 16 17  1  0
 16 42  1  0
 17 18  2  0
 17 43  1  0
 18 19  1  0
 19 20  2  0
 19 44  1  0
 21 27  1  0
 21 22  2  0
 22 23  1  0
 22 45  1  0
 23 24  2  0
 23 46  1  0
 24 25  1  0
 24 47  1  0
 25 26  1  0
 25 27  2  0
 26 48  1  0
 26 49  1  0
 27 28  1  0
 28 50  1  0
 28 51  1  0
 29 30  1  0
 31 32  1  0
 31 52  1  0
 32 53  1  0
M  CHG  1  29   1
M  END
>  <DOCK_score>  (1) 
-57.761597

>  <SMILES>  (1) 
CCc1ccc(-c2c[nH]c(N[C@H](c3ccncn3)c3cccc(N)c3N)[nH+]2)cc1

$$$$
