C1=C(CNc2ccc(-c3n[nH]cc3C[NH2+]CC3=CCCC3)o2)CCC1
     RDKit          3D

 52 55  0  0  0  0  0  0  0  0999 V2000
  128.0323  136.5805  164.8876 C   0  0  0  0  0  0  0  0  0  0  0  0
  127.0164  136.4193  164.0840 C   0  0  0  0  0  0  0  0  0  0  0  0
  126.8813  137.0819  162.7373 C   0  0  0  0  0  0  0  0  0  0  0  0
  126.1014  136.2204  161.8453 N   0  0  0  0  0  0  0  0  0  0  0  0
  126.7441  135.2739  161.0558 C   0  0  0  0  0  0  0  0  0  0  0  0
  126.1646  134.1817  160.4983 C   0  0  0  0  0  0  0  0  0  0  0  0
  127.1711  133.5012  159.7850 C   0  0  0  0  0  0  0  0  0  0  0  0
  128.3170  134.2146  159.9438 C   0  0  0  0  0  0  0  0  0  0  0  0
  129.6349  133.8744  159.3691 C   0  0  0  0  0  0  0  0  0  0  0  0
  129.9061  132.8278  158.6144 N   0  0  0  0  0  0  0  0  0  0  0  0
  131.2656  132.8732  158.2806 N   0  0  0  0  0  0  0  0  0  0  0  0
  131.7386  132.2275  157.7326 H   0  0  0  0  0  0  0  0  0  0  0  0
  131.8027  133.9747  158.8484 C   0  0  0  0  0  0  0  0  0  0  0  0
  130.8270  134.6113  159.5309 C   0  0  0  0  0  0  0  0  0  0  0  0
  130.9824  135.8860  160.3198 C   0  0  0  0  0  0  0  0  0  0  0  0
  130.7304  137.0379  159.4437 N   0  0  0  0  0  0  0  0  0  0  0  0
  129.7925  136.9821  159.0761 H   0  0  0  0  0  0  0  0  0  0  0  0
  131.3915  137.0316  158.6814 H   0  0  0  0  0  0  0  0  0  0  0  0
  130.8819  138.2804  160.2127 C   0  0  0  0  0  0  0  0  0  0  0  0
  132.2829  138.3636  160.7617 C   0  0  0  0  0  0  0  0  0  0  0  0
  133.3330  137.8427  160.1875 C   0  0  0  0  0  0  0  0  0  0  0  0
  134.5821  138.1062  160.9958 C   0  0  0  0  0  0  0  0  0  0  0  0
  134.1897  139.2452  161.9653 C   0  0  0  0  0  0  0  0  0  0  0  0
  132.6567  139.0614  162.0487 C   0  0  0  0  0  0  0  0  0  0  0  0
  128.0457  135.2840  160.7212 O   0  0  0  0  0  0  0  0  0  0  0  0
  125.9966  135.4761  164.6787 C   0  0  0  0  0  0  0  0  0  0  0  0
  126.3543  135.4072  166.1815 C   0  0  0  0  0  0  0  0  0  0  0  0
  127.8550  135.7790  166.1562 C   0  0  0  0  0  0  0  0  0  0  0  0
  128.8864  137.2063  164.6747 H   0  0  0  0  0  0  0  0  0  0  0  0
  127.8713  137.2445  162.3113 H   0  0  0  0  0  0  0  0  0  0  0  0
  126.3737  138.0396  162.8528 H   0  0  0  0  0  0  0  0  0  0  0  0
  125.1364  136.3105  161.8056 H   0  0  0  0  0  0  0  0  0  0  0  0
  125.1286  133.8891  160.5850 H   0  0  0  0  0  0  0  0  0  0  0  0
  127.0546  132.5878  159.2207 H   0  0  0  0  0  0  0  0  0  0  0  0
  132.8328  134.2900  158.7717 H   0  0  0  0  0  0  0  0  0  0  0  0
  131.9957  135.9462  160.7169 H   0  0  0  0  0  0  0  0  0  0  0  0
  130.2685  135.8929  161.1434 H   0  0  0  0  0  0  0  0  0  0  0  0
  130.1680  138.2873  161.0363 H   0  0  0  0  0  0  0  0  0  0  0  0
  130.6951  139.1351  159.5626 H   0  0  0  0  0  0  0  0  0  0  0  0
  133.3120  137.2954  159.2566 H   0  0  0  0  0  0  0  0  0  0  0  0
  135.3956  138.4255  160.3445 H   0  0  0  0  0  0  0  0  0  0  0  0
  134.8686  137.2146  161.5535 H   0  0  0  0  0  0  0  0  0  0  0  0
  134.6541  139.1055  162.9415 H   0  0  0  0  0  0  0  0  0  0  0  0
  134.4449  140.2194  161.5483 H   0  0  0  0  0  0  0  0  0  0  0  0
  132.3945  138.4420  162.9064 H   0  0  0  0  0  0  0  0  0  0  0  0
  132.1609  140.0301  162.1131 H   0  0  0  0  0  0  0  0  0  0  0  0
  124.9900  135.8722  164.5456 H   0  0  0  0  0  0  0  0  0  0  0  0
  126.0795  134.4901  164.2214 H   0  0  0  0  0  0  0  0  0  0  0  0
  125.7801  136.1359  166.7540 H   0  0  0  0  0  0  0  0  0  0  0  0
  126.2070  134.4008  166.5731 H   0  0  0  0  0  0  0  0  0  0  0  0
  128.1117  136.3812  167.0278 H   0  0  0  0  0  0  0  0  0  0  0  0
  128.4686  134.8789  166.1234 H   0  0  0  0  0  0  0  0  0  0  0  0
  1 28  1  0
  1  2  2  0
  1 29  1  0
  2  3  1  0
  2 26  1  0
  3  4  1  0
  3 30  1  0
  3 31  1  0
  4  5  1  0
  4 32  1  0
  5 25  1  0
  5  6  2  0
  6  7  1  0
  6 33  1  0
  7  8  2  0
  7 34  1  0
  8  9  1  0
  8 25  1  0
  9 14  1  0
  9 10  2  0
 10 11  1  0
 11 12  1  0
 11 13  1  0
 13 14  2  0
 13 35  1  0
 14 15  1  0
 15 16  1  0
 15 36  1  0
 15 37  1  0
 16 17  1  0
 16 18  1  0
 16 19  1  0
 19 20  1  0
 19 38  1  0
 19 39  1  0
 20 24  1  0
 20 21  2  0
 21 22  1  0
 21 40  1  0
 22 23  1  0
 22 41  1  0
 22 42  1  0
 23 24  1  0
 23 43  1  0
 23 44  1  0
 24 45  1  0
 24 46  1  0
 26 27  1  0
 26 47  1  0
 26 48  1  0
 27 28  1  0
 27 49  1  0
 27 50  1  0
 28 51  1  0
 28 52  1  0
M  CHG  1  16   1
M  END
>  <DOCK_score>  (1) 
-42.496338

>  <SMILES>  (1) 
C1=C(CNc2ccc(-c3n[nH]cc3C[NH2+]CC3=CCCC3)o2)CCC1

$$$$
