Oc1cccc(CNC2=C[C@H]([NH2+]C3Cc4ccccc4C3)CCC2)c1
     RDKit          3D

 52 55  0  0  1  0  0  0  0  0999 V2000
  123.8434  134.9657  161.9465 O   0  0  0  0  0  0  0  0  0  0  0  0
  124.5694  134.2669  161.0346 C   0  0  0  0  0  0  0  0  0  0  0  0
  124.4424  132.8874  160.9549 C   0  0  0  0  0  0  0  0  0  0  0  0
  125.1817  132.1795  160.0276 C   0  0  0  0  0  0  0  0  0  0  0  0
  126.0437  132.8449  159.1751 C   0  0  0  0  0  0  0  0  0  0  0  0
  126.1762  134.2187  159.2563 C   0  0  0  0  0  0  0  0  0  0  0  0
  127.1210  134.9399  158.3300 C   0  0  0  0  0  0  0  0  0  0  0  0
  127.9024  135.9165  159.0928 N   0  0  0  0  0  0  0  0  0  0  0  0
  129.0014  135.5003  159.8335 C   0  0  0  0  0  0  0  0  0  0  0  0
  129.9854  136.3416  159.9963 C   0  0  0  0  0  0  0  0  0  0  0  0
  131.2287  136.0354  160.7792 C   0  0  2  0  0  0  0  0  0  0  0  0
  131.1727  136.5240  161.7520 H   0  0  0  0  0  0  0  0  0  0  0  0
  132.4002  136.5375  160.0487 N   0  0  0  0  0  0  0  0  0  0  0  0
  133.2293  136.0663  160.3782 H   0  0  0  0  0  0  0  0  0  0  0  0
  132.2824  136.3612  159.0623 H   0  0  0  0  0  0  0  0  0  0  0  0
  132.5357  137.9827  160.2750 C   0  0  0  0  0  0  0  0  0  0  0  0
  133.5395  138.6021  159.2794 C   0  0  0  0  0  0  0  0  0  0  0  0
  134.2530  139.6865  160.0639 C   0  0  0  0  0  0  0  0  0  0  0  0
  135.0120  140.7584  159.6244 C   0  0  0  0  0  0  0  0  0  0  0  0
  135.5710  141.6339  160.5345 C   0  0  0  0  0  0  0  0  0  0  0  0
  135.3732  141.4403  161.8890 C   0  0  0  0  0  0  0  0  0  0  0  0
  134.6168  140.3719  162.3293 C   0  0  0  0  0  0  0  0  0  0  0  0
  134.0551  139.4931  161.4182 C   0  0  0  0  0  0  0  0  0  0  0  0
  133.1992  138.2645  161.6398 C   0  0  0  0  0  0  0  0  0  0  0  0
  131.3676  134.5244  160.9773 C   0  0  0  0  0  0  0  0  0  0  0  0
  130.0347  133.9792  161.5051 C   0  0  0  0  0  0  0  0  0  0  0  0
  128.9854  134.1101  160.3990 C   0  0  0  0  0  0  0  0  0  0  0  0
  125.4388  134.9314  160.1822 C   0  0  0  0  0  0  0  0  0  0  0  0
  124.0000  135.9197  161.9261 H   0  0  0  0  0  0  0  0  0  0  0  0
  123.7658  132.3678  161.6173 H   0  0  0  0  0  0  0  0  0  0  0  0
  125.0830  131.1059  159.9650 H   0  0  0  0  0  0  0  0  0  0  0  0
  126.6173  132.2900  158.4475 H   0  0  0  0  0  0  0  0  0  0  0  0
  126.5498  135.4551  157.5577 H   0  0  0  0  0  0  0  0  0  0  0  0
  127.7941  134.2198  157.8647 H   0  0  0  0  0  0  0  0  0  0  0  0
  127.6525  136.8536  159.0807 H   0  0  0  0  0  0  0  0  0  0  0  0
  129.8999  137.3170  159.5406 H   0  0  0  0  0  0  0  0  0  0  0  0
  131.5667  138.4766  160.2058 H   0  0  0  0  0  0  0  0  0  0  0  0
  134.2521  137.8490  158.9429 H   0  0  0  0  0  0  0  0  0  0  0  0
  133.0116  139.0316  158.4279 H   0  0  0  0  0  0  0  0  0  0  0  0
  135.1670  140.9102  158.5664 H   0  0  0  0  0  0  0  0  0  0  0  0
  136.1618  142.4690  160.1884 H   0  0  0  0  0  0  0  0  0  0  0  0
  135.8092  142.1242  162.6022 H   0  0  0  0  0  0  0  0  0  0  0  0
  134.4623  140.2216  163.3876 H   0  0  0  0  0  0  0  0  0  0  0  0
  132.4394  138.4642  162.3955 H   0  0  0  0  0  0  0  0  0  0  0  0
  133.8198  137.4203  161.9402 H   0  0  0  0  0  0  0  0  0  0  0  0
  132.1582  134.3209  161.6997 H   0  0  0  0  0  0  0  0  0  0  0  0
  131.6062  134.0502  160.0253 H   0  0  0  0  0  0  0  0  0  0  0  0
  129.7225  134.5551  162.3763 H   0  0  0  0  0  0  0  0  0  0  0  0
  130.1503  132.9302  161.7778 H   0  0  0  0  0  0  0  0  0  0  0  0
  129.2048  133.3951  159.6062 H   0  0  0  0  0  0  0  0  0  0  0  0
  127.9985  133.8988  160.8105 H   0  0  0  0  0  0  0  0  0  0  0  0
  125.5396  136.0050  160.2425 H   0  0  0  0  0  0  0  0  0  0  0  0
  1  2  1  0
  1 29  1  0
  2 28  2  0
  2  3  1  0
  3  4  2  0
  3 30  1  0
  4  5  1  0
  4 31  1  0
  5  6  2  0
  5 32  1  0
  6  7  1  0
  6 28  1  0
  7  8  1  0
  7 33  1  0
  7 34  1  0
  8  9  1  0
  8 35  1  0
  9 27  1  0
  9 10  2  0
 10 11  1  0
 10 36  1  0
 11 12  1  1
 11 13  1  0
 11 25  1  0
 13 14  1  0
 13 15  1  0
 13 16  1  0
 16 24  1  0
 16 17  1  0
 16 37  1  0
 17 18  1  0
 17 38  1  0
 17 39  1  0
 18 23  2  0
 18 19  1  0
 19 20  2  0
 19 40  1  0
 20 21  1  0
 20 41  1  0
 21 22  2  0
 21 42  1  0
 22 23  1  0
 22 43  1  0
 23 24  1  0
 24 44  1  0
 24 45  1  0
 25 26  1  0
 25 46  1  0
 25 47  1  0
 26 27  1  0
 26 48  1  0
 26 49  1  0
 27 50  1  0
 27 51  1  0
 28 52  1  0
M  CHG  1  13   1
M  END
>  <DOCK_score>  (1) 
-49.997116

>  <SMILES>  (1) 
Oc1cccc(CNC2=C[C@H]([NH2+]C3Cc4ccccc4C3)CCC2)c1

$$$$
