[NH3+][C@@H](C(=O)Nc1cccc(O)c1)c1cccc(NCCc2ccc(F)cc2F)c1
     RDKit          3D

 51 53  0  0  1  0  0  0  0  0999 V2000
  130.8875  133.5966  158.0535 N   0  0  0  0  0  0  0  0  0  0  0  0
  130.4553  133.3269  157.1826 H   0  0  0  0  0  0  0  0  0  0  0  0
  131.7961  133.9945  157.8691 H   0  0  0  0  0  0  0  0  0  0  0  0
  130.9894  132.7847  158.6438 H   0  0  0  0  0  0  0  0  0  0  0  0
  130.0453  134.5916  158.7306 C   0  0  1  0  0  0  0  0  0  0  0  0
  129.9352  135.4687  158.0928 H   0  0  0  0  0  0  0  0  0  0  0  0
  128.6881  133.9972  159.0060 C   0  0  0  0  0  0  0  0  0  0  0  0
  128.2353  133.1504  158.2651 O   0  0  0  0  0  0  0  0  0  0  0  0
  127.9777  134.4067  160.0756 N   0  0  0  0  0  0  0  0  0  0  0  0
  126.7176  133.8547  160.3314 C   0  0  0  0  0  0  0  0  0  0  0  0
  126.4379  132.5503  159.9433 C   0  0  0  0  0  0  0  0  0  0  0  0
  125.1959  132.0035  160.2009 C   0  0  0  0  0  0  0  0  0  0  0  0
  124.2249  132.7555  160.8348 C   0  0  0  0  0  0  0  0  0  0  0  0
  124.4968  134.0607  161.2197 C   0  0  0  0  0  0  0  0  0  0  0  0
  123.5409  134.7991  161.8424 O   0  0  0  0  0  0  0  0  0  0  0  0
  125.7439  134.6111  160.9679 C   0  0  0  0  0  0  0  0  0  0  0  0
  130.6907  134.9944  160.0314 C   0  0  0  0  0  0  0  0  0  0  0  0
  130.9335  134.0432  161.0056 C   0  0  0  0  0  0  0  0  0  0  0  0
  131.5209  134.4092  162.2027 C   0  0  0  0  0  0  0  0  0  0  0  0
  131.8708  135.7263  162.4276 C   0  0  0  0  0  0  0  0  0  0  0  0
  131.6328  136.6833  161.4495 C   0  0  0  0  0  0  0  0  0  0  0  0
  131.9851  138.0162  161.6739 N   0  0  0  0  0  0  0  0  0  0  0  0
  132.1877  138.4999  163.0418 C   0  0  0  0  0  0  0  0  0  0  0  0
  132.5631  139.9827  163.0079 C   0  0  0  0  0  0  0  0  0  0  0  0
  133.8344  140.1613  162.2186 C   0  0  0  0  0  0  0  0  0  0  0  0
  135.0583  140.1091  162.8590 C   0  0  0  0  0  0  0  0  0  0  0  0
  136.2251  140.2669  162.1358 C   0  0  0  0  0  0  0  0  0  0  0  0
  136.1688  140.4888  160.7698 C   0  0  0  0  0  0  0  0  0  0  0  0
  137.3095  140.6482  160.0635 F   0  0  0  0  0  0  0  0  0  0  0  0
  134.9439  140.5469  160.1285 C   0  0  0  0  0  0  0  0  0  0  0  0
  133.7758  140.3830  160.8533 C   0  0  0  0  0  0  0  0  0  0  0  0
  132.5793  140.4399  160.2286 F   0  0  0  0  0  0  0  0  0  0  0  0
  131.0430  136.3120  160.2478 C   0  0  0  0  0  0  0  0  0  0  0  0
  128.3398  135.0839  160.6681 H   0  0  0  0  0  0  0  0  0  0  0  0
  127.1934  131.9621  159.4438 H   0  0  0  0  0  0  0  0  0  0  0  0
  124.9816  130.9880  159.9022 H   0  0  0  0  0  0  0  0  0  0  0  0
  123.2534  132.3266  161.0313 H   0  0  0  0  0  0  0  0  0  0  0  0
  123.8233  135.6952  162.0717 H   0  0  0  0  0  0  0  0  0  0  0  0
  125.9575  135.6266  161.2670 H   0  0  0  0  0  0  0  0  0  0  0  0
  130.6609  133.0126  160.8323 H   0  0  0  0  0  0  0  0  0  0  0  0
  131.7057  133.6646  162.9628 H   0  0  0  0  0  0  0  0  0  0  0  0
  132.3288  136.0118  163.3631 H   0  0  0  0  0  0  0  0  0  0  0  0
  132.0956  138.6214  160.9240 H   0  0  0  0  0  0  0  0  0  0  0  0
  131.2681  138.3710  163.6127 H   0  0  0  0  0  0  0  0  0  0  0  0
  132.9904  137.9326  163.5126 H   0  0  0  0  0  0  0  0  0  0  0  0
  131.7604  140.5503  162.5371 H   0  0  0  0  0  0  0  0  0  0  0  0
  132.7137  140.3428  164.0257 H   0  0  0  0  0  0  0  0  0  0  0  0
  135.1028  139.9409  163.9250 H   0  0  0  0  0  0  0  0  0  0  0  0
  137.1809  140.2220  162.6364 H   0  0  0  0  0  0  0  0  0  0  0  0
  134.8991  140.7196  159.0633 H   0  0  0  0  0  0  0  0  0  0  0  0
  130.8561  137.0537  159.4852 H   0  0  0  0  0  0  0  0  0  0  0  0
  1  2  1  0
  1  3  1  0
  1  4  1  0
  1  5  1  0
  5  6  1  6
  5  7  1  0
  5 17  1  0
  7  8  2  0
  7  9  1  0
  9 10  1  0
  9 34  1  0
 10 16  1  0
 10 11  2  0
 11 12  1  0
 11 35  1  0
 12 13  2  0
 12 36  1  0
 13 14  1  0
 13 37  1  0
 14 15  1  0
 14 16  2  0
 15 38  1  0
 16 39  1  0
 17 33  1  0
 17 18  2  0
 18 19  1  0
 18 40  1  0
 19 20  2  0
 19 41  1  0
 20 21  1  0
 20 42  1  0
 21 22  1  0
 21 33  2  0
 22 23  1  0
 22 43  1  0
 23 24  1  0
 23 44  1  0
 23 45  1  0
 24 25  1  0
 24 46  1  0
 24 47  1  0
 25 31  1  0
 25 26  2  0
 26 27  1  0
 26 48  1  0
 27 28  2  0
 27 49  1  0
 28 29  1  0
 28 30  1  0
 30 31  2  0
 30 50  1  0
 31 32  1  0
 33 51  1  0
M  CHG  1   1   1
M  END
>  <DOCK_score>  (1) 
-45.860706

>  <SMILES>  (1) 
[NH3+][C@@H](C(=O)Nc1cccc(O)c1)c1cccc(NCCc2ccc(F)cc2F)c1

$$$$
