C#CCC1=CCC[N@H+](Cc2cc(Oc3cc(C)ccc3O)cc(OC3CC=CC3)c2)CC1
     RDKit          3D

 64 67  0  0  1  0  0  0  0  0999 V2000
  129.8269  131.1843  153.9540 C   0  0  0  0  0  0  0  0  0  0  0  0
  130.3314  130.8100  154.9458 C   0  0  0  0  0  0  0  0  0  0  0  0
  130.9639  130.3408  156.1894 C   0  0  0  0  0  0  0  0  0  0  0  0
  130.6938  131.3293  157.2944 C   0  0  0  0  0  0  0  0  0  0  0  0
  130.0559  130.9536  158.3600 C   0  0  0  0  0  0  0  0  0  0  0  0
  129.7847  131.9488  159.4698 C   0  0  0  0  0  0  0  0  0  0  0  0
  128.7372  132.9503  158.9763 C   0  0  0  0  0  0  0  0  0  0  0  0
  129.3645  134.0394  158.2441 N   0  0  2  0  0  0  0  0  0  0  0  0
  130.0946  134.4316  158.8196 H   0  0  0  0  0  0  0  0  0  0  0  0
  128.3535  135.0786  158.0076 C   0  0  0  0  0  0  0  0  0  0  0  0
  128.1867  135.9100  159.2535 C   0  0  0  0  0  0  0  0  0  0  0  0
  128.9698  137.0325  159.4435 C   0  0  0  0  0  0  0  0  0  0  0  0
  128.8140  137.8031  160.5874 C   0  0  0  0  0  0  0  0  0  0  0  0
  129.5804  138.9098  160.7711 O   0  0  0  0  0  0  0  0  0  0  0  0
  130.9120  138.8146  160.5126 C   0  0  0  0  0  0  0  0  0  0  0  0
  131.7890  138.4345  161.5162 C   0  0  0  0  0  0  0  0  0  0  0  0
  133.1421  138.3376  161.2516 C   0  0  0  0  0  0  0  0  0  0  0  0
  134.0941  137.9237  162.3440 C   0  0  0  0  0  0  0  0  0  0  0  0
  133.6240  138.6189  159.9859 C   0  0  0  0  0  0  0  0  0  0  0  0
  132.7550  138.9987  158.9809 C   0  0  0  0  0  0  0  0  0  0  0  0
  131.3966  139.0928  159.2379 C   0  0  0  0  0  0  0  0  0  0  0  0
  130.5396  139.4606  158.2483 O   0  0  0  0  0  0  0  0  0  0  0  0
  127.8802  137.4393  161.5449 C   0  0  0  0  0  0  0  0  0  0  0  0
  127.0993  136.3094  161.3545 C   0  0  0  0  0  0  0  0  0  0  0  0
  126.1829  135.9498  162.2915 O   0  0  0  0  0  0  0  0  0  0  0  0
  126.4725  136.2939  163.6479 C   0  0  0  0  0  0  0  0  0  0  0  0
  127.6775  135.4846  164.1807 C   0  0  0  0  0  0  0  0  0  0  0  0
  127.3292  135.1810  165.6200 C   0  0  0  0  0  0  0  0  0  0  0  0
  126.0567  135.3653  165.8448 C   0  0  0  0  0  0  0  0  0  0  0  0
  125.3437  135.8220  164.5934 C   0  0  0  0  0  0  0  0  0  0  0  0
  127.2550  135.5453  160.2063 C   0  0  0  0  0  0  0  0  0  0  0  0
  129.9418  133.6598  156.9642 C   0  0  0  0  0  0  0  0  0  0  0  0
  131.1661  132.7622  157.1625 C   0  0  0  0  0  0  0  0  0  0  0  0
  129.3759  131.5190  153.0669 H   0  0  0  0  0  0  0  0  0  0  0  0
  132.0396  130.2499  156.0381 H   0  0  0  0  0  0  0  0  0  0  0  0
  130.5520  129.3692  156.4624 H   0  0  0  0  0  0  0  0  0  0  0  0
  129.7182  129.9322  158.4556 H   0  0  0  0  0  0  0  0  0  0  0  0
  130.7047  132.4752  159.7237 H   0  0  0  0  0  0  0  0  0  0  0  0
  129.4066  131.4252  160.3479 H   0  0  0  0  0  0  0  0  0  0  0  0
  128.1993  133.3572  159.8325 H   0  0  0  0  0  0  0  0  0  0  0  0
  128.0321  132.4380  158.3218 H   0  0  0  0  0  0  0  0  0  0  0  0
  128.6747  135.7174  157.1849 H   0  0  0  0  0  0  0  0  0  0  0  0
  127.4029  134.6096  157.7538 H   0  0  0  0  0  0  0  0  0  0  0  0
  129.7005  137.3132  158.6993 H   0  0  0  0  0  0  0  0  0  0  0  0
  131.4151  138.2143  162.5053 H   0  0  0  0  0  0  0  0  0  0  0  0
  134.2011  136.8390  162.3411 H   0  0  0  0  0  0  0  0  0  0  0  0
  135.0667  138.3852  162.1725 H   0  0  0  0  0  0  0  0  0  0  0  0
  133.7033  138.2477  163.3086 H   0  0  0  0  0  0  0  0  0  0  0  0
  134.6821  138.5419  159.7837 H   0  0  0  0  0  0  0  0  0  0  0  0
  133.1342  139.2181  157.9938 H   0  0  0  0  0  0  0  0  0  0  0  0
  130.9697  139.6327  157.3994 H   0  0  0  0  0  0  0  0  0  0  0  0
  127.7598  138.0354  162.4375 H   0  0  0  0  0  0  0  0  0  0  0  0
  126.6452  137.3654  163.7490 H   0  0  0  0  0  0  0  0  0  0  0  0
  127.7939  134.5601  163.6151 H   0  0  0  0  0  0  0  0  0  0  0  0
  128.5886  136.0806  164.1274 H   0  0  0  0  0  0  0  0  0  0  0  0
  128.0401  134.8544  166.3646 H   0  0  0  0  0  0  0  0  0  0  0  0
  125.5767  135.2120  166.8001 H   0  0  0  0  0  0  0  0  0  0  0  0
  124.6688  136.6472  164.8207 H   0  0  0  0  0  0  0  0  0  0  0  0
  124.7946  134.9937  164.1455 H   0  0  0  0  0  0  0  0  0  0  0  0
  126.6475  134.6649  160.0575 H   0  0  0  0  0  0  0  0  0  0  0  0
  129.1949  133.1229  156.3794 H   0  0  0  0  0  0  0  0  0  0  0  0
  130.2403  134.5589  156.4250 H   0  0  0  0  0  0  0  0  0  0  0  0
  131.8293  132.8510  156.3020 H   0  0  0  0  0  0  0  0  0  0  0  0
  131.6962  133.0594  158.0673 H   0  0  0  0  0  0  0  0  0  0  0  0
  1  2  3  0
  1 34  1  0
  2  3  1  0
  3  4  1  0
  3 35  1  0
  3 36  1  0
  4 33  1  0
  4  5  2  0
  5  6  1  0
  5 37  1  0
  6  7  1  0
  6 38  1  0
  6 39  1  0
  7  8  1  0
  7 40  1  0
  7 41  1  0
  8  9  1  1
  8 10  1  0
  8 32  1  0
 10 11  1  0
 10 42  1  0
 10 43  1  0
 11 31  1  0
 11 12  2  0
 12 13  1  0
 12 44  1  0
 13 14  1  0
 13 23  2  0
 14 15  1  0
 15 21  1  0
 15 16  2  0
 16 17  1  0
 16 45  1  0
 17 18  1  0
 17 19  2  0
 18 46  1  0
 18 47  1  0
 18 48  1  0
 19 20  1  0
 19 49  1  0
 20 21  2  0
 20 50  1  0
 21 22  1  0
 22 51  1  0
 23 24  1  0
 23 52  1  0
 24 25  1  0
 24 31  2  0
 25 26  1  0
 26 30  1  0
 26 27  1  0
 26 53  1  0
 27 28  1  0
 27 54  1  0
 27 55  1  0
 28 29  2  0
 28 56  1  0
 29 30  1  0
 29 57  1  0
 30 58  1  0
 30 59  1  0
 31 60  1  0
 32 33  1  0
 32 61  1  0
 32 62  1  0
 33 63  1  0
 33 64  1  0
M  CHG  1   8   1
M  END
>  <DOCK_score>  (1) 
-45.281452

>  <SMILES>  (1) 
C#CCC1=CCC[N@H+](Cc2cc(Oc3cc(C)ccc3O)cc(OC3CC=CC3)c2)CC1

$$$$
