Cn1nccc1C(C(=O)N1CC=CC1)[C@H](Nc1[nH]cc(-c2ccc(N)cc2)[nH+]1)c1ccnn1C
     RDKit          3D

 62 66  0  0  1  0  0  0  0  0999 V2000
  132.3024  138.1495  159.6715 C   0  0  0  0  0  0  0  0  0  0  0  0
  132.5781  136.9208  160.4201 N   0  0  0  0  0  0  0  0  0  0  0  0
  133.8382  136.3417  160.6183 N   0  0  0  0  0  0  0  0  0  0  0  0
  133.6825  135.2605  161.3382 C   0  0  0  0  0  0  0  0  0  0  0  0
  132.3191  135.1109  161.6129 C   0  0  0  0  0  0  0  0  0  0  0  0
  131.6630  136.1467  161.0402 C   0  0  0  0  0  0  0  0  0  0  0  0
  130.1768  136.3919  161.0869 C   0  0  2  0  0  0  0  0  0  0  0  0
  129.7375  136.5429  162.5205 C   0  0  0  0  0  0  0  0  0  0  0  0
  129.9096  135.6352  163.3063 O   0  0  0  0  0  0  0  0  0  0  0  0
  129.1534  137.6866  162.9295 N   0  0  0  0  0  0  0  0  0  0  0  0
  128.8748  138.8820  162.1207 C   0  0  0  0  0  0  0  0  0  0  0  0
  128.2126  139.8860  163.0268 C   0  0  0  0  0  0  0  0  0  0  0  0
  128.0993  139.3977  164.2306 C   0  0  0  0  0  0  0  0  0  0  0  0
  128.6665  138.0037  164.2796 C   0  0  0  0  0  0  0  0  0  0  0  0
  129.4445  135.2087  160.4509 C   0  0  2  0  0  0  0  0  0  0  0  0
  129.6799  134.2976  161.0008 H   0  0  0  0  0  0  0  0  0  0  0  0
  129.8715  135.0620  159.0573 N   0  0  0  0  0  0  0  0  0  0  0  0
  129.8804  133.8112  158.4639 C   0  0  0  0  0  0  0  0  0  0  0  0
  129.5117  132.6468  159.0639 N   0  0  0  0  0  0  0  0  0  0  0  0
  129.1984  132.5445  159.9762 H   0  0  0  0  0  0  0  0  0  0  0  0
  129.6659  131.6422  158.1382 C   0  0  0  0  0  0  0  0  0  0  0  0
  130.1236  132.2220  157.0012 C   0  0  0  0  0  0  0  0  0  0  0  0
  130.4368  131.5238  155.7303 C   0  0  0  0  0  0  0  0  0  0  0  0
  129.7559  131.8620  154.5618 C   0  0  0  0  0  0  0  0  0  0  0  0
  130.0523  131.2154  153.3805 C   0  0  0  0  0  0  0  0  0  0  0  0
  131.0209  130.2196  153.3563 C   0  0  0  0  0  0  0  0  0  0  0  0
  131.3153  129.5621  152.1595 N   0  0  0  0  0  0  0  0  0  0  0  0
  131.6976  129.8767  154.5214 C   0  0  0  0  0  0  0  0  0  0  0  0
  131.4085  130.5246  155.7038 C   0  0  0  0  0  0  0  0  0  0  0  0
  130.2399  133.5540  157.2299 N   0  0  0  0  0  0  0  0  0  0  0  0
  130.5430  134.2112  156.5840 H   0  0  0  0  0  0  0  0  0  0  0  0
  127.9583  135.4539  160.4978 C   0  0  0  0  0  0  0  0  0  0  0  0
  127.2220  136.0762  159.5483 C   0  0  0  0  0  0  0  0  0  0  0  0
  125.8913  136.0947  159.9789 C   0  0  0  0  0  0  0  0  0  0  0  0
  125.8309  135.5046  161.1451 N   0  0  0  0  0  0  0  0  0  0  0  0
  127.1223  135.0870  161.4917 N   0  0  0  0  0  0  0  0  0  0  0  0
  127.4993  134.3795  162.7179 C   0  0  0  0  0  0  0  0  0  0  0  0
  132.4327  139.0111  160.3265 H   0  0  0  0  0  0  0  0  0  0  0  0
  132.9914  138.2250  158.8304 H   0  0  0  0  0  0  0  0  0  0  0  0
  131.2775  138.1268  159.3007 H   0  0  0  0  0  0  0  0  0  0  0  0
  134.4701  134.5963  161.6621 H   0  0  0  0  0  0  0  0  0  0  0  0
  131.8699  134.3125  162.1848 H   0  0  0  0  0  0  0  0  0  0  0  0
  129.9415  137.3031  160.5369 H   0  0  0  0  0  0  0  0  0  0  0  0
  129.8064  139.2905  161.7292 H   0  0  0  0  0  0  0  0  0  0  0  0
  128.2046  138.6268  161.2999 H   0  0  0  0  0  0  0  0  0  0  0  0
  127.8831  140.8691  162.7245 H   0  0  0  0  0  0  0  0  0  0  0  0
  127.6625  139.9177  165.0703 H   0  0  0  0  0  0  0  0  0  0  0  0
  127.8890  137.2967  164.5692 H   0  0  0  0  0  0  0  0  0  0  0  0
  129.4910  137.9604  164.9911 H   0  0  0  0  0  0  0  0  0  0  0  0
  130.1479  135.8413  158.5501 H   0  0  0  0  0  0  0  0  0  0  0  0
  129.4614  130.5923  158.2879 H   0  0  0  0  0  0  0  0  0  0  0  0
  128.9996  132.6328  154.5809 H   0  0  0  0  0  0  0  0  0  0  0  0
  129.5281  131.4803  152.4742 H   0  0  0  0  0  0  0  0  0  0  0  0
  131.9919  128.8663  152.1423 H   0  0  0  0  0  0  0  0  0  0  0  0
  130.8440  129.7999  151.3465 H   0  0  0  0  0  0  0  0  0  0  0  0
  132.4500  129.1023  154.5004 H   0  0  0  0  0  0  0  0  0  0  0  0
  131.9346  130.2584  156.6085 H   0  0  0  0  0  0  0  0  0  0  0  0
  127.5958  136.4863  158.6218 H   0  0  0  0  0  0  0  0  0  0  0  0
  125.0579  136.5226  159.4418 H   0  0  0  0  0  0  0  0  0  0  0  0
  127.6715  135.1019  163.5158 H   0  0  0  0  0  0  0  0  0  0  0  0
  126.6963  133.7022  163.0081 H   0  0  0  0  0  0  0  0  0  0  0  0
  128.4109  133.8083  162.5422 H   0  0  0  0  0  0  0  0  0  0  0  0
  1  2  1  0
  1 38  1  0
  1 39  1  0
  1 40  1  0
  2  6  1  0
  2  3  1  0
  3  4  2  0
  4  5  1  0
  4 41  1  0
  5  6  2  0
  5 42  1  0
  6  7  1  0
  7  8  1  0
  7 15  1  0
  7 43  1  6
  8  9  2  0
  8 10  1  0
 10 14  1  0
 10 11  1  0
 11 12  1  0
 11 44  1  0
 11 45  1  0
 12 13  2  0
 12 46  1  0
 13 14  1  0
 13 47  1  0
 14 48  1  0
 14 49  1  0
 15 16  1  1
 15 17  1  0
 15 32  1  0
 17 50  1  0
 18 17  1  0
 18 30  2  0
 18 19  1  0
 19 20  1  0
 19 21  1  0
 21 22  2  0
 21 51  1  0
 22 23  1  0
 22 30  1  0
 23 29  1  0
 23 24  2  0
 24 25  1  0
 24 52  1  0
 25 26  2  0
 25 53  1  0
 26 27  1  0
 26 28  1  0
 27 54  1  0
 27 55  1  0
 28 29  2  0
 28 56  1  0
 29 57  1  0
 30 31  1  0
 32 36  1  0
 32 33  2  0
 33 34  1  0
 33 58  1  0
 34 35  2  0
 34 59  1  0
 35 36  1  0
 36 37  1  0
 37 60  1  0
 37 61  1  0
 37 62  1  0
M  CHG  1  30   1
M  END
>  <DOCK_score>  (1) 
-51.150707

>  <SMILES>  (1) 
Cn1nccc1C(C(=O)N1CC=CC1)[C@H](Nc1[nH]cc(-c2ccc(N)cc2)[nH+]1)c1ccnn1C

$$$$
