Nc1ccc(-c2c[nH]c(N[C@@H](C=C3CC(=O)NCC3=O)c3cccc4ccccc34)[nH+]2)cc1
     RDKit          3D

 57 61  0  0  1  0  0  0  0  0999 V2000
  131.1740  129.8811  151.6023 N   0  0  0  0  0  0  0  0  0  0  0  0
  130.9114  130.4863  152.8337 C   0  0  0  0  0  0  0  0  0  0  0  0
  130.4834  131.8077  152.8802 C   0  0  0  0  0  0  0  0  0  0  0  0
  130.2241  132.4072  154.0947 C   0  0  0  0  0  0  0  0  0  0  0  0
  130.3910  131.6866  155.2762 C   0  0  0  0  0  0  0  0  0  0  0  0
  130.1132  132.3295  156.5841 C   0  0  0  0  0  0  0  0  0  0  0  0
  129.6713  131.7038  157.7029 C   0  0  0  0  0  0  0  0  0  0  0  0
  129.5486  132.6669  158.6762 N   0  0  0  0  0  0  0  0  0  0  0  0
  129.2524  132.5267  159.5892 H   0  0  0  0  0  0  0  0  0  0  0  0
  129.9196  133.8531  158.1221 C   0  0  0  0  0  0  0  0  0  0  0  0
  129.9385  135.0755  158.7717 N   0  0  0  0  0  0  0  0  0  0  0  0
  129.5354  135.1645  160.1773 C   0  0  1  0  0  0  0  0  0  0  0  0
  129.9224  134.3030  160.7215 H   0  0  0  0  0  0  0  0  0  0  0  0
  130.0896  136.4297  160.7798 C   0  0  0  0  0  0  0  0  0  0  0  0
  131.2928  136.4225  161.3572 C   0  0  0  0  0  0  0  0  0  0  0  0
  131.8232  137.6128  162.1304 C   0  0  0  0  0  0  0  0  0  0  0  0
  133.2973  137.7463  161.8759 C   0  0  0  0  0  0  0  0  0  0  0  0
  133.8228  138.8008  162.1636 O   0  0  0  0  0  0  0  0  0  0  0  0
  134.0690  136.7962  161.3589 N   0  0  0  0  0  0  0  0  0  0  0  0
  133.6046  135.5282  160.8109 C   0  0  0  0  0  0  0  0  0  0  0  0
  132.1911  135.2503  161.2889 C   0  0  0  0  0  0  0  0  0  0  0  0
  131.8186  134.1368  161.5947 O   0  0  0  0  0  0  0  0  0  0  0  0
  128.0312  135.1818  160.2683 C   0  0  0  0  0  0  0  0  0  0  0  0
  127.2765  135.1186  159.1372 C   0  0  0  0  0  0  0  0  0  0  0  0
  125.8847  135.1330  159.2017 C   0  0  0  0  0  0  0  0  0  0  0  0
  125.2393  135.2107  160.3976 C   0  0  0  0  0  0  0  0  0  0  0  0
  125.9847  135.2774  161.5867 C   0  0  0  0  0  0  0  0  0  0  0  0
  125.3537  135.3589  162.8400 C   0  0  0  0  0  0  0  0  0  0  0  0
  126.1082  135.4226  163.9707 C   0  0  0  0  0  0  0  0  0  0  0  0
  127.5004  135.4087  163.9063 C   0  0  0  0  0  0  0  0  0  0  0  0
  128.1459  135.3301  162.7108 C   0  0  0  0  0  0  0  0  0  0  0  0
  127.4004  135.2628  161.5212 C   0  0  0  0  0  0  0  0  0  0  0  0
  130.2508  133.6483  156.8705 N   0  0  0  0  0  0  0  0  0  0  0  0
  130.5487  134.3307  156.2488 H   0  0  0  0  0  0  0  0  0  0  0  0
  130.8251  130.3628  155.2273 C   0  0  0  0  0  0  0  0  0  0  0  0
  131.0781  129.7657  154.0105 C   0  0  0  0  0  0  0  0  0  0  0  0
  131.0575  130.3832  150.7806 H   0  0  0  0  0  0  0  0  0  0  0  0
  131.4727  128.9589  151.5689 H   0  0  0  0  0  0  0  0  0  0  0  0
  130.3542  132.3656  151.9646 H   0  0  0  0  0  0  0  0  0  0  0  0
  129.8916  133.4342  154.1304 H   0  0  0  0  0  0  0  0  0  0  0  0
  129.4563  130.6507  157.8088 H   0  0  0  0  0  0  0  0  0  0  0  0
  130.2187  135.8731  158.2961 H   0  0  0  0  0  0  0  0  0  0  0  0
  129.5133  137.3424  160.7442 H   0  0  0  0  0  0  0  0  0  0  0  0
  131.3130  138.5180  161.8011 H   0  0  0  0  0  0  0  0  0  0  0  0
  131.6482  137.4627  163.1957 H   0  0  0  0  0  0  0  0  0  0  0  0
  135.0248  136.9611  161.3445 H   0  0  0  0  0  0  0  0  0  0  0  0
  133.6190  135.5770  159.7220 H   0  0  0  0  0  0  0  0  0  0  0  0
  134.2622  134.7261  161.1457 H   0  0  0  0  0  0  0  0  0  0  0  0
  127.7639  135.0568  158.1754 H   0  0  0  0  0  0  0  0  0  0  0  0
  125.3094  135.0821  158.2890 H   0  0  0  0  0  0  0  0  0  0  0  0
  124.1599  135.2252  160.4320 H   0  0  0  0  0  0  0  0  0  0  0  0
  124.2757  135.3714  162.9053 H   0  0  0  0  0  0  0  0  0  0  0  0
  125.6209  135.4852  164.9326 H   0  0  0  0  0  0  0  0  0  0  0  0
  128.0757  135.4606  164.8189 H   0  0  0  0  0  0  0  0  0  0  0  0
  129.2252  135.3197  162.6763 H   0  0  0  0  0  0  0  0  0  0  0  0
  130.9590  129.8040  156.1418 H   0  0  0  0  0  0  0  0  0  0  0  0
  131.4103  128.7389  153.9719 H   0  0  0  0  0  0  0  0  0  0  0  0
  1  2  1  0
  1 37  1  0
  1 38  1  0
  2 36  2  0
  2  3  1  0
  3  4  2  0
  3 39  1  0
  4  5  1  0
  4 40  1  0
  5  6  1  0
  5 35  2  0
  6 33  1  0
  6  7  2  0
  7  8  1  0
  7 41  1  0
  8  9  1  0
  8 10  1  0
 10 11  1  0
 10 33  2  0
 11 12  1  0
 11 42  1  0
 12 13  1  1
 12 14  1  0
 12 23  1  0
 14 15  2  0
 14 43  1  0
 15 21  1  0
 15 16  1  0
 16 17  1  0
 16 44  1  0
 16 45  1  0
 17 18  2  0
 17 19  1  0
 19 20  1  0
 19 46  1  0
 20 21  1  0
 20 47  1  0
 20 48  1  0
 21 22  2  0
 23 32  1  0
 23 24  2  0
 24 25  1  0
 24 49  1  0
 25 26  2  0
 25 50  1  0
 26 27  1  0
 26 51  1  0
 27 32  2  0
 27 28  1  0
 28 29  2  0
 28 52  1  0
 29 30  1  0
 29 53  1  0
 30 31  2  0
 30 54  1  0
 31 32  1  0
 31 55  1  0
 33 34  1  0
 35 36  1  0
 35 56  1  0
 36 57  1  0
M  CHG  1  33   1
M  END
>  <DOCK_score>  (1) 
-57.425182

>  <SMILES>  (1) 
Nc1ccc(-c2c[nH]c(N[C@@H](C=C3CC(=O)NCC3=O)c3cccc4ccccc34)[nH+]2)cc1

$$$$
