FC(F)(F)[C@H](Cc1ccc(Cl)cc1)N1CC[NH+](Cc2ccc(Oc3ccccc3)cc2)CC1
     RDKit          3D

 60 63  0  0  1  0  0  0  0  0999 V2000
  130.4319  129.1554  156.6855 F   0  0  0  0  0  0  0  0  0  0  0  0
  130.3917  130.1686  157.6495 C   0  0  0  0  0  0  0  0  0  0  0  0
  131.6393  130.2669  158.2748 F   0  0  0  0  0  0  0  0  0  0  0  0
  129.4144  129.8660  158.6037 F   0  0  0  0  0  0  0  0  0  0  0  0
  130.0524  131.5000  156.9763 C   0  0  2  0  0  0  0  0  0  0  0  0
  129.0805  131.4234  156.4889 H   0  0  0  0  0  0  0  0  0  0  0  0
  131.1214  131.8310  155.9329 C   0  0  0  0  0  0  0  0  0  0  0  0
  130.8519  131.0500  154.6725 C   0  0  0  0  0  0  0  0  0  0  0  0
  131.4115  129.7973  154.5028 C   0  0  0  0  0  0  0  0  0  0  0  0
  131.1600  129.0784  153.3495 C   0  0  0  0  0  0  0  0  0  0  0  0
  130.3574  129.6172  152.3598 C   0  0  0  0  0  0  0  0  0  0  0  0
  130.0474  128.7180  150.9077 Cl  0  0  0  0  0  0  0  0  0  0  0  0
  129.8023  130.8733  152.5278 C   0  0  0  0  0  0  0  0  0  0  0  0
  130.0498  131.5891  153.6840 C   0  0  0  0  0  0  0  0  0  0  0  0
  130.0103  132.5638  157.9885 N   0  0  0  0  0  0  0  0  0  0  0  0
  131.3666  132.9624  158.3905 C   0  0  0  0  0  0  0  0  0  0  0  0
  131.2785  134.0271  159.4861 C   0  0  0  0  0  0  0  0  0  0  0  0
  130.5374  135.1902  158.9803 N   0  0  0  0  0  0  0  0  0  0  0  0
  131.0105  135.5644  158.1714 H   0  0  0  0  0  0  0  0  0  0  0  0
  130.4684  136.2192  160.0265 C   0  0  0  0  0  0  0  0  0  0  0  0
  131.7888  136.2901  160.7492 C   0  0  0  0  0  0  0  0  0  0  0  0
  132.0071  135.5050  161.8664 C   0  0  0  0  0  0  0  0  0  0  0  0
  133.2187  135.5639  162.5274 C   0  0  0  0  0  0  0  0  0  0  0  0
  134.2128  136.4206  162.0765 C   0  0  0  0  0  0  0  0  0  0  0  0
  135.4033  136.4845  162.7282 O   0  0  0  0  0  0  0  0  0  0  0  0
  135.5307  137.3854  163.7373 C   0  0  0  0  0  0  0  0  0  0  0  0
  135.9863  138.6686  163.4701 C   0  0  0  0  0  0  0  0  0  0  0  0
  136.1098  139.5841  164.4970 C   0  0  0  0  0  0  0  0  0  0  0  0
  135.7899  139.2198  165.7919 C   0  0  0  0  0  0  0  0  0  0  0  0
  135.3410  137.9401  166.0619 C   0  0  0  0  0  0  0  0  0  0  0  0
  135.2107  137.0223  165.0379 C   0  0  0  0  0  0  0  0  0  0  0  0
  133.9890  137.2116  160.9585 C   0  0  0  0  0  0  0  0  0  0  0  0
  132.7779  137.1442  160.2975 C   0  0  0  0  0  0  0  0  0  0  0  0
  129.1774  134.7810  158.6060 C   0  0  0  0  0  0  0  0  0  0  0  0
  129.2478  133.7228  157.5031 C   0  0  0  0  0  0  0  0  0  0  0  0
  131.0953  132.8980  155.7118 H   0  0  0  0  0  0  0  0  0  0  0  0
  132.1040  131.5646  156.3223 H   0  0  0  0  0  0  0  0  0  0  0  0
  132.0416  129.3787  155.2735 H   0  0  0  0  0  0  0  0  0  0  0  0
  131.5937  128.0978  153.2190 H   0  0  0  0  0  0  0  0  0  0  0  0
  129.1759  131.2947  151.7554 H   0  0  0  0  0  0  0  0  0  0  0  0
  129.6167  132.5697  153.8149 H   0  0  0  0  0  0  0  0  0  0  0  0
  131.8962  133.3698  157.5293 H   0  0  0  0  0  0  0  0  0  0  0  0
  131.9039  132.0934  158.7703 H   0  0  0  0  0  0  0  0  0  0  0  0
  132.2833  134.3344  159.7757 H   0  0  0  0  0  0  0  0  0  0  0  0
  130.7608  133.6151  160.3522 H   0  0  0  0  0  0  0  0  0  0  0  0
  130.2508  137.1856  159.5717 H   0  0  0  0  0  0  0  0  0  0  0  0
  129.6797  135.9650  160.7346 H   0  0  0  0  0  0  0  0  0  0  0  0
  131.2312  134.8423  162.2200 H   0  0  0  0  0  0  0  0  0  0  0  0
  133.3903  134.9473  163.3973 H   0  0  0  0  0  0  0  0  0  0  0  0
  136.2406  138.9522  162.4597 H   0  0  0  0  0  0  0  0  0  0  0  0
  136.4609  140.5842  164.2891 H   0  0  0  0  0  0  0  0  0  0  0  0
  135.8912  139.9358  166.5941 H   0  0  0  0  0  0  0  0  0  0  0  0
  135.0926  137.6577  167.0743 H   0  0  0  0  0  0  0  0  0  0  0  0
  134.8604  136.0226  165.2492 H   0  0  0  0  0  0  0  0  0  0  0  0
  134.7609  137.8793  160.6056 H   0  0  0  0  0  0  0  0  0  0  0  0
  132.6032  137.7596  159.4273 H   0  0  0  0  0  0  0  0  0  0  0  0
  128.6704  134.3650  159.4767 H   0  0  0  0  0  0  0  0  0  0  0  0
  128.6243  135.6472  158.2429 H   0  0  0  0  0  0  0  0  0  0  0  0
  129.7426  134.1427  156.6273 H   0  0  0  0  0  0  0  0  0  0  0  0
  128.2392  133.4083  157.2352 H   0  0  0  0  0  0  0  0  0  0  0  0
  1  2  1  0
  2  3  1  0
  2  4  1  0
  2  5  1  0
  5  6  1  6
  5  7  1  0
  5 15  1  0
  7  8  1  0
  7 36  1  0
  7 37  1  0
  8 14  1  0
  8  9  2  0
  9 10  1  0
  9 38  1  0
 10 11  2  0
 10 39  1  0
 11 12  1  0
 11 13  1  0
 13 14  2  0
 13 40  1  0
 14 41  1  0
 15 35  1  0
 15 16  1  0
 16 17  1  0
 16 42  1  0
 16 43  1  0
 17 18  1  0
 17 44  1  0
 17 45  1  0
 18 19  1  0
 18 20  1  0
 18 34  1  0
 20 21  1  0
 20 46  1  0
 20 47  1  0
 21 33  1  0
 21 22  2  0
 22 23  1  0
 22 48  1  0
 23 24  2  0
 23 49  1  0
 24 25  1  0
 24 32  1  0
 25 26  1  0
 26 31  1  0
 26 27  2  0
 27 28  1  0
 27 50  1  0
 28 29  2  0
 28 51  1  0
 29 30  1  0
 29 52  1  0
 30 31  2  0
 30 53  1  0
 31 54  1  0
 32 33  2  0
 32 55  1  0
 33 56  1  0
 34 35  1  0
 34 57  1  0
 34 58  1  0
 35 59  1  0
 35 60  1  0
M  CHG  1  18   1
M  END
>  <DOCK_score>  (1) 
-57.682243

>  <SMILES>  (1) 
FC(F)(F)[C@H](Cc1ccc(Cl)cc1)N1CC[NH+](Cc2ccc(Oc3ccccc3)cc2)CC1

$$$$
