O=C1SCC[C@@H]1[NH+]=C(NC1CCOCC1)NC1CC=C(CC2CCOCC2)C1
     RDKit          3D

 62 65  0  0  1  0  0  0  0  0999 V2000
  126.1073  136.0810  161.2890 O   0  0  0  0  0  0  0  0  0  0  0  0
  126.0541  134.9982  160.7442 C   0  0  0  0  0  0  0  0  0  0  0  0
  124.8951  133.7711  161.0615 S   0  0  0  0  0  0  0  0  0  0  0  0
  125.5328  132.5281  159.8961 C   0  0  0  0  0  0  0  0  0  0  0  0
  126.9789  132.9759  159.6123 C   0  0  0  0  0  0  0  0  0  0  0  0
  126.9925  134.5040  159.6771 C   0  0  2  0  0  0  0  0  0  0  0  0
  126.6827  134.9073  158.7130 H   0  0  0  0  0  0  0  0  0  0  0  0
  128.3508  134.9627  159.9782 N   0  0  0  0  0  0  0  0  0  0  0  0
  128.5175  135.4987  160.7693 H   0  0  0  0  0  0  0  0  0  0  0  0
  129.3353  134.6504  159.1831 C   0  0  0  0  0  0  0  0  0  0  0  0
  129.0990  133.8908  158.0619 N   0  0  0  0  0  0  0  0  0  0  0  0
  130.1444  133.0046  157.5438 C   0  0  0  0  0  0  0  0  0  0  0  0
  129.6250  132.2694  156.3044 C   0  0  0  0  0  0  0  0  0  0  0  0
  130.6946  131.2886  155.8169 C   0  0  0  0  0  0  0  0  0  0  0  0
  131.0205  130.3793  156.8699 O   0  0  0  0  0  0  0  0  0  0  0  0
  131.5555  131.0061  158.0374 C   0  0  0  0  0  0  0  0  0  0  0  0
  130.5205  131.9754  158.6142 C   0  0  0  0  0  0  0  0  0  0  0  0
  130.6101  135.0809  159.4657 N   0  0  0  0  0  0  0  0  0  0  0  0
  130.8619  135.8904  160.6605 C   0  0  2  0  0  0  0  0  0  0  0  0
  130.2122  137.2877  160.5312 C   0  0  0  0  0  0  0  0  0  0  0  0
  131.3049  138.1693  159.9730 C   0  0  0  0  0  0  0  0  0  0  0  0
  132.4758  137.6082  160.1069 C   0  0  0  0  0  0  0  0  0  0  0  0
  133.7736  138.2250  159.6526 C   0  0  0  0  0  0  0  0  0  0  0  0
  134.3661  139.0613  160.7886 C   0  0  0  0  0  0  0  0  0  0  0  0
  135.3806  140.0566  160.2171 C   0  0  0  0  0  0  0  0  0  0  0  0
  136.0251  140.8337  161.3679 C   0  0  0  0  0  0  0  0  0  0  0  0
  136.6412  139.9166  162.2742 O   0  0  0  0  0  0  0  0  0  0  0  0
  135.7327  138.9920  162.8759 C   0  0  0  0  0  0  0  0  0  0  0  0
  135.0765  138.1408  161.7858 C   0  0  0  0  0  0  0  0  0  0  0  0
  132.3591  136.2589  160.7769 C   0  0  0  0  0  0  0  0  0  0  0  0
  124.9459  132.5309  158.9776 H   0  0  0  0  0  0  0  0  0  0  0  0
  125.5231  131.5381  160.3522 H   0  0  0  0  0  0  0  0  0  0  0  0
  127.2840  132.6425  158.6203 H   0  0  0  0  0  0  0  0  0  0  0  0
  127.6506  132.5653  160.3663 H   0  0  0  0  0  0  0  0  0  0  0  0
  128.2402  133.9414  157.6139 H   0  0  0  0  0  0  0  0  0  0  0  0
  131.0228  133.5930  157.2790 H   0  0  0  0  0  0  0  0  0  0  0  0
  128.7177  131.7218  156.5593 H   0  0  0  0  0  0  0  0  0  0  0  0
  129.4069  132.9913  155.5174 H   0  0  0  0  0  0  0  0  0  0  0  0
  131.5876  131.8408  155.5240 H   0  0  0  0  0  0  0  0  0  0  0  0
  130.3142  130.7319  154.9605 H   0  0  0  0  0  0  0  0  0  0  0  0
  132.4599  131.5543  157.7735 H   0  0  0  0  0  0  0  0  0  0  0  0
  131.7953  130.2458  158.7807 H   0  0  0  0  0  0  0  0  0  0  0  0
  130.9429  132.4870  159.4790 H   0  0  0  0  0  0  0  0  0  0  0  0
  129.6311  131.4225  158.9165 H   0  0  0  0  0  0  0  0  0  0  0  0
  131.3428  134.8484  158.8741 H   0  0  0  0  0  0  0  0  0  0  0  0
  130.5140  135.3786  161.5577 H   0  0  0  0  0  0  0  0  0  0  0  0
  129.3661  137.2510  159.8450 H   0  0  0  0  0  0  0  0  0  0  0  0
  129.8922  137.6494  161.5084 H   0  0  0  0  0  0  0  0  0  0  0  0
  131.1390  139.1365  159.5220 H   0  0  0  0  0  0  0  0  0  0  0  0
  134.4743  137.4363  159.3783 H   0  0  0  0  0  0  0  0  0  0  0  0
  133.5895  138.8640  158.7888 H   0  0  0  0  0  0  0  0  0  0  0  0
  133.5685  139.6030  161.2968 H   0  0  0  0  0  0  0  0  0  0  0  0
  136.1504  139.5160  159.6664 H   0  0  0  0  0  0  0  0  0  0  0  0
  134.8725  140.7509  159.5481 H   0  0  0  0  0  0  0  0  0  0  0  0
  135.2606  141.4058  161.8932 H   0  0  0  0  0  0  0  0  0  0  0  0
  136.7790  141.5134  160.9702 H   0  0  0  0  0  0  0  0  0  0  0  0
  134.9643  139.5401  163.4211 H   0  0  0  0  0  0  0  0  0  0  0  0
  136.2758  138.3450  163.5647 H   0  0  0  0  0  0  0  0  0  0  0  0
  134.3508  137.4652  162.2386 H   0  0  0  0  0  0  0  0  0  0  0  0
  135.8394  137.5608  161.2665 H   0  0  0  0  0  0  0  0  0  0  0  0
  132.6528  136.3284  161.8244 H   0  0  0  0  0  0  0  0  0  0  0  0
  132.9729  135.5228  160.2576 H   0  0  0  0  0  0  0  0  0  0  0  0
  1  2  2  0
  2  6  1  0
  2  3  1  0
  3  4  1  0
  4  5  1  0
  4 31  1  0
  4 32  1  0
  5  6  1  0
  5 33  1  0
  5 34  1  0
  6  7  1  6
  6  8  1  0
  8  9  1  0
 10  8  2  0
 10 11  1  0
 10 18  1  0
 11 12  1  0
 11 35  1  0
 12 17  1  0
 12 13  1  0
 12 36  1  0
 13 14  1  0
 13 37  1  0
 13 38  1  0
 14 15  1  0
 14 39  1  0
 14 40  1  0
 15 16  1  0
 16 17  1  0
 16 41  1  0
 16 42  1  0
 17 43  1  0
 17 44  1  0
 18 19  1  0
 18 45  1  0
 19 30  1  0
 19 20  1  0
 19 46  1  1
 20 21  1  0
 20 47  1  0
 20 48  1  0
 21 22  2  0
 21 49  1  0
 22 23  1  0
 22 30  1  0
 23 24  1  0
 23 50  1  0
 23 51  1  0
 24 29  1  0
 24 25  1  0
 24 52  1  0
 25 26  1  0
 25 53  1  0
 25 54  1  0
 26 27  1  0
 26 55  1  0
 26 56  1  0
 27 28  1  0
 28 29  1  0
 28 57  1  0
 28 58  1  0
 29 59  1  0
 29 60  1  0
 30 61  1  0
 30 62  1  0
M  CHG  1   8   1
M  END
>  <DOCK_score>  (1) 
-43.082001

>  <SMILES>  (1) 
O=C1SCC[C@@H]1[NH+]=C(NC1CCOCC1)NC1CC=C(CC2CCOCC2)C1

$$$$
