Nc1ccc(-c2c[nH]c(N[C@@H](c3ccc(C4=CCC4)cc3)C3CC3)[nH+]2)cc1
     RDKit          3D

 52 56  0  0  1  0  0  0  0  0999 V2000
  131.0028  129.7757  151.1316 N   0  0  0  0  0  0  0  0  0  0  0  0
  130.7954  130.3980  152.3651 C   0  0  0  0  0  0  0  0  0  0  0  0
  130.4799  131.7506  152.4153 C   0  0  0  0  0  0  0  0  0  0  0  0
  130.2753  132.3671  153.6316 C   0  0  0  0  0  0  0  0  0  0  0  0
  130.3844  131.6326  154.8113 C   0  0  0  0  0  0  0  0  0  0  0  0
  130.1646  132.2936  156.1211 C   0  0  0  0  0  0  0  0  0  0  0  0
  129.6803  131.7031  157.2416 C   0  0  0  0  0  0  0  0  0  0  0  0
  129.6444  132.6702  158.2180 N   0  0  0  0  0  0  0  0  0  0  0  0
  129.3471  132.5515  159.1337 H   0  0  0  0  0  0  0  0  0  0  0  0
  130.0995  133.8255  157.6617 C   0  0  0  0  0  0  0  0  0  0  0  0
  130.2179  135.0419  158.3123 N   0  0  0  0  0  0  0  0  0  0  0  0
  129.3041  135.3794  159.4065 C   0  0  1  0  0  0  0  0  0  0  0  0
  129.1342  134.4968  160.0231 H   0  0  0  0  0  0  0  0  0  0  0  0
  129.9108  136.4716  160.2489 C   0  0  0  0  0  0  0  0  0  0  0  0
  130.2158  137.6938  159.6768 C   0  0  0  0  0  0  0  0  0  0  0  0
  130.7715  138.6980  160.4427 C   0  0  0  0  0  0  0  0  0  0  0  0
  131.0259  138.4786  161.7971 C   0  0  0  0  0  0  0  0  0  0  0  0
  131.6210  139.5499  162.6235 C   0  0  0  0  0  0  0  0  0  0  0  0
  131.9987  140.7813  162.3592 C   0  0  0  0  0  0  0  0  0  0  0  0
  132.4511  141.0547  163.7618 C   0  0  0  0  0  0  0  0  0  0  0  0
  132.0075  139.6304  164.0694 C   0  0  0  0  0  0  0  0  0  0  0  0
  130.7213  137.2417  162.3667 C   0  0  0  0  0  0  0  0  0  0  0  0
  130.1610  136.2476  161.5910 C   0  0  0  0  0  0  0  0  0  0  0  0
  127.9721  135.8616  158.8282 C   0  0  0  0  0  0  0  0  0  0  0  0
  126.7055  135.5742  159.6368 C   0  0  0  0  0  0  0  0  0  0  0  0
  126.9835  134.7970  158.3487 C   0  0  0  0  0  0  0  0  0  0  0  0
  130.4126  133.5957  156.4098 N   0  0  0  0  0  0  0  0  0  0  0  0
  130.7655  134.2520  155.7887 H   0  0  0  0  0  0  0  0  0  0  0  0
  130.7061  130.2772  154.7587 C   0  0  0  0  0  0  0  0  0  0  0  0
  130.9044  129.6636  153.5399 C   0  0  0  0  0  0  0  0  0  0  0  0
  130.9267  130.2875  150.3112 H   0  0  0  0  0  0  0  0  0  0  0  0
  131.2230  128.8316  151.0956 H   0  0  0  0  0  0  0  0  0  0  0  0
  130.3954  132.3193  151.5010 H   0  0  0  0  0  0  0  0  0  0  0  0
  130.0301  133.4183  153.6703 H   0  0  0  0  0  0  0  0  0  0  0  0
  129.3840  130.6701  157.3477 H   0  0  0  0  0  0  0  0  0  0  0  0
  130.9060  135.6706  158.0437 H   0  0  0  0  0  0  0  0  0  0  0  0
  130.0188  137.8621  158.6284 H   0  0  0  0  0  0  0  0  0  0  0  0
  131.0096  139.6514  159.9949 H   0  0  0  0  0  0  0  0  0  0  0  0
  131.9868  141.3786  161.4595 H   0  0  0  0  0  0  0  0  0  0  0  0
  133.5255  141.2143  163.8540 H   0  0  0  0  0  0  0  0  0  0  0  0
  131.8624  141.8163  164.2731 H   0  0  0  0  0  0  0  0  0  0  0  0
  131.1617  139.5718  164.7544 H   0  0  0  0  0  0  0  0  0  0  0  0
  132.8257  138.9644  164.3435 H   0  0  0  0  0  0  0  0  0  0  0  0
  130.9199  137.0642  163.4133 H   0  0  0  0  0  0  0  0  0  0  0  0
  129.9210  135.2913  162.0316 H   0  0  0  0  0  0  0  0  0  0  0  0
  128.0128  136.7978  158.2717 H   0  0  0  0  0  0  0  0  0  0  0  0
  126.8211  135.0417  160.5808 H   0  0  0  0  0  0  0  0  0  0  0  0
  125.9125  136.3217  159.6126 H   0  0  0  0  0  0  0  0  0  0  0  0
  126.3732  135.0330  157.4769 H   0  0  0  0  0  0  0  0  0  0  0  0
  127.2818  133.7531  158.4452 H   0  0  0  0  0  0  0  0  0  0  0  0
  130.7960  129.7072  155.6716 H   0  0  0  0  0  0  0  0  0  0  0  0
  131.1492  128.6125  153.4984 H   0  0  0  0  0  0  0  0  0  0  0  0
  1  2  1  0
  1 31  1  0
  1 32  1  0
  2 30  2  0
  2  3  1  0
  3  4  2  0
  3 33  1  0
  4  5  1  0
  4 34  1  0
  5  6  1  0
  5 29  2  0
  6 27  1  0
  6  7  2  0
  7  8  1  0
  7 35  1  0
  8  9  1  0
  8 10  1  0
 10 11  1  0
 10 27  2  0
 11 12  1  0
 11 36  1  0
 12 13  1  1
 12 14  1  0
 12 24  1  0
 14 23  1  0
 14 15  2  0
 15 16  1  0
 15 37  1  0
 16 17  2  0
 16 38  1  0
 17 18  1  0
 17 22  1  0
 18 21  1  0
 18 19  2  0
 19 20  1  0
 19 39  1  0
 20 21  1  0
 20 40  1  0
 20 41  1  0
 21 42  1  0
 21 43  1  0
 22 23  2  0
 22 44  1  0
 23 45  1  0
 24 26  1  0
 24 25  1  0
 24 46  1  0
 25 26  1  0
 25 47  1  0
 25 48  1  0
 26 49  1  0
 26 50  1  0
 27 28  1  0
 29 30  1  0
 29 51  1  0
 30 52  1  0
M  CHG  1  27   1
M  END
>  <DOCK_score>  (1) 
-58.481113

>  <SMILES>  (1) 
Nc1ccc(-c2c[nH]c(N[C@@H](c3ccc(C4=CCC4)cc3)C3CC3)[nH+]2)cc1

$$$$
