C[C@@H]([NH2+]C1C=CCCC1)c1cnc(SCC=CCl)c(NC2CCC2)c1
     RDKit          3D

 54 56  0  0  1  0  0  0  0  0999 V2000
  132.2266  134.7488  160.1420 C   0  0  0  0  0  0  0  0  0  0  0  0
  131.5681  136.0020  160.7220 C   0  0  1  0  0  0  0  0  0  0  0  0
  131.8011  136.0764  161.7842 H   0  0  0  0  0  0  0  0  0  0  0  0
  132.0775  137.1904  160.0247 N   0  0  0  0  0  0  0  0  0  0  0  0
  132.1650  136.9903  159.0395 H   0  0  0  0  0  0  0  0  0  0  0  0
  131.4362  137.9582  160.1563 H   0  0  0  0  0  0  0  0  0  0  0  0
  133.3928  137.5517  160.5698 C   0  0  2  0  0  0  0  0  0  0  0  0
  133.2095  138.2886  161.8642 C   0  0  0  0  0  0  0  0  0  0  0  0
  133.8800  139.3440  162.1991 C   0  0  0  0  0  0  0  0  0  0  0  0
  134.9272  139.9841  161.3356 C   0  0  0  0  0  0  0  0  0  0  0  0
  135.3806  139.0090  160.2469 C   0  0  0  0  0  0  0  0  0  0  0  0
  134.1348  138.4325  159.5622 C   0  0  0  0  0  0  0  0  0  0  0  0
  130.0747  135.9145  160.5403 C   0  0  0  0  0  0  0  0  0  0  0  0
  129.5427  135.2266  159.4687 C   0  0  0  0  0  0  0  0  0  0  0  0
  128.2365  135.1461  159.2929 N   0  0  0  0  0  0  0  0  0  0  0  0
  127.3860  135.7167  160.1309 C   0  0  0  0  0  0  0  0  0  0  0  0
  125.6526  135.5764  159.8476 S   0  0  0  0  0  0  0  0  0  0  0  0
  125.5044  133.9750  159.0087 C   0  0  0  0  0  0  0  0  0  0  0  0
  125.3100  132.8871  160.0334 C   0  0  0  0  0  0  0  0  0  0  0  0
  126.1767  131.9067  160.1213 C   0  0  0  0  0  0  0  0  0  0  0  0
  125.9529  130.6536  161.3016 Cl  0  0  0  0  0  0  0  0  0  0  0  0
  127.8522  136.4300  161.2387 C   0  0  0  0  0  0  0  0  0  0  0  0
  126.9527  137.0337  162.1254 N   0  0  0  0  0  0  0  0  0  0  0  0
  127.4537  137.7788  163.2831 C   0  0  0  0  0  0  0  0  0  0  0  0
  126.3481  138.2237  164.2548 C   0  0  0  0  0  0  0  0  0  0  0  0
  127.1131  139.5504  164.3939 C   0  0  0  0  0  0  0  0  0  0  0  0
  127.6946  139.2706  162.9980 C   0  0  0  0  0  0  0  0  0  0  0  0
  129.2212  136.5303  161.4464 C   0  0  0  0  0  0  0  0  0  0  0  0
  131.9936  134.6744  159.0797 H   0  0  0  0  0  0  0  0  0  0  0  0
  133.3069  134.8121  160.2734 H   0  0  0  0  0  0  0  0  0  0  0  0
  131.8488  133.8670  160.6594 H   0  0  0  0  0  0  0  0  0  0  0  0
  133.9702  136.6451  160.7512 H   0  0  0  0  0  0  0  0  0  0  0  0
  132.4720  137.9154  162.5594 H   0  0  0  0  0  0  0  0  0  0  0  0
  133.6730  139.7917  163.1599 H   0  0  0  0  0  0  0  0  0  0  0  0
  135.7828  140.2617  161.9511 H   0  0  0  0  0  0  0  0  0  0  0  0
  134.5120  140.8778  160.8700 H   0  0  0  0  0  0  0  0  0  0  0  0
  135.9587  138.2014  160.6960 H   0  0  0  0  0  0  0  0  0  0  0  0
  135.9907  139.5364  159.5135 H   0  0  0  0  0  0  0  0  0  0  0  0
  134.4336  137.8336  158.7020 H   0  0  0  0  0  0  0  0  0  0  0  0
  133.4840  139.2437  159.2357 H   0  0  0  0  0  0  0  0  0  0  0  0
  130.2048  134.7471  158.7630 H   0  0  0  0  0  0  0  0  0  0  0  0
  124.6483  133.9959  158.3343 H   0  0  0  0  0  0  0  0  0  0  0  0
  126.4119  133.7784  158.4379 H   0  0  0  0  0  0  0  0  0  0  0  0
  124.4570  132.9149  160.6951 H   0  0  0  0  0  0  0  0  0  0  0  0
  127.0297  131.8790  159.4596 H   0  0  0  0  0  0  0  0  0  0  0  0
  125.9976  136.9587  161.9733 H   0  0  0  0  0  0  0  0  0  0  0  0
  128.2943  137.2863  163.7717 H   0  0  0  0  0  0  0  0  0  0  0  0
  125.3705  138.3305  163.7847 H   0  0  0  0  0  0  0  0  0  0  0  0
  126.3149  137.6404  165.1751 H   0  0  0  0  0  0  0  0  0  0  0  0
  127.8600  139.5425  165.1877 H   0  0  0  0  0  0  0  0  0  0  0  0
  126.4652  140.4263  164.4295 H   0  0  0  0  0  0  0  0  0  0  0  0
  128.7484  139.5326  162.9036 H   0  0  0  0  0  0  0  0  0  0  0  0
  127.0862  139.6633  162.1833 H   0  0  0  0  0  0  0  0  0  0  0  0
  129.6134  137.0748  162.2927 H   0  0  0  0  0  0  0  0  0  0  0  0
  1  2  1  0
  1 29  1  0
  1 30  1  0
  1 31  1  0
  2  3  1  1
  2  4  1  0
  2 13  1  0
  4  5  1  0
  4  6  1  0
  4  7  1  0
  7 12  1  0
  7  8  1  0
  7 32  1  1
  8  9  2  0
  8 33  1  0
  9 10  1  0
  9 34  1  0
 10 11  1  0
 10 35  1  0
 10 36  1  0
 11 12  1  0
 11 37  1  0
 11 38  1  0
 12 39  1  0
 12 40  1  0
 13 28  1  0
 13 14  2  0
 14 15  1  0
 14 41  1  0
 15 16  2  0
 16 17  1  0
 16 22  1  0
 17 18  1  0
 18 19  1  0
 18 42  1  0
 18 43  1  0
 19 20  2  0
 19 44  1  0
 20 21  1  0
 20 45  1  0
 22 23  1  0
 22 28  2  0
 23 24  1  0
 23 46  1  0
 24 27  1  0
 24 25  1  0
 24 47  1  0
 25 26  1  0
 25 48  1  0
 25 49  1  0
 26 27  1  0
 26 50  1  0
 26 51  1  0
 27 52  1  0
 27 53  1  0
 28 54  1  0
M  CHG  1   4   1
M  END
>  <DOCK_score>  (1) 
-42.330097

>  <SMILES>  (1) 
C[C@@H]([NH2+]C1C=CCCC1)c1cnc(SCC=CCl)c(NC2CCC2)c1

$$$$
