CCNc1ccc(Nc2ccc(-c3n[nH]cc3C[NH2+][C@H]3CC=CCC3)o2)cc1
     RDKit          3D

 56 59  0  0  1  0  0  0  0  0999 V2000
  129.8648  140.4495  167.2608 C   0  0  0  0  0  0  0  0  0  0  0  0
  128.8438  139.9753  166.2249 C   0  0  0  0  0  0  0  0  0  0  0  0
  129.2026  138.6314  165.7652 N   0  0  0  0  0  0  0  0  0  0  0  0
  128.4110  137.9841  164.8096 C   0  0  0  0  0  0  0  0  0  0  0  0
  128.7543  136.7123  164.3695 C   0  0  0  0  0  0  0  0  0  0  0  0
  127.9708  136.0717  163.4305 C   0  0  0  0  0  0  0  0  0  0  0  0
  126.8449  136.7034  162.9179 C   0  0  0  0  0  0  0  0  0  0  0  0
  126.0538  136.0563  161.9616 N   0  0  0  0  0  0  0  0  0  0  0  0
  126.6309  135.1492  161.0806 C   0  0  0  0  0  0  0  0  0  0  0  0
  126.0102  134.0774  160.5270 C   0  0  0  0  0  0  0  0  0  0  0  0
  126.9552  133.4355  159.7030 C   0  0  0  0  0  0  0  0  0  0  0  0
  128.1080  134.1497  159.7953 C   0  0  0  0  0  0  0  0  0  0  0  0
  129.3738  133.8440  159.0973 C   0  0  0  0  0  0  0  0  0  0  0  0
  129.5818  132.8363  158.2726 N   0  0  0  0  0  0  0  0  0  0  0  0
  130.9087  132.9046  157.8290 N   0  0  0  0  0  0  0  0  0  0  0  0
  131.3349  132.2883  157.2131 H   0  0  0  0  0  0  0  0  0  0  0  0
  131.4919  133.9771  158.4070 C   0  0  0  0  0  0  0  0  0  0  0  0
  130.5728  134.5819  159.1897 C   0  0  0  0  0  0  0  0  0  0  0  0
  130.7902  135.8219  160.0179 C   0  0  0  0  0  0  0  0  0  0  0  0
  132.1717  136.2906  159.8446 N   0  0  0  0  0  0  0  0  0  0  0  0
  132.8112  135.5699  160.1437 H   0  0  0  0  0  0  0  0  0  0  0  0
  132.3352  136.5029  158.8718 H   0  0  0  0  0  0  0  0  0  0  0  0
  132.3836  137.4993  160.6520 C   0  0  1  0  0  0  0  0  0  0  0  0
  131.8828  137.3897  161.6140 H   0  0  0  0  0  0  0  0  0  0  0  0
  133.8824  137.7137  160.8737 C   0  0  0  0  0  0  0  0  0  0  0  0
  134.1288  139.0717  161.4627 C   0  0  0  0  0  0  0  0  0  0  0  0
  133.2662  140.0368  161.4463 C   0  0  0  0  0  0  0  0  0  0  0  0
  131.8953  139.9290  160.8453 C   0  0  0  0  0  0  0  0  0  0  0  0
  131.8234  138.7196  159.9103 C   0  0  0  0  0  0  0  0  0  0  0  0
  127.8965  135.1895  160.6293 O   0  0  0  0  0  0  0  0  0  0  0  0
  126.5045  137.9774  163.3541 C   0  0  0  0  0  0  0  0  0  0  0  0
  127.2852  138.6157  164.2972 C   0  0  0  0  0  0  0  0  0  0  0  0
  130.8567  140.4727  166.8093 H   0  0  0  0  0  0  0  0  0  0  0  0
  129.5978  141.4495  167.6030 H   0  0  0  0  0  0  0  0  0  0  0  0
  129.8675  139.7643  168.1086 H   0  0  0  0  0  0  0  0  0  0  0  0
  127.8519  139.9521  166.6765 H   0  0  0  0  0  0  0  0  0  0  0  0
  128.8410  140.6606  165.3773 H   0  0  0  0  0  0  0  0  0  0  0  0
  129.9888  138.1902  166.1232 H   0  0  0  0  0  0  0  0  0  0  0  0
  129.6323  136.2230  164.7649 H   0  0  0  0  0  0  0  0  0  0  0  0
  128.2358  135.0812  163.0912 H   0  0  0  0  0  0  0  0  0  0  0  0
  125.1027  136.2409  161.9136 H   0  0  0  0  0  0  0  0  0  0  0  0
  124.9861  133.7742  160.6872 H   0  0  0  0  0  0  0  0  0  0  0  0
  126.7946  132.5463  159.1115 H   0  0  0  0  0  0  0  0  0  0  0  0
  132.5132  134.2978  158.2640 H   0  0  0  0  0  0  0  0  0  0  0  0
  130.0992  136.6004  159.6948 H   0  0  0  0  0  0  0  0  0  0  0  0
  130.6135  135.5925  161.0688 H   0  0  0  0  0  0  0  0  0  0  0  0
  134.2596  136.9507  161.5546 H   0  0  0  0  0  0  0  0  0  0  0  0
  134.4038  137.6334  159.9199 H   0  0  0  0  0  0  0  0  0  0  0  0
  135.0852  139.2552  161.9295 H   0  0  0  0  0  0  0  0  0  0  0  0
  133.5507  140.9779  161.8932 H   0  0  0  0  0  0  0  0  0  0  0  0
  131.1598  139.8147  161.6416 H   0  0  0  0  0  0  0  0  0  0  0  0
  131.6770  140.8344  160.2790 H   0  0  0  0  0  0  0  0  0  0  0  0
  132.4187  138.9106  159.0173 H   0  0  0  0  0  0  0  0  0  0  0  0
  130.7865  138.5341  159.6304 H   0  0  0  0  0  0  0  0  0  0  0  0
  125.6293  138.4688  162.9554 H   0  0  0  0  0  0  0  0  0  0  0  0
  127.0208  139.6065  164.6361 H   0  0  0  0  0  0  0  0  0  0  0  0
  1  2  1  0
  1 33  1  0
  1 34  1  0
  1 35  1  0
  2  3  1  0
  2 36  1  0
  2 37  1  0
  3  4  1  0
  3 38  1  0
  4 32  2  0
  4  5  1  0
  5  6  2  0
  5 39  1  0
  6  7  1  0
  6 40  1  0
  7  8  1  0
  7 31  2  0
  8  9  1  0
  8 41  1  0
  9 30  1  0
  9 10  2  0
 10 11  1  0
 10 42  1  0
 11 12  2  0
 11 43  1  0
 12 13  1  0
 12 30  1  0
 13 18  1  0
 13 14  2  0
 14 15  1  0
 15 16  1  0
 15 17  1  0
 17 18  2  0
 17 44  1  0
 18 19  1  0
 19 20  1  0
 19 45  1  0
 19 46  1  0
 20 21  1  0
 20 22  1  0
 20 23  1  0
 23 24  1  1
 23 29  1  0
 23 25  1  0
 25 26  1  0
 25 47  1  0
 25 48  1  0
 26 27  2  0
 26 49  1  0
 27 28  1  0
 27 50  1  0
 28 29  1  0
 28 51  1  0
 28 52  1  0
 29 53  1  0
 29 54  1  0
 31 32  1  0
 31 55  1  0
 32 56  1  0
M  CHG  1  20   1
M  END
>  <DOCK_score>  (1) 
-44.367714

>  <SMILES>  (1) 
CCNc1ccc(Nc2ccc(-c3n[nH]cc3C[NH2+][C@H]3CC=CCC3)o2)cc1

$$$$
