Brc1ccccc1C[NH2+]Cc1c[nH]nc1-c1ccc(N[C@H]2CC23CCCC3)o1
     RDKit          3D

 54 58  0  0  1  0  0  0  0  0999 V2000
  133.5333  139.5724  158.4337 Br  0  0  0  0  0  0  0  0  0  0  0  0
  133.8830  138.8968  160.1650 C   0  0  0  0  0  0  0  0  0  0  0  0
  135.1678  138.9359  160.6765 C   0  0  0  0  0  0  0  0  0  0  0  0
  135.4240  138.4373  161.9397 C   0  0  0  0  0  0  0  0  0  0  0  0
  134.3954  137.9044  162.6944 C   0  0  0  0  0  0  0  0  0  0  0  0
  133.1105  137.8703  162.1860 C   0  0  0  0  0  0  0  0  0  0  0  0
  132.8534  138.3688  160.9225 C   0  0  0  0  0  0  0  0  0  0  0  0
  131.4525  138.3312  160.3682 C   0  0  0  0  0  0  0  0  0  0  0  0
  131.2438  137.0668  159.6502 N   0  0  0  0  0  0  0  0  0  0  0  0
  131.9070  136.9964  158.8932 H   0  0  0  0  0  0  0  0  0  0  0  0
  130.3058  137.0417  159.2792 H   0  0  0  0  0  0  0  0  0  0  0  0
  131.4348  135.9414  160.5749 C   0  0  0  0  0  0  0  0  0  0  0  0
  131.2207  134.6442  159.8384 C   0  0  0  0  0  0  0  0  0  0  0  0
  132.1679  133.9301  159.1936 C   0  0  0  0  0  0  0  0  0  0  0  0
  131.5788  132.8364  158.6635 N   0  0  0  0  0  0  0  0  0  0  0  0
  132.0222  132.1457  158.1464 H   0  0  0  0  0  0  0  0  0  0  0  0
  130.2182  132.8688  158.9942 N   0  0  0  0  0  0  0  0  0  0  0  0
  129.9945  133.9604  159.6994 C   0  0  0  0  0  0  0  0  0  0  0  0
  128.6924  134.3879  160.2513 C   0  0  0  0  0  0  0  0  0  0  0  0
  127.5147  133.7225  160.1196 C   0  0  0  0  0  0  0  0  0  0  0  0
  126.5404  134.4782  160.8012 C   0  0  0  0  0  0  0  0  0  0  0  0
  127.1698  135.5649  161.3139 C   0  0  0  0  0  0  0  0  0  0  0  0
  126.5712  136.5727  162.0611 N   0  0  0  0  0  0  0  0  0  0  0  0
  127.3468  137.2928  163.0740 C   0  0  1  0  0  0  0  0  0  0  0  0
  128.3736  137.5322  162.7976 H   0  0  0  0  0  0  0  0  0  0  0  0
  126.5994  138.2969  163.9552 C   0  0  0  0  0  0  0  0  0  0  0  0
  127.0681  136.9671  164.5381 C   0  0  0  0  0  0  0  0  0  0  0  0
  128.2116  136.9172  165.5663 C   0  0  0  0  0  0  0  0  0  0  0  0
  127.5695  136.2556  166.8121 C   0  0  0  0  0  0  0  0  0  0  0  0
  126.6315  135.1905  166.1905 C   0  0  0  0  0  0  0  0  0  0  0  0
  126.0622  135.8760  164.9297 C   0  0  0  0  0  0  0  0  0  0  0  0
  128.4695  135.5034  160.9776 O   0  0  0  0  0  0  0  0  0  0  0  0
  135.9715  139.3518  160.0869 H   0  0  0  0  0  0  0  0  0  0  0  0
  136.4277  138.4644  162.3376 H   0  0  0  0  0  0  0  0  0  0  0  0
  134.5958  137.5148  163.6816 H   0  0  0  0  0  0  0  0  0  0  0  0
  132.3071  137.4547  162.7762 H   0  0  0  0  0  0  0  0  0  0  0  0
  131.3107  139.1664  159.6822 H   0  0  0  0  0  0  0  0  0  0  0  0
  130.7361  138.4072  161.1861 H   0  0  0  0  0  0  0  0  0  0  0  0
  130.7184  136.0175  161.3928 H   0  0  0  0  0  0  0  0  0  0  0  0
  132.4481  135.9685  160.9758 H   0  0  0  0  0  0  0  0  0  0  0  0
  133.2138  134.1882  159.1156 H   0  0  0  0  0  0  0  0  0  0  0  0
  127.3562  132.7925  159.5937 H   0  0  0  0  0  0  0  0  0  0  0  0
  125.4917  134.2382  160.8969 H   0  0  0  0  0  0  0  0  0  0  0  0
  125.6399  136.7991  161.9117 H   0  0  0  0  0  0  0  0  0  0  0  0
  127.1348  139.1964  164.2590 H   0  0  0  0  0  0  0  0  0  0  0  0
  125.5305  138.4216  163.7813 H   0  0  0  0  0  0  0  0  0  0  0  0
  129.0352  136.3088  165.1924 H   0  0  0  0  0  0  0  0  0  0  0  0
  128.5563  137.9238  165.8034 H   0  0  0  0  0  0  0  0  0  0  0  0
  126.9983  136.9855  167.3856 H   0  0  0  0  0  0  0  0  0  0  0  0
  128.3303  135.7840  167.4341 H   0  0  0  0  0  0  0  0  0  0  0  0
  125.8285  134.9388  166.8832 H   0  0  0  0  0  0  0  0  0  0  0  0
  127.1952  134.2983  165.9178 H   0  0  0  0  0  0  0  0  0  0  0  0
  125.0933  136.3229  165.1522 H   0  0  0  0  0  0  0  0  0  0  0  0
  125.9628  135.1513  164.1216 H   0  0  0  0  0  0  0  0  0  0  0  0
  1  2  1  0
  2  7  2  0
  2  3  1  0
  3  4  2  0
  3 33  1  0
  4  5  1  0
  4 34  1  0
  5  6  2  0
  5 35  1  0
  6  7  1  0
  6 36  1  0
  7  8  1  0
  8  9  1  0
  8 37  1  0
  8 38  1  0
  9 10  1  0
  9 11  1  0
  9 12  1  0
 12 13  1  0
 12 39  1  0
 12 40  1  0
 13 18  1  0
 13 14  2  0
 14 15  1  0
 14 41  1  0
 15 16  1  0
 15 17  1  0
 17 18  2  0
 18 19  1  0
 19 32  1  0
 19 20  2  0
 20 21  1  0
 20 42  1  0
 21 22  2  0
 21 43  1  0
 22 23  1  0
 22 32  1  0
 23 24  1  0
 23 44  1  0
 24 25  1  6
 24 27  1  0
 24 26  1  0
 26 27  1  0
 26 45  1  0
 26 46  1  0
 27 31  1  0
 27 28  1  0
 28 29  1  0
 28 47  1  0
 28 48  1  0
 29 30  1  0
 29 49  1  0
 29 50  1  0
 30 31  1  0
 30 51  1  0
 30 52  1  0
 31 53  1  0
 31 54  1  0
M  CHG  1   9   1
M  END
>  <DOCK_score>  (1) 
-46.453964

>  <SMILES>  (1) 
Brc1ccccc1C[NH2+]Cc1c[nH]nc1-c1ccc(N[C@H]2CC23CCCC3)o1

$$$$
