CCc1ccc(-c2c[nH]c(N[C@@H](C3=CCCC3)C3CCCC(=O)NC3)[nH+]2)cc1
     RDKit          3D

 59 62  0  0  1  0  0  0  0  0999 V2000
  130.2396  128.1442  151.9727 C   0  0  0  0  0  0  0  0  0  0  0  0
  131.2436  129.2937  152.0791 C   0  0  0  0  0  0  0  0  0  0  0  0
  130.9693  130.0862  153.3312 C   0  0  0  0  0  0  0  0  0  0  0  0
  131.5920  129.7393  154.5161 C   0  0  0  0  0  0  0  0  0  0  0  0
  131.3490  130.4649  155.6647 C   0  0  0  0  0  0  0  0  0  0  0  0
  130.4653  131.5421  155.6314 C   0  0  0  0  0  0  0  0  0  0  0  0
  130.1958  132.3224  156.8638 C   0  0  0  0  0  0  0  0  0  0  0  0
  129.6817  131.8353  158.0203 C   0  0  0  0  0  0  0  0  0  0  0  0
  129.5980  132.8911  158.8951 N   0  0  0  0  0  0  0  0  0  0  0  0
  129.2680  132.8572  159.8066 H   0  0  0  0  0  0  0  0  0  0  0  0
  130.0639  133.9934  158.2471 C   0  0  0  0  0  0  0  0  0  0  0  0
  130.1476  135.2677  158.7815 N   0  0  0  0  0  0  0  0  0  0  0  0
  129.7125  135.5146  160.1585 C   0  0  1  0  0  0  0  0  0  0  0  0
  128.6582  135.2560  160.2582 H   0  0  0  0  0  0  0  0  0  0  0  0
  130.5287  134.6698  161.1024 C   0  0  0  0  0  0  0  0  0  0  0  0
  131.7618  134.3013  160.8850 C   0  0  0  0  0  0  0  0  0  0  0  0
  132.2883  133.4628  162.0264 C   0  0  0  0  0  0  0  0  0  0  0  0
  131.0269  133.0216  162.8045 C   0  0  0  0  0  0  0  0  0  0  0  0
  130.0291  134.1436  162.4278 C   0  0  0  0  0  0  0  0  0  0  0  0
  129.9089  136.9936  160.4980 C   0  0  1  0  0  0  0  0  0  0  0  0
  129.4255  137.2491  161.9138 C   0  0  0  0  0  0  0  0  0  0  0  0
  129.4078  138.7171  162.2998 C   0  0  0  0  0  0  0  0  0  0  0  0
  130.8305  139.2775  162.3664 C   0  0  0  0  0  0  0  0  0  0  0  0
  131.2453  139.7019  160.9733 C   0  0  0  0  0  0  0  0  0  0  0  0
  131.3452  140.8804  160.7050 O   0  0  0  0  0  0  0  0  0  0  0  0
  131.5006  138.7837  160.0401 N   0  0  0  0  0  0  0  0  0  0  0  0
  131.3900  137.3498  160.3558 C   0  0  0  0  0  0  0  0  0  0  0  0
  130.4256  133.6484  157.0355 N   0  0  0  0  0  0  0  0  0  0  0  0
  130.7962  134.2462  156.3674 H   0  0  0  0  0  0  0  0  0  0  0  0
  129.8361  131.8839  154.4356 C   0  0  0  0  0  0  0  0  0  0  0  0
  130.0910  131.1548  153.2918 C   0  0  0  0  0  0  0  0  0  0  0  0
  129.2278  128.5474  151.9333 H   0  0  0  0  0  0  0  0  0  0  0  0
  130.4380  127.5711  151.0671 H   0  0  0  0  0  0  0  0  0  0  0  0
  130.3383  127.4947  152.8426 H   0  0  0  0  0  0  0  0  0  0  0  0
  132.2551  128.8909  152.1180 H   0  0  0  0  0  0  0  0  0  0  0  0
  131.1446  129.9437  151.2088 H   0  0  0  0  0  0  0  0  0  0  0  0
  132.2729  128.9015  154.5419 H   0  0  0  0  0  0  0  0  0  0  0  0
  131.8394  130.1959  156.5885 H   0  0  0  0  0  0  0  0  0  0  0  0
  129.3929  130.8132  158.2159 H   0  0  0  0  0  0  0  0  0  0  0  0
  130.4946  135.9971  158.2443 H   0  0  0  0  0  0  0  0  0  0  0  0
  132.3311  134.5618  160.0050 H   0  0  0  0  0  0  0  0  0  0  0  0
  132.8220  132.5928  161.6439 H   0  0  0  0  0  0  0  0  0  0  0  0
  132.9415  134.0577  162.6648 H   0  0  0  0  0  0  0  0  0  0  0  0
  130.6755  132.0487  162.4609 H   0  0  0  0  0  0  0  0  0  0  0  0
  131.2133  133.0108  163.8784 H   0  0  0  0  0  0  0  0  0  0  0  0
  130.0408  134.9336  163.1787 H   0  0  0  0  0  0  0  0  0  0  0  0
  129.0240  133.7359  162.3199 H   0  0  0  0  0  0  0  0  0  0  0  0
  129.3262  137.6008  159.8053 H   0  0  0  0  0  0  0  0  0  0  0  0
  128.4159  136.8506  162.0141 H   0  0  0  0  0  0  0  0  0  0  0  0
  130.0787  136.7173  162.6058 H   0  0  0  0  0  0  0  0  0  0  0  0
  128.8362  139.2760  161.5589 H   0  0  0  0  0  0  0  0  0  0  0  0
  128.9338  138.8259  163.2753 H   0  0  0  0  0  0  0  0  0  0  0  0
  130.8539  140.1389  163.0338 H   0  0  0  0  0  0  0  0  0  0  0  0
  131.5104  138.5082  162.7326 H   0  0  0  0  0  0  0  0  0  0  0  0
  131.7613  139.0626  159.1485 H   0  0  0  0  0  0  0  0  0  0  0  0
  131.9082  137.1392  161.2914 H   0  0  0  0  0  0  0  0  0  0  0  0
  131.8316  136.7631  159.5503 H   0  0  0  0  0  0  0  0  0  0  0  0
  129.1502  132.7176  154.4041 H   0  0  0  0  0  0  0  0  0  0  0  0
  129.6043  131.4190  152.3646 H   0  0  0  0  0  0  0  0  0  0  0  0
  1  2  1  0
  1 32  1  0
  1 33  1  0
  1 34  1  0
  2  3  1  0
  2 35  1  0
  2 36  1  0
  3 31  2  0
  3  4  1  0
  4  5  2  0
  4 37  1  0
  5  6  1  0
  5 38  1  0
  6  7  1  0
  6 30  2  0
  7 28  1  0
  7  8  2  0
  8  9  1  0
  8 39  1  0
  9 10  1  0
  9 11  1  0
 11 12  1  0
 11 28  2  0
 12 13  1  0
 12 40  1  0
 13 14  1  6
 13 15  1  0
 13 20  1  0
 15 19  1  0
 15 16  2  0
 16 17  1  0
 16 41  1  0
 17 18  1  0
 17 42  1  0
 17 43  1  0
 18 19  1  0
 18 44  1  0
 18 45  1  0
 19 46  1  0
 19 47  1  0
 20 27  1  0
 20 21  1  0
 20 48  1  6
 21 22  1  0
 21 49  1  0
 21 50  1  0
 22 23  1  0
 22 51  1  0
 22 52  1  0
 23 24  1  0
 23 53  1  0
 23 54  1  0
 24 25  2  0
 24 26  1  0
 26 27  1  0
 26 55  1  0
 27 56  1  0
 27 57  1  0
 28 29  1  0
 30 31  1  0
 30 58  1  0
 31 59  1  0
M  CHG  1  28   1
M  END
>  <DOCK_score>  (1) 
-56.002228

>  <SMILES>  (1) 
CCc1ccc(-c2c[nH]c(N[C@@H](C3=CCCC3)C3CCCC(=O)NC3)[nH+]2)cc1

$$$$
