C=C/C=C/C[NH+]=C(NC[C@@H]1CC(O)C1(C)C)NC1CCCCC1
     RDKit          3D

 57 58  0  0  1  0  0  0  0  0999 V2000
  136.0380  139.3904  162.2152 C   0  0  0  0  0  0  0  0  0  0  0  0
  135.2707  138.3069  162.2684 C   0  0  0  0  0  0  0  0  0  0  0  0
  134.2709  138.0613  161.2174 C   0  0  0  0  0  0  0  0  0  0  0  0
  133.5036  136.9778  161.2705 C   0  0  0  0  0  0  0  0  0  0  0  0
  132.4795  136.7263  160.1941 C   0  0  0  0  0  0  0  0  0  0  0  0
  131.1443  136.6683  160.7944 N   0  0  0  0  0  0  0  0  0  0  0  0
  130.9494  137.1818  161.5940 H   0  0  0  0  0  0  0  0  0  0  0  0
  130.2186  135.9268  160.2541 C   0  0  0  0  0  0  0  0  0  0  0  0
  128.9655  135.8723  160.8174 N   0  0  0  0  0  0  0  0  0  0  0  0
  128.6710  136.6477  162.0251 C   0  0  0  0  0  0  0  0  0  0  0  0
  127.2180  136.4108  162.4414 C   0  0  2  0  0  0  0  0  0  0  0  0
  126.5037  136.7077  161.6733 H   0  0  0  0  0  0  0  0  0  0  0  0
  126.8811  136.9557  163.8394 C   0  0  0  0  0  0  0  0  0  0  0  0
  126.0474  135.6807  164.0493 C   0  0  1  0  0  0  0  0  0  0  0  0
  124.6905  135.8066  163.6190 O   0  0  0  0  0  0  0  0  0  0  0  0
  126.9615  135.0054  163.0107 C   0  0  0  0  0  0  0  0  0  0  0  0
  126.2168  134.0800  162.0464 C   0  0  0  0  0  0  0  0  0  0  0  0
  128.2051  134.3548  163.6199 C   0  0  0  0  0  0  0  0  0  0  0  0
  130.4949  135.1990  159.1209 N   0  0  0  0  0  0  0  0  0  0  0  0
  129.7962  133.9354  158.8732 C   0  0  0  0  0  0  0  0  0  0  0  0
  130.0834  132.9612  160.0174 C   0  0  0  0  0  0  0  0  0  0  0  0
  129.3537  131.6415  159.7588 C   0  0  0  0  0  0  0  0  0  0  0  0
  129.8425  131.0383  158.4405 C   0  0  0  0  0  0  0  0  0  0  0  0
  129.5553  132.0126  157.2963 C   0  0  0  0  0  0  0  0  0  0  0  0
  130.2850  133.3322  157.5549 C   0  0  0  0  0  0  0  0  0  0  0  0
  136.7719  139.5707  162.9867 H   0  0  0  0  0  0  0  0  0  0  0  0
  135.9275  140.0909  161.4006 H   0  0  0  0  0  0  0  0  0  0  0  0
  135.3811  137.6065  163.0830 H   0  0  0  0  0  0  0  0  0  0  0  0
  134.1605  138.7618  160.4028 H   0  0  0  0  0  0  0  0  0  0  0  0
  133.6140  136.2775  162.0851 H   0  0  0  0  0  0  0  0  0  0  0  0
  132.6970  135.7796  159.6997 H   0  0  0  0  0  0  0  0  0  0  0  0
  132.5145  137.5344  159.4633 H   0  0  0  0  0  0  0  0  0  0  0  0
  128.2766  135.3205  160.4154 H   0  0  0  0  0  0  0  0  0  0  0  0
  129.3355  136.3332  162.8298 H   0  0  0  0  0  0  0  0  0  0  0  0
  128.8227  137.7078  161.8221 H   0  0  0  0  0  0  0  0  0  0  0  0
  127.7449  137.0263  164.5004 H   0  0  0  0  0  0  0  0  0  0  0  0
  126.2856  137.8684  163.8204 H   0  0  0  0  0  0  0  0  0  0  0  0
  126.1375  135.2599  165.0508 H   0  0  0  0  0  0  0  0  0  0  0  0
  124.5844  136.2917  162.7892 H   0  0  0  0  0  0  0  0  0  0  0  0
  126.8011  133.9597  161.1342 H   0  0  0  0  0  0  0  0  0  0  0  0
  126.0717  133.1071  162.5158 H   0  0  0  0  0  0  0  0  0  0  0  0
  125.2473  134.5140  161.8024 H   0  0  0  0  0  0  0  0  0  0  0  0
  128.5092  134.9114  164.5064 H   0  0  0  0  0  0  0  0  0  0  0  0
  127.9776  133.3256  163.8973 H   0  0  0  0  0  0  0  0  0  0  0  0
  129.0144  134.3639  162.8898 H   0  0  0  0  0  0  0  0  0  0  0  0
  131.1524  135.5223  158.4853 H   0  0  0  0  0  0  0  0  0  0  0  0
  128.7234  134.1192  158.8130 H   0  0  0  0  0  0  0  0  0  0  0  0
  131.1560  132.7775  160.0776 H   0  0  0  0  0  0  0  0  0  0  0  0
  129.7350  133.3909  160.9566 H   0  0  0  0  0  0  0  0  0  0  0  0
  128.2809  131.8252  159.6986 H   0  0  0  0  0  0  0  0  0  0  0  0
  129.5582  130.9474  160.5739 H   0  0  0  0  0  0  0  0  0  0  0  0
  129.3227  130.0981  158.2562 H   0  0  0  0  0  0  0  0  0  0  0  0
  130.9152  130.8545  158.5007 H   0  0  0  0  0  0  0  0  0  0  0  0
  128.4826  132.1963  157.2361 H   0  0  0  0  0  0  0  0  0  0  0  0
  129.9036  131.5827  156.3571 H   0  0  0  0  0  0  0  0  0  0  0  0
  130.0805  134.0264  156.7397 H   0  0  0  0  0  0  0  0  0  0  0  0
  131.3577  133.1485  157.6151 H   0  0  0  0  0  0  0  0  0  0  0  0
  1  2  2  0
  1 26  1  0
  1 27  1  0
  2  3  1  0
  2 28  1  0
  3  4  2  0
  3 29  1  0
  4  5  1  0
  4 30  1  0
  5  6  1  0
  5 31  1  0
  5 32  1  0
  6  7  1  0
  8  6  2  0
  8  9  1  0
  8 19  1  0
  9 10  1  0
  9 33  1  0
 10 11  1  0
 10 34  1  0
 10 35  1  0
 11 12  1  6
 11 16  1  0
 11 13  1  0
 13 14  1  0
 13 36  1  0
 13 37  1  0
 14 15  1  0
 14 16  1  0
 14 38  1  1
 15 39  1  0
 16 17  1  0
 16 18  1  0
 17 40  1  0
 17 41  1  0
 17 42  1  0
 18 43  1  0
 18 44  1  0
 18 45  1  0
 19 20  1  0
 19 46  1  0
 20 25  1  0
 20 21  1  0
 20 47  1  0
 21 22  1  0
 21 48  1  0
 21 49  1  0
 22 23  1  0
 22 50  1  0
 22 51  1  0
 23 24  1  0
 23 52  1  0
 23 53  1  0
 24 25  1  0
 24 54  1  0
 24 55  1  0
 25 56  1  0
 25 57  1  0
M  CHG  1   6   1
M  END
>  <DOCK_score>  (1) 
-43.266953

>  <SMILES>  (1) 
C=C/C=C/C[NH+]=C(NC[C@@H]1CC(O)C1(C)C)NC1CCCCC1

$$$$
