CCc1ccc(-c2c[nH]c(NC(c3ccccc3F)c3ccccc3F)[nH+]2)cc1
     RDKit          3D

 51 54  0  0  1  0  0  0  0  0999 V2000
  130.3233  128.5062  151.7772 C   0  0  0  0  0  0  0  0  0  0  0  0
  131.4567  129.4823  152.0981 C   0  0  0  0  0  0  0  0  0  0  0  0
  131.0899  130.2967  153.3119 C   0  0  0  0  0  0  0  0  0  0  0  0
  131.4323  129.8453  154.5734 C   0  0  0  0  0  0  0  0  0  0  0  0
  131.1040  130.5896  155.6883 C   0  0  0  0  0  0  0  0  0  0  0  0
  130.4159  131.7929  155.5417 C   0  0  0  0  0  0  0  0  0  0  0  0
  130.0553  132.5946  156.7365 C   0  0  0  0  0  0  0  0  0  0  0  0
  129.2757  132.1840  157.7674 C   0  0  0  0  0  0  0  0  0  0  0  0
  129.2013  133.2317  158.6527 N   0  0  0  0  0  0  0  0  0  0  0  0
  128.7133  133.2420  159.4910 H   0  0  0  0  0  0  0  0  0  0  0  0
  129.9382  134.2528  158.1365 C   0  0  0  0  0  0  0  0  0  0  0  0
  130.1204  135.4931  158.7239 N   0  0  0  0  0  0  0  0  0  0  0  0
  129.4912  135.7928  160.0125 C   0  0  0  0  0  0  0  0  0  0  0  0
  129.8436  137.1975  160.4291 C   0  0  0  0  0  0  0  0  0  0  0  0
  129.9320  137.5193  161.7703 C   0  0  0  0  0  0  0  0  0  0  0  0
  130.2608  138.8063  162.1527 C   0  0  0  0  0  0  0  0  0  0  0  0
  130.4904  139.7760  161.1941 C   0  0  0  0  0  0  0  0  0  0  0  0
  130.3970  139.4581  159.8527 C   0  0  0  0  0  0  0  0  0  0  0  0
  130.0732  138.1676  159.4686 C   0  0  0  0  0  0  0  0  0  0  0  0
  129.9812  137.8556  158.1573 F   0  0  0  0  0  0  0  0  0  0  0  0
  127.9951  135.6680  159.8821 C   0  0  0  0  0  0  0  0  0  0  0  0
  127.3820  135.9333  158.6722 C   0  0  0  0  0  0  0  0  0  0  0  0
  126.0103  135.8133  158.5507 C   0  0  0  0  0  0  0  0  0  0  0  0
  125.2487  135.4388  159.6423 C   0  0  0  0  0  0  0  0  0  0  0  0
  125.8588  135.1786  160.8546 C   0  0  0  0  0  0  0  0  0  0  0  0
  127.2336  135.2930  160.9758 C   0  0  0  0  0  0  0  0  0  0  0  0
  127.8311  135.0391  162.1606 F   0  0  0  0  0  0  0  0  0  0  0  0
  130.4517  133.8662  156.9942 N   0  0  0  0  0  0  0  0  0  0  0  0
  131.0220  134.4042  156.4231 H   0  0  0  0  0  0  0  0  0  0  0  0
  130.0685  132.2403  154.2682 C   0  0  0  0  0  0  0  0  0  0  0  0
  130.4069  131.4905  153.1602 C   0  0  0  0  0  0  0  0  0  0  0  0
  130.1656  127.8415  152.6264 H   0  0  0  0  0  0  0  0  0  0  0  0
  129.4084  129.0641  151.5776 H   0  0  0  0  0  0  0  0  0  0  0  0
  130.5887  127.9173  150.8992 H   0  0  0  0  0  0  0  0  0  0  0  0
  132.3715  128.9250  152.2973 H   0  0  0  0  0  0  0  0  0  0  0  0
  131.6143  130.1476  151.2484 H   0  0  0  0  0  0  0  0  0  0  0  0
  131.9612  128.9106  154.6861 H   0  0  0  0  0  0  0  0  0  0  0  0
  131.3760  130.2384  156.6726 H   0  0  0  0  0  0  0  0  0  0  0  0
  128.8035  131.2184  157.8722 H   0  0  0  0  0  0  0  0  0  0  0  0
  130.6647  136.1637  158.2823 H   0  0  0  0  0  0  0  0  0  0  0  0
  129.8504  135.0899  160.7643 H   0  0  0  0  0  0  0  0  0  0  0  0
  129.7485  136.7637  162.5200 H   0  0  0  0  0  0  0  0  0  0  0  0
  130.3341  139.0557  163.2009 H   0  0  0  0  0  0  0  0  0  0  0  0
  130.7432  140.7823  161.4940 H   0  0  0  0  0  0  0  0  0  0  0  0
  130.5767  140.2155  159.1042 H   0  0  0  0  0  0  0  0  0  0  0  0
  127.9754  136.2302  157.8200 H   0  0  0  0  0  0  0  0  0  0  0  0
  125.5326  136.0164  157.6038 H   0  0  0  0  0  0  0  0  0  0  0  0
  124.1766  135.3494  159.5475 H   0  0  0  0  0  0  0  0  0  0  0  0
  125.2638  134.8857  161.7069 H   0  0  0  0  0  0  0  0  0  0  0  0
  129.5350  133.1718  154.1489 H   0  0  0  0  0  0  0  0  0  0  0  0
  130.1379  131.8360  152.1729 H   0  0  0  0  0  0  0  0  0  0  0  0
  1  2  1  0
  1 32  1  0
  1 33  1  0
  1 34  1  0
  2  3  1  0
  2 35  1  0
  2 36  1  0
  3 31  2  0
  3  4  1  0
  4  5  2  0
  4 37  1  0
  5  6  1  0
  5 38  1  0
  6  7  1  0
  6 30  2  0
  7 28  1  0
  7  8  2  0
  8  9  1  0
  8 39  1  0
  9 10  1  0
  9 11  1  0
 11 12  1  0
 11 28  2  0
 12 13  1  0
 12 40  1  0
 13 14  1  0
 13 21  1  0
 13 41  1  0
 14 19  1  0
 14 15  2  0
 15 16  1  0
 15 42  1  0
 16 17  2  0
 16 43  1  0
 17 18  1  0
 17 44  1  0
 18 19  2  0
 18 45  1  0
 19 20  1  0
 21 26  1  0
 21 22  2  0
 22 23  1  0
 22 46  1  0
 23 24  2  0
 23 47  1  0
 24 25  1  0
 24 48  1  0
 25 26  2  0
 25 49  1  0
 26 27  1  0
 28 29  1  0
 30 31  1  0
 30 50  1  0
 31 51  1  0
M  CHG  1  28   1
M  END
>  <DOCK_score>  (1) 
-60.36792

>  <SMILES>  (1) 
CCc1ccc(-c2c[nH]c(NC(c3ccccc3F)c3ccccc3F)[nH+]2)cc1

$$$$
