CCc1ccc(-c2c[nH]c(N[C@@H](Cc3cnnn3C)C3CC=CC3)[nH+]2)cc1
     RDKit          3D

 54 57  0  0  1  0  0  0  0  0999 V2000
  129.8428  129.2033  151.0408 C   0  0  0  0  0  0  0  0  0  0  0  0
  131.1823  129.7103  151.5788 C   0  0  0  0  0  0  0  0  0  0  0  0
  130.9656  130.3901  152.9063 C   0  0  0  0  0  0  0  0  0  0  0  0
  131.0360  129.6549  154.0764 C   0  0  0  0  0  0  0  0  0  0  0  0
  130.8433  130.2730  155.2952 C   0  0  0  0  0  0  0  0  0  0  0  0
  130.5671  131.6383  155.3452 C   0  0  0  0  0  0  0  0  0  0  0  0
  130.3540  132.3074  156.6517 C   0  0  0  0  0  0  0  0  0  0  0  0
  129.8466  131.7317  157.7698 C   0  0  0  0  0  0  0  0  0  0  0  0
  129.8227  132.7019  158.7420 N   0  0  0  0  0  0  0  0  0  0  0  0
  129.5109  132.5936  159.6542 H   0  0  0  0  0  0  0  0  0  0  0  0
  130.3167  133.8430  158.1891 C   0  0  0  0  0  0  0  0  0  0  0  0
  130.4606  135.0571  158.8387 N   0  0  0  0  0  0  0  0  0  0  0  0
  129.5426  135.4223  159.9205 C   0  0  1  0  0  0  0  0  0  0  0  0
  129.3405  134.5462  160.5367 H   0  0  0  0  0  0  0  0  0  0  0  0
  130.1783  136.5157  160.7814 C   0  0  0  0  0  0  0  0  0  0  0  0
  131.4691  136.0058  161.3686 C   0  0  0  0  0  0  0  0  0  0  0  0
  132.7044  136.1034  160.8242 C   0  0  0  0  0  0  0  0  0  0  0  0
  133.5459  135.5192  161.6845 N   0  0  0  0  0  0  0  0  0  0  0  0
  132.8761  135.0884  162.6947 N   0  0  0  0  0  0  0  0  0  0  0  0
  131.6271  135.3634  162.5491 N   0  0  0  0  0  0  0  0  0  0  0  0
  130.5596  135.0344  163.4969 C   0  0  0  0  0  0  0  0  0  0  0  0
  128.2321  135.9400  159.3243 C   0  0  0  0  0  0  0  0  0  0  0  0
  127.1662  136.1495  160.4249 C   0  0  0  0  0  0  0  0  0  0  0  0
  125.8643  135.7273  159.7831 C   0  0  0  0  0  0  0  0  0  0  0  0
  126.0780  135.0253  158.7036 C   0  0  0  0  0  0  0  0  0  0  0  0
  127.5576  134.8611  158.4454 C   0  0  0  0  0  0  0  0  0  0  0  0
  130.6378  133.6021  156.9414 N   0  0  0  0  0  0  0  0  0  0  0  0
  131.0163  134.2469  156.3234 H   0  0  0  0  0  0  0  0  0  0  0  0
  130.4925  132.3726  154.1629 C   0  0  0  0  0  0  0  0  0  0  0  0
  130.6922  131.7449  152.9501 C   0  0  0  0  0  0  0  0  0  0  0  0
  129.1618  130.0445  150.9113 H   0  0  0  0  0  0  0  0  0  0  0  0
  129.9995  128.7117  150.0807 H   0  0  0  0  0  0  0  0  0  0  0  0
  129.4128  128.4931  151.7469 H   0  0  0  0  0  0  0  0  0  0  0  0
  131.8634  128.8688  151.7085 H   0  0  0  0  0  0  0  0  0  0  0  0
  131.6126  130.4202  150.8730 H   0  0  0  0  0  0  0  0  0  0  0  0
  131.2455  128.5962  154.0362 H   0  0  0  0  0  0  0  0  0  0  0  0
  130.9025  129.6993  156.2082 H   0  0  0  0  0  0  0  0  0  0  0  0
  129.5229  130.7067  157.8755 H   0  0  0  0  0  0  0  0  0  0  0  0
  131.1692  135.6659  158.5776 H   0  0  0  0  0  0  0  0  0  0  0  0
  130.3806  137.3917  160.1651 H   0  0  0  0  0  0  0  0  0  0  0  0
  129.4953  136.7876  161.5863 H   0  0  0  0  0  0  0  0  0  0  0  0
  132.9605  136.5629  159.8810 H   0  0  0  0  0  0  0  0  0  0  0  0
  130.1538  134.0510  163.2601 H   0  0  0  0  0  0  0  0  0  0  0  0
  130.9624  135.0270  164.5097 H   0  0  0  0  0  0  0  0  0  0  0  0
  129.7682  135.7806  163.4261 H   0  0  0  0  0  0  0  0  0  0  0  0
  128.3972  136.8576  158.7597 H   0  0  0  0  0  0  0  0  0  0  0  0
  127.3843  135.5221  161.2891 H   0  0  0  0  0  0  0  0  0  0  0  0
  127.1235  137.1987  160.7174 H   0  0  0  0  0  0  0  0  0  0  0  0
  124.8857  135.9745  160.1672 H   0  0  0  0  0  0  0  0  0  0  0  0
  125.2995  134.6152  158.0775 H   0  0  0  0  0  0  0  0  0  0  0  0
  127.7810  135.0349  157.3929 H   0  0  0  0  0  0  0  0  0  0  0  0
  127.8890  133.8665  158.7440 H   0  0  0  0  0  0  0  0  0  0  0  0
  130.2785  133.4307  154.1956 H   0  0  0  0  0  0  0  0  0  0  0  0
  130.6343  132.3129  152.0333 H   0  0  0  0  0  0  0  0  0  0  0  0
  1  2  1  0
  1 31  1  0
  1 32  1  0
  1 33  1  0
  2  3  1  0
  2 34  1  0
  2 35  1  0
  3 30  2  0
  3  4  1  0
  4  5  2  0
  4 36  1  0
  5  6  1  0
  5 37  1  0
  6  7  1  0
  6 29  2  0
  7 27  1  0
  7  8  2  0
  8  9  1  0
  8 38  1  0
  9 10  1  0
  9 11  1  0
 11 12  1  0
 11 27  2  0
 12 13  1  0
 12 39  1  0
 13 14  1  1
 13 15  1  0
 13 22  1  0
 15 16  1  0
 15 40  1  0
 15 41  1  0
 16 20  1  0
 16 17  2  0
 17 18  1  0
 17 42  1  0
 18 19  2  0
 19 20  1  0
 20 21  1  0
 21 43  1  0
 21 44  1  0
 21 45  1  0
 22 26  1  0
 22 23  1  0
 22 46  1  0
 23 24  1  0
 23 47  1  0
 23 48  1  0
 24 25  2  0
 24 49  1  0
 25 26  1  0
 25 50  1  0
 26 51  1  0
 26 52  1  0
 27 28  1  0
 29 30  1  0
 29 53  1  0
 30 54  1  0
M  CHG  1  27   1
M  END
>  <DOCK_score>  (1) 
-58.870605

>  <SMILES>  (1) 
CCc1ccc(-c2c[nH]c(N[C@@H](Cc3cnnn3C)C3CC=CC3)[nH+]2)cc1

$$$$
