OCC(O)[C@H](Nc1[nH]cc(-c2ccc(C3=CCC=CC3)cc2)[nH+]1)c1ccccc1
     RDKit          3D

 55 58  0  0  1  0  0  0  0  0999 V2000
  130.7058  136.0931  163.5862 O   0  0  0  0  0  0  0  0  0  0  0  0
  130.2439  137.1268  162.7142 C   0  0  0  0  0  0  0  0  0  0  0  0
  130.7414  136.8552  161.2931 C   0  0  2  0  0  0  0  0  0  0  0  0
  130.2797  137.8888  160.4210 O   0  0  0  0  0  0  0  0  0  0  0  0
  130.2036  135.5056  160.8136 C   0  0  2  0  0  0  0  0  0  0  0  0
  130.5557  134.7171  161.4787 H   0  0  0  0  0  0  0  0  0  0  0  0
  130.6801  135.2455  159.4529 N   0  0  0  0  0  0  0  0  0  0  0  0
  130.3204  134.0761  158.8051 C   0  0  0  0  0  0  0  0  0  0  0  0
  129.5282  133.0964  159.3199 N   0  0  0  0  0  0  0  0  0  0  0  0
  129.1178  133.0919  160.1989 H   0  0  0  0  0  0  0  0  0  0  0  0
  129.4171  132.1150  158.3655 C   0  0  0  0  0  0  0  0  0  0  0  0
  130.1444  132.5228  157.2951 C   0  0  0  0  0  0  0  0  0  0  0  0
  130.3158  131.7815  156.0231 C   0  0  0  0  0  0  0  0  0  0  0  0
  129.8961  132.3525  154.8212 C   0  0  0  0  0  0  0  0  0  0  0  0
  130.0594  131.6666  153.6387 C   0  0  0  0  0  0  0  0  0  0  0  0
  130.6360  130.3951  153.6433 C   0  0  0  0  0  0  0  0  0  0  0  0
  130.8069  129.6559  152.3761 C   0  0  0  0  0  0  0  0  0  0  0  0
  130.9875  130.3388  151.2661 C   0  0  0  0  0  0  0  0  0  0  0  0
  131.1776  129.6800  149.9330 C   0  0  0  0  0  0  0  0  0  0  0  0
  130.6653  128.2716  149.9490 C   0  0  0  0  0  0  0  0  0  0  0  0
  130.4815  127.5979  151.0426 C   0  0  0  0  0  0  0  0  0  0  0  0
  130.7619  128.1575  152.4050 C   0  0  0  0  0  0  0  0  0  0  0  0
  131.0509  129.8213  154.8479 C   0  0  0  0  0  0  0  0  0  0  0  0
  130.8914  130.5106  156.0289 C   0  0  0  0  0  0  0  0  0  0  0  0
  130.6821  133.7327  157.5932 N   0  0  0  0  0  0  0  0  0  0  0  0
  131.2457  134.2583  157.0042 H   0  0  0  0  0  0  0  0  0  0  0  0
  128.6969  135.5336  160.8214 C   0  0  0  0  0  0  0  0  0  0  0  0
  128.0042  135.1467  161.9534 C   0  0  0  0  0  0  0  0  0  0  0  0
  126.6221  135.1734  161.9608 C   0  0  0  0  0  0  0  0  0  0  0  0
  125.9327  135.5874  160.8365 C   0  0  0  0  0  0  0  0  0  0  0  0
  126.6254  135.9745  159.7046 C   0  0  0  0  0  0  0  0  0  0  0  0
  128.0074  135.9466  159.6966 C   0  0  0  0  0  0  0  0  0  0  0  0
  130.4025  135.2079  163.3419 H   0  0  0  0  0  0  0  0  0  0  0  0
  130.6271  138.0884  163.0557 H   0  0  0  0  0  0  0  0  0  0  0  0
  129.1542  137.1472  162.7199 H   0  0  0  0  0  0  0  0  0  0  0  0
  131.8312  136.8349  161.2872 H   0  0  0  0  0  0  0  0  0  0  0  0
  130.5583  137.7811  159.5012 H   0  0  0  0  0  0  0  0  0  0  0  0
  131.2477  135.8927  159.0058 H   0  0  0  0  0  0  0  0  0  0  0  0
  128.8575  131.1952  158.4505 H   0  0  0  0  0  0  0  0  0  0  0  0
  129.4469  133.3346  154.8179 H   0  0  0  0  0  0  0  0  0  0  0  0
  129.7383  132.1104  152.7080 H   0  0  0  0  0  0  0  0  0  0  0  0
  131.0046  131.4179  151.3188 H   0  0  0  0  0  0  0  0  0  0  0  0
  132.2384  129.6714  149.6822 H   0  0  0  0  0  0  0  0  0  0  0  0
  130.6364  130.2484  149.1768 H   0  0  0  0  0  0  0  0  0  0  0  0
  130.4387  127.7953  149.0065 H   0  0  0  0  0  0  0  0  0  0  0  0
  130.1092  126.5869  150.9681 H   0  0  0  0  0  0  0  0  0  0  0  0
  131.7214  127.7779  152.7562 H   0  0  0  0  0  0  0  0  0  0  0  0
  129.9787  127.8365  153.0903 H   0  0  0  0  0  0  0  0  0  0  0  0
  131.4966  128.8376  154.8525 H   0  0  0  0  0  0  0  0  0  0  0  0
  131.2123  130.0675  156.9602 H   0  0  0  0  0  0  0  0  0  0  0  0
  128.5428  134.8241  162.8322 H   0  0  0  0  0  0  0  0  0  0  0  0
  126.0809  134.8712  162.8453 H   0  0  0  0  0  0  0  0  0  0  0  0
  124.8529  135.6038  160.8409 H   0  0  0  0  0  0  0  0  0  0  0  0
  126.0868  136.2977  158.8261 H   0  0  0  0  0  0  0  0  0  0  0  0
  128.5485  136.2491  158.8124 H   0  0  0  0  0  0  0  0  0  0  0  0
  1  2  1  0
  1 33  1  0
  2  3  1  0
  2 34  1  0
  2 35  1  0
  3  4  1  0
  3  5  1  0
  3 36  1  1
  4 37  1  0
  5  6  1  1
  5  7  1  0
  5 27  1  0
  7 38  1  0
  8  7  1  0
  8 25  2  0
  8  9  1  0
  9 10  1  0
  9 11  1  0
 11 12  2  0
 11 39  1  0
 12 13  1  0
 12 25  1  0
 13 24  1  0
 13 14  2  0
 14 15  1  0
 14 40  1  0
 15 16  2  0
 15 41  1  0
 16 17  1  0
 16 23  1  0
 17 22  1  0
 17 18  2  0
 18 19  1  0
 18 42  1  0
 19 20  1  0
 19 43  1  0
 19 44  1  0
 20 21  2  0
 20 45  1  0
 21 22  1  0
 21 46  1  0
 22 47  1  0
 22 48  1  0
 23 24  2  0
 23 49  1  0
 24 50  1  0
 25 26  1  0
 27 32  1  0
 27 28  2  0
 28 29  1  0
 28 51  1  0
 29 30  2  0
 29 52  1  0
 30 31  1  0
 30 53  1  0
 31 32  2  0
 31 54  1  0
 32 55  1  0
M  CHG  1  25   1
M  END
>  <DOCK_score>  (1) 
-56.24184

>  <SMILES>  (1) 
OCC(O)[C@H](Nc1[nH]cc(-c2ccc(C3=CCC=CC3)cc2)[nH+]1)c1ccccc1

$$$$
