Nc1ccc(-c2c[nH]c(N[C@H](c3ccccc3)c3cncc4ccccc34)[nH+]2)cc1
     RDKit          3D

 52 56  0  0  1  0  0  0  0  0999 V2000
  131.2108  129.6698  151.8249 N   0  0  0  0  0  0  0  0  0  0  0  0
  130.9543  130.3540  153.0156 C   0  0  0  0  0  0  0  0  0  0  0  0
  130.2642  131.5607  152.9868 C   0  0  0  0  0  0  0  0  0  0  0  0
  130.0102  132.2386  154.1606 C   0  0  0  0  0  0  0  0  0  0  0  0
  130.4457  131.7130  155.3761 C   0  0  0  0  0  0  0  0  0  0  0  0
  130.1741  132.4406  156.6400 C   0  0  0  0  0  0  0  0  0  0  0  0
  129.4577  131.9727  157.6919 C   0  0  0  0  0  0  0  0  0  0  0  0
  129.4551  132.9637  158.6448 N   0  0  0  0  0  0  0  0  0  0  0  0
  129.0230  132.9254  159.5125 H   0  0  0  0  0  0  0  0  0  0  0  0
  130.1705  134.0080  158.1458 C   0  0  0  0  0  0  0  0  0  0  0  0
  130.4074  135.2070  158.7962 N   0  0  0  0  0  0  0  0  0  0  0  0
  129.8676  135.4308  160.1398 C   0  0  2  0  0  0  0  0  0  0  0  0
  130.2654  134.6786  160.8209 H   0  0  0  0  0  0  0  0  0  0  0  0
  128.3647  135.3286  160.1006 C   0  0  0  0  0  0  0  0  0  0  0  0
  127.6730  134.8825  161.2111 C   0  0  0  0  0  0  0  0  0  0  0  0
  126.2940  134.7929  161.1766 C   0  0  0  0  0  0  0  0  0  0  0  0
  125.6073  135.1405  160.0284 C   0  0  0  0  0  0  0  0  0  0  0  0
  126.2993  135.5821  158.9162 C   0  0  0  0  0  0  0  0  0  0  0  0
  127.6781  135.6758  158.9521 C   0  0  0  0  0  0  0  0  0  0  0  0
  130.2655  136.8030  160.6187 C   0  0  0  0  0  0  0  0  0  0  0  0
  130.4515  137.8212  159.7333 C   0  0  0  0  0  0  0  0  0  0  0  0
  130.8020  139.0373  160.1283 N   0  0  0  0  0  0  0  0  0  0  0  0
  130.9937  139.3472  161.3894 C   0  0  0  0  0  0  0  0  0  0  0  0
  130.8278  138.3694  162.3831 C   0  0  0  0  0  0  0  0  0  0  0  0
  131.0266  138.6483  163.7444 C   0  0  0  0  0  0  0  0  0  0  0  0
  130.8470  137.6608  164.6647 C   0  0  0  0  0  0  0  0  0  0  0  0
  130.4784  136.3739  164.2769 C   0  0  0  0  0  0  0  0  0  0  0  0
  130.2819  136.0653  162.9647 C   0  0  0  0  0  0  0  0  0  0  0  0
  130.4528  137.0581  161.9892 C   0  0  0  0  0  0  0  0  0  0  0  0
  130.5937  133.6939  156.9457 N   0  0  0  0  0  0  0  0  0  0  0  0
  131.1240  134.2656  156.3688 H   0  0  0  0  0  0  0  0  0  0  0  0
  131.1417  130.5055  155.4015 C   0  0  0  0  0  0  0  0  0  0  0  0
  131.3889  129.8284  154.2259 C   0  0  0  0  0  0  0  0  0  0  0  0
  130.9075  130.0363  150.9795 H   0  0  0  0  0  0  0  0  0  0  0  0
  131.6923  128.8280  151.8438 H   0  0  0  0  0  0  0  0  0  0  0  0
  129.9271  131.9676  152.0450 H   0  0  0  0  0  0  0  0  0  0  0  0
  129.4741  133.1758  154.1381 H   0  0  0  0  0  0  0  0  0  0  0  0
  128.9802  131.0069  157.7665 H   0  0  0  0  0  0  0  0  0  0  0  0
  130.9308  135.8989  158.3624 H   0  0  0  0  0  0  0  0  0  0  0  0
  128.2098  134.6070  162.1069 H   0  0  0  0  0  0  0  0  0  0  0  0
  125.7533  134.4482  162.0457 H   0  0  0  0  0  0  0  0  0  0  0  0
  124.5301  135.0674  160.0002 H   0  0  0  0  0  0  0  0  0  0  0  0
  125.7628  135.8537  158.0190 H   0  0  0  0  0  0  0  0  0  0  0  0
  128.2187  136.0205  158.0831 H   0  0  0  0  0  0  0  0  0  0  0  0
  130.3098  137.6325  158.6794 H   0  0  0  0  0  0  0  0  0  0  0  0
  131.2783  140.3527  161.6620 H   0  0  0  0  0  0  0  0  0  0  0  0
  131.3121  139.6408  164.0602 H   0  0  0  0  0  0  0  0  0  0  0  0
  130.9969  137.8774  165.7121 H   0  0  0  0  0  0  0  0  0  0  0  0
  130.3468  135.6094  165.0283 H   0  0  0  0  0  0  0  0  0  0  0  0
  129.9964  135.0639  162.6780 H   0  0  0  0  0  0  0  0  0  0  0  0
  131.4835  130.0985  156.3416 H   0  0  0  0  0  0  0  0  0  0  0  0
  131.9245  128.8908  154.2455 H   0  0  0  0  0  0  0  0  0  0  0  0
  1  2  1  0
  1 34  1  0
  1 35  1  0
  2 33  2  0
  2  3  1  0
  3  4  2  0
  3 36  1  0
  4  5  1  0
  4 37  1  0
  5  6  1  0
  5 32  2  0
  6 30  1  0
  6  7  2  0
  7  8  1  0
  7 38  1  0
  8  9  1  0
  8 10  1  0
 10 11  1  0
 10 30  2  0
 11 12  1  0
 11 39  1  0
 12 13  1  1
 12 14  1  0
 12 20  1  0
 14 19  1  0
 14 15  2  0
 15 16  1  0
 15 40  1  0
 16 17  2  0
 16 41  1  0
 17 18  1  0
 17 42  1  0
 18 19  2  0
 18 43  1  0
 19 44  1  0
 20 29  1  0
 20 21  2  0
 21 22  1  0
 21 45  1  0
 22 23  2  0
 23 24  1  0
 23 46  1  0
 24 29  2  0
 24 25  1  0
 25 26  2  0
 25 47  1  0
 26 27  1  0
 26 48  1  0
 27 28  2  0
 27 49  1  0
 28 29  1  0
 28 50  1  0
 30 31  1  0
 32 33  1  0
 32 51  1  0
 33 52  1  0
M  CHG  1  30   1
M  END
>  <DOCK_score>  (1) 
-60.22929

>  <SMILES>  (1) 
Nc1ccc(-c2c[nH]c(N[C@H](c3ccccc3)c3cncc4ccccc34)[nH+]2)cc1

$$$$
