CC=Cc1ccc(-c2c[nH]c(N[C@H](c3ccccc3)[C@H](O)c3ccccc3)[nH+]2)cc1
     RDKit          3D

 56 59  0  0  1  0  0  0  0  0999 V2000
  131.2022  129.7938  149.6369 C   0  0  0  0  0  0  0  0  0  0  0  0
  130.8523  130.4409  150.9522 C   0  0  0  0  0  0  0  0  0  0  0  0
  131.3187  129.9331  152.0860 C   0  0  0  0  0  0  0  0  0  0  0  0
  130.9758  130.5675  153.3750 C   0  0  0  0  0  0  0  0  0  0  0  0
  130.5347  131.8924  153.4063 C   0  0  0  0  0  0  0  0  0  0  0  0
  130.2156  132.4830  154.6083 C   0  0  0  0  0  0  0  0  0  0  0  0
  130.3317  131.7582  155.7948 C   0  0  0  0  0  0  0  0  0  0  0  0
  129.9875  132.3947  157.0883 C   0  0  0  0  0  0  0  0  0  0  0  0
  129.5057  131.7611  158.1871 C   0  0  0  0  0  0  0  0  0  0  0  0
  129.3216  132.7209  159.1520 N   0  0  0  0  0  0  0  0  0  0  0  0
  128.9837  132.5758  160.0495 H   0  0  0  0  0  0  0  0  0  0  0  0
  129.7015  133.9133  158.6167 C   0  0  0  0  0  0  0  0  0  0  0  0
  129.6703  135.1351  159.2666 N   0  0  0  0  0  0  0  0  0  0  0  0
  129.1976  135.2167  160.6509 C   0  0  2  0  0  0  0  0  0  0  0  0
  129.5705  134.3605  161.2132 H   0  0  0  0  0  0  0  0  0  0  0  0
  127.6908  135.2115  160.6685 C   0  0  0  0  0  0  0  0  0  0  0  0
  127.0140  134.6692  161.7450 C   0  0  0  0  0  0  0  0  0  0  0  0
  125.6317  134.6684  161.7630 C   0  0  0  0  0  0  0  0  0  0  0  0
  124.9263  135.2018  160.7006 C   0  0  0  0  0  0  0  0  0  0  0  0
  125.6031  135.7395  159.6219 C   0  0  0  0  0  0  0  0  0  0  0  0
  126.9853  135.7442  159.6056 C   0  0  0  0  0  0  0  0  0  0  0  0
  129.7107  136.5089  161.2897 C   0  0  2  0  0  0  0  0  0  0  0  0
  129.3590  136.5695  162.3195 H   0  0  0  0  0  0  0  0  0  0  0  0
  129.2220  137.6313  160.5525 O   0  0  0  0  0  0  0  0  0  0  0  0
  131.2176  136.5139  161.2722 C   0  0  0  0  0  0  0  0  0  0  0  0
  131.9230  135.9863  162.3376 C   0  0  0  0  0  0  0  0  0  0  0  0
  133.3051  135.9870  162.3195 C   0  0  0  0  0  0  0  0  0  0  0  0
  133.9820  136.5236  161.2404 C   0  0  0  0  0  0  0  0  0  0  0  0
  133.2767  137.0560  160.1774 C   0  0  0  0  0  0  0  0  0  0  0  0
  131.8946  137.0514  160.1934 C   0  0  0  0  0  0  0  0  0  0  0  0
  130.1019  133.7141  157.3848 N   0  0  0  0  0  0  0  0  0  0  0  0
  130.4244  134.4006  156.7802 H   0  0  0  0  0  0  0  0  0  0  0  0
  130.7771  130.4364  155.7648 C   0  0  0  0  0  0  0  0  0  0  0  0
  131.0917  129.8427  154.5630 C   0  0  0  0  0  0  0  0  0  0  0  0
  130.7321  130.3467  148.8236 H   0  0  0  0  0  0  0  0  0  0  0  0
  132.2840  129.8021  149.5042 H   0  0  0  0  0  0  0  0  0  0  0  0
  130.8434  128.7646  149.6315 H   0  0  0  0  0  0  0  0  0  0  0  0
  130.2226  131.3180  150.9719 H   0  0  0  0  0  0  0  0  0  0  0  0
  131.9480  129.0561  152.0661 H   0  0  0  0  0  0  0  0  0  0  0  0
  130.4447  132.4536  152.4880 H   0  0  0  0  0  0  0  0  0  0  0  0
  129.8749  133.5077  154.6326 H   0  0  0  0  0  0  0  0  0  0  0  0
  129.3013  130.7049  158.2829 H   0  0  0  0  0  0  0  0  0  0  0  0
  129.9613  135.9373  158.8054 H   0  0  0  0  0  0  0  0  0  0  0  0
  127.5651  134.2490  162.5732 H   0  0  0  0  0  0  0  0  0  0  0  0
  125.1030  134.2486  162.6060 H   0  0  0  0  0  0  0  0  0  0  0  0
  123.8464  135.1987  160.7135 H   0  0  0  0  0  0  0  0  0  0  0  0
  125.0519  136.1563  158.7918 H   0  0  0  0  0  0  0  0  0  0  0  0
  127.5141  136.1643  158.7629 H   0  0  0  0  0  0  0  0  0  0  0  0
  129.4966  137.6427  159.6254 H   0  0  0  0  0  0  0  0  0  0  0  0
  131.3941  135.5705  163.1824 H   0  0  0  0  0  0  0  0  0  0  0  0
  133.8562  135.5708  163.1499 H   0  0  0  0  0  0  0  0  0  0  0  0
  135.0620  136.5266  161.2275 H   0  0  0  0  0  0  0  0  0  0  0  0
  133.8056  137.4753  159.3342 H   0  0  0  0  0  0  0  0  0  0  0  0
  131.3434  137.4673  159.3628 H   0  0  0  0  0  0  0  0  0  0  0  0
  130.8714  129.8774  156.6841 H   0  0  0  0  0  0  0  0  0  0  0  0
  131.4324  128.8179  154.5396 H   0  0  0  0  0  0  0  0  0  0  0  0
  1  2  1  0
  1 35  1  0
  1 36  1  0
  1 37  1  0
  2  3  2  0
  2 38  1  0
  3  4  1  0
  3 39  1  0
  4 34  2  0
  4  5  1  0
  5  6  2  0
  5 40  1  0
  6  7  1  0
  6 41  1  0
  7  8  1  0
  7 33  2  0
  8 31  1  0
  8  9  2  0
  9 10  1  0
  9 42  1  0
 10 11  1  0
 10 12  1  0
 12 13  1  0
 12 31  2  0
 13 14  1  0
 13 43  1  0
 14 15  1  1
 14 16  1  0
 14 22  1  0
 16 21  1  0
 16 17  2  0
 17 18  1  0
 17 44  1  0
 18 19  2  0
 18 45  1  0
 19 20  1  0
 19 46  1  0
 20 21  2  0
 20 47  1  0
 21 48  1  0
 22 23  1  1
 22 24  1  0
 22 25  1  0
 24 49  1  0
 25 30  1  0
 25 26  2  0
 26 27  1  0
 26 50  1  0
 27 28  2  0
 27 51  1  0
 28 29  1  0
 28 52  1  0
 29 30  2  0
 29 53  1  0
 30 54  1  0
 31 32  1  0
 33 34  1  0
 33 55  1  0
 34 56  1  0
M  CHG  1  31   1
M  END
>  <DOCK_score>  (1) 
-58.341122

>  <SMILES>  (1) 
CC=Cc1ccc(-c2c[nH]c(N[C@H](c3ccccc3)[C@H](O)c3ccccc3)[nH+]2)cc1

$$$$
