Cn1nccc1-c1c[nH]c(N[C@@H](CCc2ccccc2)c2ccccc2)[nH+]1
     RDKit          3D

 51 54  0  0  1  0  0  0  0  0999 V2000
  131.9952  129.5489  157.7134 C   0  0  0  0  0  0  0  0  0  0  0  0
  131.4509  130.0708  156.4575 N   0  0  0  0  0  0  0  0  0  0  0  0
  131.6047  129.4970  155.1890 N   0  0  0  0  0  0  0  0  0  0  0  0
  130.9793  130.2450  154.3158 C   0  0  0  0  0  0  0  0  0  0  0  0
  130.3970  131.3204  154.9872 C   0  0  0  0  0  0  0  0  0  0  0  0
  130.7033  131.2014  156.3137 C   0  0  0  0  0  0  0  0  0  0  0  0
  130.2940  132.1250  157.3944 C   0  0  0  0  0  0  0  0  0  0  0  0
  129.5425  131.8039  158.4787 C   0  0  0  0  0  0  0  0  0  0  0  0
  129.4075  132.9504  159.2232 N   0  0  0  0  0  0  0  0  0  0  0  0
  128.9254  133.0382  160.0603 H   0  0  0  0  0  0  0  0  0  0  0  0
  130.0722  133.9412  158.5684 C   0  0  0  0  0  0  0  0  0  0  0  0
  130.1751  135.2564  158.9879 N   0  0  0  0  0  0  0  0  0  0  0  0
  129.0995  135.8594  159.7787 C   0  0  1  0  0  0  0  0  0  0  0  0
  128.9696  135.2974  160.7036 H   0  0  0  0  0  0  0  0  0  0  0  0
  129.4604  137.3091  160.1093 C   0  0  0  0  0  0  0  0  0  0  0  0
  130.4333  137.3360  161.2897 C   0  0  0  0  0  0  0  0  0  0  0  0
  130.7887  138.7636  161.6152 C   0  0  0  0  0  0  0  0  0  0  0  0
  131.8787  139.3601  161.0090 C   0  0  0  0  0  0  0  0  0  0  0  0
  132.2018  140.6714  161.3040 C   0  0  0  0  0  0  0  0  0  0  0  0
  131.4415  141.3829  162.2130 C   0  0  0  0  0  0  0  0  0  0  0  0
  130.3548  140.7848  162.8232 C   0  0  0  0  0  0  0  0  0  0  0  0
  130.0284  139.4753  162.5244 C   0  0  0  0  0  0  0  0  0  0  0  0
  127.8168  135.8288  158.9880 C   0  0  0  0  0  0  0  0  0  0  0  0
  126.6033  135.7328  159.6429 C   0  0  0  0  0  0  0  0  0  0  0  0
  125.4266  135.7085  158.9180 C   0  0  0  0  0  0  0  0  0  0  0  0
  125.4640  135.7721  157.5376 C   0  0  0  0  0  0  0  0  0  0  0  0
  126.6778  135.8628  156.8824 C   0  0  0  0  0  0  0  0  0  0  0  0
  127.8542  135.8909  157.6076 C   0  0  0  0  0  0  0  0  0  0  0  0
  130.6035  133.4443  157.4783 N   0  0  0  0  0  0  0  0  0  0  0  0
  131.1328  133.9400  156.8340 H   0  0  0  0  0  0  0  0  0  0  0  0
  131.2364  128.9506  158.2178 H   0  0  0  0  0  0  0  0  0  0  0  0
  132.8660  128.9284  157.5021 H   0  0  0  0  0  0  0  0  0  0  0  0
  132.2885  130.3797  158.3553 H   0  0  0  0  0  0  0  0  0  0  0  0
  130.9201  130.0583  153.2536 H   0  0  0  0  0  0  0  0  0  0  0  0
  129.8106  132.1084  154.5380 H   0  0  0  0  0  0  0  0  0  0  0  0
  129.1334  130.8324  158.7134 H   0  0  0  0  0  0  0  0  0  0  0  0
  130.9596  135.7788  158.7581 H   0  0  0  0  0  0  0  0  0  0  0  0
  128.5559  137.8579  160.3713 H   0  0  0  0  0  0  0  0  0  0  0  0
  129.9288  137.7736  159.2416 H   0  0  0  0  0  0  0  0  0  0  0  0
  129.9649  136.8713  162.1573 H   0  0  0  0  0  0  0  0  0  0  0  0
  131.3378  136.7869  161.0276 H   0  0  0  0  0  0  0  0  0  0  0  0
  132.4753  138.8027  160.3020 H   0  0  0  0  0  0  0  0  0  0  0  0
  133.0511  141.1385  160.8275 H   0  0  0  0  0  0  0  0  0  0  0  0
  131.6967  142.4059  162.4468 H   0  0  0  0  0  0  0  0  0  0  0  0
  129.7610  141.3407  163.5338 H   0  0  0  0  0  0  0  0  0  0  0  0
  129.1796  139.0079  163.0013 H   0  0  0  0  0  0  0  0  0  0  0  0
  126.5744  135.6797  160.7213 H   0  0  0  0  0  0  0  0  0  0  0  0
  124.4783  135.6373  159.4298 H   0  0  0  0  0  0  0  0  0  0  0  0
  124.5448  135.7506  156.9710 H   0  0  0  0  0  0  0  0  0  0  0  0
  126.7069  135.9121  155.8038 H   0  0  0  0  0  0  0  0  0  0  0  0
  128.8025  135.9617  157.0957 H   0  0  0  0  0  0  0  0  0  0  0  0
  1  2  1  0
  1 31  1  0
  1 32  1  0
  1 33  1  0
  2  6  1  0
  2  3  1  0
  3  4  2  0
  4  5  1  0
  4 34  1  0
  5  6  2  0
  5 35  1  0
  6  7  1  0
  7 29  1  0
  7  8  2  0
  8  9  1  0
  8 36  1  0
  9 10  1  0
  9 11  1  0
 11 12  1  0
 11 29  2  0
 12 13  1  0
 12 37  1  0
 13 14  1  1
 13 15  1  0
 13 23  1  0
 15 16  1  0
 15 38  1  0
 15 39  1  0
 16 17  1  0
 16 40  1  0
 16 41  1  0
 17 22  1  0
 17 18  2  0
 18 19  1  0
 18 42  1  0
 19 20  2  0
 19 43  1  0
 20 21  1  0
 20 44  1  0
 21 22  2  0
 21 45  1  0
 22 46  1  0
 23 28  1  0
 23 24  2  0
 24 25  1  0
 24 47  1  0
 25 26  2  0
 25 48  1  0
 26 27  1  0
 26 49  1  0
 27 28  2  0
 27 50  1  0
 28 51  1  0
 29 30  1  0
M  CHG  1  29   1
M  END
>  <DOCK_score>  (1) 
-56.567631

>  <SMILES>  (1) 
Cn1nccc1-c1c[nH]c(N[C@@H](CCc2ccccc2)c2ccccc2)[nH+]1

$$$$
