CCC/C=C/CNC(N[C@H]1C[C@H]1Nc1ccccc1)=[NH+]C1COC1
     RDKit          3D

 53 55  0  0  1  0  0  0  0  0999 V2000
  137.5324  134.3987  164.0990 C   0  0  0  0  0  0  0  0  0  0  0  0
  136.4375  134.0609  163.0852 C   0  0  0  0  0  0  0  0  0  0  0  0
  135.2437  134.9949  163.2938 C   0  0  0  0  0  0  0  0  0  0  0  0
  134.1651  134.6623  162.2952 C   0  0  0  0  0  0  0  0  0  0  0  0
  133.7606  135.5696  161.4414 C   0  0  0  0  0  0  0  0  0  0  0  0
  132.6819  135.2369  160.4428 C   0  0  0  0  0  0  0  0  0  0  0  0
  131.3710  135.5468  161.0187 N   0  0  0  0  0  0  0  0  0  0  0  0
  130.2287  135.3244  160.2868 C   0  0  0  0  0  0  0  0  0  0  0  0
  128.9984  135.6151  160.8272 N   0  0  0  0  0  0  0  0  0  0  0  0
  128.9045  136.1619  162.1830 C   0  0  1  0  0  0  0  0  0  0  0  0
  129.6952  135.8570  162.8685 H   0  0  0  0  0  0  0  0  0  0  0  0
  128.3421  137.5764  162.3374 C   0  0  0  0  0  0  0  0  0  0  0  0
  127.5052  136.3693  162.7658 C   0  0  1  0  0  0  0  0  0  0  0  0
  127.3751  136.2005  163.8347 H   0  0  0  0  0  0  0  0  0  0  0  0
  126.3617  136.0063  161.9251 N   0  0  0  0  0  0  0  0  0  0  0  0
  126.2140  134.6920  161.4765 C   0  0  0  0  0  0  0  0  0  0  0  0
  126.6955  133.6371  162.2414 C   0  0  0  0  0  0  0  0  0  0  0  0
  126.5529  132.3389  161.7921 C   0  0  0  0  0  0  0  0  0  0  0  0
  125.9313  132.0886  160.5824 C   0  0  0  0  0  0  0  0  0  0  0  0
  125.4508  133.1363  159.8186 C   0  0  0  0  0  0  0  0  0  0  0  0
  125.5900  134.4368  160.2619 C   0  0  0  0  0  0  0  0  0  0  0  0
  130.3120  134.8378  159.0804 N   0  0  0  0  0  0  0  0  0  0  0  0
  131.0916  135.0253  158.5346 H   0  0  0  0  0  0  0  0  0  0  0  0
  129.2282  134.0077  158.5489 C   0  0  0  0  0  0  0  0  0  0  0  0
  129.3189  132.5267  158.9624 C   0  0  0  0  0  0  0  0  0  0  0  0
  128.9766  132.2419  157.5883 O   0  0  0  0  0  0  0  0  0  0  0  0
  129.4738  133.5088  157.1124 C   0  0  0  0  0  0  0  0  0  0  0  0
  137.1439  134.2715  165.1095 H   0  0  0  0  0  0  0  0  0  0  0  0
  138.3830  133.7332  163.9504 H   0  0  0  0  0  0  0  0  0  0  0  0
  137.8507  135.4317  163.9595 H   0  0  0  0  0  0  0  0  0  0  0  0
  136.1191  133.0278  163.2248 H   0  0  0  0  0  0  0  0  0  0  0  0
  136.8260  134.1881  162.0748 H   0  0  0  0  0  0  0  0  0  0  0  0
  135.5618  136.0280  163.1543 H   0  0  0  0  0  0  0  0  0  0  0  0
  134.8550  134.8677  164.3042 H   0  0  0  0  0  0  0  0  0  0  0  0
  133.7256  133.6758  162.2837 H   0  0  0  0  0  0  0  0  0  0  0  0
  134.2001  136.5560  161.4529 H   0  0  0  0  0  0  0  0  0  0  0  0
  132.7291  134.1760  160.1969 H   0  0  0  0  0  0  0  0  0  0  0  0
  132.8299  135.8265  159.5381 H   0  0  0  0  0  0  0  0  0  0  0  0
  131.3090  135.9089  161.9165 H   0  0  0  0  0  0  0  0  0  0  0  0
  128.1925  135.4581  160.3106 H   0  0  0  0  0  0  0  0  0  0  0  0
  128.0418  138.1003  161.4300 H   0  0  0  0  0  0  0  0  0  0  0  0
  128.7627  138.2020  163.1246 H   0  0  0  0  0  0  0  0  0  0  0  0
  125.7070  136.6789  161.6799 H   0  0  0  0  0  0  0  0  0  0  0  0
  127.1814  133.8319  163.1860 H   0  0  0  0  0  0  0  0  0  0  0  0
  126.9268  131.5183  162.3864 H   0  0  0  0  0  0  0  0  0  0  0  0
  125.8207  131.0724  160.2336 H   0  0  0  0  0  0  0  0  0  0  0  0
  124.9662  132.9374  158.8741 H   0  0  0  0  0  0  0  0  0  0  0  0
  125.2148  135.2547  159.6646 H   0  0  0  0  0  0  0  0  0  0  0  0
  128.2421  134.4471  158.6996 H   0  0  0  0  0  0  0  0  0  0  0  0
  130.3230  132.2076  159.2419 H   0  0  0  0  0  0  0  0  0  0  0  0
  128.5574  132.2217  159.6803 H   0  0  0  0  0  0  0  0  0  0  0  0
  128.8351  133.9812  156.3663 H   0  0  0  0  0  0  0  0  0  0  0  0
  130.5253  133.4903  156.8258 H   0  0  0  0  0  0  0  0  0  0  0  0
  1  2  1  0
  1 28  1  0
  1 29  1  0
  1 30  1  0
  2  3  1  0
  2 31  1  0
  2 32  1  0
  3  4  1  0
  3 33  1  0
  3 34  1  0
  4  5  2  0
  4 35  1  0
  5  6  1  0
  5 36  1  0
  6  7  1  0
  6 37  1  0
  6 38  1  0
  7 39  1  0
  8  7  1  0
  8  9  1  0
  8 22  2  0
  9 10  1  0
  9 40  1  0
 10 11  1  1
 10 13  1  0
 10 12  1  0
 12 13  1  0
 12 41  1  0
 12 42  1  0
 13 14  1  1
 13 15  1  0
 15 16  1  0
 15 43  1  0
 16 21  1  0
 16 17  2  0
 17 18  1  0
 17 44  1  0
 18 19  2  0
 18 45  1  0
 19 20  1  0
 19 46  1  0
 20 21  2  0
 20 47  1  0
 21 48  1  0
 22 23  1  0
 22 24  1  0
 24 27  1  0
 24 25  1  0
 24 49  1  0
 25 26  1  0
 25 50  1  0
 25 51  1  0
 26 27  1  0
 27 52  1  0
 27 53  1  0
M  CHG  1  22   1
M  END
>  <DOCK_score>  (1) 
-42.894924

>  <SMILES>  (1) 
CCC/C=C/CNC(N[C@H]1C[C@H]1Nc1ccccc1)=[NH+]C1COC1

$$$$
