Nc1ccc(C[C@@H](Nc2[nH]cc(-c3ccc(N)cc3)[nH+]2)c2cccc3ccccc23)cc1
     RDKit          3D

 58 62  0  0  1  0  0  0  0  0999 V2000
  125.0793  132.3336  160.2374 N   0  0  0  0  0  0  0  0  0  0  0  0
  126.0261  133.3547  160.3453 C   0  0  0  0  0  0  0  0  0  0  0  0
  126.5176  133.9718  159.2020 C   0  0  0  0  0  0  0  0  0  0  0  0
  127.4534  134.9815  159.3122 C   0  0  0  0  0  0  0  0  0  0  0  0
  127.9012  135.3783  160.5590 C   0  0  0  0  0  0  0  0  0  0  0  0
  128.9224  136.4803  160.6753 C   0  0  0  0  0  0  0  0  0  0  0  0
  130.3287  135.8787  160.6374 C   0  0  1  0  0  0  0  0  0  0  0  0
  130.3441  134.9542  161.2146 H   0  0  0  0  0  0  0  0  0  0  0  0
  130.7006  135.5938  159.2492 N   0  0  0  0  0  0  0  0  0  0  0  0
  130.4087  134.3598  158.6937 C   0  0  0  0  0  0  0  0  0  0  0  0
  129.7773  133.3346  159.3277 N   0  0  0  0  0  0  0  0  0  0  0  0
  129.4539  133.3366  160.2422 H   0  0  0  0  0  0  0  0  0  0  0  0
  129.6830  132.2953  158.4327 C   0  0  0  0  0  0  0  0  0  0  0  0
  130.2589  132.7160  157.2795 C   0  0  0  0  0  0  0  0  0  0  0  0
  130.3900  131.9263  156.0304 C   0  0  0  0  0  0  0  0  0  0  0  0
  129.8021  132.3821  154.8515 C   0  0  0  0  0  0  0  0  0  0  0  0
  129.9297  131.6492  153.6905 C   0  0  0  0  0  0  0  0  0  0  0  0
  130.6337  130.4512  153.6976 C   0  0  0  0  0  0  0  0  0  0  0  0
  130.7568  129.7077  152.5213 N   0  0  0  0  0  0  0  0  0  0  0  0
  131.2163  129.9919  154.8732 C   0  0  0  0  0  0  0  0  0  0  0  0
  131.0962  130.7245  156.0353 C   0  0  0  0  0  0  0  0  0  0  0  0
  130.6897  133.9884  157.4684 N   0  0  0  0  0  0  0  0  0  0  0  0
  131.1366  134.5354  156.8036 H   0  0  0  0  0  0  0  0  0  0  0  0
  131.3100  136.8571  161.2296 C   0  0  0  0  0  0  0  0  0  0  0  0
  131.0829  138.1958  161.1348 C   0  0  0  0  0  0  0  0  0  0  0  0
  131.9812  139.1157  161.6719 C   0  0  0  0  0  0  0  0  0  0  0  0
  133.1063  138.7018  162.3170 C   0  0  0  0  0  0  0  0  0  0  0  0
  133.3714  137.3276  162.4400 C   0  0  0  0  0  0  0  0  0  0  0  0
  134.5226  136.8622  163.0986 C   0  0  0  0  0  0  0  0  0  0  0  0
  134.7465  135.5236  163.1984 C   0  0  0  0  0  0  0  0  0  0  0  0
  133.8508  134.6038  162.6561 C   0  0  0  0  0  0  0  0  0  0  0  0
  132.7258  135.0173  162.0116 C   0  0  0  0  0  0  0  0  0  0  0  0
  132.4603  136.3921  161.8889 C   0  0  0  0  0  0  0  0  0  0  0  0
  127.4182  134.7621  161.6989 C   0  0  0  0  0  0  0  0  0  0  0  0
  126.4780  133.7557  161.5961 C   0  0  0  0  0  0  0  0  0  0  0  0
  124.7642  132.0546  159.3635 H   0  0  0  0  0  0  0  0  0  0  0  0
  124.7368  131.9034  161.0365 H   0  0  0  0  0  0  0  0  0  0  0  0
  126.1685  133.6622  158.2280 H   0  0  0  0  0  0  0  0  0  0  0  0
  127.8363  135.4616  158.4238 H   0  0  0  0  0  0  0  0  0  0  0  0
  128.7794  137.0103  161.6170 H   0  0  0  0  0  0  0  0  0  0  0  0
  128.8024  137.1761  159.8449 H   0  0  0  0  0  0  0  0  0  0  0  0
  131.1514  136.2698  158.7194 H   0  0  0  0  0  0  0  0  0  0  0  0
  129.2358  131.3290  158.6135 H   0  0  0  0  0  0  0  0  0  0  0  0
  129.2508  133.3108  154.8465 H   0  0  0  0  0  0  0  0  0  0  0  0
  129.4783  132.0041  152.7759 H   0  0  0  0  0  0  0  0  0  0  0  0
  131.2485  128.8709  152.5259 H   0  0  0  0  0  0  0  0  0  0  0  0
  130.3507  130.0268  151.7010 H   0  0  0  0  0  0  0  0  0  0  0  0
  131.7631  129.0605  154.8766 H   0  0  0  0  0  0  0  0  0  0  0  0
  131.5491  130.3675  156.9484 H   0  0  0  0  0  0  0  0  0  0  0  0
  130.1954  138.5506  160.6318 H   0  0  0  0  0  0  0  0  0  0  0  0
  131.7796  140.1727  161.5791 H   0  0  0  0  0  0  0  0  0  0  0  0
  133.7914  139.4262  162.7323 H   0  0  0  0  0  0  0  0  0  0  0  0
  135.2258  137.5634  163.5231 H   0  0  0  0  0  0  0  0  0  0  0  0
  135.6318  135.1688  163.7048 H   0  0  0  0  0  0  0  0  0  0  0  0
  134.0524  133.5468  162.7489 H   0  0  0  0  0  0  0  0  0  0  0  0
  132.0406  134.2930  161.5962 H   0  0  0  0  0  0  0  0  0  0  0  0
  127.7736  135.0712  162.6708 H   0  0  0  0  0  0  0  0  0  0  0  0
  126.0980  133.2779  162.4870 H   0  0  0  0  0  0  0  0  0  0  0  0
  1  2  1  0
  1 36  1  0
  1 37  1  0
  2 35  2  0
  2  3  1  0
  3  4  2  0
  3 38  1  0
  4  5  1  0
  4 39  1  0
  5  6  1  0
  5 34  2  0
  6  7  1  0
  6 40  1  0
  6 41  1  0
  7  8  1  1
  7  9  1  0
  7 24  1  0
  9 42  1  0
 10  9  1  0
 10 22  2  0
 10 11  1  0
 11 12  1  0
 11 13  1  0
 13 14  2  0
 13 43  1  0
 14 15  1  0
 14 22  1  0
 15 21  1  0
 15 16  2  0
 16 17  1  0
 16 44  1  0
 17 18  2  0
 17 45  1  0
 18 19  1  0
 18 20  1  0
 19 46  1  0
 19 47  1  0
 20 21  2  0
 20 48  1  0
 21 49  1  0
 22 23  1  0
 24 33  1  0
 24 25  2  0
 25 26  1  0
 25 50  1  0
 26 27  2  0
 26 51  1  0
 27 28  1  0
 27 52  1  0
 28 33  2  0
 28 29  1  0
 29 30  2  0
 29 53  1  0
 30 31  1  0
 30 54  1  0
 31 32  2  0
 31 55  1  0
 32 33  1  0
 32 56  1  0
 34 35  1  0
 34 57  1  0
 35 58  1  0
M  CHG  1  22   1
M  END
>  <DOCK_score>  (1) 
-56.261696

>  <SMILES>  (1) 
Nc1ccc(C[C@@H](Nc2[nH]cc(-c3ccc(N)cc3)[nH+]2)c2cccc3ccccc23)cc1

$$$$
