C#CCNc1cccc(C2CCC[C@H](NC3=[NH+]CCN3)C2)c1
     RDKit          3D

 47 49  0  0  1  0  0  0  0  0999 V2000
  124.9488  132.4534  161.0161 C   0  0  0  0  0  0  0  0  0  0  0  0
  124.9800  133.5768  160.6764 C   0  0  0  0  0  0  0  0  0  0  0  0
  125.0191  134.9853  160.2506 C   0  0  0  0  0  0  0  0  0  0  0  0
  125.7810  135.7693  161.2259 N   0  0  0  0  0  0  0  0  0  0  0  0
  127.1600  135.9274  161.0706 C   0  0  0  0  0  0  0  0  0  0  0  0
  127.8187  136.9670  161.7153 C   0  0  0  0  0  0  0  0  0  0  0  0
  129.1811  137.1238  161.5549 C   0  0  0  0  0  0  0  0  0  0  0  0
  129.8920  136.2406  160.7628 C   0  0  0  0  0  0  0  0  0  0  0  0
  129.2405  135.2017  160.1240 C   0  0  0  0  0  0  0  0  0  0  0  0
  130.0191  134.2418  159.2619 C   0  0  1  0  0  0  0  0  0  0  0  0
  131.0852  133.5446  160.1095 C   0  0  0  0  0  0  0  0  0  0  0  0
  131.8757  132.5700  159.2342 C   0  0  0  0  0  0  0  0  0  0  0  0
  130.9250  131.5239  158.6488 C   0  0  0  0  0  0  0  0  0  0  0  0
  129.8590  132.2210  157.8013 C   0  0  2  0  0  0  0  0  0  0  0  0
  129.1817  131.4758  157.3842 H   0  0  0  0  0  0  0  0  0  0  0  0
  130.5056  132.9571  156.7120 N   0  0  0  0  0  0  0  0  0  0  0  0
  130.7315  132.3426  155.5111 C   0  0  0  0  0  0  0  0  0  0  0  0
  131.3057  132.9581  154.4903 N   0  0  0  0  0  0  0  0  0  0  0  0
  131.6142  133.8777  154.4904 H   0  0  0  0  0  0  0  0  0  0  0  0
  131.4053  132.0261  153.3561 C   0  0  0  0  0  0  0  0  0  0  0  0
  130.7664  130.7316  153.8982 C   0  0  0  0  0  0  0  0  0  0  0  0
  130.3883  131.0870  155.2750 N   0  0  0  0  0  0  0  0  0  0  0  0
  129.0684  133.1957  158.6765 C   0  0  0  0  0  0  0  0  0  0  0  0
  127.8768  135.0426  160.2753 C   0  0  0  0  0  0  0  0  0  0  0  0
  124.9210  131.4487  161.3198 H   0  0  0  0  0  0  0  0  0  0  0  0
  124.0027  135.3737  160.1866 H   0  0  0  0  0  0  0  0  0  0  0  0
  125.4975  135.0564  159.2738 H   0  0  0  0  0  0  0  0  0  0  0  0
  125.3277  136.1785  161.9795 H   0  0  0  0  0  0  0  0  0  0  0  0
  127.2649  137.6544  162.3376 H   0  0  0  0  0  0  0  0  0  0  0  0
  129.6931  137.9343  162.0523 H   0  0  0  0  0  0  0  0  0  0  0  0
  130.9583  136.3627  160.6426 H   0  0  0  0  0  0  0  0  0  0  0  0
  130.5003  134.7895  158.4514 H   0  0  0  0  0  0  0  0  0  0  0  0
  131.7625  134.2899  160.5265 H   0  0  0  0  0  0  0  0  0  0  0  0
  130.6042  132.9969  160.9199 H   0  0  0  0  0  0  0  0  0  0  0  0
  132.3568  133.1176  158.4238 H   0  0  0  0  0  0  0  0  0  0  0  0
  132.6351  132.0733  159.8380 H   0  0  0  0  0  0  0  0  0  0  0  0
  131.4882  130.8296  158.0253 H   0  0  0  0  0  0  0  0  0  0  0  0
  130.4439  130.9762  159.4593 H   0  0  0  0  0  0  0  0  0  0  0  0
  130.7735  133.8802  156.8426 H   0  0  0  0  0  0  0  0  0  0  0  0
  132.4472  131.8559  153.0849 H   0  0  0  0  0  0  0  0  0  0  0  0
  130.8438  132.4025  152.5008 H   0  0  0  0  0  0  0  0  0  0  0  0
  131.4902  129.9166  153.8971 H   0  0  0  0  0  0  0  0  0  0  0  0
  129.8856  130.4619  153.3155 H   0  0  0  0  0  0  0  0  0  0  0  0
  129.9560  130.4942  155.9094 H   0  0  0  0  0  0  0  0  0  0  0  0
  128.5873  132.6480  159.4869 H   0  0  0  0  0  0  0  0  0  0  0  0
  128.3090  133.6924  158.0726 H   0  0  0  0  0  0  0  0  0  0  0  0
  127.3684  134.2311  159.7758 H   0  0  0  0  0  0  0  0  0  0  0  0
  1  2  3  0
  1 25  1  0
  2  3  1  0
  3  4  1  0
  3 26  1  0
  3 27  1  0
  4  5  1  0
  4 28  1  0
  5 24  2  0
  5  6  1  0
  6  7  2  0
  6 29  1  0
  7  8  1  0
  7 30  1  0
  8  9  2  0
  8 31  1  0
  9 10  1  0
  9 24  1  0
 10 23  1  0
 10 11  1  0
 10 32  1  6
 11 12  1  0
 11 33  1  0
 11 34  1  0
 12 13  1  0
 12 35  1  0
 12 36  1  0
 13 14  1  0
 13 37  1  0
 13 38  1  0
 14 15  1  6
 14 16  1  0
 14 23  1  0
 16 17  1  0
 16 39  1  0
 17 22  2  0
 17 18  1  0
 18 19  1  0
 18 20  1  0
 20 21  1  0
 20 40  1  0
 20 41  1  0
 21 22  1  0
 21 42  1  0
 21 43  1  0
 22 44  1  0
 23 45  1  0
 23 46  1  0
 24 47  1  0
M  CHG  1  22   1
M  END
>  <DOCK_score>  (1) 
-44.616989

>  <SMILES>  (1) 
C#CCNc1cccc(C2CCC[C@H](NC3=[NH+]CCN3)C2)c1

$$$$
