O=C1CCC2C1CC[C@@H]2[NH2+]CC1CCCC=C1c1ccc(Nc2ccccc2)o1
     RDKit          3D

 60 64  0  0  1  0  0  0  0  0999 V2000
  135.2328  139.3413  162.8240 O   0  0  0  0  0  0  0  0  0  0  0  0
  134.5388  138.9501  161.9166 C   0  0  0  0  0  0  0  0  0  0  0  0
  134.0244  139.7822  160.7559 C   0  0  0  0  0  0  0  0  0  0  0  0
  132.7507  139.0396  160.2836 C   0  0  0  0  0  0  0  0  0  0  0  0
  133.1473  137.5523  160.4470 C   0  0  1  0  0  0  0  0  0  0  0  0
  134.0212  137.5406  161.7284 C   0  0  2  0  0  0  0  0  0  0  0  0
  133.0244  137.2187  162.8672 C   0  0  0  0  0  0  0  0  0  0  0  0
  132.0521  136.2104  162.2081 C   0  0  0  0  0  0  0  0  0  0  0  0
  131.8877  136.7318  160.7661 C   0  0  2  0  0  0  0  0  0  0  0  0
  131.0028  137.3644  160.6961 H   0  0  0  0  0  0  0  0  0  0  0  0
  131.7733  135.6029  159.8332 N   0  0  0  0  0  0  0  0  0  0  0  0
  132.5858  135.0109  159.9204 H   0  0  0  0  0  0  0  0  0  0  0  0
  131.7113  135.9521  158.8885 H   0  0  0  0  0  0  0  0  0  0  0  0
  130.5663  134.8273  160.1487 C   0  0  0  0  0  0  0  0  0  0  0  0
  130.4471  133.6514  159.1772 C   0  0  1  0  0  0  0  0  0  0  0  0
  131.6865  132.7630  159.3017 C   0  0  0  0  0  0  0  0  0  0  0  0
  131.4434  131.4704  158.5189 C   0  0  0  0  0  0  0  0  0  0  0  0
  130.3553  130.6675  159.2349 C   0  0  0  0  0  0  0  0  0  0  0  0
  129.1717  131.5443  159.5233 C   0  0  0  0  0  0  0  0  0  0  0  0
  129.2132  132.8609  159.5017 C   0  0  0  0  0  0  0  0  0  0  0  0
  127.9815  133.5973  159.8136 C   0  0  0  0  0  0  0  0  0  0  0  0
  126.8035  133.5085  159.1335 C   0  0  0  0  0  0  0  0  0  0  0  0
  125.8996  134.3777  159.7694 C   0  0  0  0  0  0  0  0  0  0  0  0
  126.5640  134.9549  160.8039 C   0  0  0  0  0  0  0  0  0  0  0  0
  126.0340  135.8816  161.6918 N   0  0  0  0  0  0  0  0  0  0  0  0
  126.5100  135.9436  163.0036 C   0  0  0  0  0  0  0  0  0  0  0  0
  126.5041  137.1516  163.6901 C   0  0  0  0  0  0  0  0  0  0  0  0
  126.9714  137.2084  164.9884 C   0  0  0  0  0  0  0  0  0  0  0  0
  127.4540  136.0668  165.6017 C   0  0  0  0  0  0  0  0  0  0  0  0
  127.4658  134.8637  164.9197 C   0  0  0  0  0  0  0  0  0  0  0  0
  126.9957  134.7986  163.6229 C   0  0  0  0  0  0  0  0  0  0  0  0
  127.8190  134.4747  160.8270 O   0  0  0  0  0  0  0  0  0  0  0  0
  133.7760  140.7894  161.0902 H   0  0  0  0  0  0  0  0  0  0  0  0
  134.7645  139.8189  159.9565 H   0  0  0  0  0  0  0  0  0  0  0  0
  132.5332  139.2694  159.2406 H   0  0  0  0  0  0  0  0  0  0  0  0
  131.9011  139.2856  160.9203 H   0  0  0  0  0  0  0  0  0  0  0  0
  133.6817  137.1591  159.5823 H   0  0  0  0  0  0  0  0  0  0  0  0
  134.8226  136.8041  161.6690 H   0  0  0  0  0  0  0  0  0  0  0  0
  133.5392  136.7612  163.7119 H   0  0  0  0  0  0  0  0  0  0  0  0
  132.4953  138.1183  163.1818 H   0  0  0  0  0  0  0  0  0  0  0  0
  131.0930  136.2110  162.7258 H   0  0  0  0  0  0  0  0  0  0  0  0
  132.4845  135.2098  162.2051 H   0  0  0  0  0  0  0  0  0  0  0  0
  129.6885  135.4668  160.0546 H   0  0  0  0  0  0  0  0  0  0  0  0
  130.6333  134.4501  161.1692 H   0  0  0  0  0  0  0  0  0  0  0  0
  130.3754  134.0308  158.1578 H   0  0  0  0  0  0  0  0  0  0  0  0
  132.5516  133.2811  158.8879 H   0  0  0  0  0  0  0  0  0  0  0  0
  131.8645  132.5277  160.3511 H   0  0  0  0  0  0  0  0  0  0  0  0
  132.3631  130.8867  158.4797 H   0  0  0  0  0  0  0  0  0  0  0  0
  131.1169  131.7077  157.5064 H   0  0  0  0  0  0  0  0  0  0  0  0
  130.7522  130.2766  160.1718 H   0  0  0  0  0  0  0  0  0  0  0  0
  130.0442  129.8379  158.6002 H   0  0  0  0  0  0  0  0  0  0  0  0
  128.2320  131.0686  159.7618 H   0  0  0  0  0  0  0  0  0  0  0  0
  126.6028  132.8890  158.2719 H   0  0  0  0  0  0  0  0  0  0  0  0
  124.8716  134.5531  159.4885 H   0  0  0  0  0  0  0  0  0  0  0  0
  125.3332  136.4859  161.4011 H   0  0  0  0  0  0  0  0  0  0  0  0
  126.1314  138.0443  163.2102 H   0  0  0  0  0  0  0  0  0  0  0  0
  126.9636  138.1462  165.5239 H   0  0  0  0  0  0  0  0  0  0  0  0
  127.8231  136.1148  166.6156 H   0  0  0  0  0  0  0  0  0  0  0  0
  127.8436  133.9741  165.4018 H   0  0  0  0  0  0  0  0  0  0  0  0
  127.0059  133.8589  163.0907 H   0  0  0  0  0  0  0  0  0  0  0  0
  1  2  2  0
  2  6  1  0
  2  3  1  0
  3  4  1  0
  3 33  1  0
  3 34  1  0
  4  5  1  0
  4 35  1  0
  4 36  1  0
  5  9  1  0
  5  6  1  0
  5 37  1  6
  6  7  1  0
  6 38  1  6
  7  8  1  0
  7 39  1  0
  7 40  1  0
  8  9  1  0
  8 41  1  0
  8 42  1  0
  9 10  1  1
  9 11  1  0
 11 12  1  0
 11 13  1  0
 11 14  1  0
 14 15  1  0
 14 43  1  0
 14 44  1  0
 15 20  1  0
 15 16  1  0
 15 45  1  6
 16 17  1  0
 16 46  1  0
 16 47  1  0
 17 18  1  0
 17 48  1  0
 17 49  1  0
 18 19  1  0
 18 50  1  0
 18 51  1  0
 19 20  2  0
 19 52  1  0
 20 21  1  0
 21 32  1  0
 21 22  2  0
 22 23  1  0
 22 53  1  0
 23 24  2  0
 23 54  1  0
 24 25  1  0
 24 32  1  0
 25 26  1  0
 25 55  1  0
 26 31  1  0
 26 27  2  0
 27 28  1  0
 27 56  1  0
 28 29  2  0
 28 57  1  0
 29 30  1  0
 29 58  1  0
 30 31  2  0
 30 59  1  0
 31 60  1  0
M  CHG  1  11   1
M  END
>  <DOCK_score>  (1) 
-41.656128

>  <SMILES>  (1) 
O=C1CCC2C1CC[C@@H]2[NH2+]CC1CCCC=C1c1ccc(Nc2ccccc2)o1

$$$$
