CCc1ccc(-c2c[nH]c(N[C@@H](c3ccccc3)c3c(C)cccc3N)[nH+]2)cc1
     RDKit          3D

 56 59  0  0  1  0  0  0  0  0999 V2000
  130.1920  129.0064  151.6770 C   0  0  0  0  0  0  0  0  0  0  0  0
  131.4736  129.6252  152.2387 C   0  0  0  0  0  0  0  0  0  0  0  0
  131.1447  130.4327  153.4679 C   0  0  0  0  0  0  0  0  0  0  0  0
  131.1638  129.8305  154.7132 C   0  0  0  0  0  0  0  0  0  0  0  0
  130.8691  130.5666  155.8429 C   0  0  0  0  0  0  0  0  0  0  0  0
  130.5407  131.9160  155.7262 C   0  0  0  0  0  0  0  0  0  0  0  0
  130.2176  132.7108  156.9362 C   0  0  0  0  0  0  0  0  0  0  0  0
  129.6590  132.2363  158.0771 C   0  0  0  0  0  0  0  0  0  0  0  0
  129.5348  133.3029  158.9338 N   0  0  0  0  0  0  0  0  0  0  0  0
  129.1680  133.2791  159.8315 H   0  0  0  0  0  0  0  0  0  0  0  0
  130.0217  134.3990  158.2907 C   0  0  0  0  0  0  0  0  0  0  0  0
  130.0777  135.6807  158.8114 N   0  0  0  0  0  0  0  0  0  0  0  0
  129.5857  135.9431  160.1661 C   0  0  1  0  0  0  0  0  0  0  0  0
  130.1505  135.3439  160.8801 H   0  0  0  0  0  0  0  0  0  0  0  0
  129.7590  137.4049  160.4890 C   0  0  0  0  0  0  0  0  0  0  0  0
  128.8786  138.0315  161.3510 C   0  0  0  0  0  0  0  0  0  0  0  0
  129.0402  139.3713  161.6507 C   0  0  0  0  0  0  0  0  0  0  0  0
  130.0764  140.0869  161.0806 C   0  0  0  0  0  0  0  0  0  0  0  0
  130.9539  139.4615  160.2148 C   0  0  0  0  0  0  0  0  0  0  0  0
  130.7950  138.1206  159.9185 C   0  0  0  0  0  0  0  0  0  0  0  0
  128.1256  135.5799  160.2494 C   0  0  0  0  0  0  0  0  0  0  0  0
  127.3220  135.6846  159.1309 C   0  0  0  0  0  0  0  0  0  0  0  0
  127.9062  136.1626  157.8265 C   0  0  0  0  0  0  0  0  0  0  0  0
  125.9833  135.3471  159.2054 C   0  0  0  0  0  0  0  0  0  0  0  0
  125.4418  134.9134  160.4018 C   0  0  0  0  0  0  0  0  0  0  0  0
  126.2382  134.8113  161.5252 C   0  0  0  0  0  0  0  0  0  0  0  0
  127.5850  135.1447  161.4525 C   0  0  0  0  0  0  0  0  0  0  0  0
  128.3935  135.0431  162.5870 N   0  0  0  0  0  0  0  0  0  0  0  0
  130.4342  134.0402  157.0996 N   0  0  0  0  0  0  0  0  0  0  0  0
  130.8289  134.6311  156.4394 H   0  0  0  0  0  0  0  0  0  0  0  0
  130.5175  132.5159  154.4684 C   0  0  0  0  0  0  0  0  0  0  0  0
  130.8195  131.7716  153.3461 C   0  0  0  0  0  0  0  0  0  0  0  0
  130.4299  128.4225  150.7879 H   0  0  0  0  0  0  0  0  0  0  0  0
  129.7422  128.3575  152.4285 H   0  0  0  0  0  0  0  0  0  0  0  0
  129.4909  129.7986  151.4145 H   0  0  0  0  0  0  0  0  0  0  0  0
  132.1748  128.8330  152.5012 H   0  0  0  0  0  0  0  0  0  0  0  0
  131.9234  130.2743  151.4874 H   0  0  0  0  0  0  0  0  0  0  0  0
  131.4137  128.7836  154.8020 H   0  0  0  0  0  0  0  0  0  0  0  0
  130.8889  130.0967  156.8152 H   0  0  0  0  0  0  0  0  0  0  0  0
  129.3671  131.2153  158.2743 H   0  0  0  0  0  0  0  0  0  0  0  0
  130.4427  136.4047  158.2791 H   0  0  0  0  0  0  0  0  0  0  0  0
  128.0665  137.4733  161.7932 H   0  0  0  0  0  0  0  0  0  0  0  0
  128.3548  139.8597  162.3273 H   0  0  0  0  0  0  0  0  0  0  0  0
  130.2007  141.1345  161.3120 H   0  0  0  0  0  0  0  0  0  0  0  0
  131.7635  140.0206  159.7693 H   0  0  0  0  0  0  0  0  0  0  0  0
  131.4804  137.6321  159.2417 H   0  0  0  0  0  0  0  0  0  0  0  0
  128.3959  135.3301  157.3211 H   0  0  0  0  0  0  0  0  0  0  0  0
  127.1100  136.5543  157.1936 H   0  0  0  0  0  0  0  0  0  0  0  0
  128.6354  136.9489  158.0215 H   0  0  0  0  0  0  0  0  0  0  0  0
  125.3580  135.4263  158.3282 H   0  0  0  0  0  0  0  0  0  0  0  0
  124.3948  134.6548  160.4577 H   0  0  0  0  0  0  0  0  0  0  0  0
  125.8149  134.4723  162.4591 H   0  0  0  0  0  0  0  0  0  0  0  0
  129.2646  135.4692  162.6015 H   0  0  0  0  0  0  0  0  0  0  0  0
  128.0836  134.5463  163.3604 H   0  0  0  0  0  0  0  0  0  0  0  0
  130.2634  133.5612  154.3722 H   0  0  0  0  0  0  0  0  0  0  0  0
  130.8022  132.2356  152.3710 H   0  0  0  0  0  0  0  0  0  0  0  0
  1  2  1  0
  1 33  1  0
  1 34  1  0
  1 35  1  0
  2  3  1  0
  2 36  1  0
  2 37  1  0
  3 32  2  0
  3  4  1  0
  4  5  2  0
  4 38  1  0
  5  6  1  0
  5 39  1  0
  6  7  1  0
  6 31  2  0
  7 29  1  0
  7  8  2  0
  8  9  1  0
  8 40  1  0
  9 10  1  0
  9 11  1  0
 11 12  1  0
 11 29  2  0
 12 13  1  0
 12 41  1  0
 13 14  1  1
 13 15  1  0
 13 21  1  0
 15 20  1  0
 15 16  2  0
 16 17  1  0
 16 42  1  0
 17 18  2  0
 17 43  1  0
 18 19  1  0
 18 44  1  0
 19 20  2  0
 19 45  1  0
 20 46  1  0
 21 27  1  0
 21 22  2  0
 22 23  1  0
 22 24  1  0
 23 47  1  0
 23 48  1  0
 23 49  1  0
 24 25  2  0
 24 50  1  0
 25 26  1  0
 25 51  1  0
 26 27  2  0
 26 52  1  0
 27 28  1  0
 28 53  1  0
 28 54  1  0
 29 30  1  0
 31 32  1  0
 31 55  1  0
 32 56  1  0
M  CHG  1  29   1
M  END
>  <DOCK_score>  (1) 
-61.858238

>  <SMILES>  (1) 
CCc1ccc(-c2c[nH]c(N[C@@H](c3ccccc3)c3c(C)cccc3N)[nH+]2)cc1

$$$$
