N#Cc1cccc([C@H](CO)C[NH+]=C(NC2CC=CC2)N[C@@H]2C[C@H](O)C[C@H](O)C2)c1
     RDKit          3D

 60 62  0  0  1  0  0  0  0  0999 V2000
  131.0638  133.5176  153.2520 N   0  0  0  0  0  0  0  0  0  0  0  0
  130.8983  132.9833  154.2408 C   0  0  0  0  0  0  0  0  0  0  0  0
  130.6897  132.3098  155.4871 C   0  0  0  0  0  0  0  0  0  0  0  0
  130.9892  130.9512  155.6090 C   0  0  0  0  0  0  0  0  0  0  0  0
  130.7853  130.3087  156.8123 C   0  0  0  0  0  0  0  0  0  0  0  0
  130.2853  131.0070  157.8973 C   0  0  0  0  0  0  0  0  0  0  0  0
  129.9865  132.3530  157.7836 C   0  0  0  0  0  0  0  0  0  0  0  0
  129.4424  133.1051  158.9707 C   0  0  2  0  0  0  0  0  0  0  0  0
  129.3538  132.4281  159.8203 H   0  0  0  0  0  0  0  0  0  0  0  0
  128.0646  133.6743  158.6260 C   0  0  0  0  0  0  0  0  0  0  0  0
  127.3558  133.9687  159.8315 O   0  0  0  0  0  0  0  0  0  0  0  0
  130.3922  134.2502  159.3280 C   0  0  0  0  0  0  0  0  0  0  0  0
  129.8633  134.9814  160.4820 N   0  0  0  0  0  0  0  0  0  0  0  0
  129.0278  134.7049  160.8899 H   0  0  0  0  0  0  0  0  0  0  0  0
  130.5154  136.0037  160.9604 C   0  0  0  0  0  0  0  0  0  0  0  0
  131.6995  136.3954  160.3821 N   0  0  0  0  0  0  0  0  0  0  0  0
  132.4325  137.5444  160.9198 C   0  0  0  0  0  0  0  0  0  0  0  0
  132.1336  138.8241  160.1052 C   0  0  0  0  0  0  0  0  0  0  0  0
  133.4504  139.5650  160.0580 C   0  0  0  0  0  0  0  0  0  0  0  0
  134.4429  138.7808  160.3802 C   0  0  0  0  0  0  0  0  0  0  0  0
  133.9542  137.3862  160.6955 C   0  0  0  0  0  0  0  0  0  0  0  0
  130.0191  136.6897  162.0435 N   0  0  0  0  0  0  0  0  0  0  0  0
  129.2092  135.9912  163.0447 C   0  0  2  0  0  0  0  0  0  0  0  0
  129.5205  134.9480  163.1004 H   0  0  0  0  0  0  0  0  0  0  0  0
  127.7335  136.0624  162.6470 C   0  0  0  0  0  0  0  0  0  0  0  0
  126.8878  135.3329  163.6926 C   0  0  2  0  0  0  0  0  0  0  0  0
  127.1991  134.2897  163.7484 H   0  0  0  0  0  0  0  0  0  0  0  0
  125.5096  135.3994  163.3212 O   0  0  0  0  0  0  0  0  0  0  0  0
  127.0807  135.9963  165.0579 C   0  0  0  0  0  0  0  0  0  0  0  0
  128.5564  135.9251  165.4555 C   0  0  2  0  0  0  0  0  0  0  0  0
  128.8678  134.8819  165.5112 H   0  0  0  0  0  0  0  0  0  0  0  0
  128.7365  136.5446  166.7305 O   0  0  0  0  0  0  0  0  0  0  0  0
  129.4022  136.6546  164.4098 C   0  0  0  0  0  0  0  0  0  0  0  0
  130.1802  133.0069  156.5842 C   0  0  0  0  0  0  0  0  0  0  0  0
  131.3791  130.4049  154.7629 H   0  0  0  0  0  0  0  0  0  0  0  0
  131.0162  129.2579  156.9078 H   0  0  0  0  0  0  0  0  0  0  0  0
  130.1279  130.4990  158.8373 H   0  0  0  0  0  0  0  0  0  0  0  0
  128.1841  134.5872  158.0426 H   0  0  0  0  0  0  0  0  0  0  0  0
  127.5041  132.9422  158.0447 H   0  0  0  0  0  0  0  0  0  0  0  0
  127.2130  133.2006  160.4013 H   0  0  0  0  0  0  0  0  0  0  0  0
  130.4809  134.9273  158.4783 H   0  0  0  0  0  0  0  0  0  0  0  0
  131.3738  133.8448  159.5735 H   0  0  0  0  0  0  0  0  0  0  0  0
  132.0476  135.9137  159.6156 H   0  0  0  0  0  0  0  0  0  0  0  0
  132.2057  137.6908  161.9759 H   0  0  0  0  0  0  0  0  0  0  0  0
  131.8071  138.5655  159.0979 H   0  0  0  0  0  0  0  0  0  0  0  0
  131.3764  139.4261  160.6077 H   0  0  0  0  0  0  0  0  0  0  0  0
  133.5559  140.6066  159.7929 H   0  0  0  0  0  0  0  0  0  0  0  0
  135.4774  139.0886  160.4170 H   0  0  0  0  0  0  0  0  0  0  0  0
  134.4343  137.0110  161.5993 H   0  0  0  0  0  0  0  0  0  0  0  0
  134.1470  136.7176  159.8565 H   0  0  0  0  0  0  0  0  0  0  0  0
  130.2050  137.6363  162.1447 H   0  0  0  0  0  0  0  0  0  0  0  0
  127.4221  137.1055  162.5914 H   0  0  0  0  0  0  0  0  0  0  0  0
  127.5962  135.5898  161.6745 H   0  0  0  0  0  0  0  0  0  0  0  0
  125.1637  136.2999  163.2522 H   0  0  0  0  0  0  0  0  0  0  0  0
  126.7693  137.0394  165.0021 H   0  0  0  0  0  0  0  0  0  0  0  0
  126.4781  135.4765  165.8027 H   0  0  0  0  0  0  0  0  0  0  0  0
  129.6504  136.5361  167.0463 H   0  0  0  0  0  0  0  0  0  0  0  0
  130.4534  136.6039  164.6932 H   0  0  0  0  0  0  0  0  0  0  0  0
  129.0907  137.6978  164.3541 H   0  0  0  0  0  0  0  0  0  0  0  0
  129.9424  134.0567  156.4956 H   0  0  0  0  0  0  0  0  0  0  0  0
  1  2  3  0
  2  3  1  0
  3 34  2  0
  3  4  1  0
  4  5  2  0
  4 35  1  0
  5  6  1  0
  5 36  1  0
  6  7  2  0
  6 37  1  0
  7  8  1  0
  7 34  1  0
  8  9  1  1
  8 10  1  0
  8 12  1  0
 10 11  1  0
 10 38  1  0
 10 39  1  0
 11 40  1  0
 12 13  1  0
 12 41  1  0
 12 42  1  0
 13 14  1  0
 15 13  2  0
 15 16  1  0
 15 22  1  0
 16 17  1  0
 16 43  1  0
 17 21  1  0
 17 18  1  0
 17 44  1  0
 18 19  1  0
 18 45  1  0
 18 46  1  0
 19 20  2  0
 19 47  1  0
 20 21  1  0
 20 48  1  0
 21 49  1  0
 21 50  1  0
 22 23  1  0
 22 51  1  0
 23 24  1  1
 23 33  1  0
 23 25  1  0
 25 26  1  0
 25 52  1  0
 25 53  1  0
 26 27  1  1
 26 28  1  0
 26 29  1  0
 28 54  1  0
 29 30  1  0
 29 55  1  0
 29 56  1  0
 30 31  1  1
 30 32  1  0
 30 33  1  0
 32 57  1  0
 33 58  1  0
 33 59  1  0
 34 60  1  0
M  CHG  1  13   1
M  END
>  <DOCK_score>  (1) 
-42.584599

>  <SMILES>  (1) 
N#Cc1cccc([C@H](CO)C[NH+]=C(NC2CC=CC2)N[C@@H]2C[C@H](O)C[C@H](O)C2)c1

$$$$
