O=C1CC[C@H](NC(NC2CCCCCC2)=[NH+][C@H]2Cc3cccc(O)c3C2)CN1
     RDKit          3D

 61 64  0  0  1  0  0  0  0  0999 V2000
  123.6915  134.0440  161.5336 O   0  0  0  0  0  0  0  0  0  0  0  0
  124.8814  134.2353  161.3972 C   0  0  0  0  0  0  0  0  0  0  0  0
  125.7223  133.1185  160.8487 C   0  0  0  0  0  0  0  0  0  0  0  0
  127.1991  133.3793  161.1558 C   0  0  0  0  0  0  0  0  0  0  0  0
  127.5323  134.8191  160.7463 C   0  0  2  0  0  0  0  0  0  0  0  0
  127.2204  134.9876  159.7156 H   0  0  0  0  0  0  0  0  0  0  0  0
  128.9752  135.0427  160.8661 N   0  0  0  0  0  0  0  0  0  0  0  0
  129.8007  134.7927  159.7955 C   0  0  0  0  0  0  0  0  0  0  0  0
  129.2722  134.3330  158.6125 N   0  0  0  0  0  0  0  0  0  0  0  0
  130.0725  133.4718  157.7383 C   0  0  0  0  0  0  0  0  0  0  0  0
  129.2638  133.1675  156.4606 C   0  0  0  0  0  0  0  0  0  0  0  0
  130.2216  132.7449  155.3788 C   0  0  0  0  0  0  0  0  0  0  0  0
  130.3784  131.2143  155.2980 C   0  0  0  0  0  0  0  0  0  0  0  0
  130.4688  130.5489  156.6846 C   0  0  0  0  0  0  0  0  0  0  0  0
  131.3338  131.3252  157.6404 C   0  0  0  0  0  0  0  0  0  0  0  0
  130.4309  132.2638  158.4666 C   0  0  0  0  0  0  0  0  0  0  0  0
  131.0845  134.9917  159.9020 N   0  0  0  0  0  0  0  0  0  0  0  0
  131.6023  135.2447  159.1218 H   0  0  0  0  0  0  0  0  0  0  0  0
  131.7451  134.8333  161.1999 C   0  0  1  0  0  0  0  0  0  0  0  0
  131.2298  134.0891  161.8069 H   0  0  0  0  0  0  0  0  0  0  0  0
  133.2313  134.4588  161.0171 C   0  0  0  0  0  0  0  0  0  0  0  0
  133.9576  135.1566  162.1470 C   0  0  0  0  0  0  0  0  0  0  0  0
  135.2222  134.9402  162.6699 C   0  0  0  0  0  0  0  0  0  0  0  0
  135.6852  135.7115  163.7181 C   0  0  0  0  0  0  0  0  0  0  0  0
  134.8855  136.7042  164.2512 C   0  0  0  0  0  0  0  0  0  0  0  0
  133.6195  136.9241  163.7317 C   0  0  0  0  0  0  0  0  0  0  0  0
  132.8318  137.9004  164.2544 O   0  0  0  0  0  0  0  0  0  0  0  0
  133.1545  136.1480  162.6765 C   0  0  0  0  0  0  0  0  0  0  0  0
  131.8284  136.1844  161.9417 C   0  0  0  0  0  0  0  0  0  0  0  0
  126.7858  135.7775  161.6751 C   0  0  0  0  0  0  0  0  0  0  0  0
  125.3728  135.4259  161.7420 N   0  0  0  0  0  0  0  0  0  0  0  0
  125.4181  132.1774  161.3067 H   0  0  0  0  0  0  0  0  0  0  0  0
  125.5825  133.0564  159.7695 H   0  0  0  0  0  0  0  0  0  0  0  0
  127.3804  133.2500  162.2228 H   0  0  0  0  0  0  0  0  0  0  0  0
  127.8198  132.6837  160.5911 H   0  0  0  0  0  0  0  0  0  0  0  0
  129.3481  135.3670  161.7008 H   0  0  0  0  0  0  0  0  0  0  0  0
  128.3694  134.5789  158.3566 H   0  0  0  0  0  0  0  0  0  0  0  0
  130.9843  134.0007  157.4613 H   0  0  0  0  0  0  0  0  0  0  0  0
  128.5548  132.3636  156.6588 H   0  0  0  0  0  0  0  0  0  0  0  0
  128.7278  134.0625  156.1447 H   0  0  0  0  0  0  0  0  0  0  0  0
  131.1970  133.1892  155.5769 H   0  0  0  0  0  0  0  0  0  0  0  0
  129.8549  133.1129  154.4207 H   0  0  0  0  0  0  0  0  0  0  0  0
  131.2839  130.9827  154.7372 H   0  0  0  0  0  0  0  0  0  0  0  0
  129.5210  130.8022  154.7657 H   0  0  0  0  0  0  0  0  0  0  0  0
  130.8824  129.5471  156.5688 H   0  0  0  0  0  0  0  0  0  0  0  0
  129.4651  130.4696  157.1023 H   0  0  0  0  0  0  0  0  0  0  0  0
  132.0602  131.9147  157.0807 H   0  0  0  0  0  0  0  0  0  0  0  0
  131.8556  130.6386  158.3070 H   0  0  0  0  0  0  0  0  0  0  0  0
  130.9557  132.5447  159.3798 H   0  0  0  0  0  0  0  0  0  0  0  0
  129.5194  131.7302  158.7356 H   0  0  0  0  0  0  0  0  0  0  0  0
  133.3615  133.3793  161.0935 H   0  0  0  0  0  0  0  0  0  0  0  0
  133.5955  134.8159  160.0537 H   0  0  0  0  0  0  0  0  0  0  0  0
  135.8494  134.1649  162.2554 H   0  0  0  0  0  0  0  0  0  0  0  0
  136.6720  135.5383  164.1214 H   0  0  0  0  0  0  0  0  0  0  0  0
  135.2464  137.3078  165.0708 H   0  0  0  0  0  0  0  0  0  0  0  0
  131.9676  137.9790  163.8276 H   0  0  0  0  0  0  0  0  0  0  0  0
  131.8144  137.0088  161.2287 H   0  0  0  0  0  0  0  0  0  0  0  0
  131.0033  136.2797  162.6476 H   0  0  0  0  0  0  0  0  0  0  0  0
  126.8864  136.7955  161.2986 H   0  0  0  0  0  0  0  0  0  0  0  0
  127.2187  135.7217  162.6739 H   0  0  0  0  0  0  0  0  0  0  0  0
  124.7505  136.1019  162.0533 H   0  0  0  0  0  0  0  0  0  0  0  0
  1  2  2  0
  2 31  1  0
  2  3  1  0
  3  4  1  0
  3 32  1  0
  3 33  1  0
  4  5  1  0
  4 34  1  0
  4 35  1  0
  5  6  1  6
  5  7  1  0
  5 30  1  0
  7 36  1  0
  8  7  1  0
  8  9  1  0
  8 17  2  0
  9 10  1  0
  9 37  1  0
 10 16  1  0
 10 11  1  0
 10 38  1  0
 11 12  1  0
 11 39  1  0
 11 40  1  0
 12 13  1  0
 12 41  1  0
 12 42  1  0
 13 14  1  0
 13 43  1  0
 13 44  1  0
 14 15  1  0
 14 45  1  0
 14 46  1  0
 15 16  1  0
 15 47  1  0
 15 48  1  0
 16 49  1  0
 16 50  1  0
 17 18  1  0
 17 19  1  0
 19 20  1  1
 19 29  1  0
 19 21  1  0
 21 22  1  0
 21 51  1  0
 21 52  1  0
 22 28  2  0
 22 23  1  0
 23 24  2  0
 23 53  1  0
 24 25  1  0
 24 54  1  0
 25 26  2  0
 25 55  1  0
 26 27  1  0
 26 28  1  0
 27 56  1  0
 28 29  1  0
 29 57  1  0
 29 58  1  0
 30 31  1  0
 30 59  1  0
 30 60  1  0
 31 61  1  0
M  CHG  1  17   1
M  END
>  <DOCK_score>  (1) 
-46.809135

>  <SMILES>  (1) 
O=C1CC[C@H](NC(NC2CCCCCC2)=[NH+][C@H]2Cc3cccc(O)c3C2)CN1

$$$$
