CCc1ccc(-c2c[nH]c(N[C@@H](Nc3ccccc3)c3ccccc3)[nH+]2)cc1
     RDKit          3D

 53 56  0  0  1  0  0  0  0  0999 V2000
  130.6231  128.4651  151.6160 C   0  0  0  0  0  0  0  0  0  0  0  0
  131.7056  129.4825  151.9819 C   0  0  0  0  0  0  0  0  0  0  0  0
  131.3165  130.1954  153.2513 C   0  0  0  0  0  0  0  0  0  0  0  0
  131.7080  129.6851  154.4755 C   0  0  0  0  0  0  0  0  0  0  0  0
  131.3596  130.3366  155.6412 C   0  0  0  0  0  0  0  0  0  0  0  0
  130.6021  131.5050  155.5836 C   0  0  0  0  0  0  0  0  0  0  0  0
  130.2198  132.2068  156.8332 C   0  0  0  0  0  0  0  0  0  0  0  0
  129.4848  131.6873  157.8475 C   0  0  0  0  0  0  0  0  0  0  0  0
  129.3683  132.6705  158.7997 N   0  0  0  0  0  0  0  0  0  0  0  0
  128.8968  132.5993  159.6444 H   0  0  0  0  0  0  0  0  0  0  0  0
  130.0362  133.7632  158.3390 C   0  0  0  0  0  0  0  0  0  0  0  0
  130.1593  134.9720  159.0025 N   0  0  0  0  0  0  0  0  0  0  0  0
  129.1002  135.4209  159.9096 C   0  0  1  0  0  0  0  0  0  0  0  0
  128.9750  134.6924  160.7107 H   0  0  0  0  0  0  0  0  0  0  0  0
  129.4655  136.7188  160.4825 N   0  0  0  0  0  0  0  0  0  0  0  0
  130.6332  136.8446  161.2385 C   0  0  0  0  0  0  0  0  0  0  0  0
  131.8318  137.1738  160.6184 C   0  0  0  0  0  0  0  0  0  0  0  0
  132.9836  137.3021  161.3696 C   0  0  0  0  0  0  0  0  0  0  0  0
  132.9466  137.0930  162.7361 C   0  0  0  0  0  0  0  0  0  0  0  0
  131.7561  136.7600  163.3557 C   0  0  0  0  0  0  0  0  0  0  0  0
  130.5995  136.6353  162.6113 C   0  0  0  0  0  0  0  0  0  0  0  0
  127.8079  135.5546  159.1459 C   0  0  0  0  0  0  0  0  0  0  0  0
  126.6012  135.3451  159.7870 C   0  0  0  0  0  0  0  0  0  0  0  0
  125.4158  135.4722  159.0874 C   0  0  0  0  0  0  0  0  0  0  0  0
  125.4373  135.7998  157.7447 C   0  0  0  0  0  0  0  0  0  0  0  0
  126.6441  136.0042  157.1023 C   0  0  0  0  0  0  0  0  0  0  0  0
  127.8295  135.8813  157.8029 C   0  0  0  0  0  0  0  0  0  0  0  0
  130.5486  133.4804  157.1662 N   0  0  0  0  0  0  0  0  0  0  0  0
  131.0764  134.0856  156.6223 H   0  0  0  0  0  0  0  0  0  0  0  0
  130.2054  132.0119  154.3472 C   0  0  0  0  0  0  0  0  0  0  0  0
  130.5644  131.3551  153.1878 C   0  0  0  0  0  0  0  0  0  0  0  0
  130.5194  127.7395  152.4228 H   0  0  0  0  0  0  0  0  0  0  0  0
  129.6744  128.9809  151.4671 H   0  0  0  0  0  0  0  0  0  0  0  0
  130.9044  127.9496  150.6978 H   0  0  0  0  0  0  0  0  0  0  0  0
  132.6539  128.9672  152.1304 H   0  0  0  0  0  0  0  0  0  0  0  0
  131.8089  130.2086  151.1747 H   0  0  0  0  0  0  0  0  0  0  0  0
  132.2909  128.7769  154.5193 H   0  0  0  0  0  0  0  0  0  0  0  0
  131.6700  129.9395  156.5964 H   0  0  0  0  0  0  0  0  0  0  0  0
  129.0701  130.6913  157.8969 H   0  0  0  0  0  0  0  0  0  0  0  0
  130.9468  135.5218  158.8665 H   0  0  0  0  0  0  0  0  0  0  0  0
  128.8964  137.4906  160.3369 H   0  0  0  0  0  0  0  0  0  0  0  0
  131.8623  137.3328  159.5507 H   0  0  0  0  0  0  0  0  0  0  0  0
  133.9151  137.5620  160.8887 H   0  0  0  0  0  0  0  0  0  0  0  0
  133.8497  137.1896  163.3205 H   0  0  0  0  0  0  0  0  0  0  0  0
  131.7307  136.5972  164.4231 H   0  0  0  0  0  0  0  0  0  0  0  0
  129.6702  136.3749  163.0959 H   0  0  0  0  0  0  0  0  0  0  0  0
  126.5846  135.0854  160.8351 H   0  0  0  0  0  0  0  0  0  0  0  0
  124.4728  135.3127  159.5894 H   0  0  0  0  0  0  0  0  0  0  0  0
  124.5112  135.8964  157.1975 H   0  0  0  0  0  0  0  0  0  0  0  0
  126.6610  136.2602  156.0533 H   0  0  0  0  0  0  0  0  0  0  0  0
  128.7725  136.0410  157.3011 H   0  0  0  0  0  0  0  0  0  0  0  0
  129.6181  132.9168  154.2967 H   0  0  0  0  0  0  0  0  0  0  0  0
  130.2574  131.7467  152.2294 H   0  0  0  0  0  0  0  0  0  0  0  0
  1  2  1  0
  1 32  1  0
  1 33  1  0
  1 34  1  0
  2  3  1  0
  2 35  1  0
  2 36  1  0
  3 31  2  0
  3  4  1  0
  4  5  2  0
  4 37  1  0
  5  6  1  0
  5 38  1  0
  6  7  1  0
  6 30  2  0
  7 28  1  0
  7  8  2  0
  8  9  1  0
  8 39  1  0
  9 10  1  0
  9 11  1  0
 11 12  1  0
 11 28  2  0
 12 13  1  0
 12 40  1  0
 13 14  1  1
 13 15  1  0
 13 22  1  0
 15 16  1  0
 15 41  1  0
 16 21  1  0
 16 17  2  0
 17 18  1  0
 17 42  1  0
 18 19  2  0
 18 43  1  0
 19 20  1  0
 19 44  1  0
 20 21  2  0
 20 45  1  0
 21 46  1  0
 22 27  1  0
 22 23  2  0
 23 24  1  0
 23 47  1  0
 24 25  2  0
 24 48  1  0
 25 26  1  0
 25 49  1  0
 26 27  2  0
 26 50  1  0
 27 51  1  0
 28 29  1  0
 30 31  1  0
 30 52  1  0
 31 53  1  0
M  CHG  1  28   1
M  END
>  <DOCK_score>  (1) 
-61.232544

>  <SMILES>  (1) 
CCc1ccc(-c2c[nH]c(N[C@@H](Nc3ccccc3)c3ccccc3)[nH+]2)cc1

$$$$
