Nc1ccc(-c2c[nH]c(N[C@H](c3ccccc3)c3cc4c(ccc5cccnc54)o3)[nH+]2)cc1
     RDKit          3D

 55 60  0  0  1  0  0  0  0  0999 V2000
  131.1914  129.3960  151.6827 N   0  0  0  0  0  0  0  0  0  0  0  0
  130.9962  130.0347  152.9096 C   0  0  0  0  0  0  0  0  0  0  0  0
  130.1487  131.1331  152.9928 C   0  0  0  0  0  0  0  0  0  0  0  0
  129.9541  131.7650  154.2030 C   0  0  0  0  0  0  0  0  0  0  0  0
  130.6082  131.3013  155.3433 C   0  0  0  0  0  0  0  0  0  0  0  0
  130.4008  131.9797  156.6462 C   0  0  0  0  0  0  0  0  0  0  0  0
  129.9003  131.4114  157.7709 C   0  0  0  0  0  0  0  0  0  0  0  0
  129.8795  132.3897  158.7366 N   0  0  0  0  0  0  0  0  0  0  0  0
  129.5698  132.2889  159.6502 H   0  0  0  0  0  0  0  0  0  0  0  0
  130.3684  133.5272  158.1721 C   0  0  0  0  0  0  0  0  0  0  0  0
  130.5137  134.7467  158.8114 N   0  0  0  0  0  0  0  0  0  0  0  0
  130.1252  134.8877  160.2169 C   0  0  2  0  0  0  0  0  0  0  0  0
  130.4236  133.9957  160.7676 H   0  0  0  0  0  0  0  0  0  0  0  0
  128.6310  135.0594  160.3102 C   0  0  0  0  0  0  0  0  0  0  0  0
  127.9512  134.6039  161.4243 C   0  0  0  0  0  0  0  0  0  0  0  0
  126.5810  134.7650  161.5115 C   0  0  0  0  0  0  0  0  0  0  0  0
  125.8896  135.3745  160.4812 C   0  0  0  0  0  0  0  0  0  0  0  0
  126.5688  135.8252  159.3648 C   0  0  0  0  0  0  0  0  0  0  0  0
  127.9395  135.6677  159.2793 C   0  0  0  0  0  0  0  0  0  0  0  0
  130.8074  136.0946  160.8079 C   0  0  0  0  0  0  0  0  0  0  0  0
  132.0029  136.5706  160.4225 C   0  0  0  0  0  0  0  0  0  0  0  0
  132.2628  137.7401  161.2602 C   0  0  0  0  0  0  0  0  0  0  0  0
  131.1577  137.8558  162.1084 C   0  0  0  0  0  0  0  0  0  0  0  0
  131.1061  138.8922  163.0480 C   0  0  0  0  0  0  0  0  0  0  0  0
  132.1086  139.7983  163.1609 C   0  0  0  0  0  0  0  0  0  0  0  0
  133.2454  139.7321  162.3345 C   0  0  0  0  0  0  0  0  0  0  0  0
  134.2876  140.6687  162.4465 C   0  0  0  0  0  0  0  0  0  0  0  0
  135.3620  140.5434  161.6102 C   0  0  0  0  0  0  0  0  0  0  0  0
  135.4005  139.5086  160.6810 C   0  0  0  0  0  0  0  0  0  0  0  0
  134.4243  138.6366  160.5805 N   0  0  0  0  0  0  0  0  0  0  0  0
  133.3509  138.7038  161.3657 C   0  0  0  0  0  0  0  0  0  0  0  0
  130.3129  136.8506  161.8022 O   0  0  0  0  0  0  0  0  0  0  0  0
  130.6788  133.2783  156.9231 N   0  0  0  0  0  0  0  0  0  0  0  0
  131.0477  133.9203  156.2967 H   0  0  0  0  0  0  0  0  0  0  0  0
  131.4618  130.2027  155.2563 C   0  0  0  0  0  0  0  0  0  0  0  0
  131.6493  129.5707  154.0452 C   0  0  0  0  0  0  0  0  0  0  0  0
  130.7357  129.7190  150.8898 H   0  0  0  0  0  0  0  0  0  0  0  0
  131.7827  128.6292  151.6238 H   0  0  0  0  0  0  0  0  0  0  0  0
  129.6424  131.4923  152.1091 H   0  0  0  0  0  0  0  0  0  0  0  0
  129.2952  132.6183  154.2673 H   0  0  0  0  0  0  0  0  0  0  0  0
  129.5791  130.3867  157.8860 H   0  0  0  0  0  0  0  0  0  0  0  0
  130.8727  135.5075  158.3287 H   0  0  0  0  0  0  0  0  0  0  0  0
  128.4908  134.1248  162.2278 H   0  0  0  0  0  0  0  0  0  0  0  0
  126.0502  134.4123  162.3836 H   0  0  0  0  0  0  0  0  0  0  0  0
  124.8188  135.4979  160.5482 H   0  0  0  0  0  0  0  0  0  0  0  0
  126.0286  136.3010  158.5597 H   0  0  0  0  0  0  0  0  0  0  0  0
  128.4701  136.0198  158.4071 H   0  0  0  0  0  0  0  0  0  0  0  0
  132.6422  136.1709  159.6493 H   0  0  0  0  0  0  0  0  0  0  0  0
  130.2472  138.9722  163.6980 H   0  0  0  0  0  0  0  0  0  0  0  0
  132.0329  140.5843  163.8978 H   0  0  0  0  0  0  0  0  0  0  0  0
  134.2410  141.4660  163.1736 H   0  0  0  0  0  0  0  0  0  0  0  0
  136.1795  141.2464  161.6710 H   0  0  0  0  0  0  0  0  0  0  0  0
  136.2547  139.4209  160.0259 H   0  0  0  0  0  0  0  0  0  0  0  0
  131.9731  129.8445  156.1378 H   0  0  0  0  0  0  0  0  0  0  0  0
  132.3077  128.7171  153.9782 H   0  0  0  0  0  0  0  0  0  0  0  0
  1  2  1  0
  1 37  1  0
  1 38  1  0
  2 36  2  0
  2  3  1  0
  3  4  2  0
  3 39  1  0
  4  5  1  0
  4 40  1  0
  5  6  1  0
  5 35  2  0
  6 33  1  0
  6  7  2  0
  7  8  1  0
  7 41  1  0
  8  9  1  0
  8 10  1  0
 10 11  1  0
 10 33  2  0
 11 12  1  0
 11 42  1  0
 12 13  1  1
 12 14  1  0
 12 20  1  0
 14 19  1  0
 14 15  2  0
 15 16  1  0
 15 43  1  0
 16 17  2  0
 16 44  1  0
 17 18  1  0
 17 45  1  0
 18 19  2  0
 18 46  1  0
 19 47  1  0
 20 32  1  0
 20 21  2  0
 21 22  1  0
 21 48  1  0
 22 31  2  0
 22 23  1  0
 23 24  2  0
 23 32  1  0
 24 25  1  0
 24 49  1  0
 25 26  2  0
 25 50  1  0
 26 31  1  0
 26 27  1  0
 27 28  2  0
 27 51  1  0
 28 29  1  0
 28 52  1  0
 29 30  2  0
 29 53  1  0
 30 31  1  0
 33 34  1  0
 35 36  1  0
 35 54  1  0
 36 55  1  0
M  CHG  1  33   1
M  END
>  <DOCK_score>  (1) 
-61.966885

>  <SMILES>  (1) 
Nc1ccc(-c2c[nH]c(N[C@H](c3ccccc3)c3cc4c(ccc5cccnc54)o3)[nH+]2)cc1

$$$$
