ClCCc1c(Sc2ccccc2)cccc1N1CC[NH+](C(c2ccccc2)c2ccccc2)CC1
     RDKit          3D

 67 71  0  0  0  0  0  0  0  0999 V2000
  131.8965  138.5025  165.5245 Cl  0  0  0  0  0  0  0  0  0  0  0  0
  132.4397  139.2137  163.9592 C   0  0  0  0  0  0  0  0  0  0  0  0
  133.6977  138.4877  163.4784 C   0  0  0  0  0  0  0  0  0  0  0  0
  134.1515  139.0821  162.1701 C   0  0  0  0  0  0  0  0  0  0  0  0
  135.0482  140.1425  162.1614 C   0  0  0  0  0  0  0  0  0  0  0  0
  135.6578  140.7947  163.6805 S   0  0  0  0  0  0  0  0  0  0  0  0
  136.4610  139.4083  164.4133 C   0  0  0  0  0  0  0  0  0  0  0  0
  137.0320  138.4290  163.6094 C   0  0  0  0  0  0  0  0  0  0  0  0
  137.6653  137.3466  164.1871 C   0  0  0  0  0  0  0  0  0  0  0  0
  137.7226  137.2309  165.5641 C   0  0  0  0  0  0  0  0  0  0  0  0
  137.1505  138.2005  166.3674 C   0  0  0  0  0  0  0  0  0  0  0  0
  136.5202  139.2885  165.7966 C   0  0  0  0  0  0  0  0  0  0  0  0
  135.4602  140.6920  160.9530 C   0  0  0  0  0  0  0  0  0  0  0  0
  134.9826  140.1810  159.7615 C   0  0  0  0  0  0  0  0  0  0  0  0
  134.0944  139.1229  159.7667 C   0  0  0  0  0  0  0  0  0  0  0  0
  133.6785  138.5681  160.9715 C   0  0  0  0  0  0  0  0  0  0  0  0
  132.7809  137.4980  160.9755 N   0  0  0  0  0  0  0  0  0  0  0  0
  131.4869  137.8938  160.4022 C   0  0  0  0  0  0  0  0  0  0  0  0
  130.5157  136.7136  160.4796 C   0  0  0  0  0  0  0  0  0  0  0  0
  131.0708  135.5733  159.7386 N   0  0  0  0  0  0  0  0  0  0  0  0
  131.2182  135.8376  158.7760 H   0  0  0  0  0  0  0  0  0  0  0  0
  130.1300  134.4466  159.7978 C   0  0  0  0  0  0  0  0  0  0  0  0
  128.8171  134.8554  159.1813 C   0  0  0  0  0  0  0  0  0  0  0  0
  127.6384  134.2845  159.6235 C   0  0  0  0  0  0  0  0  0  0  0  0
  126.4335  134.6629  159.0612 C   0  0  0  0  0  0  0  0  0  0  0  0
  126.4081  135.6044  158.0504 C   0  0  0  0  0  0  0  0  0  0  0  0
  127.5877  136.1718  157.6038 C   0  0  0  0  0  0  0  0  0  0  0  0
  128.7920  135.7971  158.1696 C   0  0  0  0  0  0  0  0  0  0  0  0
  130.6991  133.2764  159.0377 C   0  0  0  0  0  0  0  0  0  0  0  0
  130.4245  133.1276  157.6911 C   0  0  0  0  0  0  0  0  0  0  0  0
  130.9505  132.0569  156.9926 C   0  0  0  0  0  0  0  0  0  0  0  0
  131.7426  131.1293  157.6432 C   0  0  0  0  0  0  0  0  0  0  0  0
  132.0129  131.2753  158.9909 C   0  0  0  0  0  0  0  0  0  0  0  0
  131.4912  132.3488  159.6881 C   0  0  0  0  0  0  0  0  0  0  0  0
  132.3509  135.1740  160.3379 C   0  0  0  0  0  0  0  0  0  0  0  0
  133.3372  136.3413  160.2594 C   0  0  0  0  0  0  0  0  0  0  0  0
  132.6616  140.2718  164.0985 H   0  0  0  0  0  0  0  0  0  0  0  0
  131.6499  139.1030  163.2163 H   0  0  0  0  0  0  0  0  0  0  0  0
  133.4757  137.4296  163.3392 H   0  0  0  0  0  0  0  0  0  0  0  0
  134.4874  138.5985  164.2213 H   0  0  0  0  0  0  0  0  0  0  0  0
  136.9841  138.5166  162.5340 H   0  0  0  0  0  0  0  0  0  0  0  0
  138.1129  136.5872  163.5629 H   0  0  0  0  0  0  0  0  0  0  0  0
  138.2151  136.3810  166.0133 H   0  0  0  0  0  0  0  0  0  0  0  0
  137.1971  138.1070  167.4423 H   0  0  0  0  0  0  0  0  0  0  0  0
  136.0733  140.0451  166.4243 H   0  0  0  0  0  0  0  0  0  0  0  0
  136.1546  141.5191  160.9453 H   0  0  0  0  0  0  0  0  0  0  0  0
  135.3045  140.6097  158.8239 H   0  0  0  0  0  0  0  0  0  0  0  0
  133.7231  138.7260  158.8334 H   0  0  0  0  0  0  0  0  0  0  0  0
  131.6241  138.1842  159.3606 H   0  0  0  0  0  0  0  0  0  0  0  0
  131.0821  138.7353  160.9645 H   0  0  0  0  0  0  0  0  0  0  0  0
  129.5596  137.0007  160.0419 H   0  0  0  0  0  0  0  0  0  0  0  0
  130.3682  136.4323  161.5222 H   0  0  0  0  0  0  0  0  0  0  0  0
  129.9699  134.1612  160.8376 H   0  0  0  0  0  0  0  0  0  0  0  0
  127.6584  133.5455  160.4107 H   0  0  0  0  0  0  0  0  0  0  0  0
  125.5123  134.2196  159.4093 H   0  0  0  0  0  0  0  0  0  0  0  0
  125.4677  135.8970  157.6072 H   0  0  0  0  0  0  0  0  0  0  0  0
  127.5681  136.9073  156.8131 H   0  0  0  0  0  0  0  0  0  0  0  0
  129.7134  136.2399  157.8211 H   0  0  0  0  0  0  0  0  0  0  0  0
  129.8021  133.8498  157.1837 H   0  0  0  0  0  0  0  0  0  0  0  0
  130.7390  131.9426  155.9397 H   0  0  0  0  0  0  0  0  0  0  0  0
  132.1499  130.2903  157.0985 H   0  0  0  0  0  0  0  0  0  0  0  0
  132.6314  130.5504  159.4993 H   0  0  0  0  0  0  0  0  0  0  0  0
  131.7021  132.4627  160.7412 H   0  0  0  0  0  0  0  0  0  0  0  0
  132.1940  134.9005  161.3813 H   0  0  0  0  0  0  0  0  0  0  0  0
  132.7553  134.3195  159.7952 H   0  0  0  0  0  0  0  0  0  0  0  0
  134.2825  136.0502  160.7174 H   0  0  0  0  0  0  0  0  0  0  0  0
  133.5049  136.6062  159.2155 H   0  0  0  0  0  0  0  0  0  0  0  0
  1  2  1  0
  2  3  1  0
  2 37  1  0
  2 38  1  0
  3  4  1  0
  3 39  1  0
  3 40  1  0
  4 16  2  0
  4  5  1  0
  5  6  1  0
  5 13  2  0
  6  7  1  0
  7 12  1  0
  7  8  2  0
  8  9  1  0
  8 41  1  0
  9 10  2  0
  9 42  1  0
 10 11  1  0
 10 43  1  0
 11 12  2  0
 11 44  1  0
 12 45  1  0
 13 14  1  0
 13 46  1  0
 14 15  2  0
 14 47  1  0
 15 16  1  0
 15 48  1  0
 16 17  1  0
 17 36  1  0
 17 18  1  0
 18 19  1  0
 18 49  1  0
 18 50  1  0
 19 20  1  0
 19 51  1  0
 19 52  1  0
 20 21  1  0
 20 22  1  0
 20 35  1  0
 22 23  1  0
 22 29  1  0
 22 53  1  0
 23 28  1  0
 23 24  2  0
 24 25  1  0
 24 54  1  0
 25 26  2  0
 25 55  1  0
 26 27  1  0
 26 56  1  0
 27 28  2  0
 27 57  1  0
 28 58  1  0
 29 34  1  0
 29 30  2  0
 30 31  1  0
 30 59  1  0
 31 32  2  0
 31 60  1  0
 32 33  1  0
 32 61  1  0
 33 34  2  0
 33 62  1  0
 34 63  1  0
 35 36  1  0
 35 64  1  0
 35 65  1  0
 36 66  1  0
 36 67  1  0
M  CHG  1  20   1
M  END
>  <DOCK_score>  (1) 
-58.962433

>  <SMILES>  (1) 
ClCCc1c(Sc2ccccc2)cccc1N1CC[NH+](C(c2ccccc2)c2ccccc2)CC1

$$$$
