CC[C@H](Nc1[nH]cc(-c2ccc(N)cc2)[nH+]1)c1ccccc1
     RDKit          3D

 43 45  0  0  1  0  0  0  0  0999 V2000
  128.4146  137.2138  161.4199 C   0  0  0  0  0  0  0  0  0  0  0  0
  129.5086  136.7803  160.4422 C   0  0  0  0  0  0  0  0  0  0  0  0
  129.1393  135.4274  159.8306 C   0  0  2  0  0  0  0  0  0  0  0  0
  129.0444  134.6844  160.6225 H   0  0  0  0  0  0  0  0  0  0  0  0
  130.1869  135.0123  158.8945 N   0  0  0  0  0  0  0  0  0  0  0  0
  130.0718  133.8117  158.2147 C   0  0  0  0  0  0  0  0  0  0  0  0
  129.4289  132.7020  158.6693 N   0  0  0  0  0  0  0  0  0  0  0  0
  128.9730  132.6103  159.5206 H   0  0  0  0  0  0  0  0  0  0  0  0
  129.5453  131.7347  157.6994 C   0  0  0  0  0  0  0  0  0  0  0  0
  130.2552  132.2815  156.6819 C   0  0  0  0  0  0  0  0  0  0  0  0
  130.6287  131.6050  155.4155 C   0  0  0  0  0  0  0  0  0  0  0  0
  130.1924  132.1181  154.1949 C   0  0  0  0  0  0  0  0  0  0  0  0
  130.5453  131.4906  153.0188 C   0  0  0  0  0  0  0  0  0  0  0  0
  131.3255  130.3409  153.0504 C   0  0  0  0  0  0  0  0  0  0  0  0
  131.6768  129.7041  151.8576 N   0  0  0  0  0  0  0  0  0  0  0  0
  131.7572  129.8245  154.2664 C   0  0  0  0  0  0  0  0  0  0  0  0
  131.4116  130.4520  155.4447 C   0  0  0  0  0  0  0  0  0  0  0  0
  130.5593  133.5585  157.0245 N   0  0  0  0  0  0  0  0  0  0  0  0
  131.0597  134.1836  156.4771 H   0  0  0  0  0  0  0  0  0  0  0  0
  127.8288  135.5489  159.0963 C   0  0  0  0  0  0  0  0  0  0  0  0
  126.6400  135.3102  159.7600 C   0  0  0  0  0  0  0  0  0  0  0  0
  125.4379  135.4213  159.0863 C   0  0  0  0  0  0  0  0  0  0  0  0
  125.4250  135.7699  157.7489 C   0  0  0  0  0  0  0  0  0  0  0  0
  126.6138  136.0074  157.0848 C   0  0  0  0  0  0  0  0  0  0  0  0
  127.8159  135.8967  157.7585 C   0  0  0  0  0  0  0  0  0  0  0  0
  127.4668  137.3018  160.8888 H   0  0  0  0  0  0  0  0  0  0  0  0
  128.3198  136.4708  162.2118 H   0  0  0  0  0  0  0  0  0  0  0  0
  128.6777  138.1777  161.8557 H   0  0  0  0  0  0  0  0  0  0  0  0
  130.4565  136.6924  160.9733 H   0  0  0  0  0  0  0  0  0  0  0  0
  129.6035  137.5233  159.6503 H   0  0  0  0  0  0  0  0  0  0  0  0
  130.9612  135.5786  158.7509 H   0  0  0  0  0  0  0  0  0  0  0  0
  129.1475  130.7314  157.7401 H   0  0  0  0  0  0  0  0  0  0  0  0
  129.5821  133.0087  154.1703 H   0  0  0  0  0  0  0  0  0  0  0  0
  130.2112  131.8902  152.0727 H   0  0  0  0  0  0  0  0  0  0  0  0
  132.2217  128.9013  151.8791 H   0  0  0  0  0  0  0  0  0  0  0  0
  131.3760  130.0633  151.0088 H   0  0  0  0  0  0  0  0  0  0  0  0
  132.3635  128.9311  154.2885 H   0  0  0  0  0  0  0  0  0  0  0  0
  131.7476  130.0507  156.3893 H   0  0  0  0  0  0  0  0  0  0  0  0
  126.6501  135.0380  160.8052 H   0  0  0  0  0  0  0  0  0  0  0  0
  124.5089  135.2401  159.6063 H   0  0  0  0  0  0  0  0  0  0  0  0
  124.4858  135.8564  157.2225 H   0  0  0  0  0  0  0  0  0  0  0  0
  126.6038  136.2791  156.0396 H   0  0  0  0  0  0  0  0  0  0  0  0
  128.7448  136.0816  157.2396 H   0  0  0  0  0  0  0  0  0  0  0  0
  1  2  1  0
  1 26  1  0
  1 27  1  0
  1 28  1  0
  2  3  1  0
  2 29  1  0
  2 30  1  0
  3  4  1  1
  3  5  1  0
  3 20  1  0
  5 31  1  0
  6  5  1  0
  6 18  2  0
  6  7  1  0
  7  8  1  0
  7  9  1  0
  9 10  2  0
  9 32  1  0
 10 11  1  0
 10 18  1  0
 11 17  1  0
 11 12  2  0
 12 13  1  0
 12 33  1  0
 13 14  2  0
 13 34  1  0
 14 15  1  0
 14 16  1  0
 15 35  1  0
 15 36  1  0
 16 17  2  0
 16 37  1  0
 17 38  1  0
 18 19  1  0
 20 25  1  0
 20 21  2  0
 21 22  1  0
 21 39  1  0
 22 23  2  0
 22 40  1  0
 23 24  1  0
 23 41  1  0
 24 25  2  0
 24 42  1  0
 25 43  1  0
M  CHG  1  18   1
M  END
>  <DOCK_score>  (1) 
-56.796021

>  <SMILES>  (1) 
CC[C@H](Nc1[nH]cc(-c2ccc(N)cc2)[nH+]1)c1ccccc1

$$$$
