O=C1CC[C@H](NC(NC2COC2)=[NH+]C2COc3cc(-c4ccccc4)ccc3C2)CN1
     RDKit          3D

 60 64  0  0  1  0  0  0  0  0999 V2000
  123.8181  133.9999  161.7592 O   0  0  0  0  0  0  0  0  0  0  0  0
  124.9831  134.1922  161.4817 C   0  0  0  0  0  0  0  0  0  0  0  0
  125.8151  133.0172  161.0547 C   0  0  0  0  0  0  0  0  0  0  0  0
  127.3014  133.3631  161.1736 C   0  0  0  0  0  0  0  0  0  0  0  0
  127.5393  134.7184  160.4968 C   0  0  2  0  0  0  0  0  0  0  0  0
  127.1289  134.7000  159.4872 H   0  0  0  0  0  0  0  0  0  0  0  0
  128.9770  134.9946  160.4414 N   0  0  0  0  0  0  0  0  0  0  0  0
  129.7144  134.5842  159.3562 C   0  0  0  0  0  0  0  0  0  0  0  0
  129.1028  133.9146  158.3229 N   0  0  0  0  0  0  0  0  0  0  0  0
  129.8888  133.4772  157.1665 C   0  0  0  0  0  0  0  0  0  0  0  0
  129.2640  132.2957  156.4008 C   0  0  0  0  0  0  0  0  0  0  0  0
  130.6065  131.7644  156.3573 O   0  0  0  0  0  0  0  0  0  0  0  0
  131.0282  132.5034  157.5211 C   0  0  0  0  0  0  0  0  0  0  0  0
  130.9936  134.8300  159.3069 N   0  0  0  0  0  0  0  0  0  0  0  0
  131.4303  134.9574  158.4501 H   0  0  0  0  0  0  0  0  0  0  0  0
  131.7716  134.9140  160.5453 C   0  0  1  0  0  0  0  0  0  0  0  0
  132.8946  133.8691  160.5224 C   0  0  0  0  0  0  0  0  0  0  0  0
  133.5678  133.9043  161.7814 O   0  0  0  0  0  0  0  0  0  0  0  0
  133.9598  135.1146  162.2587 C   0  0  0  0  0  0  0  0  0  0  0  0
  134.9124  135.1493  163.2696 C   0  0  0  0  0  0  0  0  0  0  0  0
  135.3366  136.3683  163.7873 C   0  0  0  0  0  0  0  0  0  0  0  0
  136.3548  136.4059  164.8664 C   0  0  0  0  0  0  0  0  0  0  0  0
  137.2281  137.4869  164.9662 C   0  0  0  0  0  0  0  0  0  0  0  0
  138.1696  137.5191  165.9750 C   0  0  0  0  0  0  0  0  0  0  0  0
  138.2546  136.4765  166.8787 C   0  0  0  0  0  0  0  0  0  0  0  0
  137.3934  135.3976  166.7812 C   0  0  0  0  0  0  0  0  0  0  0  0
  136.4444  135.3575  165.7799 C   0  0  0  0  0  0  0  0  0  0  0  0
  134.8017  137.5545  163.2878 C   0  0  0  0  0  0  0  0  0  0  0  0
  133.8577  137.5124  162.2839 C   0  0  0  0  0  0  0  0  0  0  0  0
  133.4358  136.2979  161.7655 C   0  0  0  0  0  0  0  0  0  0  0  0
  132.4084  136.3011  160.6615 C   0  0  0  0  0  0  0  0  0  0  0  0
  126.8395  135.8040  161.3154 C   0  0  0  0  0  0  0  0  0  0  0  0
  125.4532  135.4349  161.5729 N   0  0  0  0  0  0  0  0  0  0  0  0
  125.5834  132.7666  160.0195 H   0  0  0  0  0  0  0  0  0  0  0  0
  125.5899  132.1629  161.6931 H   0  0  0  0  0  0  0  0  0  0  0  0
  127.5810  133.4241  162.2254 H   0  0  0  0  0  0  0  0  0  0  0  0
  127.8975  132.5959  160.6795 H   0  0  0  0  0  0  0  0  0  0  0  0
  129.4085  135.4669  161.1705 H   0  0  0  0  0  0  0  0  0  0  0  0
  128.1510  133.7317  158.3595 H   0  0  0  0  0  0  0  0  0  0  0  0
  130.1986  134.3026  156.5253 H   0  0  0  0  0  0  0  0  0  0  0  0
  128.5730  131.6997  156.9971 H   0  0  0  0  0  0  0  0  0  0  0  0
  128.8633  132.5657  155.4238 H   0  0  0  0  0  0  0  0  0  0  0  0
  132.0238  132.9379  157.4308 H   0  0  0  0  0  0  0  0  0  0  0  0
  130.8782  131.9728  158.4614 H   0  0  0  0  0  0  0  0  0  0  0  0
  131.1207  134.7350  161.4011 H   0  0  0  0  0  0  0  0  0  0  0  0
  132.4707  132.8782  160.3602 H   0  0  0  0  0  0  0  0  0  0  0  0
  133.5979  134.1035  159.7233 H   0  0  0  0  0  0  0  0  0  0  0  0
  135.3244  134.2278  163.6537 H   0  0  0  0  0  0  0  0  0  0  0  0
  137.1656  138.3002  164.2583 H   0  0  0  0  0  0  0  0  0  0  0  0
  138.8442  138.3586  166.0561 H   0  0  0  0  0  0  0  0  0  0  0  0
  138.9957  136.5028  167.6639 H   0  0  0  0  0  0  0  0  0  0  0  0
  137.4641  134.5853  167.4896 H   0  0  0  0  0  0  0  0  0  0  0  0
  135.7723  134.5155  165.7048 H   0  0  0  0  0  0  0  0  0  0  0  0
  135.1261  138.5045  163.6861 H   0  0  0  0  0  0  0  0  0  0  0  0
  133.4441  138.4325  161.8981 H   0  0  0  0  0  0  0  0  0  0  0  0
  132.8902  136.5591  159.7184 H   0  0  0  0  0  0  0  0  0  0  0  0
  131.6362  137.0369  160.8868 H   0  0  0  0  0  0  0  0  0  0  0  0
  127.3605  135.9319  162.2643 H   0  0  0  0  0  0  0  0  0  0  0  0
  126.8623  136.7431  160.7626 H   0  0  0  0  0  0  0  0  0  0  0  0
  124.8351  136.1382  161.8260 H   0  0  0  0  0  0  0  0  0  0  0  0
  1  2  2  0
  2 33  1  0
  2  3  1  0
  3  4  1  0
  3 34  1  0
  3 35  1  0
  4  5  1  0
  4 36  1  0
  4 37  1  0
  5  6  1  6
  5  7  1  0
  5 32  1  0
  7 38  1  0
  8  7  1  0
  8  9  1  0
  8 14  2  0
  9 10  1  0
  9 39  1  0
 10 13  1  0
 10 11  1  0
 10 40  1  0
 11 12  1  0
 11 41  1  0
 11 42  1  0
 12 13  1  0
 13 43  1  0
 13 44  1  0
 14 15  1  0
 14 16  1  0
 16 31  1  0
 16 17  1  0
 16 45  1  1
 17 18  1  0
 17 46  1  0
 17 47  1  0
 18 19  1  0
 19 30  2  0
 19 20  1  0
 20 21  2  0
 20 48  1  0
 21 22  1  0
 21 28  1  0
 22 27  1  0
 22 23  2  0
 23 24  1  0
 23 49  1  0
 24 25  2  0
 24 50  1  0
 25 26  1  0
 25 51  1  0
 26 27  2  0
 26 52  1  0
 27 53  1  0
 28 29  2  0
 28 54  1  0
 29 30  1  0
 29 55  1  0
 30 31  1  0
 31 56  1  0
 31 57  1  0
 32 33  1  0
 32 58  1  0
 32 59  1  0
 33 60  1  0
M  CHG  1  14   1
M  END
>  <DOCK_score>  (1) 
-48.594334

>  <SMILES>  (1) 
O=C1CC[C@H](NC(NC2COC2)=[NH+]C2COc3cc(-c4ccccc4)ccc3C2)CN1

$$$$
