CC1(NC(N[C@H]2CCC(=O)NC2)=[NH+]Cc2ncccc2Cl)CC1
     RDKit          3D

 46 48  0  0  1  0  0  0  0  0999 V2000
  132.0831  135.6658  160.8686 C   0  0  0  0  0  0  0  0  0  0  0  0
  131.8576  134.3178  160.1810 C   0  0  0  0  0  0  0  0  0  0  0  0
  131.0057  134.3508  158.9897 N   0  0  0  0  0  0  0  0  0  0  0  0
  129.6470  134.1796  159.1111 C   0  0  0  0  0  0  0  0  0  0  0  0
  129.0878  133.9774  160.3508 N   0  0  0  0  0  0  0  0  0  0  0  0
  127.6398  133.7950  160.4803 C   0  0  1  0  0  0  0  0  0  0  0  0
  127.2477  133.3296  159.5760 H   0  0  0  0  0  0  0  0  0  0  0  0
  127.3400  132.9020  161.6902 C   0  0  0  0  0  0  0  0  0  0  0  0
  125.8436  132.5795  161.6944 C   0  0  0  0  0  0  0  0  0  0  0  0
  125.0486  133.8412  161.5170 C   0  0  0  0  0  0  0  0  0  0  0  0
  123.8732  133.8257  161.8155 O   0  0  0  0  0  0  0  0  0  0  0  0
  125.5657  134.9776  161.0484 N   0  0  0  0  0  0  0  0  0  0  0  0
  126.9690  135.1522  160.6951 C   0  0  0  0  0  0  0  0  0  0  0  0
  128.8890  134.2089  158.0512 N   0  0  0  0  0  0  0  0  0  0  0  0
  127.9729  134.5204  158.1185 H   0  0  0  0  0  0  0  0  0  0  0  0
  129.4208  133.7714  156.7581 C   0  0  0  0  0  0  0  0  0  0  0  0
  129.8558  132.3318  156.8550 C   0  0  0  0  0  0  0  0  0  0  0  0
  129.7146  131.6834  157.9947 N   0  0  0  0  0  0  0  0  0  0  0  0
  130.0805  130.4235  158.1258 C   0  0  0  0  0  0  0  0  0  0  0  0
  130.6299  129.7318  157.0625 C   0  0  0  0  0  0  0  0  0  0  0  0
  130.7944  130.3792  155.8480 C   0  0  0  0  0  0  0  0  0  0  0  0
  130.3934  131.7038  155.7461 C   0  0  0  0  0  0  0  0  0  0  0  0
  130.5689  132.5630  154.2480 Cl  0  0  0  0  0  0  0  0  0  0  0  0
  133.0129  133.3148  160.1959 C   0  0  0  0  0  0  0  0  0  0  0  0
  131.7805  133.0753  161.0704 C   0  0  0  0  0  0  0  0  0  0  0  0
  131.1350  136.1982  160.9442 H   0  0  0  0  0  0  0  0  0  0  0  0
  132.4879  135.5013  161.8671 H   0  0  0  0  0  0  0  0  0  0  0  0
  132.7869  136.2586  160.2843 H   0  0  0  0  0  0  0  0  0  0  0  0
  131.4002  134.4933  158.1151 H   0  0  0  0  0  0  0  0  0  0  0  0
  129.6522  133.9515  161.1391 H   0  0  0  0  0  0  0  0  0  0  0  0
  127.9141  131.9785  161.6160 H   0  0  0  0  0  0  0  0  0  0  0  0
  127.6055  133.4265  162.6081 H   0  0  0  0  0  0  0  0  0  0  0  0
  125.6190  131.8923  160.8788 H   0  0  0  0  0  0  0  0  0  0  0  0
  125.5761  132.1149  162.6435 H   0  0  0  0  0  0  0  0  0  0  0  0
  124.9708  135.7353  160.9357 H   0  0  0  0  0  0  0  0  0  0  0  0
  127.4794  135.6833  161.4987 H   0  0  0  0  0  0  0  0  0  0  0  0
  127.0395  135.7382  159.7788 H   0  0  0  0  0  0  0  0  0  0  0  0
  128.6474  133.8668  155.9961 H   0  0  0  0  0  0  0  0  0  0  0  0
  130.2755  134.3917  156.4881 H   0  0  0  0  0  0  0  0  0  0  0  0
  129.9491  129.9258  159.0752 H   0  0  0  0  0  0  0  0  0  0  0  0
  130.9268  128.6997  157.1765 H   0  0  0  0  0  0  0  0  0  0  0  0
  131.2206  129.8638  154.9999 H   0  0  0  0  0  0  0  0  0  0  0  0
  133.1389  132.6794  159.3192 H   0  0  0  0  0  0  0  0  0  0  0  0
  133.9339  133.6152  160.6954 H   0  0  0  0  0  0  0  0  0  0  0  0
  131.8908  133.2181  162.1453 H   0  0  0  0  0  0  0  0  0  0  0  0
  131.0957  132.2826  160.7693 H   0  0  0  0  0  0  0  0  0  0  0  0
  1  2  1  0
  1 26  1  0
  1 27  1  0
  1 28  1  0
  2 25  1  0
  2  3  1  0
  2 24  1  0
  3 29  1  0
  4  3  1  0
  4  5  1  0
  4 14  2  0
  5  6  1  0
  5 30  1  0
  6  7  1  6
  6 13  1  0
  6  8  1  0
  8  9  1  0
  8 31  1  0
  8 32  1  0
  9 10  1  0
  9 33  1  0
  9 34  1  0
 10 11  2  0
 10 12  1  0
 12 13  1  0
 12 35  1  0
 13 36  1  0
 13 37  1  0
 14 15  1  0
 14 16  1  0
 16 17  1  0
 16 38  1  0
 16 39  1  0
 17 22  1  0
 17 18  2  0
 18 19  1  0
 19 20  2  0
 19 40  1  0
 20 21  1  0
 20 41  1  0
 21 22  2  0
 21 42  1  0
 22 23  1  0
 24 25  1  0
 24 43  1  0
 24 44  1  0
 25 45  1  0
 25 46  1  0
M  CHG  1  14   1
M  END
>  <DOCK_score>  (1) 
-49.232735

>  <SMILES>  (1) 
CC1(NC(N[C@H]2CCC(=O)NC2)=[NH+]Cc2ncccc2Cl)CC1

$$$$
