O=C1CC[C@H]([NH+]=C(NCC(=O)N2CC=CC2)NC2CC2)CN1
     RDKit          3D

 46 48  0  0  1  0  0  0  0  0999 V2000
  123.6136  134.1234  161.5502 O   0  0  0  0  0  0  0  0  0  0  0  0
  124.8038  134.2029  161.3310 C   0  0  0  0  0  0  0  0  0  0  0  0
  125.4642  133.0835  160.5786 C   0  0  0  0  0  0  0  0  0  0  0  0
  126.9803  133.1432  160.7813 C   0  0  0  0  0  0  0  0  0  0  0  0
  127.4481  134.5800  160.5200 C   0  0  2  0  0  0  0  0  0  0  0  0
  127.0811  134.9133  159.5493 H   0  0  0  0  0  0  0  0  0  0  0  0
  128.9121  134.6308  160.5360 N   0  0  0  0  0  0  0  0  0  0  0  0
  129.3824  134.8024  161.3669 H   0  0  0  0  0  0  0  0  0  0  0  0
  129.5827  134.4456  159.4338 C   0  0  0  0  0  0  0  0  0  0  0  0
  130.8007  135.0585  159.2589 N   0  0  0  0  0  0  0  0  0  0  0  0
  131.3452  135.9199  160.3114 C   0  0  0  0  0  0  0  0  0  0  0  0
  132.1801  135.0935  161.2554 C   0  0  0  0  0  0  0  0  0  0  0  0
  131.9111  133.9251  161.4385 O   0  0  0  0  0  0  0  0  0  0  0  0
  133.2256  135.6526  161.8960 N   0  0  0  0  0  0  0  0  0  0  0  0
  133.6955  137.0412  161.7890 C   0  0  0  0  0  0  0  0  0  0  0  0
  134.8888  137.1771  162.6975 C   0  0  0  0  0  0  0  0  0  0  0  0
  135.1385  136.0391  163.2830 C   0  0  0  0  0  0  0  0  0  0  0  0
  134.1403  135.0006  162.8441 C   0  0  0  0  0  0  0  0  0  0  0  0
  129.0718  133.6371  158.4461 N   0  0  0  0  0  0  0  0  0  0  0  0
  129.8256  133.4288  157.2071 C   0  0  0  0  0  0  0  0  0  0  0  0
  129.4966  132.1837  156.3809 C   0  0  0  0  0  0  0  0  0  0  0  0
  130.8083  132.2567  157.1666 C   0  0  0  0  0  0  0  0  0  0  0  0
  126.8912  135.4839  161.6208 C   0  0  0  0  0  0  0  0  0  0  0  0
  125.4560  135.2794  161.7713 N   0  0  0  0  0  0  0  0  0  0  0  0
  125.2369  133.1774  159.5167 H   0  0  0  0  0  0  0  0  0  0  0  0
  125.0872  132.1289  160.9453 H   0  0  0  0  0  0  0  0  0  0  0  0
  127.4709  132.4649  160.0831 H   0  0  0  0  0  0  0  0  0  0  0  0
  127.2253  132.8578  161.8043 H   0  0  0  0  0  0  0  0  0  0  0  0
  131.2999  134.9207  158.4387 H   0  0  0  0  0  0  0  0  0  0  0  0
  131.9654  136.6954  159.8618 H   0  0  0  0  0  0  0  0  0  0  0  0
  130.5261  136.3833  160.8615 H   0  0  0  0  0  0  0  0  0  0  0  0
  133.9835  137.2572  160.7601 H   0  0  0  0  0  0  0  0  0  0  0  0
  132.9087  137.7249  162.1082 H   0  0  0  0  0  0  0  0  0  0  0  0
  135.4574  138.0842  162.8403 H   0  0  0  0  0  0  0  0  0  0  0  0
  135.9443  135.8664  163.9811 H   0  0  0  0  0  0  0  0  0  0  0  0
  133.5824  134.6345  163.7059 H   0  0  0  0  0  0  0  0  0  0  0  0
  134.6531  134.1724  162.3550 H   0  0  0  0  0  0  0  0  0  0  0  0
  128.2106  133.2077  158.5677 H   0  0  0  0  0  0  0  0  0  0  0  0
  130.0995  134.3343  156.6657 H   0  0  0  0  0  0  0  0  0  0  0  0
  128.7194  131.5196  156.7592 H   0  0  0  0  0  0  0  0  0  0  0  0
  129.5545  132.2701  155.2959 H   0  0  0  0  0  0  0  0  0  0  0  0
  131.7285  132.3910  156.5982 H   0  0  0  0  0  0  0  0  0  0  0  0
  130.8940  131.6408  158.0617 H   0  0  0  0  0  0  0  0  0  0  0  0
  127.3889  135.2529  162.5627 H   0  0  0  0  0  0  0  0  0  0  0  0
  127.0816  136.5256  161.3622 H   0  0  0  0  0  0  0  0  0  0  0  0
  124.9431  135.9698  162.2201 H   0  0  0  0  0  0  0  0  0  0  0  0
  1  2  2  0
  2 24  1  0
  2  3  1  0
  3  4  1  0
  3 25  1  0
  3 26  1  0
  4  5  1  0
  4 27  1  0
  4 28  1  0
  5  6  1  6
  5  7  1  0
  5 23  1  0
  7  8  1  0
  9  7  2  0
  9 10  1  0
  9 19  1  0
 10 11  1  0
 10 29  1  0
 11 12  1  0
 11 30  1  0
 11 31  1  0
 12 13  2  0
 12 14  1  0
 14 18  1  0
 14 15  1  0
 15 16  1  0
 15 32  1  0
 15 33  1  0
 16 17  2  0
 16 34  1  0
 17 18  1  0
 17 35  1  0
 18 36  1  0
 18 37  1  0
 19 20  1  0
 19 38  1  0
 20 22  1  0
 20 21  1  0
 20 39  1  0
 21 22  1  0
 21 40  1  0
 21 41  1  0
 22 42  1  0
 22 43  1  0
 23 24  1  0
 23 44  1  0
 23 45  1  0
 24 46  1  0
M  CHG  1   7   1
M  END
>  <DOCK_score>  (1) 
-42.022511

>  <SMILES>  (1) 
O=C1CC[C@H]([NH+]=C(NCC(=O)N2CC=CC2)NC2CC2)CN1

$$$$
