CCc1ccc(-c2c[nH]c(N[C@H](c3ccccc3)c3ccccc3Br)[nH+]2)cc1
     RDKit          3D

 51 54  0  0  1  0  0  0  0  0999 V2000
  130.1464  128.9752  151.3545 C   0  0  0  0  0  0  0  0  0  0  0  0
  131.4316  129.6107  151.8888 C   0  0  0  0  0  0  0  0  0  0  0  0
  131.1435  130.3040  153.1955 C   0  0  0  0  0  0  0  0  0  0  0  0
  131.2656  129.6094  154.3855 C   0  0  0  0  0  0  0  0  0  0  0  0
  131.0086  130.2408  155.5855 C   0  0  0  0  0  0  0  0  0  0  0  0
  130.6143  131.5776  155.5960 C   0  0  0  0  0  0  0  0  0  0  0  0
  130.3313  132.2602  156.8822 C   0  0  0  0  0  0  0  0  0  0  0  0
  129.8652  131.6724  158.0120 C   0  0  0  0  0  0  0  0  0  0  0  0
  129.7469  132.6626  158.9568 N   0  0  0  0  0  0  0  0  0  0  0  0
  129.4370  132.5520  159.8692 H   0  0  0  0  0  0  0  0  0  0  0  0
  130.1447  133.8275  158.3763 C   0  0  0  0  0  0  0  0  0  0  0  0
  130.1759  135.0664  158.9932 N   0  0  0  0  0  0  0  0  0  0  0  0
  129.7567  135.1995  160.3907 C   0  0  2  0  0  0  0  0  0  0  0  0
  130.1226  134.3467  160.9624 H   0  0  0  0  0  0  0  0  0  0  0  0
  128.2521  135.2438  160.4618 C   0  0  0  0  0  0  0  0  0  0  0  0
  127.5980  134.7521  161.5759 C   0  0  0  0  0  0  0  0  0  0  0  0
  126.2180  134.7966  161.6430 C   0  0  0  0  0  0  0  0  0  0  0  0
  125.4916  135.3242  160.5919 C   0  0  0  0  0  0  0  0  0  0  0  0
  126.1453  135.8116  159.4758 C   0  0  0  0  0  0  0  0  0  0  0  0
  127.5256  135.7710  159.4105 C   0  0  0  0  0  0  0  0  0  0  0  0
  130.3244  136.4713  160.9664 C   0  0  0  0  0  0  0  0  0  0  0  0
  129.4766  137.4491  161.4521 C   0  0  0  0  0  0  0  0  0  0  0  0
  129.9973  138.6133  161.9850 C   0  0  0  0  0  0  0  0  0  0  0  0
  131.3660  138.8053  162.0221 C   0  0  0  0  0  0  0  0  0  0  0  0
  132.2143  137.8305  161.5320 C   0  0  0  0  0  0  0  0  0  0  0  0
  131.6937  136.6626  161.0037 C   0  0  0  0  0  0  0  0  0  0  0  0
  132.8538  135.3288  160.3323 Br  0  0  0  0  0  0  0  0  0  0  0  0
  130.4986  133.5819  157.1384 N   0  0  0  0  0  0  0  0  0  0  0  0
  130.8256  134.2405  156.5057 H   0  0  0  0  0  0  0  0  0  0  0  0
  130.4875  132.2708  154.3935 C   0  0  0  0  0  0  0  0  0  0  0  0
  130.7526  131.6309  153.1999 C   0  0  0  0  0  0  0  0  0  0  0  0
  129.3962  129.7499  151.1970 H   0  0  0  0  0  0  0  0  0  0  0  0
  130.3549  128.4736  150.4094 H   0  0  0  0  0  0  0  0  0  0  0  0
  129.7728  128.2490  152.0765 H   0  0  0  0  0  0  0  0  0  0  0  0
  132.1819  128.8358  152.0463 H   0  0  0  0  0  0  0  0  0  0  0  0
  131.8052  130.3368  151.1668 H   0  0  0  0  0  0  0  0  0  0  0  0
  131.5666  128.5723  154.3758 H   0  0  0  0  0  0  0  0  0  0  0  0
  131.1087  129.6989  156.5144 H   0  0  0  0  0  0  0  0  0  0  0  0
  129.6314  130.6263  158.1436 H   0  0  0  0  0  0  0  0  0  0  0  0
  130.4754  135.8463  158.5003 H   0  0  0  0  0  0  0  0  0  0  0  0
  128.1654  134.3361  162.3954 H   0  0  0  0  0  0  0  0  0  0  0  0
  125.7072  134.4161  162.5153 H   0  0  0  0  0  0  0  0  0  0  0  0
  124.4132  135.3559  160.6429 H   0  0  0  0  0  0  0  0  0  0  0  0
  125.5778  136.2238  158.6545 H   0  0  0  0  0  0  0  0  0  0  0  0
  128.0364  136.1515  158.5383 H   0  0  0  0  0  0  0  0  0  0  0  0
  128.4072  137.3016  161.4190 H   0  0  0  0  0  0  0  0  0  0  0  0
  129.3347  139.3750  162.3684 H   0  0  0  0  0  0  0  0  0  0  0  0
  131.7724  139.7170  162.4344 H   0  0  0  0  0  0  0  0  0  0  0  0
  133.2835  137.9805  161.5609 H   0  0  0  0  0  0  0  0  0  0  0  0
  130.1821  133.3069  154.3959 H   0  0  0  0  0  0  0  0  0  0  0  0
  130.6550  132.1671  152.2676 H   0  0  0  0  0  0  0  0  0  0  0  0
  1  2  1  0
  1 32  1  0
  1 33  1  0
  1 34  1  0
  2  3  1  0
  2 35  1  0
  2 36  1  0
  3 31  2  0
  3  4  1  0
  4  5  2  0
  4 37  1  0
  5  6  1  0
  5 38  1  0
  6  7  1  0
  6 30  2  0
  7 28  1  0
  7  8  2  0
  8  9  1  0
  8 39  1  0
  9 10  1  0
  9 11  1  0
 11 12  1  0
 11 28  2  0
 12 13  1  0
 12 40  1  0
 13 14  1  1
 13 15  1  0
 13 21  1  0
 15 20  1  0
 15 16  2  0
 16 17  1  0
 16 41  1  0
 17 18  2  0
 17 42  1  0
 18 19  1  0
 18 43  1  0
 19 20  2  0
 19 44  1  0
 20 45  1  0
 21 26  1  0
 21 22  2  0
 22 23  1  0
 22 46  1  0
 23 24  2  0
 23 47  1  0
 24 25  1  0
 24 48  1  0
 25 26  2  0
 25 49  1  0
 26 27  1  0
 28 29  1  0
 30 31  1  0
 30 50  1  0
 31 51  1  0
M  CHG  1  28   1
M  END
>  <DOCK_score>  (1) 
-57.694824

>  <SMILES>  (1) 
CCc1ccc(-c2c[nH]c(N[C@H](c3ccccc3)c3ccccc3Br)[nH+]2)cc1

$$$$
