C[C@](C[NH2+]C1CCC1)(NCc1cccc2c1NC(=O)CO2)c1ccccc1
     RDKit          3D

 55 58  0  0  1  0  0  0  0  0999 V2000
  128.5542  136.4437  159.8838 C   0  0  0  0  0  0  0  0  0  0  0  0
  129.7319  135.5153  160.1872 C   0  0  2  0  0  0  0  0  0  0  0  0
  130.8681  136.3224  160.8184 C   0  0  0  0  0  0  0  0  0  0  0  0
  131.2997  137.3722  159.8861 N   0  0  0  0  0  0  0  0  0  0  0  0
  131.6237  136.9486  159.0292 H   0  0  0  0  0  0  0  0  0  0  0  0
  130.5232  137.9845  159.6859 H   0  0  0  0  0  0  0  0  0  0  0  0
  132.3907  138.1472  160.4921 C   0  0  0  0  0  0  0  0  0  0  0  0
  132.9566  139.2397  159.5697 C   0  0  0  0  0  0  0  0  0  0  0  0
  134.3499  138.8500  160.0964 C   0  0  0  0  0  0  0  0  0  0  0  0
  133.7630  137.4601  160.3938 C   0  0  0  0  0  0  0  0  0  0  0  0
  130.2035  134.8988  158.9400 N   0  0  0  0  0  0  0  0  0  0  0  0
  129.1366  134.1140  158.3044 C   0  0  0  0  0  0  0  0  0  0  0  0
  129.7447  133.1260  157.3425 C   0  0  0  0  0  0  0  0  0  0  0  0
  129.9570  133.4833  156.0232 C   0  0  0  0  0  0  0  0  0  0  0  0
  130.5142  132.5786  155.1389 C   0  0  0  0  0  0  0  0  0  0  0  0
  130.8644  131.3103  155.5670 C   0  0  0  0  0  0  0  0  0  0  0  0
  130.6558  130.9461  156.8853 C   0  0  0  0  0  0  0  0  0  0  0  0
  130.0976  131.8600  157.7783 C   0  0  0  0  0  0  0  0  0  0  0  0
  129.8846  131.4752  159.1096 N   0  0  0  0  0  0  0  0  0  0  0  0
  130.5079  130.3724  159.5786 C   0  0  0  0  0  0  0  0  0  0  0  0
  130.3189  130.0046  160.7190 O   0  0  0  0  0  0  0  0  0  0  0  0
  131.4398  129.6008  158.6792 C   0  0  0  0  0  0  0  0  0  0  0  0
  130.9953  129.7045  157.3240 O   0  0  0  0  0  0  0  0  0  0  0  0
  129.2890  134.4383  161.1437 C   0  0  0  0  0  0  0  0  0  0  0  0
  127.9841  134.4124  161.5993 C   0  0  0  0  0  0  0  0  0  0  0  0
  127.5767  133.4220  162.4733 C   0  0  0  0  0  0  0  0  0  0  0  0
  128.4765  132.4627  162.8988 C   0  0  0  0  0  0  0  0  0  0  0  0
  129.7826  132.4916  162.4474 C   0  0  0  0  0  0  0  0  0  0  0  0
  130.1890  133.4795  161.5699 C   0  0  0  0  0  0  0  0  0  0  0  0
  127.7447  135.8686  159.4340 H   0  0  0  0  0  0  0  0  0  0  0  0
  128.2043  136.9011  160.8091 H   0  0  0  0  0  0  0  0  0  0  0  0
  128.8745  137.2226  159.1918 H   0  0  0  0  0  0  0  0  0  0  0  0
  130.5182  136.7799  161.7439 H   0  0  0  0  0  0  0  0  0  0  0  0
  131.7070  135.6611  161.0347 H   0  0  0  0  0  0  0  0  0  0  0  0
  132.1513  138.5027  161.4943 H   0  0  0  0  0  0  0  0  0  0  0  0
  132.8167  139.0311  158.5091 H   0  0  0  0  0  0  0  0  0  0  0  0
  132.6499  140.2480  159.8480 H   0  0  0  0  0  0  0  0  0  0  0  0
  134.6465  139.3991  160.9900 H   0  0  0  0  0  0  0  0  0  0  0  0
  135.1219  138.8425  159.3270 H   0  0  0  0  0  0  0  0  0  0  0  0
  134.1063  137.0337  161.3363 H   0  0  0  0  0  0  0  0  0  0  0  0
  133.8435  136.7630  159.5597 H   0  0  0  0  0  0  0  0  0  0  0  0
  130.5660  135.5957  158.3066 H   0  0  0  0  0  0  0  0  0  0  0  0
  128.5750  133.5778  159.0695 H   0  0  0  0  0  0  0  0  0  0  0  0
  128.4668  134.7825  157.7635 H   0  0  0  0  0  0  0  0  0  0  0  0
  129.6863  134.4719  155.6828 H   0  0  0  0  0  0  0  0  0  0  0  0
  130.6771  132.8630  154.1098 H   0  0  0  0  0  0  0  0  0  0  0  0
  131.2993  130.6060  154.8734 H   0  0  0  0  0  0  0  0  0  0  0  0
  129.3021  131.9944  159.6859 H   0  0  0  0  0  0  0  0  0  0  0  0
  131.4485  128.5529  158.9790 H   0  0  0  0  0  0  0  0  0  0  0  0
  132.4464  130.0107  158.7633 H   0  0  0  0  0  0  0  0  0  0  0  0
  127.2820  135.1641  161.2697 H   0  0  0  0  0  0  0  0  0  0  0  0
  126.5561  133.3992  162.8257 H   0  0  0  0  0  0  0  0  0  0  0  0
  128.1589  131.6905  163.5838 H   0  0  0  0  0  0  0  0  0  0  0  0
  130.4857  131.7421  162.7799 H   0  0  0  0  0  0  0  0  0  0  0  0
  131.2096  133.5022  161.2172 H   0  0  0  0  0  0  0  0  0  0  0  0
  1 30  1  0
  1 31  1  0
  1 32  1  0
  2  1  1  0
  2  3  1  0
  2 11  1  6
  2 24  1  0
  3  4  1  0
  3 33  1  0
  3 34  1  0
  4  5  1  0
  4  6  1  0
  4  7  1  0
  7 10  1  0
  7  8  1  0
  7 35  1  0
  8  9  1  0
  8 36  1  0
  8 37  1  0
  9 10  1  0
  9 38  1  0
  9 39  1  0
 10 40  1  0
 10 41  1  0
 11 12  1  0
 11 42  1  0
 12 13  1  0
 12 43  1  0
 12 44  1  0
 13 18  1  0
 13 14  2  0
 14 15  1  0
 14 45  1  0
 15 16  2  0
 15 46  1  0
 16 17  1  0
 16 47  1  0
 17 23  1  0
 17 18  2  0
 18 19  1  0
 19 20  1  0
 19 48  1  0
 20 21  2  0
 20 22  1  0
 22 23  1  0
 22 49  1  0
 22 50  1  0
 24 29  1  0
 24 25  2  0
 25 26  1  0
 25 51  1  0
 26 27  2  0
 26 52  1  0
 27 28  1  0
 27 53  1  0
 28 29  2  0
 28 54  1  0
 29 55  1  0
M  CHG  1   4   1
M  END
>  <DOCK_score>  (1) 
-57.652222

>  <SMILES>  (1) 
C[C@](C[NH2+]C1CCC1)(NCc1cccc2c1NC(=O)CO2)c1ccccc1

$$$$
