CC1=CCC=C([C@H](Cc2ccccc2)Nc2[nH]cc(-c3ccc(F)cc3)[nH+]2)C1
     RDKit          3D

 53 56  0  0  1  0  0  0  0  0999 V2000
  125.2091  135.0154  162.6597 C   0  0  0  0  0  0  0  0  0  0  0  0
  125.9569  135.0063  161.3514 C   0  0  0  0  0  0  0  0  0  0  0  0
  125.2913  135.2032  160.2542 C   0  0  0  0  0  0  0  0  0  0  0  0
  125.9380  135.2138  158.9018 C   0  0  0  0  0  0  0  0  0  0  0  0
  127.4143  135.4502  159.0107 C   0  0  0  0  0  0  0  0  0  0  0  0
  128.0808  135.2482  160.1063 C   0  0  0  0  0  0  0  0  0  0  0  0
  129.5645  135.5120  160.1066 C   0  0  2  0  0  0  0  0  0  0  0  0
  130.0517  134.8470  160.8197 H   0  0  0  0  0  0  0  0  0  0  0  0
  129.8239  136.9660  160.5058 C   0  0  0  0  0  0  0  0  0  0  0  0
  131.3077  137.2297  160.5059 C   0  0  0  0  0  0  0  0  0  0  0  0
  131.7849  138.4947  160.2174 C   0  0  0  0  0  0  0  0  0  0  0  0
  133.1459  138.7364  160.2172 C   0  0  0  0  0  0  0  0  0  0  0  0
  134.0298  137.7133  160.5065 C   0  0  0  0  0  0  0  0  0  0  0  0
  133.5527  136.4476  160.7904 C   0  0  0  0  0  0  0  0  0  0  0  0
  132.1915  136.2067  160.7945 C   0  0  0  0  0  0  0  0  0  0  0  0
  130.1037  135.2699  158.7662 N   0  0  0  0  0  0  0  0  0  0  0  0
  129.9868  134.0170  158.1889 C   0  0  0  0  0  0  0  0  0  0  0  0
  129.3907  132.9343  158.7584 N   0  0  0  0  0  0  0  0  0  0  0  0
  128.9752  132.9017  159.6343 H   0  0  0  0  0  0  0  0  0  0  0  0
  129.4866  131.8956  157.8638 C   0  0  0  0  0  0  0  0  0  0  0  0
  130.1380  132.3734  156.7747 C   0  0  0  0  0  0  0  0  0  0  0  0
  130.4705  131.6056  155.5499 C   0  0  0  0  0  0  0  0  0  0  0  0
  129.9697  132.0101  154.3137 C   0  0  0  0  0  0  0  0  0  0  0  0
  130.2865  131.2962  153.1763 C   0  0  0  0  0  0  0  0  0  0  0  0
  131.0914  130.1718  153.2632 C   0  0  0  0  0  0  0  0  0  0  0  0
  131.3949  129.4731  152.1476 F   0  0  0  0  0  0  0  0  0  0  0  0
  131.5869  129.7629  154.4906 C   0  0  0  0  0  0  0  0  0  0  0  0
  131.2801  130.4741  155.6324 C   0  0  0  0  0  0  0  0  0  0  0  0
  130.4271  133.6795  157.0014 N   0  0  0  0  0  0  0  0  0  0  0  0
  130.8884  134.2686  156.3841 H   0  0  0  0  0  0  0  0  0  0  0  0
  127.4371  134.7698  161.3729 C   0  0  0  0  0  0  0  0  0  0  0  0
  125.1893  136.0291  163.0598 H   0  0  0  0  0  0  0  0  0  0  0  0
  124.1886  134.6688  162.4974 H   0  0  0  0  0  0  0  0  0  0  0  0
  125.7088  134.3549  163.3684 H   0  0  0  0  0  0  0  0  0  0  0  0
  124.2257  135.3668  160.3187 H   0  0  0  0  0  0  0  0  0  0  0  0
  125.7614  134.2552  158.4138 H   0  0  0  0  0  0  0  0  0  0  0  0
  125.4956  136.0078  158.3004 H   0  0  0  0  0  0  0  0  0  0  0  0
  127.9472  135.7998  158.1388 H   0  0  0  0  0  0  0  0  0  0  0  0
  129.4228  137.1461  161.5032 H   0  0  0  0  0  0  0  0  0  0  0  0
  129.3367  137.6310  159.7926 H   0  0  0  0  0  0  0  0  0  0  0  0
  131.0944  139.2938  159.9917 H   0  0  0  0  0  0  0  0  0  0  0  0
  133.5188  139.7245  159.9914 H   0  0  0  0  0  0  0  0  0  0  0  0
  135.0931  137.9025  160.5068 H   0  0  0  0  0  0  0  0  0  0  0  0
  134.2433  135.6474  161.0122 H   0  0  0  0  0  0  0  0  0  0  0  0
  131.8187  135.2185  161.0196 H   0  0  0  0  0  0  0  0  0  0  0  0
  130.5428  135.9874  158.2831 H   0  0  0  0  0  0  0  0  0  0  0  0
  129.1140  130.8913  158.0015 H   0  0  0  0  0  0  0  0  0  0  0  0
  129.3385  132.8838  154.2457 H   0  0  0  0  0  0  0  0  0  0  0  0
  129.9022  131.6114  152.2173 H   0  0  0  0  0  0  0  0  0  0  0  0
  132.2139  128.8858  154.5538 H   0  0  0  0  0  0  0  0  0  0  0  0
  131.6670  130.1546  156.5888 H   0  0  0  0  0  0  0  0  0  0  0  0
  127.6268  133.7028  161.4891 H   0  0  0  0  0  0  0  0  0  0  0  0
  127.8719  135.3031  162.2182 H   0  0  0  0  0  0  0  0  0  0  0  0
  1  2  1  0
  1 32  1  0
  1 33  1  0
  1 34  1  0
  2 31  1  0
  2  3  2  0
  3  4  1  0
  3 35  1  0
  4  5  1  0
  4 36  1  0
  4 37  1  0
  5  6  2  0
  5 38  1  0
  6  7  1  0
  6 31  1  0
  7  8  1  1
  7  9  1  0
  7 16  1  0
  9 10  1  0
  9 39  1  0
  9 40  1  0
 10 15  1  0
 10 11  2  0
 11 12  1  0
 11 41  1  0
 12 13  2  0
 12 42  1  0
 13 14  1  0
 13 43  1  0
 14 15  2  0
 14 44  1  0
 15 45  1  0
 16 46  1  0
 17 16  1  0
 17 29  2  0
 17 18  1  0
 18 19  1  0
 18 20  1  0
 20 21  2  0
 20 47  1  0
 21 22  1  0
 21 29  1  0
 22 28  1  0
 22 23  2  0
 23 24  1  0
 23 48  1  0
 24 25  2  0
 24 49  1  0
 25 26  1  0
 25 27  1  0
 27 28  2  0
 27 50  1  0
 28 51  1  0
 29 30  1  0
 31 52  1  0
 31 53  1  0
M  CHG  1  29   1
M  END
>  <DOCK_score>  (1) 
-58.190567

>  <SMILES>  (1) 
CC1=CCC=C([C@H](Cc2ccccc2)Nc2[nH]cc(-c3ccc(F)cc3)[nH+]2)C1

$$$$
