C(=CNC(Cc1ccccc1)Cc1ccccc1)C[NH2+]Cc1cnn(-c2ccccc2)c1
     RDKit          3D

 63 66  0  0  0  0  0  0  0  0999 V2000
  129.8154  136.9265  159.4029 C   0  0  0  0  0  0  0  0  0  0  0  0
  130.8795  137.1914  160.1378 C   0  0  0  0  0  0  0  0  0  0  0  0
  131.5803  138.3750  159.9439 N   0  0  0  0  0  0  0  0  0  0  0  0
  132.7613  138.6690  160.7597 C   0  0  0  0  0  0  0  0  0  0  0  0
  133.0449  140.1720  160.7230 C   0  0  0  0  0  0  0  0  0  0  0  0
  132.1245  140.8805  161.6831 C   0  0  0  0  0  0  0  0  0  0  0  0
  130.8931  141.3365  161.2509 C   0  0  0  0  0  0  0  0  0  0  0  0
  130.0485  141.9858  162.1317 C   0  0  0  0  0  0  0  0  0  0  0  0
  130.4359  142.1806  163.4444 C   0  0  0  0  0  0  0  0  0  0  0  0
  131.6671  141.7243  163.8765 C   0  0  0  0  0  0  0  0  0  0  0  0
  132.5113  141.0740  162.9960 C   0  0  0  0  0  0  0  0  0  0  0  0
  133.9671  137.9086  160.2040 C   0  0  0  0  0  0  0  0  0  0  0  0
  135.0274  137.8006  161.2693 C   0  0  0  0  0  0  0  0  0  0  0  0
  135.9962  138.7801  161.3822 C   0  0  0  0  0  0  0  0  0  0  0  0
  136.9660  138.6834  162.3626 C   0  0  0  0  0  0  0  0  0  0  0  0
  136.9728  137.6020  163.2237 C   0  0  0  0  0  0  0  0  0  0  0  0
  136.0074  136.6196  163.1072 C   0  0  0  0  0  0  0  0  0  0  0  0
  135.0345  136.7190  162.1302 C   0  0  0  0  0  0  0  0  0  0  0  0
  129.0551  135.6425  159.6132 C   0  0  0  0  0  0  0  0  0  0  0  0
  129.6116  134.5961  158.7451 N   0  0  0  0  0  0  0  0  0  0  0  0
  129.5303  134.8811  157.7806 H   0  0  0  0  0  0  0  0  0  0  0  0
  130.5840  134.4524  158.9727 H   0  0  0  0  0  0  0  0  0  0  0  0
  128.8704  133.3445  158.9501 C   0  0  0  0  0  0  0  0  0  0  0  0
  129.4412  132.2711  158.0595 C   0  0  0  0  0  0  0  0  0  0  0  0
  129.7349  130.9568  158.4390 C   0  0  0  0  0  0  0  0  0  0  0  0
  130.2096  130.3255  157.3954 N   0  0  0  0  0  0  0  0  0  0  0  0
  130.2428  131.2216  156.3191 N   0  0  0  0  0  0  0  0  0  0  0  0
  130.6918  130.9368  155.0220 C   0  0  0  0  0  0  0  0  0  0  0  0
  130.6645  131.9223  154.0444 C   0  0  0  0  0  0  0  0  0  0  0  0
  131.1137  131.6405  152.7691 C   0  0  0  0  0  0  0  0  0  0  0  0
  131.5785  130.3748  152.4621 C   0  0  0  0  0  0  0  0  0  0  0  0
  131.6013  129.3895  153.4320 C   0  0  0  0  0  0  0  0  0  0  0  0
  131.1594  129.6671  154.7109 C   0  0  0  0  0  0  0  0  0  0  0  0
  129.7655  132.4100  156.7530 C   0  0  0  0  0  0  0  0  0  0  0  0
  129.4899  137.6299  158.6510 H   0  0  0  0  0  0  0  0  0  0  0  0
  131.2050  136.4879  160.8898 H   0  0  0  0  0  0  0  0  0  0  0  0
  131.2879  139.0068  159.2686 H   0  0  0  0  0  0  0  0  0  0  0  0
  132.5786  138.3586  161.7884 H   0  0  0  0  0  0  0  0  0  0  0  0
  132.8776  140.5489  159.7141 H   0  0  0  0  0  0  0  0  0  0  0  0
  134.0803  140.3533  161.0116 H   0  0  0  0  0  0  0  0  0  0  0  0
  130.5927  141.1892  160.2240 H   0  0  0  0  0  0  0  0  0  0  0  0
  129.0865  142.3424  161.7941 H   0  0  0  0  0  0  0  0  0  0  0  0
  129.7761  142.6881  164.1324 H   0  0  0  0  0  0  0  0  0  0  0  0
  131.9693  141.8754  164.9023 H   0  0  0  0  0  0  0  0  0  0  0  0
  133.4732  140.7175  163.3338 H   0  0  0  0  0  0  0  0  0  0  0  0
  133.6568  136.9097  159.8974 H   0  0  0  0  0  0  0  0  0  0  0  0
  134.3693  138.4441  159.3439 H   0  0  0  0  0  0  0  0  0  0  0  0
  135.9933  139.6229  160.7068 H   0  0  0  0  0  0  0  0  0  0  0  0
  137.7204  139.4508  162.4533 H   0  0  0  0  0  0  0  0  0  0  0  0
  137.7327  137.5247  163.9872 H   0  0  0  0  0  0  0  0  0  0  0  0
  136.0128  135.7746  163.7798 H   0  0  0  0  0  0  0  0  0  0  0  0
  134.2801  135.9515  162.0392 H   0  0  0  0  0  0  0  0  0  0  0  0
  129.1428  135.3348  160.6552 H   0  0  0  0  0  0  0  0  0  0  0  0
  128.0046  135.7979  159.3675 H   0  0  0  0  0  0  0  0  0  0  0  0
  128.9581  133.0368  159.9921 H   0  0  0  0  0  0  0  0  0  0  0  0
  127.8199  133.4999  158.7044 H   0  0  0  0  0  0  0  0  0  0  0  0
  129.5920  130.5351  159.4228 H   0  0  0  0  0  0  0  0  0  0  0  0
  130.2965  132.9095  154.2821 H   0  0  0  0  0  0  0  0  0  0  0  0
  131.0974  132.4081  152.0095 H   0  0  0  0  0  0  0  0  0  0  0  0
  131.9248  130.1555  151.4629 H   0  0  0  0  0  0  0  0  0  0  0  0
  131.9652  128.4020  153.1895 H   0  0  0  0  0  0  0  0  0  0  0  0
  131.1783  128.8974  155.4682 H   0  0  0  0  0  0  0  0  0  0  0  0
  129.6615  133.3085  156.1629 H   0  0  0  0  0  0  0  0  0  0  0  0
  1  2  2  0
  1 19  1  0
  1 35  1  0
  2  3  1  0
  2 36  1  0
  3  4  1  0
  3 37  1  0
  4  5  1  0
  4 12  1  0
  4 38  1  0
  5  6  1  0
  5 39  1  0
  5 40  1  0
  6 11  1  0
  6  7  2  0
  7  8  1  0
  7 41  1  0
  8  9  2  0
  8 42  1  0
  9 10  1  0
  9 43  1  0
 10 11  2  0
 10 44  1  0
 11 45  1  0
 12 13  1  0
 12 46  1  0
 12 47  1  0
 13 18  1  0
 13 14  2  0
 14 15  1  0
 14 48  1  0
 15 16  2  0
 15 49  1  0
 16 17  1  0
 16 50  1  0
 17 18  2  0
 17 51  1  0
 18 52  1  0
 19 20  1  0
 19 53  1  0
 19 54  1  0
 20 21  1  0
 20 22  1  0
 20 23  1  0
 23 24  1  0
 23 55  1  0
 23 56  1  0
 24 34  2  0
 24 25  1  0
 25 26  2  0
 25 57  1  0
 26 27  1  0
 27 28  1  0
 27 34  1  0
 28 33  1  0
 28 29  2  0
 29 30  1  0
 29 58  1  0
 30 31  2  0
 30 59  1  0
 31 32  1  0
 31 60  1  0
 32 33  2  0
 32 61  1  0
 33 62  1  0
 34 63  1  0
M  CHG  1  20   1
M  END
>  <DOCK_score>  (1) 
-56.510117

>  <SMILES>  (1) 
C(=CNC(Cc1ccccc1)Cc1ccccc1)C[NH2+]Cc1cnn(-c2ccccc2)c1

$$$$
