Cc1c(N2C=C([C@H](Nc3[nH]cc(-c4ccncc4)[nH+]3)c3ccccc3)CCC2)ccc2c1CCC2
     RDKit          3D

 67 72  0  0  1  0  0  0  0  0999 V2000
  133.1176  136.5861  162.5505 C   0  0  0  0  0  0  0  0  0  0  0  0
  133.8468  137.6597  161.7844 C   0  0  0  0  0  0  0  0  0  0  0  0
  133.1970  138.3488  160.7692 C   0  0  0  0  0  0  0  0  0  0  0  0
  131.8689  138.0484  160.4567 N   0  0  0  0  0  0  0  0  0  0  0  0
  131.5115  136.7696  160.0464 C   0  0  0  0  0  0  0  0  0  0  0  0
  130.2589  136.3851  159.9930 C   0  0  0  0  0  0  0  0  0  0  0  0
  129.9557  134.9785  159.5448 C   0  0  2  0  0  0  0  0  0  0  0  0
  130.4350  134.2706  160.2210 H   0  0  0  0  0  0  0  0  0  0  0  0
  130.4657  134.7783  158.1862 N   0  0  0  0  0  0  0  0  0  0  0  0
  130.3033  133.5549  157.5593 C   0  0  0  0  0  0  0  0  0  0  0  0
  129.6854  132.4660  158.0937 N   0  0  0  0  0  0  0  0  0  0  0  0
  129.2835  132.4084  158.9747 H   0  0  0  0  0  0  0  0  0  0  0  0
  129.7360  131.4647  157.1570 C   0  0  0  0  0  0  0  0  0  0  0  0
  130.3833  131.9686  156.0761 C   0  0  0  0  0  0  0  0  0  0  0  0
  130.6716  131.2439  154.8157 C   0  0  0  0  0  0  0  0  0  0  0  0
  130.1687  131.7010  153.5931 C   0  0  0  0  0  0  0  0  0  0  0  0
  130.4647  130.9988  152.4438 C   0  0  0  0  0  0  0  0  0  0  0  0
  131.2024  129.9062  152.4885 N   0  0  0  0  0  0  0  0  0  0  0  0
  131.6923  129.4381  153.6217 C   0  0  0  0  0  0  0  0  0  0  0  0
  131.4489  130.0811  154.8170 C   0  0  0  0  0  0  0  0  0  0  0  0
  130.7141  133.2557  156.3514 N   0  0  0  0  0  0  0  0  0  0  0  0
  131.1819  133.8572  155.7511 H   0  0  0  0  0  0  0  0  0  0  0  0
  128.4651  134.7569  159.5596 C   0  0  0  0  0  0  0  0  0  0  0  0
  127.8495  134.2737  160.6992 C   0  0  0  0  0  0  0  0  0  0  0  0
  126.4817  134.0746  160.7143 C   0  0  0  0  0  0  0  0  0  0  0  0
  125.7308  134.3493  159.5866 C   0  0  0  0  0  0  0  0  0  0  0  0
  126.3470  134.8278  158.4456 C   0  0  0  0  0  0  0  0  0  0  0  0
  127.7143  135.0312  158.4319 C   0  0  0  0  0  0  0  0  0  0  0  0
  129.1128  137.2847  160.3584 C   0  0  0  0  0  0  0  0  0  0  0  0
  129.6031  138.4418  161.2318 C   0  0  0  0  0  0  0  0  0  0  0  0
  130.8248  139.0782  160.5622 C   0  0  0  0  0  0  0  0  0  0  0  0
  133.8722  139.3377  160.0652 C   0  0  0  0  0  0  0  0  0  0  0  0
  135.1841  139.6300  160.3780 C   0  0  0  0  0  0  0  0  0  0  0  0
  135.8314  138.9415  161.3911 C   0  0  0  0  0  0  0  0  0  0  0  0
  135.1598  137.9548  162.0954 C   0  0  0  0  0  0  0  0  0  0  0  0
  136.0805  137.3597  163.1394 C   0  0  0  0  0  0  0  0  0  0  0  0
  137.2307  138.3772  163.2941 C   0  0  0  0  0  0  0  0  0  0  0  0
  137.2451  139.0734  161.9167 C   0  0  0  0  0  0  0  0  0  0  0  0
  133.2601  135.6258  162.0551 H   0  0  0  0  0  0  0  0  0  0  0  0
  133.5110  136.5333  163.5656 H   0  0  0  0  0  0  0  0  0  0  0  0
  132.0542  136.8230  162.5848 H   0  0  0  0  0  0  0  0  0  0  0  0
  132.2868  136.0734  159.7630 H   0  0  0  0  0  0  0  0  0  0  0  0
  130.9171  135.5030  157.7258 H   0  0  0  0  0  0  0  0  0  0  0  0
  129.3376  130.4662  157.2605 H   0  0  0  0  0  0  0  0  0  0  0  0
  129.5606  132.5923  153.5495 H   0  0  0  0  0  0  0  0  0  0  0  0
  130.0842  131.3459  151.4945 H   0  0  0  0  0  0  0  0  0  0  0  0
  132.2914  128.5396  153.6125 H   0  0  0  0  0  0  0  0  0  0  0  0
  131.8528  129.6930  155.7403 H   0  0  0  0  0  0  0  0  0  0  0  0
  128.4368  134.0552  161.5789 H   0  0  0  0  0  0  0  0  0  0  0  0
  126.0002  133.7010  161.6059 H   0  0  0  0  0  0  0  0  0  0  0  0
  124.6626  134.1904  159.5973 H   0  0  0  0  0  0  0  0  0  0  0  0
  125.7604  135.0425  157.5646 H   0  0  0  0  0  0  0  0  0  0  0  0
  128.1958  135.4046  157.5403 H   0  0  0  0  0  0  0  0  0  0  0  0
  128.6635  137.6841  159.4492 H   0  0  0  0  0  0  0  0  0  0  0  0
  128.3644  136.7116  160.9058 H   0  0  0  0  0  0  0  0  0  0  0  0
  128.8120  139.1847  161.3330 H   0  0  0  0  0  0  0  0  0  0  0  0
  129.8800  138.0654  162.2164 H   0  0  0  0  0  0  0  0  0  0  0  0
  131.1858  139.9100  161.1671 H   0  0  0  0  0  0  0  0  0  0  0  0
  130.5541  139.4333  159.5678 H   0  0  0  0  0  0  0  0  0  0  0  0
  133.3715  139.8767  159.2744 H   0  0  0  0  0  0  0  0  0  0  0  0
  135.7088  140.3986  159.8303 H   0  0  0  0  0  0  0  0  0  0  0  0
  136.4681  136.3996  162.7988 H   0  0  0  0  0  0  0  0  0  0  0  0
  135.5521  137.2396  164.0851 H   0  0  0  0  0  0  0  0  0  0  0  0
  137.0115  139.0920  164.0872 H   0  0  0  0  0  0  0  0  0  0  0  0
  138.1755  137.8679  163.4840 H   0  0  0  0  0  0  0  0  0  0  0  0
  137.5109  140.1247  162.0270 H   0  0  0  0  0  0  0  0  0  0  0  0
  137.9454  138.5736  161.2476 H   0  0  0  0  0  0  0  0  0  0  0  0
  1  2  1  0
  1 39  1  0
  1 40  1  0
  1 41  1  0
  2 35  2  0
  2  3  1  0
  3  4  1  0
  3 32  2  0
  4 31  1  0
  4  5  1  0
  5  6  2  0
  5 42  1  0
  6  7  1  0
  6 29  1  0
  7  8  1  1
  7  9  1  0
  7 23  1  0
  9 43  1  0
 10  9  1  0
 10 21  2  0
 10 11  1  0
 11 12  1  0
 11 13  1  0
 13 14  2  0
 13 44  1  0
 14 15  1  0
 14 21  1  0
 15 20  1  0
 15 16  2  0
 16 17  1  0
 16 45  1  0
 17 18  2  0
 17 46  1  0
 18 19  1  0
 19 20  2  0
 19 47  1  0
 20 48  1  0
 21 22  1  0
 23 28  1  0
 23 24  2  0
 24 25  1  0
 24 49  1  0
 25 26  2  0
 25 50  1  0
 26 27  1  0
 26 51  1  0
 27 28  2  0
 27 52  1  0
 28 53  1  0
 29 30  1  0
 29 54  1  0
 29 55  1  0
 30 31  1  0
 30 56  1  0
 30 57  1  0
 31 58  1  0
 31 59  1  0
 32 33  1  0
 32 60  1  0
 33 34  2  0
 33 61  1  0
 34 38  1  0
 34 35  1  0
 35 36  1  0
 36 37  1  0
 36 62  1  0
 36 63  1  0
 37 38  1  0
 37 64  1  0
 37 65  1  0
 38 66  1  0
 38 67  1  0
M  CHG  1  21   1
M  END
>  <DOCK_score>  (1) 
-63.595299

>  <SMILES>  (1) 
Cc1c(N2C=C([C@H](Nc3[nH]cc(-c4ccncc4)[nH+]3)c3ccccc3)CCC2)ccc2c1CCC2

$$$$
