Cc1ccc(Sc2ccc(Sc3ccncc3)cc2Nc2[nH]cc(-c3ccccc3)[nH+]2)c(C)c1
     RDKit          3D

 59 63  0  0  1  0  0  0  0  0999 V2000
  134.1719  141.0155  162.1576 C   0  0  0  0  0  0  0  0  0  0  0  0
  133.8042  139.6172  161.7326 C   0  0  0  0  0  0  0  0  0  0  0  0
  132.8714  139.4239  160.7295 C   0  0  0  0  0  0  0  0  0  0  0  0
  132.5317  138.1444  160.3378 C   0  0  0  0  0  0  0  0  0  0  0  0
  133.1285  137.0496  160.9524 C   0  0  0  0  0  0  0  0  0  0  0  0
  132.6982  135.4148  160.4557 S   0  0  0  0  0  0  0  0  0  0  0  0
  130.9678  135.3445  160.7802 C   0  0  0  0  0  0  0  0  0  0  0  0
  130.4947  135.5396  162.0698 C   0  0  0  0  0  0  0  0  0  0  0  0
  129.1380  135.4850  162.3251 C   0  0  0  0  0  0  0  0  0  0  0  0
  128.2434  135.2349  161.2919 C   0  0  0  0  0  0  0  0  0  0  0  0
  126.5140  135.1657  161.6222 S   0  0  0  0  0  0  0  0  0  0  0  0
  126.0809  133.5312  161.1267 C   0  0  0  0  0  0  0  0  0  0  0  0
  126.6711  132.4200  161.7303 C   0  0  0  0  0  0  0  0  0  0  0  0
  126.3008  131.1579  161.3170 C   0  0  0  0  0  0  0  0  0  0  0  0
  125.4091  130.9943  160.3572 N   0  0  0  0  0  0  0  0  0  0  0  0
  124.8324  132.0196  159.7578 C   0  0  0  0  0  0  0  0  0  0  0  0
  125.1431  133.3141  160.1163 C   0  0  0  0  0  0  0  0  0  0  0  0
  128.7116  135.0337  159.9999 C   0  0  0  0  0  0  0  0  0  0  0  0
  130.0721  135.0931  159.7402 C   0  0  0  0  0  0  0  0  0  0  0  0
  130.5468  134.8954  158.4382 N   0  0  0  0  0  0  0  0  0  0  0  0
  130.2939  133.7019  157.7827 C   0  0  0  0  0  0  0  0  0  0  0  0
  129.6042  132.6463  158.2954 N   0  0  0  0  0  0  0  0  0  0  0  0
  129.2053  132.5947  159.1781 H   0  0  0  0  0  0  0  0  0  0  0  0
  129.5750  131.6687  157.3312 C   0  0  0  0  0  0  0  0  0  0  0  0
  130.2549  132.1507  156.2612 C   0  0  0  0  0  0  0  0  0  0  0  0
  130.4887  131.4371  154.9819 C   0  0  0  0  0  0  0  0  0  0  0  0
  130.0127  131.9713  153.7858 C   0  0  0  0  0  0  0  0  0  0  0  0
  130.2377  131.3056  152.5981 C   0  0  0  0  0  0  0  0  0  0  0  0
  130.9247  130.1049  152.5944 C   0  0  0  0  0  0  0  0  0  0  0  0
  131.3944  129.5672  153.7792 C   0  0  0  0  0  0  0  0  0  0  0  0
  131.1802  130.2270  154.9723 C   0  0  0  0  0  0  0  0  0  0  0  0
  130.6840  133.4003  156.5680 N   0  0  0  0  0  0  0  0  0  0  0  0
  131.1976  133.9783  155.9823 H   0  0  0  0  0  0  0  0  0  0  0  0
  134.0613  137.2477  161.9632 C   0  0  0  0  0  0  0  0  0  0  0  0
  134.7062  136.0641  162.6372 C   0  0  0  0  0  0  0  0  0  0  0  0
  134.4003  138.5305  162.3460 C   0  0  0  0  0  0  0  0  0  0  0  0
  133.5096  141.3368  162.9616 H   0  0  0  0  0  0  0  0  0  0  0  0
  135.2034  141.0287  162.5096 H   0  0  0  0  0  0  0  0  0  0  0  0
  134.0686  141.6921  161.3093 H   0  0  0  0  0  0  0  0  0  0  0  0
  132.4081  140.2749  160.2526 H   0  0  0  0  0  0  0  0  0  0  0  0
  131.8028  137.9942  159.5551 H   0  0  0  0  0  0  0  0  0  0  0  0
  131.1879  135.7339  162.8748 H   0  0  0  0  0  0  0  0  0  0  0  0
  128.7722  135.6369  163.3298 H   0  0  0  0  0  0  0  0  0  0  0  0
  127.4043  132.5469  162.5131 H   0  0  0  0  0  0  0  0  0  0  0  0
  126.7489  130.2920  161.7814 H   0  0  0  0  0  0  0  0  0  0  0  0
  124.1078  131.8419  158.9771 H   0  0  0  0  0  0  0  0  0  0  0  0
  124.6676  134.1483  159.6219 H   0  0  0  0  0  0  0  0  0  0  0  0
  128.0164  134.8351  159.1976 H   0  0  0  0  0  0  0  0  0  0  0  0
  131.0528  135.5943  157.9950 H   0  0  0  0  0  0  0  0  0  0  0  0
  129.1043  130.6999  157.4112 H   0  0  0  0  0  0  0  0  0  0  0  0
  129.4725  132.9064  153.7880 H   0  0  0  0  0  0  0  0  0  0  0  0
  129.8735  131.7209  151.6700 H   0  0  0  0  0  0  0  0  0  0  0  0
  131.0952  129.5855  151.6629 H   0  0  0  0  0  0  0  0  0  0  0  0
  131.9300  128.6294  153.7705 H   0  0  0  0  0  0  0  0  0  0  0  0
  131.5479  129.8066  155.8966 H   0  0  0  0  0  0  0  0  0  0  0  0
  135.6156  135.7920  162.1015 H   0  0  0  0  0  0  0  0  0  0  0  0
  134.9546  136.3229  163.6664 H   0  0  0  0  0  0  0  0  0  0  0  0
  134.0150  135.2213  162.6310 H   0  0  0  0  0  0  0  0  0  0  0  0
  135.1282  138.6853  163.1286 H   0  0  0  0  0  0  0  0  0  0  0  0
  1  2  1  0
  1 37  1  0
  1 38  1  0
  1 39  1  0
  2 36  2  0
  2  3  1  0
  3  4  2  0
  3 40  1  0
  4  5  1  0
  4 41  1  0
  5  6  1  0
  5 34  2  0
  6  7  1  0
  7 19  1  0
  7  8  2  0
  8  9  1  0
  8 42  1  0
  9 10  2  0
  9 43  1  0
 10 11  1  0
 10 18  1  0
 11 12  1  0
 12 17  1  0
 12 13  2  0
 13 14  1  0
 13 44  1  0
 14 15  2  0
 14 45  1  0
 15 16  1  0
 16 17  2  0
 16 46  1  0
 17 47  1  0
 18 19  2  0
 18 48  1  0
 19 20  1  0
 20 49  1  0
 21 20  1  0
 21 32  2  0
 21 22  1  0
 22 23  1  0
 22 24  1  0
 24 25  2  0
 24 50  1  0
 25 26  1  0
 25 32  1  0
 26 31  1  0
 26 27  2  0
 27 28  1  0
 27 51  1  0
 28 29  2  0
 28 52  1  0
 29 30  1  0
 29 53  1  0
 30 31  2  0
 30 54  1  0
 31 55  1  0
 32 33  1  0
 34 35  1  0
 34 36  1  0
 35 56  1  0
 35 57  1  0
 35 58  1  0
 36 59  1  0
M  CHG  1  32   1
M  END
>  <DOCK_score>  (1) 
-65.26593

>  <SMILES>  (1) 
Cc1ccc(Sc2ccc(Sc3ccncc3)cc2Nc2[nH]cc(-c3ccccc3)[nH+]2)c(C)c1

$$$$
