CCc1ccc(-c2c[nH]c(N[C@@H]3CCc4ccc(C5(O)c6ccccc6SCC5C)cc43)[nH+]2)cc1
     RDKit          3D

 67 72  0  0  1  0  0  0  0  0999 V2000
  130.2189  128.8566  151.5049 C   0  0  0  0  0  0  0  0  0  0  0  0
  131.4899  129.5601  151.9851 C   0  0  0  0  0  0  0  0  0  0  0  0
  131.1960  130.3168  153.2548 C   0  0  0  0  0  0  0  0  0  0  0  0
  131.3539  129.6945  154.4801 C   0  0  0  0  0  0  0  0  0  0  0  0
  131.0871  130.3829  155.6460 C   0  0  0  0  0  0  0  0  0  0  0  0
  130.6574  131.7075  155.5873 C   0  0  0  0  0  0  0  0  0  0  0  0
  130.3631  132.4507  156.8369 C   0  0  0  0  0  0  0  0  0  0  0  0
  129.4394  132.1100  157.7693 C   0  0  0  0  0  0  0  0  0  0  0  0
  129.4975  133.0646  158.7555 N   0  0  0  0  0  0  0  0  0  0  0  0
  128.9557  133.0937  159.5595 H   0  0  0  0  0  0  0  0  0  0  0  0
  130.4560  133.9615  158.3964 C   0  0  0  0  0  0  0  0  0  0  0  0
  130.8262  135.0804  159.1229 N   0  0  0  0  0  0  0  0  0  0  0  0
  130.1656  135.3785  160.3961 C   0  0  2  0  0  0  0  0  0  0  0  0
  130.3135  134.5589  161.0993 H   0  0  0  0  0  0  0  0  0  0  0  0
  128.6588  135.6270  160.1724 C   0  0  0  0  0  0  0  0  0  0  0  0
  128.6024  137.1611  159.9893 C   0  0  0  0  0  0  0  0  0  0  0  0
  129.8026  137.6947  160.7418 C   0  0  0  0  0  0  0  0  0  0  0  0
  130.0863  138.9752  161.1868 C   0  0  0  0  0  0  0  0  0  0  0  0
  131.2632  139.2314  161.8624 C   0  0  0  0  0  0  0  0  0  0  0  0
  132.1616  138.2069  162.0962 C   0  0  0  0  0  0  0  0  0  0  0  0
  133.4463  138.4839  162.8335 C   0  0  1  0  0  0  0  0  0  0  0  0
  133.2384  139.5920  163.7116 O   0  0  0  0  0  0  0  0  0  0  0  0
  133.7971  137.2790  163.6561 C   0  0  0  0  0  0  0  0  0  0  0  0
  132.7318  136.5921  164.2346 C   0  0  0  0  0  0  0  0  0  0  0  0
  132.9451  135.4787  165.0173 C   0  0  0  0  0  0  0  0  0  0  0  0
  134.2332  135.0265  165.2411 C   0  0  0  0  0  0  0  0  0  0  0  0
  135.2950  135.6940  164.6716 C   0  0  0  0  0  0  0  0  0  0  0  0
  135.0820  136.8193  163.8728 C   0  0  0  0  0  0  0  0  0  0  0  0
  136.4960  137.6036  163.1660 S   0  0  0  0  0  0  0  0  0  0  0  0
  135.8183  139.1796  162.5694 C   0  0  0  0  0  0  0  0  0  0  0  0
  134.5148  138.8621  161.8228 C   0  0  2  0  0  0  0  0  0  0  0  0
  134.0623  140.0938  161.0360 C   0  0  0  0  0  0  0  0  0  0  0  0
  131.8802  136.9293  161.6536 C   0  0  0  0  0  0  0  0  0  0  0  0
  130.7008  136.6704  160.9756 C   0  0  0  0  0  0  0  0  0  0  0  0
  130.9748  133.5884  157.2520 N   0  0  0  0  0  0  0  0  0  0  0  0
  131.6817  134.0525  156.7769 H   0  0  0  0  0  0  0  0  0  0  0  0
  130.4996  132.3292  154.3500 C   0  0  0  0  0  0  0  0  0  0  0  0
  130.7697  131.6313  153.1905 C   0  0  0  0  0  0  0  0  0  0  0  0
  129.4430  129.5981  151.3146 H   0  0  0  0  0  0  0  0  0  0  0  0
  130.4314  128.3092  150.5865 H   0  0  0  0  0  0  0  0  0  0  0  0
  129.8769  128.1612  152.2715 H   0  0  0  0  0  0  0  0  0  0  0  0
  131.8320  130.2555  151.2185 H   0  0  0  0  0  0  0  0  0  0  0  0
  132.2658  128.8186  152.1755 H   0  0  0  0  0  0  0  0  0  0  0  0
  131.6870  128.6680  154.5243 H   0  0  0  0  0  0  0  0  0  0  0  0
  131.2107  129.8960  156.6021 H   0  0  0  0  0  0  0  0  0  0  0  0
  128.7838  131.2522  157.7422 H   0  0  0  0  0  0  0  0  0  0  0  0
  131.5228  135.6670  158.7889 H   0  0  0  0  0  0  0  0  0  0  0  0
  128.3107  135.1153  159.2753 H   0  0  0  0  0  0  0  0  0  0  0  0
  128.0817  135.3189  161.0443 H   0  0  0  0  0  0  0  0  0  0  0  0
  127.6814  137.5590  160.4154 H   0  0  0  0  0  0  0  0  0  0  0  0
  128.6734  137.4189  158.9326 H   0  0  0  0  0  0  0  0  0  0  0  0
  129.3852  139.7760  161.0043 H   0  0  0  0  0  0  0  0  0  0  0  0
  131.4815  140.2310  162.2081 H   0  0  0  0  0  0  0  0  0  0  0  0
  132.5472  139.4464  164.3719 H   0  0  0  0  0  0  0  0  0  0  0  0
  131.7226  136.9382  164.0668 H   0  0  0  0  0  0  0  0  0  0  0  0
  132.1065  134.9588  165.4566 H   0  0  0  0  0  0  0  0  0  0  0  0
  134.4051  134.1563  165.8573 H   0  0  0  0  0  0  0  0  0  0  0  0
  136.3019  135.3440  164.8448 H   0  0  0  0  0  0  0  0  0  0  0  0
  135.6114  139.8375  163.4135 H   0  0  0  0  0  0  0  0  0  0  0  0
  136.5273  139.6555  161.8920 H   0  0  0  0  0  0  0  0  0  0  0  0
  134.6799  138.0303  161.1379 H   0  0  0  0  0  0  0  0  0  0  0  0
  133.9025  140.9250  161.7227 H   0  0  0  0  0  0  0  0  0  0  0  0
  134.8301  140.3640  160.3110 H   0  0  0  0  0  0  0  0  0  0  0  0
  133.1322  139.8698  160.5137 H   0  0  0  0  0  0  0  0  0  0  0  0
  132.5826  136.1294  161.8367 H   0  0  0  0  0  0  0  0  0  0  0  0
  130.1665  133.3553  154.2986 H   0  0  0  0  0  0  0  0  0  0  0  0
  130.6484  132.1123  152.2311 H   0  0  0  0  0  0  0  0  0  0  0  0
  1  2  1  0
  1 39  1  0
  1 40  1  0
  1 41  1  0
  2  3  1  0
  2 42  1  0
  2 43  1  0
  3 38  2  0
  3  4  1  0
  4  5  2  0
  4 44  1  0
  5  6  1  0
  5 45  1  0
  6  7  1  0
  6 37  2  0
  7 35  1  0
  7  8  2  0
  8  9  1  0
  8 46  1  0
  9 10  1  0
  9 11  1  0
 11 12  1  0
 11 35  2  0
 12 13  1  0
 12 47  1  0
 13 14  1  1
 13 34  1  0
 13 15  1  0
 15 16  1  0
 15 48  1  0
 15 49  1  0
 16 17  1  0
 16 50  1  0
 16 51  1  0
 17 34  2  0
 17 18  1  0
 18 19  2  0
 18 52  1  0
 19 20  1  0
 19 53  1  0
 20 21  1  0
 20 33  2  0
 21 31  1  0
 21 22  1  1
 21 23  1  0
 22 54  1  0
 23 28  1  0
 23 24  2  0
 24 25  1  0
 24 55  1  0
 25 26  2  0
 25 56  1  0
 26 27  1  0
 26 57  1  0
 27 28  2  0
 27 58  1  0
 28 29  1  0
 29 30  1  0
 30 31  1  0
 30 59  1  0
 30 60  1  0
 31 32  1  0
 31 61  1  6
 32 62  1  0
 32 63  1  0
 32 64  1  0
 33 34  1  0
 33 65  1  0
 35 36  1  0
 37 38  1  0
 37 66  1  0
 38 67  1  0
M  CHG  1  35   1
M  END
>  <DOCK_score>  (1) 
-56.666492

>  <SMILES>  (1) 
CCc1ccc(-c2c[nH]c(N[C@@H]3CCc4ccc(C5(O)c6ccccc6SCC5C)cc43)[nH+]2)cc1

$$$$
