O=C1CCC(NC(NC2COC2)=[NH+][C@H]2COc3cc(Cl)ccc3C2)CN1
     RDKit          3D

 50 53  0  0  1  0  0  0  0  0999 V2000
  124.3711  135.7582  164.3030 O   0  0  0  0  0  0  0  0  0  0  0  0
  125.4971  135.7784  163.8528 C   0  0  0  0  0  0  0  0  0  0  0  0
  126.6446  135.5703  164.7990 C   0  0  0  0  0  0  0  0  0  0  0  0
  127.9456  136.0544  164.1544 C   0  0  0  0  0  0  0  0  0  0  0  0
  128.0390  135.4589  162.7444 C   0  0  2  0  0  0  0  0  0  0  0  0
  129.3514  135.7592  162.1664 N   0  0  0  0  0  0  0  0  0  0  0  0
  129.6615  135.3212  160.9007 C   0  0  0  0  0  0  0  0  0  0  0  0
  130.5328  136.0417  160.1182 N   0  0  0  0  0  0  0  0  0  0  0  0
  131.1306  137.2759  160.6333 C   0  0  0  0  0  0  0  0  0  0  0  0
  130.0999  138.2989  161.1473 C   0  0  0  0  0  0  0  0  0  0  0  0
  130.9009  139.2814  160.4603 O   0  0  0  0  0  0  0  0  0  0  0  0
  131.4499  138.3150  159.5420 C   0  0  0  0  0  0  0  0  0  0  0  0
  129.1296  134.2231  160.4424 N   0  0  0  0  0  0  0  0  0  0  0  0
  128.2488  133.9489  160.7424 H   0  0  0  0  0  0  0  0  0  0  0  0
  129.8619  133.4030  159.4742 C   0  0  1  0  0  0  0  0  0  0  0  0
  130.9341  133.5108  159.6380 H   0  0  0  0  0  0  0  0  0  0  0  0
  129.4598  131.9313  159.6344 C   0  0  0  0  0  0  0  0  0  0  0  0
  130.2626  131.1467  158.7514 O   0  0  0  0  0  0  0  0  0  0  0  0
  130.3607  131.5474  157.4571 C   0  0  0  0  0  0  0  0  0  0  0  0
  130.8211  130.6348  156.5132 C   0  0  0  0  0  0  0  0  0  0  0  0
  130.9392  131.0057  155.1883 C   0  0  0  0  0  0  0  0  0  0  0  0
  131.5135  129.8634  154.0141 Cl  0  0  0  0  0  0  0  0  0  0  0  0
  130.5988  132.2891  154.7975 C   0  0  0  0  0  0  0  0  0  0  0  0
  130.1402  133.1961  155.7323 C   0  0  0  0  0  0  0  0  0  0  0  0
  130.0185  132.8288  157.0623 C   0  0  0  0  0  0  0  0  0  0  0  0
  129.5102  133.8464  158.0520 C   0  0  0  0  0  0  0  0  0  0  0  0
  126.9426  136.0789  161.8773 C   0  0  0  0  0  0  0  0  0  0  0  0
  125.6500  135.9838  162.5441 N   0  0  0  0  0  0  0  0  0  0  0  0
  126.4642  136.1316  165.7159 H   0  0  0  0  0  0  0  0  0  0  0  0
  126.7316  134.5097  165.0349 H   0  0  0  0  0  0  0  0  0  0  0  0
  128.7961  135.7227  164.7500 H   0  0  0  0  0  0  0  0  0  0  0  0
  127.9419  137.1428  164.0935 H   0  0  0  0  0  0  0  0  0  0  0  0
  127.8996  134.3789  162.7936 H   0  0  0  0  0  0  0  0  0  0  0  0
  130.0015  136.2669  162.6769 H   0  0  0  0  0  0  0  0  0  0  0  0
  130.7515  135.7327  159.2252 H   0  0  0  0  0  0  0  0  0  0  0  0
  131.9549  137.0944  161.3229 H   0  0  0  0  0  0  0  0  0  0  0  0
  129.1029  138.1702  160.7260 H   0  0  0  0  0  0  0  0  0  0  0  0
  130.0950  138.4135  162.2312 H   0  0  0  0  0  0  0  0  0  0  0  0
  132.5157  138.4424  159.3527 H   0  0  0  0  0  0  0  0  0  0  0  0
  130.8666  138.1898  158.6297 H   0  0  0  0  0  0  0  0  0  0  0  0
  129.6281  131.6146  160.6637 H   0  0  0  0  0  0  0  0  0  0  0  0
  128.4072  131.8084  159.3793 H   0  0  0  0  0  0  0  0  0  0  0  0
  131.0872  129.6334  156.8177 H   0  0  0  0  0  0  0  0  0  0  0  0
  130.6924  132.5812  153.7620 H   0  0  0  0  0  0  0  0  0  0  0  0
  129.8750  134.1968  155.4248 H   0  0  0  0  0  0  0  0  0  0  0  0
  128.4280  133.9354  157.9571 H   0  0  0  0  0  0  0  0  0  0  0  0
  129.9722  134.8124  157.8486 H   0  0  0  0  0  0  0  0  0  0  0  0
  127.1775  137.1276  161.6947 H   0  0  0  0  0  0  0  0  0  0  0  0
  126.8960  135.5520  160.9242 H   0  0  0  0  0  0  0  0  0  0  0  0
  124.8510  136.0761  162.0020 H   0  0  0  0  0  0  0  0  0  0  0  0
  1  2  2  0
  2 28  1  0
  2  3  1  0
  3  4  1  0
  3 29  1  0
  3 30  1  0
  4  5  1  0
  4 31  1  0
  4 32  1  0
  5  6  1  0
  5 27  1  0
  5 33  1  1
  6 34  1  0
  7  6  1  0
  7  8  1  0
  7 13  2  0
  8  9  1  0
  8 35  1  0
  9 12  1  0
  9 10  1  0
  9 36  1  0
 10 11  1  0
 10 37  1  0
 10 38  1  0
 11 12  1  0
 12 39  1  0
 12 40  1  0
 13 14  1  0
 13 15  1  0
 15 16  1  1
 15 26  1  0
 15 17  1  0
 17 18  1  0
 17 41  1  0
 17 42  1  0
 18 19  1  0
 19 25  2  0
 19 20  1  0
 20 21  2  0
 20 43  1  0
 21 22  1  0
 21 23  1  0
 23 24  2  0
 23 44  1  0
 24 25  1  0
 24 45  1  0
 25 26  1  0
 26 46  1  0
 26 47  1  0
 27 28  1  0
 27 48  1  0
 27 49  1  0
 28 50  1  0
M  CHG  1  13   1
M  END
>  <DOCK_score>  (1) 
-42.358353

>  <SMILES>  (1) 
O=C1CCC(NC(NC2COC2)=[NH+][C@H]2COc3cc(Cl)ccc3C2)CN1

$$$$
