Fc1ccc(-c2c[nH]c(Nc3ccc(Nc4ccccc4)cc3)[nH+]2)cc1
     RDKit          3D

 44 47  0  0  1  0  0  0  0  0999 V2000
  131.5019  129.1003  151.1797 F   0  0  0  0  0  0  0  0  0  0  0  0
  131.2171  129.7811  152.3115 C   0  0  0  0  0  0  0  0  0  0  0  0
  130.2858  130.8064  152.2845 C   0  0  0  0  0  0  0  0  0  0  0  0
  129.9914  131.5043  153.4380 C   0  0  0  0  0  0  0  0  0  0  0  0
  130.6325  131.1763  154.6312 C   0  0  0  0  0  0  0  0  0  0  0  0
  130.3194  131.9237  155.8739 C   0  0  0  0  0  0  0  0  0  0  0  0
  129.8192  131.3952  157.0183 C   0  0  0  0  0  0  0  0  0  0  0  0
  129.6868  132.4310  157.9111 N   0  0  0  0  0  0  0  0  0  0  0  0
  129.3569  132.3667  158.8210 H   0  0  0  0  0  0  0  0  0  0  0  0
  130.1018  133.5645  157.2821 C   0  0  0  0  0  0  0  0  0  0  0  0
  130.1240  134.8332  157.8372 N   0  0  0  0  0  0  0  0  0  0  0  0
  129.1887  135.1848  158.8183 C   0  0  0  0  0  0  0  0  0  0  0  0
  129.5237  136.1122  159.7965 C   0  0  0  0  0  0  0  0  0  0  0  0
  128.5997  136.4626  160.7606 C   0  0  0  0  0  0  0  0  0  0  0  0
  127.3371  135.8838  160.7555 C   0  0  0  0  0  0  0  0  0  0  0  0
  126.4005  136.2388  161.7334 N   0  0  0  0  0  0  0  0  0  0  0  0
  126.6854  136.0244  163.0839 C   0  0  0  0  0  0  0  0  0  0  0  0
  126.1497  136.8660  164.0507 C   0  0  0  0  0  0  0  0  0  0  0  0
  126.4296  136.6481  165.3854 C   0  0  0  0  0  0  0  0  0  0  0  0
  127.2505  135.5997  165.7592 C   0  0  0  0  0  0  0  0  0  0  0  0
  127.7898  134.7633  164.7990 C   0  0  0  0  0  0  0  0  0  0  0  0
  127.5100  134.9723  163.4629 C   0  0  0  0  0  0  0  0  0  0  0  0
  127.0040  134.9525  159.7804 C   0  0  0  0  0  0  0  0  0  0  0  0
  127.9281  134.6020  158.8163 C   0  0  0  0  0  0  0  0  0  0  0  0
  130.4822  133.2564  156.0660 N   0  0  0  0  0  0  0  0  0  0  0  0
  130.8257  133.8816  155.4087 H   0  0  0  0  0  0  0  0  0  0  0  0
  131.5729  130.1478  154.6523 C   0  0  0  0  0  0  0  0  0  0  0  0
  131.8568  129.4515  153.4953 C   0  0  0  0  0  0  0  0  0  0  0  0
  129.7897  131.0602  151.3594 H   0  0  0  0  0  0  0  0  0  0  0  0
  129.2651  132.3033  153.4161 H   0  0  0  0  0  0  0  0  0  0  0  0
  129.5758  130.3580  157.1954 H   0  0  0  0  0  0  0  0  0  0  0  0
  130.7876  135.4783  157.5464 H   0  0  0  0  0  0  0  0  0  0  0  0
  130.5052  136.5625  159.8002 H   0  0  0  0  0  0  0  0  0  0  0  0
  128.8586  137.1870  161.5186 H   0  0  0  0  0  0  0  0  0  0  0  0
  125.5536  136.6336  161.4731 H   0  0  0  0  0  0  0  0  0  0  0  0
  125.5120  137.6874  163.7592 H   0  0  0  0  0  0  0  0  0  0  0  0
  126.0108  137.3000  166.1378 H   0  0  0  0  0  0  0  0  0  0  0  0
  127.4711  135.4341  166.8034 H   0  0  0  0  0  0  0  0  0  0  0  0
  128.4305  133.9457  165.0944 H   0  0  0  0  0  0  0  0  0  0  0  0
  127.9320  134.3191  162.7136 H   0  0  0  0  0  0  0  0  0  0  0  0
  126.0222  134.5026  159.7762 H   0  0  0  0  0  0  0  0  0  0  0  0
  127.6690  133.8782  158.0578 H   0  0  0  0  0  0  0  0  0  0  0  0
  132.0756  129.8934  155.5737 H   0  0  0  0  0  0  0  0  0  0  0  0
  132.5823  128.6517  153.5117 H   0  0  0  0  0  0  0  0  0  0  0  0
  1  2  1  0
  2 28  2  0
  2  3  1  0
  3  4  2  0
  3 29  1  0
  4  5  1  0
  4 30  1  0
  5  6  1  0
  5 27  2  0
  6 25  1  0
  6  7  2  0
  7  8  1  0
  7 31  1  0
  8  9  1  0
  8 10  1  0
 10 11  1  0
 10 25  2  0
 11 12  1  0
 11 32  1  0
 12 24  1  0
 12 13  2  0
 13 14  1  0
 13 33  1  0
 14 15  2  0
 14 34  1  0
 15 16  1  0
 15 23  1  0
 16 17  1  0
 16 35  1  0
 17 22  1  0
 17 18  2  0
 18 19  1  0
 18 36  1  0
 19 20  2  0
 19 37  1  0
 20 21  1  0
 20 38  1  0
 21 22  2  0
 21 39  1  0
 22 40  1  0
 23 24  2  0
 23 41  1  0
 24 42  1  0
 25 26  1  0
 27 28  1  0
 27 43  1  0
 28 44  1  0
M  CHG  1  25   1
M  END
>  <DOCK_score>  (1) 
-54.601795

>  <SMILES>  (1) 
Fc1ccc(-c2c[nH]c(Nc3ccc(Nc4ccccc4)cc3)[nH+]2)cc1

$$$$
