O=C1SCC[C@H]1NC(N[C@H]1C[C@H](Cc2ccccc2)C1)=[NH+]C1C=CCCCC1
     RDKit          3D

 60 63  0  0  1  0  0  0  0  0999 V2000
  127.3229  139.3176  162.2441 O   0  0  0  0  0  0  0  0  0  0  0  0
  128.0069  138.9124  163.1605 C   0  0  0  0  0  0  0  0  0  0  0  0
  127.5912  138.9720  164.8260 S   0  0  0  0  0  0  0  0  0  0  0  0
  129.0830  138.1600  165.4777 C   0  0  0  0  0  0  0  0  0  0  0  0
  129.6809  137.4258  164.2628 C   0  0  0  0  0  0  0  0  0  0  0  0
  129.3627  138.2733  163.0299 C   0  0  1  0  0  0  0  0  0  0  0  0
  130.1173  139.0528  162.9250 H   0  0  0  0  0  0  0  0  0  0  0  0
  129.3816  137.4200  161.8390 N   0  0  0  0  0  0  0  0  0  0  0  0
  130.5556  137.2265  161.1506 C   0  0  0  0  0  0  0  0  0  0  0  0
  130.5733  136.4257  160.0332 N   0  0  0  0  0  0  0  0  0  0  0  0
  129.3409  135.7786  159.5762 C   0  0  1  0  0  0  0  0  0  0  0  0
  128.5554  136.4921  159.3272 H   0  0  0  0  0  0  0  0  0  0  0  0
  129.5705  134.7121  158.4924 C   0  0  0  0  0  0  0  0  0  0  0  0
  129.7414  133.6990  159.6367 C   0  0  2  0  0  0  0  0  0  0  0  0
  130.7679  133.6108  159.9922 H   0  0  0  0  0  0  0  0  0  0  0  0
  129.0911  132.3427  159.3565 C   0  0  0  0  0  0  0  0  0  0  0  0
  129.8824  131.6149  158.3004 C   0  0  0  0  0  0  0  0  0  0  0  0
  129.5650  131.7768  156.9648 C   0  0  0  0  0  0  0  0  0  0  0  0
  130.2939  131.1129  155.9958 C   0  0  0  0  0  0  0  0  0  0  0  0
  131.3334  130.2789  156.3631 C   0  0  0  0  0  0  0  0  0  0  0  0
  131.6473  130.1128  157.6990 C   0  0  0  0  0  0  0  0  0  0  0  0
  130.9218  130.7807  158.6677 C   0  0  0  0  0  0  0  0  0  0  0  0
  128.8699  134.6353  160.4904 C   0  0  0  0  0  0  0  0  0  0  0  0
  131.6521  137.8023  161.5572 N   0  0  0  0  0  0  0  0  0  0  0  0
  131.7820  137.9868  162.5004 H   0  0  0  0  0  0  0  0  0  0  0  0
  132.6882  138.1708  160.5891 C   0  0  1  0  0  0  0  0  0  0  0  0
  132.1269  139.1602  159.5906 C   0  0  0  0  0  0  0  0  0  0  0  0
  132.7880  139.4519  158.5156 C   0  0  0  0  0  0  0  0  0  0  0  0
  134.1304  138.8072  158.2443 C   0  0  0  0  0  0  0  0  0  0  0  0
  135.1604  139.3986  159.2093 C   0  0  0  0  0  0  0  0  0  0  0  0
  135.1498  138.6517  160.5314 C   0  0  0  0  0  0  0  0  0  0  0  0
  133.8630  138.8258  161.3187 C   0  0  0  0  0  0  0  0  0  0  0  0
  128.8185  137.4488  166.2601 H   0  0  0  0  0  0  0  0  0  0  0  0
  129.7854  138.9020  165.8576 H   0  0  0  0  0  0  0  0  0  0  0  0
  129.2275  136.4396  164.1637 H   0  0  0  0  0  0  0  0  0  0  0  0
  130.7603  137.3291  164.3795 H   0  0  0  0  0  0  0  0  0  0  0  0
  128.5655  136.9916  161.5365 H   0  0  0  0  0  0  0  0  0  0  0  0
  131.4016  136.2892  159.5473 H   0  0  0  0  0  0  0  0  0  0  0  0
  128.6946  134.5253  157.8710 H   0  0  0  0  0  0  0  0  0  0  0  0
  130.4782  134.8698  157.9099 H   0  0  0  0  0  0  0  0  0  0  0  0
  129.0763  131.7508  160.2717 H   0  0  0  0  0  0  0  0  0  0  0  0
  128.0703  132.4946  159.0054 H   0  0  0  0  0  0  0  0  0  0  0  0
  128.7502  132.4250  156.6781 H   0  0  0  0  0  0  0  0  0  0  0  0
  130.0485  131.2424  154.9520 H   0  0  0  0  0  0  0  0  0  0  0  0
  131.9001  129.7568  155.6064 H   0  0  0  0  0  0  0  0  0  0  0  0
  132.4592  129.4610  157.9861 H   0  0  0  0  0  0  0  0  0  0  0  0
  131.1668  130.6508  159.7115 H   0  0  0  0  0  0  0  0  0  0  0  0
  129.2120  134.7310  161.5209 H   0  0  0  0  0  0  0  0  0  0  0  0
  127.8026  134.4275  160.4154 H   0  0  0  0  0  0  0  0  0  0  0  0
  133.0337  137.2791  160.0659 H   0  0  0  0  0  0  0  0  0  0  0  0
  131.1699  139.6255  159.7755 H   0  0  0  0  0  0  0  0  0  0  0  0
  132.3792  140.1592  157.8090 H   0  0  0  0  0  0  0  0  0  0  0  0
  134.4327  139.0102  157.2169 H   0  0  0  0  0  0  0  0  0  0  0  0
  134.0599  137.7305  158.3990 H   0  0  0  0  0  0  0  0  0  0  0  0
  134.9240  140.4476  159.3877 H   0  0  0  0  0  0  0  0  0  0  0  0
  136.1526  139.3258  158.7640 H   0  0  0  0  0  0  0  0  0  0  0  0
  135.9814  139.0078  161.1394 H   0  0  0  0  0  0  0  0  0  0  0  0
  135.2949  137.5903  160.3310 H   0  0  0  0  0  0  0  0  0  0  0  0
  133.6599  139.8894  161.4435 H   0  0  0  0  0  0  0  0  0  0  0  0
  133.9782  138.3650  162.2998 H   0  0  0  0  0  0  0  0  0  0  0  0
  1  2  2  0
  2  6  1  0
  2  3  1  0
  3  4  1  0
  4  5  1  0
  4 33  1  0
  4 34  1  0
  5  6  1  0
  5 35  1  0
  5 36  1  0
  6  7  1  6
  6  8  1  0
  8 37  1  0
  9  8  1  0
  9 10  1  0
  9 24  2  0
 10 11  1  0
 10 38  1  0
 11 12  1  6
 11 23  1  0
 11 13  1  0
 13 14  1  0
 13 39  1  0
 13 40  1  0
 14 15  1  1
 14 16  1  0
 14 23  1  0
 16 17  1  0
 16 41  1  0
 16 42  1  0
 17 22  1  0
 17 18  2  0
 18 19  1  0
 18 43  1  0
 19 20  2  0
 19 44  1  0
 20 21  1  0
 20 45  1  0
 21 22  2  0
 21 46  1  0
 22 47  1  0
 23 48  1  0
 23 49  1  0
 24 25  1  0
 24 26  1  0
 26 32  1  0
 26 27  1  0
 26 50  1  6
 27 28  2  0
 27 51  1  0
 28 29  1  0
 28 52  1  0
 29 30  1  0
 29 53  1  0
 29 54  1  0
 30 31  1  0
 30 55  1  0
 30 56  1  0
 31 32  1  0
 31 57  1  0
 31 58  1  0
 32 59  1  0
 32 60  1  0
M  CHG  1  24   1
M  END
>  <DOCK_score>  (1) 
-44.849609

>  <SMILES>  (1) 
O=C1SCC[C@H]1NC(N[C@H]1C[C@H](Cc2ccccc2)C1)=[NH+]C1C=CCCCC1

$$$$
