C[C@H]1C[C@H]([NH2+]Cc2c[nH]nc2-c2ccc(N[C@H]3C[C@@H](F)[C@@H](F)C3)o2)C1
     RDKit          3D

 50 53  0  0  1  0  0  0  0  0999 V2000
  133.2334  140.1505  161.9868 C   0  0  0  0  0  0  0  0  0  0  0  0
  133.4148  139.5154  160.6068 C   0  0  1  0  0  0  0  0  0  0  0  0
  133.8911  140.1861  159.8916 H   0  0  0  0  0  0  0  0  0  0  0  0
  134.0461  138.1140  160.6518 C   0  0  0  0  0  0  0  0  0  0  0  0
  132.6169  137.5600  160.7753 C   0  0  2  0  0  0  0  0  0  0  0  0
  132.2685  137.4759  161.8047 H   0  0  0  0  0  0  0  0  0  0  0  0
  132.3906  136.3363  159.9947 N   0  0  0  0  0  0  0  0  0  0  0  0
  132.5569  136.5250  159.0176 H   0  0  0  0  0  0  0  0  0  0  0  0
  133.0214  135.6148  160.3102 H   0  0  0  0  0  0  0  0  0  0  0  0
  131.0035  135.8883  160.1777 C   0  0  0  0  0  0  0  0  0  0  0  0
  130.7714  134.6329  159.3768 C   0  0  0  0  0  0  0  0  0  0  0  0
  131.6839  133.9990  158.6099 C   0  0  0  0  0  0  0  0  0  0  0  0
  131.0894  132.9180  158.0598 N   0  0  0  0  0  0  0  0  0  0  0  0
  131.5102  132.2796  157.4629 H   0  0  0  0  0  0  0  0  0  0  0  0
  129.7605  132.8783  158.5002 N   0  0  0  0  0  0  0  0  0  0  0  0
  129.5636  133.9078  159.3002 C   0  0  0  0  0  0  0  0  0  0  0  0
  128.3013  134.2444  159.9904 C   0  0  0  0  0  0  0  0  0  0  0  0
  127.1418  133.5392  159.9181 C   0  0  0  0  0  0  0  0  0  0  0  0
  126.2038  134.2119  160.7259 C   0  0  0  0  0  0  0  0  0  0  0  0
  126.8354  135.2917  161.2502 C   0  0  0  0  0  0  0  0  0  0  0  0
  126.2681  136.2273  162.1074 N   0  0  0  0  0  0  0  0  0  0  0  0
  127.1026  136.9181  163.0937 C   0  0  1  0  0  0  0  0  0  0  0  0
  127.5621  136.2000  163.7730 H   0  0  0  0  0  0  0  0  0  0  0  0
  128.1861  137.7693  162.3861 C   0  0  0  0  0  0  0  0  0  0  0  0
  128.5313  138.8381  163.4525 C   0  0  1  0  0  0  0  0  0  0  0  0
  129.2235  138.4316  164.1900 H   0  0  0  0  0  0  0  0  0  0  0  0
  129.0728  139.9772  162.8468 F   0  0  0  0  0  0  0  0  0  0  0  0
  127.1754  139.1689  164.1096 C   0  0  1  0  0  0  0  0  0  0  0  0
  127.3097  139.3399  165.1777 H   0  0  0  0  0  0  0  0  0  0  0  0
  126.6155  140.3016  163.5092 F   0  0  0  0  0  0  0  0  0  0  0  0
  126.2668  137.9480  163.8814 C   0  0  0  0  0  0  0  0  0  0  0  0
  128.1037  135.3017  160.8057 O   0  0  0  0  0  0  0  0  0  0  0  0
  132.1439  138.8397  160.0656 C   0  0  0  0  0  0  0  0  0  0  0  0
  134.2040  140.2465  162.4733 H   0  0  0  0  0  0  0  0  0  0  0  0
  132.7831  141.1371  161.8766 H   0  0  0  0  0  0  0  0  0  0  0  0
  132.5835  139.5204  162.5942 H   0  0  0  0  0  0  0  0  0  0  0  0
  134.6599  137.9397  161.5357 H   0  0  0  0  0  0  0  0  0  0  0  0
  134.5458  137.8302  159.7257 H   0  0  0  0  0  0  0  0  0  0  0  0
  130.8238  135.6844  161.2333 H   0  0  0  0  0  0  0  0  0  0  0  0
  130.3220  136.6678  159.8370 H   0  0  0  0  0  0  0  0  0  0  0  0
  132.7096  134.3030  158.4619 H   0  0  0  0  0  0  0  0  0  0  0  0
  126.9722  132.6360  159.3506 H   0  0  0  0  0  0  0  0  0  0  0  0
  125.1772  133.9227  160.8955 H   0  0  0  0  0  0  0  0  0  0  0  0
  125.3196  136.4230  162.0526 H   0  0  0  0  0  0  0  0  0  0  0  0
  129.0604  137.1628  162.1498 H   0  0  0  0  0  0  0  0  0  0  0  0
  127.7842  138.2363  161.4871 H   0  0  0  0  0  0  0  0  0  0  0  0
  125.3900  138.2381  163.3029 H   0  0  0  0  0  0  0  0  0  0  0  0
  125.9598  137.5262  164.8385 H   0  0  0  0  0  0  0  0  0  0  0  0
  132.1236  138.7543  158.9792 H   0  0  0  0  0  0  0  0  0  0  0  0
  131.2219  139.2513  160.4763 H   0  0  0  0  0  0  0  0  0  0  0  0
  1  2  1  0
  1 34  1  0
  1 35  1  0
  1 36  1  0
  2  3  1  6
  2 33  1  0
  2  4  1  0
  4  5  1  0
  4 37  1  0
  4 38  1  0
  5  6  1  1
  5  7  1  0
  5 33  1  0
  7  8  1  0
  7  9  1  0
  7 10  1  0
 10 11  1  0
 10 39  1  0
 10 40  1  0
 11 16  1  0
 11 12  2  0
 12 13  1  0
 12 41  1  0
 13 14  1  0
 13 15  1  0
 15 16  2  0
 16 17  1  0
 17 32  1  0
 17 18  2  0
 18 19  1  0
 18 42  1  0
 19 20  2  0
 19 43  1  0
 20 21  1  0
 20 32  1  0
 21 22  1  0
 21 44  1  0
 22 23  1  1
 22 31  1  0
 22 24  1  0
 24 25  1  0
 24 45  1  0
 24 46  1  0
 25 26  1  1
 25 27  1  0
 25 28  1  0
 28 29  1  1
 28 30  1  0
 28 31  1  0
 31 47  1  0
 31 48  1  0
 33 49  1  0
 33 50  1  0
M  CHG  1   7   1
M  END
>  <DOCK_score>  (1) 
-43.000134

>  <SMILES>  (1) 
C[C@H]1C[C@H]([NH2+]Cc2c[nH]nc2-c2ccc(N[C@H]3C[C@@H](F)[C@@H](F)C3)o2)C1

$$$$
