O=C(NC1CCC=C(Cc2ccc(CO)[nH]2)C1)C(=O)N[C@H]1CC[NH2+]C2(CCC2)C1
     RDKit          3D

 62 65  0  0  1  0  0  0  0  0999 V2000
  128.6491  137.8056  162.9323 O   0  0  0  0  0  0  0  0  0  0  0  0
  127.6219  137.4319  162.4054 C   0  0  0  0  0  0  0  0  0  0  0  0
  126.4320  137.8710  162.8615 N   0  0  0  0  0  0  0  0  0  0  0  0
  126.3789  138.7996  163.9934 C   0  0  2  0  0  0  0  0  0  0  0  0
  124.9182  139.1492  164.3052 C   0  0  0  0  0  0  0  0  0  0  0  0
  124.8817  139.9682  165.5973 C   0  0  0  0  0  0  0  0  0  0  0  0
  125.8763  141.0897  165.5267 C   0  0  0  0  0  0  0  0  0  0  0  0
  126.8527  141.1408  164.6784 C   0  0  0  0  0  0  0  0  0  0  0  0
  127.7777  142.3292  164.7364 C   0  0  0  0  0  0  0  0  0  0  0  0
  129.1527  141.9185  164.2767 C   0  0  0  0  0  0  0  0  0  0  0  0
  129.6055  141.9548  163.0070 C   0  0  0  0  0  0  0  0  0  0  0  0
  130.9344  141.4872  163.0195 C   0  0  0  0  0  0  0  0  0  0  0  0
  131.2433  141.1830  164.2964 C   0  0  0  0  0  0  0  0  0  0  0  0
  132.5649  140.6456  164.7817 C   0  0  0  0  0  0  0  0  0  0  0  0
  132.3358  139.5665  165.6900 O   0  0  0  0  0  0  0  0  0  0  0  0
  130.1516  141.4401  165.0718 N   0  0  0  0  0  0  0  0  0  0  0  0
  130.0959  141.3071  166.0310 H   0  0  0  0  0  0  0  0  0  0  0  0
  127.1175  140.0933  163.6370 C   0  0  0  0  0  0  0  0  0  0  0  0
  127.6760  136.4849  161.2505 C   0  0  0  0  0  0  0  0  0  0  0  0
  126.6488  136.1112  160.7235 O   0  0  0  0  0  0  0  0  0  0  0  0
  128.8658  136.0459  160.7943 N   0  0  0  0  0  0  0  0  0  0  0  0
  128.9190  135.1176  159.6621 C   0  0  1  0  0  0  0  0  0  0  0  0
  128.0220  134.4984  159.6560 H   0  0  0  0  0  0  0  0  0  0  0  0
  129.0064  135.9091  158.3544 C   0  0  0  0  0  0  0  0  0  0  0  0
  129.1003  134.9380  157.1761 C   0  0  0  0  0  0  0  0  0  0  0  0
  130.3199  134.1285  157.2990 N   0  0  0  0  0  0  0  0  0  0  0  0
  131.1258  134.7356  157.3127 H   0  0  0  0  0  0  0  0  0  0  0  0
  130.3860  133.5003  156.5123 H   0  0  0  0  0  0  0  0  0  0  0  0
  130.2736  133.3520  158.5404 C   0  0  0  0  0  0  0  0  0  0  0  0
  129.2597  132.2006  158.5052 C   0  0  0  0  0  0  0  0  0  0  0  0
  130.3945  131.3263  157.9443 C   0  0  0  0  0  0  0  0  0  0  0  0
  131.3742  132.2874  158.6394 C   0  0  0  0  0  0  0  0  0  0  0  0
  130.1579  134.2243  159.7893 C   0  0  0  0  0  0  0  0  0  0  0  0
  125.6109  137.5723  162.4403 H   0  0  0  0  0  0  0  0  0  0  0  0
  126.8399  138.3390  164.8671 H   0  0  0  0  0  0  0  0  0  0  0  0
  124.3419  138.2333  164.4355 H   0  0  0  0  0  0  0  0  0  0  0  0
  124.4959  139.7346  163.4883 H   0  0  0  0  0  0  0  0  0  0  0  0
  125.1247  139.3225  166.4412 H   0  0  0  0  0  0  0  0  0  0  0  0
  123.8822  140.3799  165.7361 H   0  0  0  0  0  0  0  0  0  0  0  0
  125.7709  141.9049  166.2273 H   0  0  0  0  0  0  0  0  0  0  0  0
  127.8320  142.6977  165.7609 H   0  0  0  0  0  0  0  0  0  0  0  0
  127.3976  143.1175  164.0866 H   0  0  0  0  0  0  0  0  0  0  0  0
  129.0513  142.2825  162.1398 H   0  0  0  0  0  0  0  0  0  0  0  0
  131.5862  141.3906  162.1637 H   0  0  0  0  0  0  0  0  0  0  0  0
  133.1457  140.2877  163.9316 H   0  0  0  0  0  0  0  0  0  0  0  0
  133.1148  141.4377  165.2899 H   0  0  0  0  0  0  0  0  0  0  0  0
  131.8501  138.8243  165.3046 H   0  0  0  0  0  0  0  0  0  0  0  0
  126.7749  140.4535  162.6670 H   0  0  0  0  0  0  0  0  0  0  0  0
  128.1882  139.8943  163.5887 H   0  0  0  0  0  0  0  0  0  0  0  0
  129.6869  136.3446  161.2154 H   0  0  0  0  0  0  0  0  0  0  0  0
  128.1164  136.5288  158.2445 H   0  0  0  0  0  0  0  0  0  0  0  0
  129.8917  136.5447  158.3727 H   0  0  0  0  0  0  0  0  0  0  0  0
  129.1311  135.5011  156.2433 H   0  0  0  0  0  0  0  0  0  0  0  0
  128.2288  134.2832  157.1759 H   0  0  0  0  0  0  0  0  0  0  0  0
  128.9163  131.8905  159.4921 H   0  0  0  0  0  0  0  0  0  0  0  0
  128.4423  132.3596  157.8019 H   0  0  0  0  0  0  0  0  0  0  0  0
  130.4627  131.3446  156.8567 H   0  0  0  0  0  0  0  0  0  0  0  0
  130.4110  130.3157  158.3525 H   0  0  0  0  0  0  0  0  0  0  0  0
  132.2581  132.5162  158.0441 H   0  0  0  0  0  0  0  0  0  0  0  0
  131.6144  132.0013  159.6633 H   0  0  0  0  0  0  0  0  0  0  0  0
  131.0480  134.8465  159.8831 H   0  0  0  0  0  0  0  0  0  0  0  0
  130.0615  133.5904  160.6707 H   0  0  0  0  0  0  0  0  0  0  0  0
  1  2  2  0
  2  3  1  0
  2 19  1  0
  3  4  1  0
  3 34  1  0
  4 18  1  0
  4  5  1  0
  4 35  1  1
  5  6  1  0
  5 36  1  0
  5 37  1  0
  6  7  1  0
  6 38  1  0
  6 39  1  0
  7  8  2  0
  7 40  1  0
  8  9  1  0
  8 18  1  0
  9 10  1  0
  9 41  1  0
  9 42  1  0
 10 16  1  0
 10 11  2  0
 11 12  1  0
 11 43  1  0
 12 13  2  0
 12 44  1  0
 13 14  1  0
 13 16  1  0
 14 15  1  0
 14 45  1  0
 14 46  1  0
 15 47  1  0
 16 17  1  0
 18 48  1  0
 18 49  1  0
 19 20  2  0
 19 21  1  0
 21 22  1  0
 21 50  1  0
 22 23  1  6
 22 33  1  0
 22 24  1  0
 24 25  1  0
 24 51  1  0
 24 52  1  0
 25 26  1  0
 25 53  1  0
 25 54  1  0
 26 27  1  0
 26 28  1  0
 26 29  1  0
 29 32  1  0
 29 30  1  0
 29 33  1  0
 30 31  1  0
 30 55  1  0
 30 56  1  0
 31 32  1  0
 31 57  1  0
 31 58  1  0
 32 59  1  0
 32 60  1  0
 33 61  1  0
 33 62  1  0
M  CHG  1  26   1
M  END
>  <DOCK_score>  (1) 
-43.008076

>  <SMILES>  (1) 
O=C(NC1CCC=C(Cc2ccc(CO)[nH]2)C1)C(=O)N[C@H]1CC[NH2+]C2(CCC2)C1

$$$$
