O=C1CCC(NC(NC2Cc3ccccc3C2)=[NH+][C@@H]2Cc3ccc(Br)cc3C2)CN1
     RDKit          3D

 58 62  0  0  1  0  0  0  0  0999 V2000
  123.9367  133.2916  160.9507 O   0  0  0  0  0  0  0  0  0  0  0  0
  125.0833  133.6259  160.7393 C   0  0  0  0  0  0  0  0  0  0  0  0
  125.9954  132.6462  160.0587 C   0  0  0  0  0  0  0  0  0  0  0  0
  127.4542  133.0571  160.2730 C   0  0  0  0  0  0  0  0  0  0  0  0
  127.5928  134.5465  159.9352 C   0  0  2  0  0  0  0  0  0  0  0  0
  129.0072  134.9273  159.9630 N   0  0  0  0  0  0  0  0  0  0  0  0
  129.9013  134.3127  159.1187 C   0  0  0  0  0  0  0  0  0  0  0  0
  129.4821  133.8458  157.8953 N   0  0  0  0  0  0  0  0  0  0  0  0
  130.4348  133.1909  156.9956 C   0  0  0  0  0  0  0  0  0  0  0  0
  129.9483  133.2657  155.5327 C   0  0  0  0  0  0  0  0  0  0  0  0
  130.3836  131.9597  154.9033 C   0  0  0  0  0  0  0  0  0  0  0  0
  130.5041  131.6020  153.5708 C   0  0  0  0  0  0  0  0  0  0  0  0
  130.9259  130.3325  153.2274 C   0  0  0  0  0  0  0  0  0  0  0  0
  131.2293  129.4152  154.2163 C   0  0  0  0  0  0  0  0  0  0  0  0
  131.1109  129.7705  155.5456 C   0  0  0  0  0  0  0  0  0  0  0  0
  130.6869  131.0427  155.8920 C   0  0  0  0  0  0  0  0  0  0  0  0
  130.4764  131.6697  157.2535 C   0  0  0  0  0  0  0  0  0  0  0  0
  131.1463  134.1724  159.4781 N   0  0  0  0  0  0  0  0  0  0  0  0
  131.7771  133.7388  158.8824 H   0  0  0  0  0  0  0  0  0  0  0  0
  131.5928  134.6697  160.7818 C   0  0  2  0  0  0  0  0  0  0  0  0
  130.7807  134.6324  161.5077 H   0  0  0  0  0  0  0  0  0  0  0  0
  132.1545  136.1020  160.6596 C   0  0  0  0  0  0  0  0  0  0  0  0
  133.2947  136.1668  161.6532 C   0  0  0  0  0  0  0  0  0  0  0  0
  133.9470  137.2590  162.2007 C   0  0  0  0  0  0  0  0  0  0  0  0
  134.9769  137.0739  163.1016 C   0  0  0  0  0  0  0  0  0  0  0  0
  135.3589  135.7934  163.4596 C   0  0  0  0  0  0  0  0  0  0  0  0
  136.7693  135.5359  164.6926 Br  0  0  0  0  0  0  0  0  0  0  0  0
  134.7086  134.7025  162.9146 C   0  0  0  0  0  0  0  0  0  0  0  0
  133.6759  134.8870  162.0106 C   0  0  0  0  0  0  0  0  0  0  0  0
  132.8181  133.8752  161.2817 C   0  0  0  0  0  0  0  0  0  0  0  0
  126.8222  135.3586  160.9769 C   0  0  0  0  0  0  0  0  0  0  0  0
  125.4666  134.8438  161.1244 N   0  0  0  0  0  0  0  0  0  0  0  0
  125.7770  132.6296  158.9909 H   0  0  0  0  0  0  0  0  0  0  0  0
  125.8339  131.6525  160.4767 H   0  0  0  0  0  0  0  0  0  0  0  0
  128.1004  132.4709  159.6195 H   0  0  0  0  0  0  0  0  0  0  0  0
  127.7344  132.8891  161.3129 H   0  0  0  0  0  0  0  0  0  0  0  0
  127.1799  134.7368  158.9445 H   0  0  0  0  0  0  0  0  0  0  0  0
  129.3128  135.6131  160.5772 H   0  0  0  0  0  0  0  0  0  0  0  0
  128.5554  133.9501  157.6280 H   0  0  0  0  0  0  0  0  0  0  0  0
  131.4275  133.6288  157.0998 H   0  0  0  0  0  0  0  0  0  0  0  0
  128.8626  133.3583  155.4995 H   0  0  0  0  0  0  0  0  0  0  0  0
  130.4162  134.1066  155.0210 H   0  0  0  0  0  0  0  0  0  0  0  0
  130.2673  132.3179  152.7977 H   0  0  0  0  0  0  0  0  0  0  0  0
  131.0187  130.0566  152.1874 H   0  0  0  0  0  0  0  0  0  0  0  0
  131.5585  128.4218  153.9496 H   0  0  0  0  0  0  0  0  0  0  0  0
  131.3484  129.0535  156.3177 H   0  0  0  0  0  0  0  0  0  0  0  0
  131.3049  131.4211  157.9167 H   0  0  0  0  0  0  0  0  0  0  0  0
  129.5335  131.3333  157.6847 H   0  0  0  0  0  0  0  0  0  0  0  0
  132.5227  136.2791  159.6492 H   0  0  0  0  0  0  0  0  0  0  0  0
  131.3871  136.8323  160.9165 H   0  0  0  0  0  0  0  0  0  0  0  0
  133.6493  138.2590  161.9215 H   0  0  0  0  0  0  0  0  0  0  0  0
  135.4834  137.9279  163.5265 H   0  0  0  0  0  0  0  0  0  0  0  0
  135.0073  133.7029  163.1940 H   0  0  0  0  0  0  0  0  0  0  0  0
  132.5039  133.0847  161.9634 H   0  0  0  0  0  0  0  0  0  0  0  0
  133.3649  133.4531  160.4385 H   0  0  0  0  0  0  0  0  0  0  0  0
  127.3375  135.2964  161.9354 H   0  0  0  0  0  0  0  0  0  0  0  0
  126.7794  136.4010  160.6614 H   0  0  0  0  0  0  0  0  0  0  0  0
  124.8017  135.4234  161.5278 H   0  0  0  0  0  0  0  0  0  0  0  0
  1  2  2  0
  2 32  1  0
  2  3  1  0
  3  4  1  0
  3 33  1  0
  3 34  1  0
  4  5  1  0
  4 35  1  0
  4 36  1  0
  5  6  1  0
  5 31  1  0
  5 37  1  6
  6 38  1  0
  7  6  1  0
  7  8  1  0
  7 18  2  0
  8  9  1  0
  8 39  1  0
  9 17  1  0
  9 10  1  0
  9 40  1  0
 10 11  1  0
 10 41  1  0
 10 42  1  0
 11 16  2  0
 11 12  1  0
 12 13  2  0
 12 43  1  0
 13 14  1  0
 13 44  1  0
 14 15  2  0
 14 45  1  0
 15 16  1  0
 15 46  1  0
 16 17  1  0
 17 47  1  0
 17 48  1  0
 18 19  1  0
 18 20  1  0
 20 21  1  1
 20 30  1  0
 20 22  1  0
 22 23  1  0
 22 49  1  0
 22 50  1  0
 23 29  2  0
 23 24  1  0
 24 25  2  0
 24 51  1  0
 25 26  1  0
 25 52  1  0
 26 27  1  0
 26 28  2  0
 28 29  1  0
 28 53  1  0
 29 30  1  0
 30 54  1  0
 30 55  1  0
 31 32  1  0
 31 56  1  0
 31 57  1  0
 32 58  1  0
M  CHG  1  18   1
M  END
>  <DOCK_score>  (1) 
-45.866383

>  <SMILES>  (1) 
O=C1CCC(NC(NC2Cc3ccccc3C2)=[NH+][C@@H]2Cc3ccc(Br)cc3C2)CN1

$$$$
