O=C1CC[C@H](NC(NC2CCC=CCC2)=[NH+][C@H]2CCc3ccccc3C2)CN1
     RDKit          3D

 61 64  0  0  1  0  0  0  0  0999 V2000
  123.9915  133.5781  161.8822 O   0  0  0  0  0  0  0  0  0  0  0  0
  125.1168  133.9391  161.6101 C   0  0  0  0  0  0  0  0  0  0  0  0
  126.1113  132.9005  161.1770 C   0  0  0  0  0  0  0  0  0  0  0  0
  127.5324  133.4551  161.3044 C   0  0  0  0  0  0  0  0  0  0  0  0
  127.5753  134.8357  160.6384 C   0  0  2  0  0  0  0  0  0  0  0  0
  127.1747  134.7664  159.6272 H   0  0  0  0  0  0  0  0  0  0  0  0
  128.9587  135.3155  160.5908 N   0  0  0  0  0  0  0  0  0  0  0  0
  129.7505  135.0235  159.5054 C   0  0  0  0  0  0  0  0  0  0  0  0
  129.2442  134.2812  158.4649 N   0  0  0  0  0  0  0  0  0  0  0  0
  130.1331  133.4265  157.6742 C   0  0  0  0  0  0  0  0  0  0  0  0
  129.6415  133.4119  156.2375 C   0  0  0  0  0  0  0  0  0  0  0  0
  130.6413  132.6900  155.3300 C   0  0  0  0  0  0  0  0  0  0  0  0
  130.3406  131.2069  155.3693 C   0  0  0  0  0  0  0  0  0  0  0  0
  130.6133  130.5114  156.4274 C   0  0  0  0  0  0  0  0  0  0  0  0
  131.2354  131.1731  157.6385 C   0  0  0  0  0  0  0  0  0  0  0  0
  130.1782  132.0498  158.3133 C   0  0  0  0  0  0  0  0  0  0  0  0
  130.9813  135.4504  159.4629 N   0  0  0  0  0  0  0  0  0  0  0  0
  131.3978  135.6456  158.6089 H   0  0  0  0  0  0  0  0  0  0  0  0
  131.7357  135.6353  160.7050 C   0  0  1  0  0  0  0  0  0  0  0  0
  131.1108  135.3684  161.5574 H   0  0  0  0  0  0  0  0  0  0  0  0
  132.9877  134.7504  160.6855 C   0  0  0  0  0  0  0  0  0  0  0  0
  133.6203  134.7796  162.0754 C   0  0  0  0  0  0  0  0  0  0  0  0
  133.8059  136.1993  162.5434 C   0  0  0  0  0  0  0  0  0  0  0  0
  134.6893  136.4247  163.5916 C   0  0  0  0  0  0  0  0  0  0  0  0
  134.8989  137.7016  164.0694 C   0  0  0  0  0  0  0  0  0  0  0  0
  134.2244  138.7665  163.5014 C   0  0  0  0  0  0  0  0  0  0  0  0
  133.3484  138.5451  162.4593 C   0  0  0  0  0  0  0  0  0  0  0  0
  133.1380  137.2603  161.9747 C   0  0  0  0  0  0  0  0  0  0  0  0
  132.1777  137.0923  160.8264 C   0  0  0  0  0  0  0  0  0  0  0  0
  126.7247  135.8033  161.4622 C   0  0  0  0  0  0  0  0  0  0  0  0
  125.4050  135.2372  161.7115 N   0  0  0  0  0  0  0  0  0  0  0  0
  126.0096  132.0169  161.8072 H   0  0  0  0  0  0  0  0  0  0  0  0
  125.9209  132.6273  160.1392 H   0  0  0  0  0  0  0  0  0  0  0  0
  127.7973  133.5472  162.3577 H   0  0  0  0  0  0  0  0  0  0  0  0
  128.2336  132.7854  160.8064 H   0  0  0  0  0  0  0  0  0  0  0  0
  129.3161  135.8391  161.3249 H   0  0  0  0  0  0  0  0  0  0  0  0
  128.2982  134.3234  158.2543 H   0  0  0  0  0  0  0  0  0  0  0  0
  131.1357  133.8537  157.6952 H   0  0  0  0  0  0  0  0  0  0  0  0
  128.6793  132.9017  156.1926 H   0  0  0  0  0  0  0  0  0  0  0  0
  129.5197  134.4377  155.8896 H   0  0  0  0  0  0  0  0  0  0  0  0
  131.6559  132.8672  155.6870 H   0  0  0  0  0  0  0  0  0  0  0  0
  130.5439  133.0560  154.3080 H   0  0  0  0  0  0  0  0  0  0  0  0
  129.8967  130.7260  154.5102 H   0  0  0  0  0  0  0  0  0  0  0  0
  130.3957  129.4538  156.4457 H   0  0  0  0  0  0  0  0  0  0  0  0
  132.0776  131.7906  157.3258 H   0  0  0  0  0  0  0  0  0  0  0  0
  131.5778  130.4096  158.3370 H   0  0  0  0  0  0  0  0  0  0  0  0
  130.4199  132.1530  159.3712 H   0  0  0  0  0  0  0  0  0  0  0  0
  129.2020  131.5757  158.2136 H   0  0  0  0  0  0  0  0  0  0  0  0
  132.7104  133.7277  160.4300 H   0  0  0  0  0  0  0  0  0  0  0  0
  133.6962  135.1330  159.9511 H   0  0  0  0  0  0  0  0  0  0  0  0
  132.9733  134.2520  162.7761 H   0  0  0  0  0  0  0  0  0  0  0  0
  134.5902  134.2834  162.0393 H   0  0  0  0  0  0  0  0  0  0  0  0
  135.2161  135.5934  164.0361 H   0  0  0  0  0  0  0  0  0  0  0  0
  135.5873  137.8689  164.8846 H   0  0  0  0  0  0  0  0  0  0  0  0
  134.3831  139.7683  163.8723 H   0  0  0  0  0  0  0  0  0  0  0  0
  132.8216  139.3773  162.0164 H   0  0  0  0  0  0  0  0  0  0  0  0
  132.6667  137.3978  159.9015 H   0  0  0  0  0  0  0  0  0  0  0  0
  131.3029  137.7205  160.9946 H   0  0  0  0  0  0  0  0  0  0  0  0
  126.6173  136.7416  160.9179 H   0  0  0  0  0  0  0  0  0  0  0  0
  127.2194  135.9971  162.4140 H   0  0  0  0  0  0  0  0  0  0  0  0
  124.6917  135.8425  161.9677 H   0  0  0  0  0  0  0  0  0  0  0  0
  1  2  2  0
  2 31  1  0
  2  3  1  0
  3  4  1  0
  3 32  1  0
  3 33  1  0
  4  5  1  0
  4 34  1  0
  4 35  1  0
  5  6  1  6
  5  7  1  0
  5 30  1  0
  7 36  1  0
  8  7  1  0
  8  9  1  0
  8 17  2  0
  9 10  1  0
  9 37  1  0
 10 16  1  0
 10 11  1  0
 10 38  1  0
 11 12  1  0
 11 39  1  0
 11 40  1  0
 12 13  1  0
 12 41  1  0
 12 42  1  0
 13 14  2  0
 13 43  1  0
 14 15  1  0
 14 44  1  0
 15 16  1  0
 15 45  1  0
 15 46  1  0
 16 47  1  0
 16 48  1  0
 17 18  1  0
 17 19  1  0
 19 20  1  1
 19 29  1  0
 19 21  1  0
 21 22  1  0
 21 49  1  0
 21 50  1  0
 22 23  1  0
 22 51  1  0
 22 52  1  0
 23 28  2  0
 23 24  1  0
 24 25  2  0
 24 53  1  0
 25 26  1  0
 25 54  1  0
 26 27  2  0
 26 55  1  0
 27 28  1  0
 27 56  1  0
 28 29  1  0
 29 57  1  0
 29 58  1  0
 30 31  1  0
 30 59  1  0
 30 60  1  0
 31 61  1  0
M  CHG  1  17   1
M  END
>  <DOCK_score>  (1) 
-49.874355

>  <SMILES>  (1) 
O=C1CC[C@H](NC(NC2CCC=CCC2)=[NH+][C@H]2CCc3ccccc3C2)CN1

$$$$
