COc1cccc([C@H](CC(C)=CCCc2ccccc2)Nc2[nH]cc(-c3ccc(N)cc3)[nH+]2)c1
     RDKit          3D

 67 70  0  0  1  0  0  0  0  0999 V2000
  124.9799  130.8154  161.7955 C   0  0  0  0  0  0  0  0  0  0  0  0
  126.3080  131.3388  161.7309 O   0  0  0  0  0  0  0  0  0  0  0  0
  126.5032  132.4310  160.9460 C   0  0  0  0  0  0  0  0  0  0  0  0
  125.4382  132.9878  160.2526 C   0  0  0  0  0  0  0  0  0  0  0  0
  125.6392  134.0982  159.4560 C   0  0  0  0  0  0  0  0  0  0  0  0
  126.8996  134.6579  159.3534 C   0  0  0  0  0  0  0  0  0  0  0  0
  127.9634  134.1019  160.0390 C   0  0  0  0  0  0  0  0  0  0  0  0
  129.3365  134.7113  159.9207 C   0  0  2  0  0  0  0  0  0  0  0  0
  130.0405  134.1413  160.5271 H   0  0  0  0  0  0  0  0  0  0  0  0
  129.2959  136.1596  160.4123 C   0  0  0  0  0  0  0  0  0  0  0  0
  130.6907  136.6111  160.7611 C   0  0  0  0  0  0  0  0  0  0  0  0
  131.4729  135.8868  161.8263 C   0  0  0  0  0  0  0  0  0  0  0  0
  131.2232  137.6330  160.1382 C   0  0  0  0  0  0  0  0  0  0  0  0
  132.5802  138.1429  160.5502 C   0  0  0  0  0  0  0  0  0  0  0  0
  132.9667  139.3331  159.6700 C   0  0  0  0  0  0  0  0  0  0  0  0
  134.3237  139.8429  160.0819 C   0  0  0  0  0  0  0  0  0  0  0  0
  134.4286  140.8263  161.0479 C   0  0  0  0  0  0  0  0  0  0  0  0
  135.6737  141.2904  161.4292 C   0  0  0  0  0  0  0  0  0  0  0  0
  136.8131  140.7787  160.8371 C   0  0  0  0  0  0  0  0  0  0  0  0
  136.7080  139.7991  159.8673 C   0  0  0  0  0  0  0  0  0  0  0  0
  135.4632  139.3312  159.4898 C   0  0  0  0  0  0  0  0  0  0  0  0
  129.7643  134.6830  158.5199 N   0  0  0  0  0  0  0  0  0  0  0  0
  129.8765  133.4741  157.8546 C   0  0  0  0  0  0  0  0  0  0  0  0
  129.6204  132.2489  158.3884 N   0  0  0  0  0  0  0  0  0  0  0  0
  129.3287  132.0669  159.2955 H   0  0  0  0  0  0  0  0  0  0  0  0
  129.8519  131.3168  157.4048 C   0  0  0  0  0  0  0  0  0  0  0  0
  130.2423  131.9994  156.3002 C   0  0  0  0  0  0  0  0  0  0  0  0
  130.6005  131.4061  154.9885 C   0  0  0  0  0  0  0  0  0  0  0  0
  130.3769  132.1226  153.8139 C   0  0  0  0  0  0  0  0  0  0  0  0
  130.7159  131.5713  152.5963 C   0  0  0  0  0  0  0  0  0  0  0  0
  131.2692  130.2981  152.5385 C   0  0  0  0  0  0  0  0  0  0  0  0
  131.6060  129.7388  151.3035 N   0  0  0  0  0  0  0  0  0  0  0  0
  131.4882  129.5794  153.7082 C   0  0  0  0  0  0  0  0  0  0  0  0
  131.1559  130.1288  154.9284 C   0  0  0  0  0  0  0  0  0  0  0  0
  130.2479  133.3208  156.6068 N   0  0  0  0  0  0  0  0  0  0  0  0
  130.4879  134.0380  155.9995 H   0  0  0  0  0  0  0  0  0  0  0  0
  127.7676  132.9912  160.8372 C   0  0  0  0  0  0  0  0  0  0  0  0
  124.3068  131.5795  162.1842 H   0  0  0  0  0  0  0  0  0  0  0  0
  124.6567  130.5202  160.7972 H   0  0  0  0  0  0  0  0  0  0  0  0
  124.9632  129.9472  162.4544 H   0  0  0  0  0  0  0  0  0  0  0  0
  124.4528  132.5536  160.3360 H   0  0  0  0  0  0  0  0  0  0  0  0
  124.8104  134.5321  158.9163 H   0  0  0  0  0  0  0  0  0  0  0  0
  127.0537  135.5287  158.7334 H   0  0  0  0  0  0  0  0  0  0  0  0
  128.8927  136.7987  159.6268 H   0  0  0  0  0  0  0  0  0  0  0  0
  128.6609  136.2256  161.2960 H   0  0  0  0  0  0  0  0  0  0  0  0
  132.1166  135.1407  161.3604 H   0  0  0  0  0  0  0  0  0  0  0  0
  132.0846  136.6015  162.3770 H   0  0  0  0  0  0  0  0  0  0  0  0
  130.7833  135.3946  162.5120 H   0  0  0  0  0  0  0  0  0  0  0  0
  130.6898  138.1103  159.3294 H   0  0  0  0  0  0  0  0  0  0  0  0
  132.5489  138.4575  161.5933 H   0  0  0  0  0  0  0  0  0  0  0  0
  133.3178  137.3490  160.4321 H   0  0  0  0  0  0  0  0  0  0  0  0
  132.9980  139.0185  158.6268 H   0  0  0  0  0  0  0  0  0  0  0  0
  132.2292  140.1270  159.7880 H   0  0  0  0  0  0  0  0  0  0  0  0
  133.5382  141.2291  161.5072 H   0  0  0  0  0  0  0  0  0  0  0  0
  135.7558  142.0558  162.1866 H   0  0  0  0  0  0  0  0  0  0  0  0
  137.7856  141.1444  161.1318 H   0  0  0  0  0  0  0  0  0  0  0  0
  137.5982  139.3997  159.4045 H   0  0  0  0  0  0  0  0  0  0  0  0
  135.3811  138.5661  158.7319 H   0  0  0  0  0  0  0  0  0  0  0  0
  129.9689  135.5113  158.0584 H   0  0  0  0  0  0  0  0  0  0  0  0
  129.7475  130.2457  157.4958 H   0  0  0  0  0  0  0  0  0  0  0  0
  129.9426  133.1104  153.8578 H   0  0  0  0  0  0  0  0  0  0  0  0
  130.5466  132.1278  151.6862 H   0  0  0  0  0  0  0  0  0  0  0  0
  131.9925  128.8500  151.2625 H   0  0  0  0  0  0  0  0  0  0  0  0
  131.4536  130.2395  150.4867 H   0  0  0  0  0  0  0  0  0  0  0  0
  131.9184  128.5900  153.6610 H   0  0  0  0  0  0  0  0  0  0  0  0
  131.3263  129.5703  155.8369 H   0  0  0  0  0  0  0  0  0  0  0  0
  128.5981  132.5599  161.3762 H   0  0  0  0  0  0  0  0  0  0  0  0
  1  2  1  0
  1 38  1  0
  1 39  1  0
  1 40  1  0
  2  3  1  0
  3 37  2  0
  3  4  1  0
  4  5  2  0
  4 41  1  0
  5  6  1  0
  5 42  1  0
  6  7  2  0
  6 43  1  0
  7  8  1  0
  7 37  1  0
  8  9  1  1
  8 10  1  0
  8 22  1  0
 10 11  1  0
 10 44  1  0
 10 45  1  0
 11 12  1  0
 11 13  2  0
 12 46  1  0
 12 47  1  0
 12 48  1  0
 13 14  1  0
 13 49  1  0
 14 15  1  0
 14 50  1  0
 14 51  1  0
 15 16  1  0
 15 52  1  0
 15 53  1  0
 16 21  1  0
 16 17  2  0
 17 18  1  0
 17 54  1  0
 18 19  2  0
 18 55  1  0
 19 20  1  0
 19 56  1  0
 20 21  2  0
 20 57  1  0
 21 58  1  0
 22 59  1  0
 23 22  1  0
 23 35  2  0
 23 24  1  0
 24 25  1  0
 24 26  1  0
 26 27  2  0
 26 60  1  0
 27 28  1  0
 27 35  1  0
 28 34  1  0
 28 29  2  0
 29 30  1  0
 29 61  1  0
 30 31  2  0
 30 62  1  0
 31 32  1  0
 31 33  1  0
 32 63  1  0
 32 64  1  0
 33 34  2  0
 33 65  1  0
 34 66  1  0
 35 36  1  0
 37 67  1  0
M  CHG  1  35   1
M  END
>  <DOCK_score>  (1) 
-66.207977

>  <SMILES>  (1) 
COc1cccc([C@H](CC(C)=CCCc2ccccc2)Nc2[nH]cc(-c3ccc(N)cc3)[nH+]2)c1

$$$$
