OCCN1CC[NH+]=C1NCc1ccc(Nc2cccc(O)c2)cc1
     RDKit          3D

 47 49  0  0  1  0  0  0  0  0999 V2000
  131.7302  131.7942  159.0766 O   0  0  0  0  0  0  0  0  0  0  0  0
  131.5315  130.4249  158.7193 C   0  0  0  0  0  0  0  0  0  0  0  0
  130.2857  130.3031  157.8395 C   0  0  0  0  0  0  0  0  0  0  0  0
  130.4649  131.1035  156.6257 N   0  0  0  0  0  0  0  0  0  0  0  0
  131.0516  130.6308  155.3607 C   0  0  0  0  0  0  0  0  0  0  0  0
  130.9875  131.8758  154.4537 C   0  0  0  0  0  0  0  0  0  0  0  0
  130.3749  132.9049  155.3052 N   0  0  0  0  0  0  0  0  0  0  0  0
  130.1916  133.8169  155.0303 H   0  0  0  0  0  0  0  0  0  0  0  0
  130.1156  132.4173  156.4745 C   0  0  0  0  0  0  0  0  0  0  0  0
  129.5332  133.1548  157.4780 N   0  0  0  0  0  0  0  0  0  0  0  0
  129.1845  134.5589  157.2474 C   0  0  0  0  0  0  0  0  0  0  0  0
  128.5653  135.1342  158.4950 C   0  0  0  0  0  0  0  0  0  0  0  0
  128.9624  136.3775  158.9521 C   0  0  0  0  0  0  0  0  0  0  0  0
  128.3929  136.9100  160.0919 C   0  0  0  0  0  0  0  0  0  0  0  0
  127.4282  136.1906  160.7858 C   0  0  0  0  0  0  0  0  0  0  0  0
  126.8542  136.7235  161.9428 N   0  0  0  0  0  0  0  0  0  0  0  0
  126.9752  136.0475  163.1586 C   0  0  0  0  0  0  0  0  0  0  0  0
  125.9767  136.1580  164.1192 C   0  0  0  0  0  0  0  0  0  0  0  0
  126.0966  135.4884  165.3210 C   0  0  0  0  0  0  0  0  0  0  0  0
  127.2092  134.7076  165.5723 C   0  0  0  0  0  0  0  0  0  0  0  0
  128.2099  134.5943  164.6175 C   0  0  0  0  0  0  0  0  0  0  0  0
  129.3032  133.8266  164.8665 O   0  0  0  0  0  0  0  0  0  0  0  0
  128.0907  135.2596  163.4074 C   0  0  0  0  0  0  0  0  0  0  0  0
  127.0357  134.9391  160.3270 C   0  0  0  0  0  0  0  0  0  0  0  0
  127.6053  134.4150  159.1833 C   0  0  0  0  0  0  0  0  0  0  0  0
  131.8560  132.3837  158.3204 H   0  0  0  0  0  0  0  0  0  0  0  0
  131.3981  129.8295  159.6225 H   0  0  0  0  0  0  0  0  0  0  0  0
  132.4008  130.0628  158.1703 H   0  0  0  0  0  0  0  0  0  0  0  0
  129.4164  130.6652  158.3885 H   0  0  0  0  0  0  0  0  0  0  0  0
  130.1340  129.2587  157.5671 H   0  0  0  0  0  0  0  0  0  0  0  0
  132.0846  130.3164  155.5096 H   0  0  0  0  0  0  0  0  0  0  0  0
  130.4596  129.8166  154.9428 H   0  0  0  0  0  0  0  0  0  0  0  0
  131.9892  132.1786  154.1490 H   0  0  0  0  0  0  0  0  0  0  0  0
  130.3660  131.6804  153.5798 H   0  0  0  0  0  0  0  0  0  0  0  0
  129.3533  132.7455  158.3389 H   0  0  0  0  0  0  0  0  0  0  0  0
  130.0846  135.1202  156.9963 H   0  0  0  0  0  0  0  0  0  0  0  0
  128.4730  134.6261  156.4244 H   0  0  0  0  0  0  0  0  0  0  0  0
  129.7158  136.9344  158.4149 H   0  0  0  0  0  0  0  0  0  0  0  0
  128.7003  137.8830  160.4459 H   0  0  0  0  0  0  0  0  0  0  0  0
  126.3704  137.5633  161.9014 H   0  0  0  0  0  0  0  0  0  0  0  0
  125.1063  136.7673  163.9252 H   0  0  0  0  0  0  0  0  0  0  0  0
  125.3193  135.5748  166.0660 H   0  0  0  0  0  0  0  0  0  0  0  0
  127.3000  134.1853  166.5133 H   0  0  0  0  0  0  0  0  0  0  0  0
  129.9447  133.8094  164.1431 H   0  0  0  0  0  0  0  0  0  0  0  0
  128.8660  135.1684  162.6611 H   0  0  0  0  0  0  0  0  0  0  0  0
  126.2858  134.3773  160.8638 H   0  0  0  0  0  0  0  0  0  0  0  0
  127.3010  133.4423  158.8263 H   0  0  0  0  0  0  0  0  0  0  0  0
  1  2  1  0
  1 26  1  0
  2  3  1  0
  2 27  1  0
  2 28  1  0
  3  4  1  0
  3 29  1  0
  3 30  1  0
  4  9  1  0
  4  5  1  0
  5  6  1  0
  5 31  1  0
  5 32  1  0
  6  7  1  0
  6 33  1  0
  6 34  1  0
  7  8  1  0
  7  9  2  0
  9 10  1  0
 10 11  1  0
 10 35  1  0
 11 12  1  0
 11 36  1  0
 11 37  1  0
 12 25  1  0
 12 13  2  0
 13 14  1  0
 13 38  1  0
 14 15  2  0
 14 39  1  0
 15 16  1  0
 15 24  1  0
 16 17  1  0
 16 40  1  0
 17 23  1  0
 17 18  2  0
 18 19  1  0
 18 41  1  0
 19 20  2  0
 19 42  1  0
 20 21  1  0
 20 43  1  0
 21 22  1  0
 21 23  2  0
 22 44  1  0
 23 45  1  0
 24 25  2  0
 24 46  1  0
 25 47  1  0
M  CHG  1   7   1
M  END
>  <DOCK_score>  (1) 
-41.8993

>  <SMILES>  (1) 
OCCN1CC[NH+]=C1NCc1ccc(Nc2cccc(O)c2)cc1

$$$$
