CC[C@H](CNc1nc(-c2cccc(O)c2)c[nH]1)[NH+]1CC=CC1
     RDKit          3D

 45 47  0  0  1  0  0  0  0  0999 V2000
  133.4039  137.5053  160.6493 C   0  0  0  0  0  0  0  0  0  0  0  0
  131.9411  137.4884  161.0980 C   0  0  0  0  0  0  0  0  0  0  0  0
  131.7112  136.3073  162.0429 C   0  0  2  0  0  0  0  0  0  0  0  0
  132.3575  136.4082  162.9146 H   0  0  0  0  0  0  0  0  0  0  0  0
  132.0364  135.0013  161.3152 C   0  0  0  0  0  0  0  0  0  0  0  0
  131.5465  135.0752  159.9366 N   0  0  0  0  0  0  0  0  0  0  0  0
  130.2631  134.6534  159.6345 C   0  0  0  0  0  0  0  0  0  0  0  0
  129.3964  134.1713  160.4916 N   0  0  0  0  0  0  0  0  0  0  0  0
  128.2478  133.8656  159.8374 C   0  0  0  0  0  0  0  0  0  0  0  0
  127.0216  133.2950  160.4467 C   0  0  0  0  0  0  0  0  0  0  0  0
  126.8609  131.9126  160.5310 C   0  0  0  0  0  0  0  0  0  0  0  0
  125.7192  131.3842  161.0983 C   0  0  0  0  0  0  0  0  0  0  0  0
  124.7325  132.2221  161.5841 C   0  0  0  0  0  0  0  0  0  0  0  0
  124.8846  133.5995  161.5040 C   0  0  0  0  0  0  0  0  0  0  0  0
  123.9121  134.4193  161.9827 O   0  0  0  0  0  0  0  0  0  0  0  0
  126.0299  134.1385  160.9414 C   0  0  0  0  0  0  0  0  0  0  0  0
  128.4193  134.1731  158.5279 C   0  0  0  0  0  0  0  0  0  0  0  0
  129.6910  134.6762  158.3998 N   0  0  0  0  0  0  0  0  0  0  0  0
  130.1059  134.9881  157.5804 H   0  0  0  0  0  0  0  0  0  0  0  0
  130.3067  136.2912  162.4736 N   0  0  0  0  0  0  0  0  0  0  0  0
  129.6911  136.1983  161.6796 H   0  0  0  0  0  0  0  0  0  0  0  0
  130.0712  135.2056  163.4552 C   0  0  0  0  0  0  0  0  0  0  0  0
  129.0544  135.7584  164.4269 C   0  0  0  0  0  0  0  0  0  0  0  0
  129.0038  137.0618  164.3110 C   0  0  0  0  0  0  0  0  0  0  0  0
  129.9818  137.5112  163.2501 C   0  0  0  0  0  0  0  0  0  0  0  0
  133.4982  138.0992  159.7401 H   0  0  0  0  0  0  0  0  0  0  0  0
  133.7354  136.4857  160.4532 H   0  0  0  0  0  0  0  0  0  0  0  0
  134.0199  137.9430  161.4347 H   0  0  0  0  0  0  0  0  0  0  0  0
  131.7096  138.4190  161.6163 H   0  0  0  0  0  0  0  0  0  0  0  0
  131.2949  137.3876  160.2261 H   0  0  0  0  0  0  0  0  0  0  0  0
  133.1156  134.8477  161.3096 H   0  0  0  0  0  0  0  0  0  0  0  0
  131.5538  134.1696  161.8283 H   0  0  0  0  0  0  0  0  0  0  0  0
  132.1216  135.4197  159.2354 H   0  0  0  0  0  0  0  0  0  0  0  0
  127.6298  131.2554  160.1521 H   0  0  0  0  0  0  0  0  0  0  0  0
  125.5962  130.3132  161.1633 H   0  0  0  0  0  0  0  0  0  0  0  0
  123.8410  131.8037  162.0274 H   0  0  0  0  0  0  0  0  0  0  0  0
  124.1073  135.3611  161.8828 H   0  0  0  0  0  0  0  0  0  0  0  0
  126.1518  135.2101  160.8828 H   0  0  0  0  0  0  0  0  0  0  0  0
  127.6934  134.0504  157.7378 H   0  0  0  0  0  0  0  0  0  0  0  0
  129.6737  134.3231  162.9538 H   0  0  0  0  0  0  0  0  0  0  0  0
  130.9967  134.9602  163.9759 H   0  0  0  0  0  0  0  0  0  0  0  0
  128.4610  135.1695  165.1107 H   0  0  0  0  0  0  0  0  0  0  0  0
  128.3624  137.7145  164.8846 H   0  0  0  0  0  0  0  0  0  0  0  0
  130.8821  137.9150  163.7132 H   0  0  0  0  0  0  0  0  0  0  0  0
  129.5210  138.2584  162.6040 H   0  0  0  0  0  0  0  0  0  0  0  0
  1  2  1  0
  1 26  1  0
  1 27  1  0
  1 28  1  0
  2  3  1  0
  2 29  1  0
  2 30  1  0
  3  4  1  1
  3  5  1  0
  3 20  1  0
  5  6  1  0
  5 31  1  0
  5 32  1  0
  6  7  1  0
  6 33  1  0
  7 18  1  0
  7  8  2  0
  8  9  1  0
  9 10  1  0
  9 17  2  0
 10 16  1  0
 10 11  2  0
 11 12  1  0
 11 34  1  0
 12 13  2  0
 12 35  1  0
 13 14  1  0
 13 36  1  0
 14 15  1  0
 14 16  2  0
 15 37  1  0
 16 38  1  0
 17 18  1  0
 17 39  1  0
 18 19  1  0
 20 21  1  0
 20 25  1  0
 20 22  1  0
 22 23  1  0
 22 40  1  0
 22 41  1  0
 23 24  2  0
 23 42  1  0
 24 25  1  0
 24 43  1  0
 25 44  1  0
 25 45  1  0
M  CHG  1  20   1
M  END
>  <DOCK_score>  (1) 
-42.578987

>  <SMILES>  (1) 
CC[C@H](CNc1nc(-c2cccc(O)c2)c[nH]1)[NH+]1CC=CC1

$$$$
