O=C(c1c[nH]nc1C1CCC[NH2+]C1)N(c1cccnc1Cl)[C@H]1COc2cc(Cl)ccc21
     RDKit          3D

 53 57  0  0  1  0  0  0  0  0999 V2000
  130.0851  134.8369  163.0001 O   0  0  0  0  0  0  0  0  0  0  0  0
  129.8453  135.7926  162.2872 C   0  0  0  0  0  0  0  0  0  0  0  0
  128.6025  135.8280  161.4953 C   0  0  0  0  0  0  0  0  0  0  0  0
  127.3884  136.3468  161.8985 C   0  0  0  0  0  0  0  0  0  0  0  0
  126.5242  136.1816  160.8842 N   0  0  0  0  0  0  0  0  0  0  0  0
  125.5927  136.4523  160.8836 H   0  0  0  0  0  0  0  0  0  0  0  0
  127.1938  135.5533  159.8284 N   0  0  0  0  0  0  0  0  0  0  0  0
  128.4311  135.3382  160.1811 C   0  0  0  0  0  0  0  0  0  0  0  0
  129.4917  134.6819  159.3352 C   0  0  1  0  0  0  0  0  0  0  0  0
  129.4724  133.1693  159.5735 C   0  0  0  0  0  0  0  0  0  0  0  0
  130.4993  132.5042  158.6525 C   0  0  0  0  0  0  0  0  0  0  0  0
  130.1835  132.8665  157.1997 C   0  0  0  0  0  0  0  0  0  0  0  0
  130.2435  134.3233  157.0307 N   0  0  0  0  0  0  0  0  0  0  0  0
  131.1536  134.6562  157.3119 H   0  0  0  0  0  0  0  0  0  0  0  0
  130.0864  134.5553  156.0614 H   0  0  0  0  0  0  0  0  0  0  0  0
  129.2131  134.9635  157.8572 C   0  0  0  0  0  0  0  0  0  0  0  0
  130.7160  136.8192  162.2211 N   0  0  0  0  0  0  0  0  0  0  0  0
  130.4402  137.9190  161.4006 C   0  0  0  0  0  0  0  0  0  0  0  0
  130.8713  137.9387  160.0771 C   0  0  0  0  0  0  0  0  0  0  0  0
  130.5700  139.0476  159.3030 C   0  0  0  0  0  0  0  0  0  0  0  0
  129.8665  140.0949  159.8676 C   0  0  0  0  0  0  0  0  0  0  0  0
  129.4760  140.0488  161.1265 N   0  0  0  0  0  0  0  0  0  0  0  0
  129.7368  139.0105  161.8970 C   0  0  0  0  0  0  0  0  0  0  0  0
  129.1968  139.0071  163.5468 Cl  0  0  0  0  0  0  0  0  0  0  0  0
  131.9512  136.7840  163.0082 C   0  0  1  0  0  0  0  0  0  0  0  0
  131.7303  136.7153  164.0733 H   0  0  0  0  0  0  0  0  0  0  0  0
  132.8620  135.6181  162.5559 C   0  0  0  0  0  0  0  0  0  0  0  0
  133.7132  136.2398  161.5782 O   0  0  0  0  0  0  0  0  0  0  0  0
  133.8342  137.5651  161.8651 C   0  0  0  0  0  0  0  0  0  0  0  0
  134.7889  138.4865  161.4420 C   0  0  0  0  0  0  0  0  0  0  0  0
  134.7162  139.8019  161.8545 C   0  0  0  0  0  0  0  0  0  0  0  0
  135.9120  140.9418  161.3213 Cl  0  0  0  0  0  0  0  0  0  0  0  0
  133.6946  140.2164  162.6911 C   0  0  0  0  0  0  0  0  0  0  0  0
  132.7448  139.3057  163.1182 C   0  0  0  0  0  0  0  0  0  0  0  0
  132.8182  137.9921  162.7105 C   0  0  0  0  0  0  0  0  0  0  0  0
  127.1721  136.7981  162.8555 H   0  0  0  0  0  0  0  0  0  0  0  0
  130.4699  135.0803  159.6042 H   0  0  0  0  0  0  0  0  0  0  0  0
  129.7260  132.9608  160.6129 H   0  0  0  0  0  0  0  0  0  0  0  0
  128.4789  132.7784  159.3541 H   0  0  0  0  0  0  0  0  0  0  0  0
  131.4987  132.8574  158.9066 H   0  0  0  0  0  0  0  0  0  0  0  0
  130.4524  131.4223  158.7763 H   0  0  0  0  0  0  0  0  0  0  0  0
  130.9125  132.3944  156.5413 H   0  0  0  0  0  0  0  0  0  0  0  0
  129.1838  132.5132  156.9468 H   0  0  0  0  0  0  0  0  0  0  0  0
  128.2344  134.5651  157.5900 H   0  0  0  0  0  0  0  0  0  0  0  0
  129.2260  136.0396  157.6840 H   0  0  0  0  0  0  0  0  0  0  0  0
  131.4240  137.1084  159.6629 H   0  0  0  0  0  0  0  0  0  0  0  0
  130.8853  139.0951  158.2711 H   0  0  0  0  0  0  0  0  0  0  0  0
  129.6329  140.9631  159.2694 H   0  0  0  0  0  0  0  0  0  0  0  0
  133.4482  135.2391  163.3929 H   0  0  0  0  0  0  0  0  0  0  0  0
  132.2726  134.8207  162.1033 H   0  0  0  0  0  0  0  0  0  0  0  0
  135.5893  138.1708  160.7892 H   0  0  0  0  0  0  0  0  0  0  0  0
  133.6392  141.2469  163.0098 H   0  0  0  0  0  0  0  0  0  0  0  0
  131.9462  139.6247  163.7716 H   0  0  0  0  0  0  0  0  0  0  0  0
  1  2  2  0
  2  3  1  0
  2 17  1  0
  3  8  1  0
  3  4  2  0
  4  5  1  0
  4 36  1  0
  5  6  1  0
  5  7  1  0
  7  8  2  0
  8  9  1  0
  9 16  1  0
  9 10  1  0
  9 37  1  1
 10 11  1  0
 10 38  1  0
 10 39  1  0
 11 12  1  0
 11 40  1  0
 11 41  1  0
 12 13  1  0
 12 42  1  0
 12 43  1  0
 13 14  1  0
 13 15  1  0
 13 16  1  0
 16 44  1  0
 16 45  1  0
 17 18  1  0
 17 25  1  0
 18 23  1  0
 18 19  2  0
 19 20  1  0
 19 46  1  0
 20 21  2  0
 20 47  1  0
 21 22  1  0
 21 48  1  0
 22 23  2  0
 23 24  1  0
 25 26  1  1
 25 35  1  0
 25 27  1  0
 27 28  1  0
 27 49  1  0
 27 50  1  0
 28 29  1  0
 29 35  2  0
 29 30  1  0
 30 31  2  0
 30 51  1  0
 31 32  1  0
 31 33  1  0
 33 34  2  0
 33 52  1  0
 34 35  1  0
 34 53  1  0
M  CHG  1  13   1
M  END
>  <DOCK_score>  (1) 
-44.059296

>  <SMILES>  (1) 
O=C(c1c[nH]nc1C1CCC[NH2+]C1)N(c1cccnc1Cl)[C@H]1COc2cc(Cl)ccc21

$$$$
