CCc1ccc(-c2c[nH]c(Nc3cc(Br)ccc3NC3CCC3)[nH+]2)cc1
     RDKit          3D

 50 53  0  0  1  0  0  0  0  0999 V2000
  130.2011  128.5470  151.6807 C   0  0  0  0  0  0  0  0  0  0  0  0
  131.2020  129.6910  151.8550 C   0  0  0  0  0  0  0  0  0  0  0  0
  130.9423  130.3905  153.1643 C   0  0  0  0  0  0  0  0  0  0  0  0
  131.5824  129.9628  154.3131 C   0  0  0  0  0  0  0  0  0  0  0  0
  131.3520  130.6031  155.5138 C   0  0  0  0  0  0  0  0  0  0  0  0
  130.4641  131.6761  155.5691 C   0  0  0  0  0  0  0  0  0  0  0  0
  130.2084  132.3650  156.8577 C   0  0  0  0  0  0  0  0  0  0  0  0
  129.7113  131.7939  157.9830 C   0  0  0  0  0  0  0  0  0  0  0  0
  129.6360  132.7834  158.9323 N   0  0  0  0  0  0  0  0  0  0  0  0
  129.3179  132.6828  159.8432 H   0  0  0  0  0  0  0  0  0  0  0  0
  130.0897  133.9317  158.3591 C   0  0  0  0  0  0  0  0  0  0  0  0
  130.1766  135.1652  158.9827 N   0  0  0  0  0  0  0  0  0  0  0  0
  129.2737  135.5011  159.9994 C   0  0  0  0  0  0  0  0  0  0  0  0
  127.9921  134.9710  159.9941 C   0  0  0  0  0  0  0  0  0  0  0  0
  127.1023  135.3038  160.9996 C   0  0  0  0  0  0  0  0  0  0  0  0
  125.3555  134.5799  160.9903 Br  0  0  0  0  0  0  0  0  0  0  0  0
  127.4868  136.1652  162.0116 C   0  0  0  0  0  0  0  0  0  0  0  0
  128.7628  136.6974  162.0242 C   0  0  0  0  0  0  0  0  0  0  0  0
  129.6628  136.3649  161.0229 C   0  0  0  0  0  0  0  0  0  0  0  0
  130.9571  136.8987  161.0369 N   0  0  0  0  0  0  0  0  0  0  0  0
  131.1516  138.3499  160.9866 C   0  0  0  0  0  0  0  0  0  0  0  0
  131.8022  138.8393  159.6820 C   0  0  0  0  0  0  0  0  0  0  0  0
  132.6158  139.8165  160.5468 C   0  0  0  0  0  0  0  0  0  0  0  0
  132.4236  138.8264  161.7075 C   0  0  0  0  0  0  0  0  0  0  0  0
  130.4359  133.6759  157.1207 N   0  0  0  0  0  0  0  0  0  0  0  0
  130.7948  134.3218  156.4922 H   0  0  0  0  0  0  0  0  0  0  0  0
  129.8179  132.0997  154.4091 C   0  0  0  0  0  0  0  0  0  0  0  0
  130.0600  131.4553  153.2131 C   0  0  0  0  0  0  0  0  0  0  0  0
  130.3136  127.8376  152.5006 H   0  0  0  0  0  0  0  0  0  0  0  0
  129.1873  128.9476  151.6836 H   0  0  0  0  0  0  0  0  0  0  0  0
  130.3890  128.0408  150.7339 H   0  0  0  0  0  0  0  0  0  0  0  0
  132.2157  129.2903  151.8522 H   0  0  0  0  0  0  0  0  0  0  0  0
  131.0895  130.4003  151.0350 H   0  0  0  0  0  0  0  0  0  0  0  0
  132.2667  129.1284  154.2699 H   0  0  0  0  0  0  0  0  0  0  0  0
  131.8556  130.2708  156.4095 H   0  0  0  0  0  0  0  0  0  0  0  0
  129.4284  130.7592  158.1084 H   0  0  0  0  0  0  0  0  0  0  0  0
  130.8629  135.7965  158.7153 H   0  0  0  0  0  0  0  0  0  0  0  0
  127.6888  134.2990  159.2051 H   0  0  0  0  0  0  0  0  0  0  0  0
  126.7884  136.4223  162.7942 H   0  0  0  0  0  0  0  0  0  0  0  0
  129.0600  137.3689  162.8160 H   0  0  0  0  0  0  0  0  0  0  0  0
  131.7250  136.3076  161.0799 H   0  0  0  0  0  0  0  0  0  0  0  0
  130.2571  138.9066  161.2657 H   0  0  0  0  0  0  0  0  0  0  0  0
  132.4113  138.0828  159.1873 H   0  0  0  0  0  0  0  0  0  0  0  0
  131.1049  139.3322  159.0045 H   0  0  0  0  0  0  0  0  0  0  0  0
  132.1218  140.7753  160.7045 H   0  0  0  0  0  0  0  0  0  0  0  0
  133.6532  139.9210  160.2290 H   0  0  0  0  0  0  0  0  0  0  0  0
  132.2281  139.3087  162.6651 H   0  0  0  0  0  0  0  0  0  0  0  0
  133.2021  138.0658  161.7677 H   0  0  0  0  0  0  0  0  0  0  0  0
  129.1287  132.9303  154.4464 H   0  0  0  0  0  0  0  0  0  0  0  0
  129.5601  131.7828  152.3136 H   0  0  0  0  0  0  0  0  0  0  0  0
  1  2  1  0
  1 29  1  0
  1 30  1  0
  1 31  1  0
  2  3  1  0
  2 32  1  0
  2 33  1  0
  3 28  2  0
  3  4  1  0
  4  5  2  0
  4 34  1  0
  5  6  1  0
  5 35  1  0
  6  7  1  0
  6 27  2  0
  7 25  1  0
  7  8  2  0
  8  9  1  0
  8 36  1  0
  9 10  1  0
  9 11  1  0
 11 12  1  0
 11 25  2  0
 12 13  1  0
 12 37  1  0
 13 19  1  0
 13 14  2  0
 14 15  1  0
 14 38  1  0
 15 16  1  0
 15 17  2  0
 17 18  1  0
 17 39  1  0
 18 19  2  0
 18 40  1  0
 19 20  1  0
 20 21  1  0
 20 41  1  0
 21 24  1  0
 21 22  1  0
 21 42  1  0
 22 23  1  0
 22 43  1  0
 22 44  1  0
 23 24  1  0
 23 45  1  0
 23 46  1  0
 24 47  1  0
 24 48  1  0
 25 26  1  0
 27 28  1  0
 27 49  1  0
 28 50  1  0
M  CHG  1  25   1
M  END
>  <DOCK_score>  (1) 
-57.485153

>  <SMILES>  (1) 
CCc1ccc(-c2c[nH]c(Nc3cc(Br)ccc3NC3CCC3)[nH+]2)cc1

$$$$
