Cc1ccc(-c2cccc(CNC3=CC[N@H+](Cc4cccc5ccccc45)CC3)c2)cc1
     RDKit          3D

 63 67  0  0  1  0  0  0  0  0999 V2000
  135.0416  142.5170  168.5740 C   0  0  0  0  0  0  0  0  0  0  0  0
  135.1253  142.0085  167.1578 C   0  0  0  0  0  0  0  0  0  0  0  0
  134.0479  141.3451  166.5991 C   0  0  0  0  0  0  0  0  0  0  0  0
  134.1190  140.8772  165.3025 C   0  0  0  0  0  0  0  0  0  0  0  0
  135.2792  141.0744  164.5562 C   0  0  0  0  0  0  0  0  0  0  0  0
  135.3615  140.5738  163.1617 C   0  0  0  0  0  0  0  0  0  0  0  0
  136.1525  141.2376  162.2259 C   0  0  0  0  0  0  0  0  0  0  0  0
  136.2208  140.7709  160.9290 C   0  0  0  0  0  0  0  0  0  0  0  0
  135.5142  139.6403  160.5599 C   0  0  0  0  0  0  0  0  0  0  0  0
  134.7278  138.9776  161.4846 C   0  0  0  0  0  0  0  0  0  0  0  0
  133.9561  137.7502  161.0735 C   0  0  0  0  0  0  0  0  0  0  0  0
  132.6297  138.1453  160.5932 N   0  0  0  0  0  0  0  0  0  0  0  0
  131.7325  137.1787  160.1569 C   0  0  0  0  0  0  0  0  0  0  0  0
  130.5534  137.5586  159.7325 C   0  0  0  0  0  0  0  0  0  0  0  0
  129.5094  136.5957  159.2455 C   0  0  0  0  0  0  0  0  0  0  0  0
  130.1207  135.3042  158.9105 N   0  0  2  0  0  0  0  0  0  0  0  0
  130.7197  135.4128  158.1057 H   0  0  0  0  0  0  0  0  0  0  0  0
  129.0675  134.3249  158.6108 C   0  0  0  0  0  0  0  0  0  0  0  0
  129.6514  133.1875  157.8131 C   0  0  0  0  0  0  0  0  0  0  0  0
  129.6733  133.2460  156.4533 C   0  0  0  0  0  0  0  0  0  0  0  0
  130.2094  132.2043  155.6990 C   0  0  0  0  0  0  0  0  0  0  0  0
  130.7269  131.0979  156.2998 C   0  0  0  0  0  0  0  0  0  0  0  0
  130.7218  131.0017  157.7016 C   0  0  0  0  0  0  0  0  0  0  0  0
  131.2474  129.8753  158.3579 C   0  0  0  0  0  0  0  0  0  0  0  0
  131.2397  129.8240  159.7178 C   0  0  0  0  0  0  0  0  0  0  0  0
  130.7039  130.8663  160.4724 C   0  0  0  0  0  0  0  0  0  0  0  0
  130.1816  131.9699  159.8715 C   0  0  0  0  0  0  0  0  0  0  0  0
  130.1813  132.0637  158.4691 C   0  0  0  0  0  0  0  0  0  0  0  0
  130.9163  134.8394  160.0577 C   0  0  0  0  0  0  0  0  0  0  0  0
  132.1535  135.7351  160.1837 C   0  0  0  0  0  0  0  0  0  0  0  0
  134.6480  139.4387  162.7833 C   0  0  0  0  0  0  0  0  0  0  0  0
  136.3635  141.7383  165.1260 C   0  0  0  0  0  0  0  0  0  0  0  0
  136.2794  142.2065  166.4216 C   0  0  0  0  0  0  0  0  0  0  0  0
  135.3940  141.7454  169.2585 H   0  0  0  0  0  0  0  0  0  0  0  0
  135.6630  143.4064  168.6780 H   0  0  0  0  0  0  0  0  0  0  0  0
  134.0071  142.7668  168.8097 H   0  0  0  0  0  0  0  0  0  0  0  0
  133.1494  141.1924  167.1786 H   0  0  0  0  0  0  0  0  0  0  0  0
  133.2774  140.3590  164.8674 H   0  0  0  0  0  0  0  0  0  0  0  0
  136.7073  142.1182  162.5141 H   0  0  0  0  0  0  0  0  0  0  0  0
  136.8299  141.2873  160.2019 H   0  0  0  0  0  0  0  0  0  0  0  0
  135.5739  139.2762  159.5449 H   0  0  0  0  0  0  0  0  0  0  0  0
  134.4919  137.2339  160.2770 H   0  0  0  0  0  0  0  0  0  0  0  0
  133.8489  137.0846  161.9300 H   0  0  0  0  0  0  0  0  0  0  0  0
  132.3777  139.0821  160.5799 H   0  0  0  0  0  0  0  0  0  0  0  0
  130.3213  138.6133  159.7325 H   0  0  0  0  0  0  0  0  0  0  0  0
  128.7622  136.4492  160.0255 H   0  0  0  0  0  0  0  0  0  0  0  0
  129.0257  137.0064  158.3594 H   0  0  0  0  0  0  0  0  0  0  0  0
  128.6535  133.9400  159.5428 H   0  0  0  0  0  0  0  0  0  0  0  0
  128.2778  134.8057  158.0336 H   0  0  0  0  0  0  0  0  0  0  0  0
  129.2688  134.1126  155.9516 H   0  0  0  0  0  0  0  0  0  0  0  0
  130.2149  132.2760  154.6213 H   0  0  0  0  0  0  0  0  0  0  0  0
  131.1394  130.2984  155.7024 H   0  0  0  0  0  0  0  0  0  0  0  0
  131.6658  129.0601  157.7863 H   0  0  0  0  0  0  0  0  0  0  0  0
  131.6476  128.9591  160.2197 H   0  0  0  0  0  0  0  0  0  0  0  0
  130.7029  130.7968  161.5502 H   0  0  0  0  0  0  0  0  0  0  0  0
  129.7692  132.7694  160.4690 H   0  0  0  0  0  0  0  0  0  0  0  0
  130.3189  134.9034  160.9672 H   0  0  0  0  0  0  0  0  0  0  0  0
  131.2279  133.8080  159.8932 H   0  0  0  0  0  0  0  0  0  0  0  0
  132.8334  135.5399  159.3544 H   0  0  0  0  0  0  0  0  0  0  0  0
  132.6594  135.5220  161.1253 H   0  0  0  0  0  0  0  0  0  0  0  0
  134.0331  138.9206  163.5044 H   0  0  0  0  0  0  0  0  0  0  0  0
  137.2667  141.8899  164.5535 H   0  0  0  0  0  0  0  0  0  0  0  0
  137.1181  142.7246  166.8630 H   0  0  0  0  0  0  0  0  0  0  0  0
  1  2  1  0
  1 34  1  0
  1 35  1  0
  1 36  1  0
  2 33  2  0
  2  3  1  0
  3  4  2  0
  3 37  1  0
  4  5  1  0
  4 38  1  0
  5  6  1  0
  5 32  2  0
  6 31  1  0
  6  7  2  0
  7  8  1  0
  7 39  1  0
  8  9  2  0
  8 40  1  0
  9 10  1  0
  9 41  1  0
 10 11  1  0
 10 31  2  0
 11 12  1  0
 11 42  1  0
 11 43  1  0
 12 13  1  0
 12 44  1  0
 13 30  1  0
 13 14  2  0
 14 15  1  0
 14 45  1  0
 15 16  1  0
 15 46  1  0
 15 47  1  0
 16 17  1  6
 16 18  1  0
 16 29  1  0
 18 19  1  0
 18 48  1  0
 18 49  1  0
 19 28  1  0
 19 20  2  0
 20 21  1  0
 20 50  1  0
 21 22  2  0
 21 51  1  0
 22 23  1  0
 22 52  1  0
 23 28  2  0
 23 24  1  0
 24 25  2  0
 24 53  1  0
 25 26  1  0
 25 54  1  0
 26 27  2  0
 26 55  1  0
 27 28  1  0
 27 56  1  0
 29 30  1  0
 29 57  1  0
 29 58  1  0
 30 59  1  0
 30 60  1  0
 31 61  1  0
 32 33  1  0
 32 62  1  0
 33 63  1  0
M  CHG  1  16   1
M  END
>  <DOCK_score>  (1) 
-55.938354

>  <SMILES>  (1) 
Cc1ccc(-c2cccc(CNC3=CC[N@H+](Cc4cccc5ccccc45)CC3)c2)cc1

$$$$
