Cc1ccc([C@H](Nc2[nH]cc(-c3ccc(F)cc3)[nH+]2)c2ccccc2)cc1
     RDKit          3D

 48 51  0  0  1  0  0  0  0  0999 V2000
  130.0260  140.7649  161.6104 C   0  0  0  0  0  0  0  0  0  0  0  0
  129.7178  139.4066  161.0353 C   0  0  0  0  0  0  0  0  0  0  0  0
  128.9809  138.4962  161.7696 C   0  0  0  0  0  0  0  0  0  0  0  0
  128.6980  137.2501  161.2422 C   0  0  0  0  0  0  0  0  0  0  0  0
  129.1521  136.9144  159.9804 C   0  0  0  0  0  0  0  0  0  0  0  0
  128.8441  135.5558  159.4056 C   0  0  2  0  0  0  0  0  0  0  0  0
  128.7606  134.8297  160.2142 H   0  0  0  0  0  0  0  0  0  0  0  0
  129.9215  135.1540  158.4978 N   0  0  0  0  0  0  0  0  0  0  0  0
  129.8590  133.9340  157.8464 C   0  0  0  0  0  0  0  0  0  0  0  0
  129.2459  132.8143  158.3179 N   0  0  0  0  0  0  0  0  0  0  0  0
  128.7785  132.7279  159.1635 H   0  0  0  0  0  0  0  0  0  0  0  0
  129.4118  131.8284  157.3751 C   0  0  0  0  0  0  0  0  0  0  0  0
  130.1206  132.3739  156.3560 C   0  0  0  0  0  0  0  0  0  0  0  0
  130.5381  131.6797  155.1133 C   0  0  0  0  0  0  0  0  0  0  0  0
  130.1069  132.1468  153.8730 C   0  0  0  0  0  0  0  0  0  0  0  0
  130.5020  131.5010  152.7194 C   0  0  0  0  0  0  0  0  0  0  0  0
  131.3168  130.3830  152.7935 C   0  0  0  0  0  0  0  0  0  0  0  0
  131.6968  129.7505  151.6616 F   0  0  0  0  0  0  0  0  0  0  0  0
  131.7437  129.9119  154.0244 C   0  0  0  0  0  0  0  0  0  0  0  0
  131.3581  130.5549  155.1828 C   0  0  0  0  0  0  0  0  0  0  0  0
  130.3755  133.6685  156.6714 N   0  0  0  0  0  0  0  0  0  0  0  0
  130.8643  134.2967  156.1169 H   0  0  0  0  0  0  0  0  0  0  0  0
  127.5434  135.6145  158.6467 C   0  0  0  0  0  0  0  0  0  0  0  0
  126.3516  135.3535  159.2966 C   0  0  0  0  0  0  0  0  0  0  0  0
  125.1585  135.4079  158.6007 C   0  0  0  0  0  0  0  0  0  0  0  0
  125.1571  135.7235  157.2548 C   0  0  0  0  0  0  0  0  0  0  0  0
  126.3489  135.9849  156.6050 C   0  0  0  0  0  0  0  0  0  0  0  0
  127.5422  135.9288  157.3006 C   0  0  0  0  0  0  0  0  0  0  0  0
  129.8934  137.8228  159.2482 C   0  0  0  0  0  0  0  0  0  0  0  0
  130.1715  139.0710  159.7734 C   0  0  0  0  0  0  0  0  0  0  0  0
  130.9667  140.7222  162.1593 H   0  0  0  0  0  0  0  0  0  0  0  0
  130.1099  141.4913  160.8018 H   0  0  0  0  0  0  0  0  0  0  0  0
  129.2245  141.0640  162.2858 H   0  0  0  0  0  0  0  0  0  0  0  0
  128.6264  138.7584  162.7555 H   0  0  0  0  0  0  0  0  0  0  0  0
  128.1225  136.5388  161.8160 H   0  0  0  0  0  0  0  0  0  0  0  0
  130.6786  135.7428  158.3531 H   0  0  0  0  0  0  0  0  0  0  0  0
  129.0469  130.8136  157.4343 H   0  0  0  0  0  0  0  0  0  0  0  0
  129.4677  133.0155  153.8147 H   0  0  0  0  0  0  0  0  0  0  0  0
  130.1720  131.8649  151.7577 H   0  0  0  0  0  0  0  0  0  0  0  0
  132.3788  129.0401  154.0773 H   0  0  0  0  0  0  0  0  0  0  0  0
  131.6917  130.1872  156.1420 H   0  0  0  0  0  0  0  0  0  0  0  0
  126.3527  135.1077  160.3483 H   0  0  0  0  0  0  0  0  0  0  0  0
  124.2274  135.2040  159.1084 H   0  0  0  0  0  0  0  0  0  0  0  0
  124.2254  135.7616  156.7100 H   0  0  0  0  0  0  0  0  0  0  0  0
  126.3479  136.2312  155.5535 H   0  0  0  0  0  0  0  0  0  0  0  0
  128.4734  136.1323  156.7928 H   0  0  0  0  0  0  0  0  0  0  0  0
  130.2519  137.5588  158.2643 H   0  0  0  0  0  0  0  0  0  0  0  0
  130.7469  139.7823  159.1995 H   0  0  0  0  0  0  0  0  0  0  0  0
  1  2  1  0
  1 31  1  0
  1 32  1  0
  1 33  1  0
  2 30  2  0
  2  3  1  0
  3  4  2  0
  3 34  1  0
  4  5  1  0
  4 35  1  0
  5  6  1  0
  5 29  2  0
  6  7  1  1
  6  8  1  0
  6 23  1  0
  8 36  1  0
  9  8  1  0
  9 21  2  0
  9 10  1  0
 10 11  1  0
 10 12  1  0
 12 13  2  0
 12 37  1  0
 13 14  1  0
 13 21  1  0
 14 20  1  0
 14 15  2  0
 15 16  1  0
 15 38  1  0
 16 17  2  0
 16 39  1  0
 17 18  1  0
 17 19  1  0
 19 20  2  0
 19 40  1  0
 20 41  1  0
 21 22  1  0
 23 28  1  0
 23 24  2  0
 24 25  1  0
 24 42  1  0
 25 26  2  0
 25 43  1  0
 26 27  1  0
 26 44  1  0
 27 28  2  0
 27 45  1  0
 28 46  1  0
 29 30  1  0
 29 47  1  0
 30 48  1  0
M  CHG  1  21   1
M  END
>  <DOCK_score>  (1) 
-59.964783

>  <SMILES>  (1) 
Cc1ccc([C@H](Nc2[nH]cc(-c3ccc(F)cc3)[nH+]2)c2ccccc2)cc1

$$$$
