C[C@@H]1C=CC(CO)C(C(Cc2ccccc2)Nc2[nH]cc(-c3cccnc3)[nH+]2)=C1
     RDKit          3D

 56 59  0  0  1  0  0  0  0  0999 V2000
  134.2311  138.5699  159.6795 C   0  0  0  0  0  0  0  0  0  0  0  0
  133.6958  137.9651  160.9789 C   0  0  2  0  0  0  0  0  0  0  0  0
  133.5470  138.7618  161.7079 H   0  0  0  0  0  0  0  0  0  0  0  0
  134.6982  136.9884  161.5160 C   0  0  0  0  0  0  0  0  0  0  0  0
  134.3600  135.8541  162.0494 C   0  0  0  0  0  0  0  0  0  0  0  0
  132.9339  135.4109  162.1814 C   0  0  1  0  0  0  0  0  0  0  0  0
  132.4643  135.6527  163.6172 C   0  0  0  0  0  0  0  0  0  0  0  0
  133.2846  134.9064  164.5187 O   0  0  0  0  0  0  0  0  0  0  0  0
  132.0432  136.1639  161.2395 C   0  0  0  0  0  0  0  0  0  0  0  0
  130.6969  135.5791  160.8978 C   0  0  1  0  0  0  0  0  0  0  0  0
  129.5956  136.5530  161.3216 C   0  0  0  0  0  0  0  0  0  0  0  0
  128.2493  135.9682  160.9801 C   0  0  0  0  0  0  0  0  0  0  0  0
  127.6759  136.2261  159.7489 C   0  0  0  0  0  0  0  0  0  0  0  0
  126.4430  135.6860  159.4340 C   0  0  0  0  0  0  0  0  0  0  0  0
  125.7793  134.8956  160.3536 C   0  0  0  0  0  0  0  0  0  0  0  0
  126.3503  134.6421  161.5867 C   0  0  0  0  0  0  0  0  0  0  0  0
  127.5852  135.1786  161.9000 C   0  0  0  0  0  0  0  0  0  0  0  0
  130.6166  135.3497  159.4532 N   0  0  0  0  0  0  0  0  0  0  0  0
  130.4045  134.0713  158.9661 C   0  0  0  0  0  0  0  0  0  0  0  0
  129.7075  133.0878  159.5979 N   0  0  0  0  0  0  0  0  0  0  0  0
  129.2736  133.1559  160.4627 H   0  0  0  0  0  0  0  0  0  0  0  0
  129.7316  131.9810  158.7845 C   0  0  0  0  0  0  0  0  0  0  0  0
  130.4420  132.3197  157.6801 C   0  0  0  0  0  0  0  0  0  0  0  0
  130.7307  131.4372  156.5233 C   0  0  0  0  0  0  0  0  0  0  0  0
  130.3025  131.7862  155.2392 C   0  0  0  0  0  0  0  0  0  0  0  0
  130.5975  130.9290  154.1933 C   0  0  0  0  0  0  0  0  0  0  0  0
  131.2997  129.7654  154.4497 C   0  0  0  0  0  0  0  0  0  0  0  0
  131.6907  129.4624  155.6723 N   0  0  0  0  0  0  0  0  0  0  0  0
  131.4379  130.2495  156.6982 C   0  0  0  0  0  0  0  0  0  0  0  0
  130.8369  133.6103  157.8180 N   0  0  0  0  0  0  0  0  0  0  0  0
  131.3584  134.1110  157.1712 H   0  0  0  0  0  0  0  0  0  0  0  0
  132.3816  137.2978  160.7054 C   0  0  0  0  0  0  0  0  0  0  0  0
  134.3965  137.7765  158.9505 H   0  0  0  0  0  0  0  0  0  0  0  0
  133.5063  139.2814  159.2840 H   0  0  0  0  0  0  0  0  0  0  0  0
  135.1724  139.0827  159.8782 H   0  0  0  0  0  0  0  0  0  0  0  0
  135.7471  137.2389  161.4561 H   0  0  0  0  0  0  0  0  0  0  0  0
  135.1396  135.2017  162.4142 H   0  0  0  0  0  0  0  0  0  0  0  0
  132.8690  134.3456  161.9597 H   0  0  0  0  0  0  0  0  0  0  0  0
  132.5410  136.7147  163.8506 H   0  0  0  0  0  0  0  0  0  0  0  0
  131.4276  135.3322  163.7193 H   0  0  0  0  0  0  0  0  0  0  0  0
  134.2224  135.1398  164.4819 H   0  0  0  0  0  0  0  0  0  0  0  0
  130.5676  134.6333  161.4237 H   0  0  0  0  0  0  0  0  0  0  0  0
  129.6553  136.7237  162.3966 H   0  0  0  0  0  0  0  0  0  0  0  0
  129.7248  137.4989  160.7956 H   0  0  0  0  0  0  0  0  0  0  0  0
  128.1928  136.8466  159.0319 H   0  0  0  0  0  0  0  0  0  0  0  0
  125.9971  135.8838  158.4703 H   0  0  0  0  0  0  0  0  0  0  0  0
  124.8149  134.4760  160.1085 H   0  0  0  0  0  0  0  0  0  0  0  0
  125.8317  134.0246  162.3052 H   0  0  0  0  0  0  0  0  0  0  0  0
  128.0312  134.9805  162.8635 H   0  0  0  0  0  0  0  0  0  0  0  0
  130.7119  136.0935  158.8380 H   0  0  0  0  0  0  0  0  0  0  0  0
  129.2732  131.0242  158.9862 H   0  0  0  0  0  0  0  0  0  0  0  0
  129.7560  132.7017  155.0674 H   0  0  0  0  0  0  0  0  0  0  0  0
  130.2830  131.1665  153.1877 H   0  0  0  0  0  0  0  0  0  0  0  0
  131.5313  129.0940  153.6360 H   0  0  0  0  0  0  0  0  0  0  0  0
  131.7787  129.9695  157.6841 H   0  0  0  0  0  0  0  0  0  0  0  0
  131.6862  137.7812  160.0352 H   0  0  0  0  0  0  0  0  0  0  0  0
  1  2  1  0
  1 33  1  0
  1 34  1  0
  1 35  1  0
  2  3  1  1
  2 32  1  0
  2  4  1  0
  4  5  2  0
  4 36  1  0
  5  6  1  0
  5 37  1  0
  6  7  1  0
  6  9  1  0
  6 38  1  6
  7  8  1  0
  7 39  1  0
  7 40  1  0
  8 41  1  0
  9 10  1  0
  9 32  2  0
 10 11  1  0
 10 18  1  0
 10 42  1  1
 11 12  1  0
 11 43  1  0
 11 44  1  0
 12 17  1  0
 12 13  2  0
 13 14  1  0
 13 45  1  0
 14 15  2  0
 14 46  1  0
 15 16  1  0
 15 47  1  0
 16 17  2  0
 16 48  1  0
 17 49  1  0
 18 50  1  0
 19 18  1  0
 19 30  2  0
 19 20  1  0
 20 21  1  0
 20 22  1  0
 22 23  2  0
 22 51  1  0
 23 24  1  0
 23 30  1  0
 24 29  1  0
 24 25  2  0
 25 26  1  0
 25 52  1  0
 26 27  2  0
 26 53  1  0
 27 28  1  0
 27 54  1  0
 28 29  2  0
 29 55  1  0
 30 31  1  0
 32 56  1  0
M  CHG  1  30   1
M  END
>  <DOCK_score>  (1) 
-56.300247

>  <SMILES>  (1) 
C[C@@H]1C=CC(CO)C(C(Cc2ccccc2)Nc2[nH]cc(-c3cccnc3)[nH+]2)=C1

$$$$
