CCc1ccc([C@@H](CNc2ccc(O)c3ccccc23)Nc2[nH]cc(-c3ccc(N)cc3)[nH+]2)cc1
     RDKit          3D

 65 69  0  0  1  0  0  0  0  0999 V2000
  135.9513  140.0032  162.0049 C   0  0  0  0  0  0  0  0  0  0  0  0
  134.6993  140.0093  162.8842 C   0  0  0  0  0  0  0  0  0  0  0  0
  133.7523  138.9340  162.4174 C   0  0  0  0  0  0  0  0  0  0  0  0
  133.8371  137.6603  162.9478 C   0  0  0  0  0  0  0  0  0  0  0  0
  132.9688  136.6738  162.5194 C   0  0  0  0  0  0  0  0  0  0  0  0
  132.0150  136.9612  161.5608 C   0  0  0  0  0  0  0  0  0  0  0  0
  131.0685  135.8858  161.0936 C   0  0  1  0  0  0  0  0  0  0  0  0
  131.2862  134.9564  161.6198 H   0  0  0  0  0  0  0  0  0  0  0  0
  129.6282  136.3118  161.3858 C   0  0  0  0  0  0  0  0  0  0  0  0
  128.7080  135.2663  160.9317 N   0  0  0  0  0  0  0  0  0  0  0  0
  127.4880  135.0775  161.5854 C   0  0  0  0  0  0  0  0  0  0  0  0
  126.9554  136.0815  162.3644 C   0  0  0  0  0  0  0  0  0  0  0  0
  125.7389  135.9074  163.0179 C   0  0  0  0  0  0  0  0  0  0  0  0
  125.0449  134.7357  162.9128 C   0  0  0  0  0  0  0  0  0  0  0  0
  123.8605  134.5845  163.5631 O   0  0  0  0  0  0  0  0  0  0  0  0
  125.5595  133.6838  162.1293 C   0  0  0  0  0  0  0  0  0  0  0  0
  124.8695  132.4668  162.0016 C   0  0  0  0  0  0  0  0  0  0  0  0
  125.3960  131.4708  161.2376 C   0  0  0  0  0  0  0  0  0  0  0  0
  126.6117  131.6398  160.5775 C   0  0  0  0  0  0  0  0  0  0  0  0
  127.3071  132.8059  160.6781 C   0  0  0  0  0  0  0  0  0  0  0  0
  126.7951  133.8553  161.4577 C   0  0  0  0  0  0  0  0  0  0  0  0
  131.2344  135.6815  159.6524 N   0  0  0  0  0  0  0  0  0  0  0  0
  130.9984  134.4349  159.0983 C   0  0  0  0  0  0  0  0  0  0  0  0
  130.6040  133.3259  159.7810 N   0  0  0  0  0  0  0  0  0  0  0  0
  130.4396  133.2666  160.7351 H   0  0  0  0  0  0  0  0  0  0  0  0
  130.4819  132.3048  158.8686 C   0  0  0  0  0  0  0  0  0  0  0  0
  130.8051  132.8197  157.6566 C   0  0  0  0  0  0  0  0  0  0  0  0
  130.8146  132.0825  156.3693 C   0  0  0  0  0  0  0  0  0  0  0  0
  130.5393  132.7533  155.1787 C   0  0  0  0  0  0  0  0  0  0  0  0
  130.5544  132.0673  153.9826 C   0  0  0  0  0  0  0  0  0  0  0  0
  130.8325  130.7055  153.9649 C   0  0  0  0  0  0  0  0  0  0  0  0
  130.8419  130.0111  152.7528 N   0  0  0  0  0  0  0  0  0  0  0  0
  131.1016  130.0336  155.1513 C   0  0  0  0  0  0  0  0  0  0  0  0
  131.0933  130.7168  156.3490 C   0  0  0  0  0  0  0  0  0  0  0  0
  131.1124  134.1298  157.8286 N   0  0  0  0  0  0  0  0  0  0  0  0
  131.3765  134.7425  157.1246 H   0  0  0  0  0  0  0  0  0  0  0  0
  131.9333  138.2337  161.0268 C   0  0  0  0  0  0  0  0  0  0  0  0
  132.7991  139.2211  161.4582 C   0  0  0  0  0  0  0  0  0  0  0  0
  136.4408  139.0320  162.0764 H   0  0  0  0  0  0  0  0  0  0  0  0
  135.6689  140.1924  160.9693 H   0  0  0  0  0  0  0  0  0  0  0  0
  136.6363  140.7810  162.3426 H   0  0  0  0  0  0  0  0  0  0  0  0
  134.2098  140.9806  162.8128 H   0  0  0  0  0  0  0  0  0  0  0  0
  134.9817  139.8202  163.9199 H   0  0  0  0  0  0  0  0  0  0  0  0
  134.5821  137.4359  163.6969 H   0  0  0  0  0  0  0  0  0  0  0  0
  133.0354  135.6786  162.9335 H   0  0  0  0  0  0  0  0  0  0  0  0
  129.4105  137.2413  160.8595 H   0  0  0  0  0  0  0  0  0  0  0  0
  129.5048  136.4639  162.4580 H   0  0  0  0  0  0  0  0  0  0  0  0
  128.9440  134.7079  160.1744 H   0  0  0  0  0  0  0  0  0  0  0  0
  127.4869  137.0161  162.4668 H   0  0  0  0  0  0  0  0  0  0  0  0
  125.3391  136.7100  163.6200 H   0  0  0  0  0  0  0  0  0  0  0  0
  123.5910  135.3597  164.0744 H   0  0  0  0  0  0  0  0  0  0  0  0
  123.9264  132.3219  162.5074 H   0  0  0  0  0  0  0  0  0  0  0  0
  124.8638  130.5361  161.1413 H   0  0  0  0  0  0  0  0  0  0  0  0
  127.0078  130.8339  159.9772 H   0  0  0  0  0  0  0  0  0  0  0  0
  128.2481  132.9229  160.1610 H   0  0  0  0  0  0  0  0  0  0  0  0
  131.5097  136.4196  159.0864 H   0  0  0  0  0  0  0  0  0  0  0  0
  130.1855  131.2874  159.0772 H   0  0  0  0  0  0  0  0  0  0  0  0
  130.3184  133.8105  155.1926 H   0  0  0  0  0  0  0  0  0  0  0  0
  130.3451  132.5874  153.0595 H   0  0  0  0  0  0  0  0  0  0  0  0
  131.0362  129.0613  152.7393 H   0  0  0  0  0  0  0  0  0  0  0  0
  130.6542  130.4798  151.9240 H   0  0  0  0  0  0  0  0  0  0  0  0
  131.3171  128.9755  155.1350 H   0  0  0  0  0  0  0  0  0  0  0  0
  131.3028  130.1943  157.2707 H   0  0  0  0  0  0  0  0  0  0  0  0
  131.1911  138.4571  160.2748 H   0  0  0  0  0  0  0  0  0  0  0  0
  132.7331  140.2162  161.0435 H   0  0  0  0  0  0  0  0  0  0  0  0
  1  2  1  0
  1 39  1  0
  1 40  1  0
  1 41  1  0
  2  3  1  0
  2 42  1  0
  2 43  1  0
  3 38  2  0
  3  4  1  0
  4  5  2  0
  4 44  1  0
  5  6  1  0
  5 45  1  0
  6  7  1  0
  6 37  2  0
  7  8  1  1
  7  9  1  0
  7 22  1  0
  9 10  1  0
  9 46  1  0
  9 47  1  0
 10 11  1  0
 10 48  1  0
 11 21  1  0
 11 12  2  0
 12 13  1  0
 12 49  1  0
 13 14  2  0
 13 50  1  0
 14 15  1  0
 14 16  1  0
 15 51  1  0
 16 21  2  0
 16 17  1  0
 17 18  2  0
 17 52  1  0
 18 19  1  0
 18 53  1  0
 19 20  2  0
 19 54  1  0
 20 21  1  0
 20 55  1  0
 22 56  1  0
 23 22  1  0
 23 35  2  0
 23 24  1  0
 24 25  1  0
 24 26  1  0
 26 27  2  0
 26 57  1  0
 27 28  1  0
 27 35  1  0
 28 34  1  0
 28 29  2  0
 29 30  1  0
 29 58  1  0
 30 31  2  0
 30 59  1  0
 31 32  1  0
 31 33  1  0
 32 60  1  0
 32 61  1  0
 33 34  2  0
 33 62  1  0
 34 63  1  0
 35 36  1  0
 37 38  1  0
 37 64  1  0
 38 65  1  0
M  CHG  1  35   1
M  END
>  <DOCK_score>  (1) 
-60.270947

>  <SMILES>  (1) 
CCc1ccc([C@@H](CNc2ccc(O)c3ccccc23)Nc2[nH]cc(-c3ccc(N)cc3)[nH+]2)cc1

$$$$
