CCC(CC)n1cc(C[NH2+][C@H](CO)Cc2c[nH]c3ccc(O)cc23)c(C)n1
     RDKit          3D

 58 60  0  0  1  0  0  0  0  0999 V2000
  131.0999  142.1415  163.4268 C   0  0  0  0  0  0  0  0  0  0  0  0
  132.3163  141.3498  163.9110 C   0  0  0  0  0  0  0  0  0  0  0  0
  133.1770  140.9523  162.7102 C   0  0  0  0  0  0  0  0  0  0  0  0
  134.3934  140.1606  163.1944 C   0  0  0  0  0  0  0  0  0  0  0  0
  135.2542  139.7632  161.9936 C   0  0  0  0  0  0  0  0  0  0  0  0
  132.3872  140.1235  161.7962 N   0  0  0  0  0  0  0  0  0  0  0  0
  131.8122  138.9395  162.0940 C   0  0  0  0  0  0  0  0  0  0  0  0
  131.1795  138.4970  160.9828 C   0  0  0  0  0  0  0  0  0  0  0  0
  130.4044  137.2108  160.8567 C   0  0  0  0  0  0  0  0  0  0  0  0
  131.3063  136.1365  160.4202 N   0  0  0  0  0  0  0  0  0  0  0  0
  132.0435  136.0196  161.0991 H   0  0  0  0  0  0  0  0  0  0  0  0
  131.7074  136.3765  159.5260 H   0  0  0  0  0  0  0  0  0  0  0  0
  130.5508  134.8826  160.2972 C   0  0  2  0  0  0  0  0  0  0  0  0
  129.8428  134.8025  161.1221 H   0  0  0  0  0  0  0  0  0  0  0  0
  131.5183  133.6981  160.3385 C   0  0  0  0  0  0  0  0  0  0  0  0
  132.5324  133.9453  161.3145 O   0  0  0  0  0  0  0  0  0  0  0  0
  129.7901  134.8737  158.9697 C   0  0  0  0  0  0  0  0  0  0  0  0
  129.0150  133.5874  158.8435 C   0  0  0  0  0  0  0  0  0  0  0  0
  129.4515  132.4430  158.2939 C   0  0  0  0  0  0  0  0  0  0  0  0
  128.4711  131.4911  158.3580 N   0  0  0  0  0  0  0  0  0  0  0  0
  128.5527  130.5838  158.0249 H   0  0  0  0  0  0  0  0  0  0  0  0
  127.3498  132.0141  158.9668 C   0  0  0  0  0  0  0  0  0  0  0  0
  126.0996  131.4895  159.2776 C   0  0  0  0  0  0  0  0  0  0  0  0
  125.1592  132.2765  159.9038 C   0  0  0  0  0  0  0  0  0  0  0  0
  125.4461  133.5991  160.2320 C   0  0  0  0  0  0  0  0  0  0  0  0
  124.5040  134.3643  160.8454 O   0  0  0  0  0  0  0  0  0  0  0  0
  126.6810  134.1383  159.9321 C   0  0  0  0  0  0  0  0  0  0  0  0
  127.6425  133.3492  159.2969 C   0  0  0  0  0  0  0  0  0  0  0  0
  131.3669  139.4473  159.9738 C   0  0  0  0  0  0  0  0  0  0  0  0
  130.8278  139.3625  158.5690 C   0  0  0  0  0  0  0  0  0  0  0  0
  132.0907  140.4226  160.4603 N   0  0  0  0  0  0  0  0  0  0  0  0
  130.4519  141.4899  162.8409 H   0  0  0  0  0  0  0  0  0  0  0  0
  130.5492  142.5236  164.2865 H   0  0  0  0  0  0  0  0  0  0  0  0
  131.4319  142.9753  162.8083 H   0  0  0  0  0  0  0  0  0  0  0  0
  131.9819  140.4522  164.4314 H   0  0  0  0  0  0  0  0  0  0  0  0
  132.9039  141.9663  164.5912 H   0  0  0  0  0  0  0  0  0  0  0  0
  133.5113  141.8498  162.1899 H   0  0  0  0  0  0  0  0  0  0  0  0
  134.9810  140.7772  163.8745 H   0  0  0  0  0  0  0  0  0  0  0  0
  134.0591  139.2630  163.7147 H   0  0  0  0  0  0  0  0  0  0  0  0
  135.6786  140.6582  161.5387 H   0  0  0  0  0  0  0  0  0  0  0  0
  136.0592  139.1073  162.3248 H   0  0  0  0  0  0  0  0  0  0  0  0
  134.6379  139.2410  161.2617 H   0  0  0  0  0  0  0  0  0  0  0  0
  131.8523  138.4343  163.0478 H   0  0  0  0  0  0  0  0  0  0  0  0
  129.6080  137.3369  160.1233 H   0  0  0  0  0  0  0  0  0  0  0  0
  129.9712  136.9515  161.8227 H   0  0  0  0  0  0  0  0  0  0  0  0
  130.9726  132.7923  160.6030 H   0  0  0  0  0  0  0  0  0  0  0  0
  131.9797  133.5715  159.3592 H   0  0  0  0  0  0  0  0  0  0  0  0
  132.1932  134.0681  162.2117 H   0  0  0  0  0  0  0  0  0  0  0  0
  130.4979  134.9538  158.1448 H   0  0  0  0  0  0  0  0  0  0  0  0
  129.1008  135.7175  158.9402 H   0  0  0  0  0  0  0  0  0  0  0  0
  130.4317  132.2957  157.8650 H   0  0  0  0  0  0  0  0  0  0  0  0
  125.8665  130.4649  159.0280 H   0  0  0  0  0  0  0  0  0  0  0  0
  124.1899  131.8642  160.1425 H   0  0  0  0  0  0  0  0  0  0  0  0
  124.7928  135.2677  161.0340 H   0  0  0  0  0  0  0  0  0  0  0  0
  126.9023  135.1641  160.1874 H   0  0  0  0  0  0  0  0  0  0  0  0
  129.8429  139.8279  158.5291 H   0  0  0  0  0  0  0  0  0  0  0  0
  131.5029  139.8817  157.8888 H   0  0  0  0  0  0  0  0  0  0  0  0
  130.7476  138.3165  158.2732 H   0  0  0  0  0  0  0  0  0  0  0  0
  1  2  1  0
  1 32  1  0
  1 33  1  0
  1 34  1  0
  2  3  1  0
  2 35  1  0
  2 36  1  0
  3  4  1  0
  3  6  1  0
  3 37  1  0
  4  5  1  0
  4 38  1  0
  4 39  1  0
  5 40  1  0
  5 41  1  0
  5 42  1  0
  6 31  1  0
  6  7  1  0
  7  8  2  0
  7 43  1  0
  8  9  1  0
  8 29  1  0
  9 10  1  0
  9 44  1  0
  9 45  1  0
 10 11  1  0
 10 12  1  0
 10 13  1  0
 13 14  1  1
 13 15  1  0
 13 17  1  0
 15 16  1  0
 15 46  1  0
 15 47  1  0
 16 48  1  0
 17 18  1  0
 17 49  1  0
 17 50  1  0
 18 28  1  0
 18 19  2  0
 19 20  1  0
 19 51  1  0
 20 21  1  0
 20 22  1  0
 22 28  2  0
 22 23  1  0
 23 24  2  0
 23 52  1  0
 24 25  1  0
 24 53  1  0
 25 26  1  0
 25 27  2  0
 26 54  1  0
 27 28  1  0
 27 55  1  0
 29 30  1  0
 29 31  2  0
 30 56  1  0
 30 57  1  0
 30 58  1  0
M  CHG  1  10   1
M  END
>  <DOCK_score>  (1) 
-44.030018

>  <SMILES>  (1) 
CCC(CC)n1cc(C[NH2+][C@H](CO)Cc2c[nH]c3ccc(O)cc23)c(C)n1

$$$$
