CCc1ccc(-c2c[nH]c(N[C@@H](c3ccc(N)cc3)c3ccc(Br)cc3)[nH+]2)cc1
     RDKit          3D

 53 56  0  0  1  0  0  0  0  0999 V2000
  129.7289  129.0835  150.8209 C   0  0  0  0  0  0  0  0  0  0  0  0
  131.0175  129.7818  151.2598 C   0  0  0  0  0  0  0  0  0  0  0  0
  130.8271  130.3701  152.6341 C   0  0  0  0  0  0  0  0  0  0  0  0
  131.1279  129.6163  153.7536 C   0  0  0  0  0  0  0  0  0  0  0  0
  130.9610  130.1517  155.0147 C   0  0  0  0  0  0  0  0  0  0  0  0
  130.4774  131.4508  155.1588 C   0  0  0  0  0  0  0  0  0  0  0  0
  130.2906  132.0299  156.5116 C   0  0  0  0  0  0  0  0  0  0  0  0
  129.4855  131.5384  157.4859 C   0  0  0  0  0  0  0  0  0  0  0  0
  129.6123  132.3754  158.5677 N   0  0  0  0  0  0  0  0  0  0  0  0
  129.1584  132.2852  159.4202 H   0  0  0  0  0  0  0  0  0  0  0  0
  130.4920  133.3548  158.2227 C   0  0  0  0  0  0  0  0  0  0  0  0
  130.8945  134.4003  159.0359 N   0  0  0  0  0  0  0  0  0  0  0  0
  130.9420  134.2215  160.4892 C   0  0  1  0  0  0  0  0  0  0  0  0
  131.3303  133.2298  160.7207 H   0  0  0  0  0  0  0  0  0  0  0  0
  131.8420  135.2676  161.0948 C   0  0  0  0  0  0  0  0  0  0  0  0
  132.9063  135.7671  160.3670 C   0  0  0  0  0  0  0  0  0  0  0  0
  133.7298  136.7300  160.9170 C   0  0  0  0  0  0  0  0  0  0  0  0
  133.4946  137.1881  162.2069 C   0  0  0  0  0  0  0  0  0  0  0  0
  134.3286  138.1575  162.7686 N   0  0  0  0  0  0  0  0  0  0  0  0
  132.4280  136.6799  162.9376 C   0  0  0  0  0  0  0  0  0  0  0  0
  131.6050  135.7215  162.3794 C   0  0  0  0  0  0  0  0  0  0  0  0
  129.5538  134.3630  161.0582 C   0  0  0  0  0  0  0  0  0  0  0  0
  129.2004  133.6669  162.1992 C   0  0  0  0  0  0  0  0  0  0  0  0
  127.9288  133.8001  162.7242 C   0  0  0  0  0  0  0  0  0  0  0  0
  127.0063  134.6218  162.1019 C   0  0  0  0  0  0  0  0  0  0  0  0
  125.2645  134.7993  162.8160 Br  0  0  0  0  0  0  0  0  0  0  0  0
  127.3587  135.3140  160.9574 C   0  0  0  0  0  0  0  0  0  0  0  0
  128.6322  135.1844  160.4360 C   0  0  0  0  0  0  0  0  0  0  0  0
  130.8996  133.1416  156.9953 N   0  0  0  0  0  0  0  0  0  0  0  0
  131.5335  133.6921  156.5096 H   0  0  0  0  0  0  0  0  0  0  0  0
  130.1706  132.2042  154.0271 C   0  0  0  0  0  0  0  0  0  0  0  0
  130.3469  131.6606  152.7708 C   0  0  0  0  0  0  0  0  0  0  0  0
  128.9134  129.8063  150.7971 H   0  0  0  0  0  0  0  0  0  0  0  0
  129.8666  128.6581  149.8268 H   0  0  0  0  0  0  0  0  0  0  0  0
  129.4890  128.2880  151.5264 H   0  0  0  0  0  0  0  0  0  0  0  0
  131.8329  129.0597  151.2831 H   0  0  0  0  0  0  0  0  0  0  0  0
  131.2573  130.5780  150.5538 H   0  0  0  0  0  0  0  0  0  0  0  0
  131.4980  128.6080  153.6409 H   0  0  0  0  0  0  0  0  0  0  0  0
  131.2005  129.5636  155.8883 H   0  0  0  0  0  0  0  0  0  0  0  0
  128.8635  130.6578  157.4231 H   0  0  0  0  0  0  0  0  0  0  0  0
  131.1453  135.2512  158.6434 H   0  0  0  0  0  0  0  0  0  0  0  0
  133.0915  135.4070  159.3656 H   0  0  0  0  0  0  0  0  0  0  0  0
  134.5581  137.1228  160.3462 H   0  0  0  0  0  0  0  0  0  0  0  0
  134.1630  138.4772  163.6691 H   0  0  0  0  0  0  0  0  0  0  0  0
  135.0730  138.5120  162.2571 H   0  0  0  0  0  0  0  0  0  0  0  0
  132.2426  137.0338  163.9410 H   0  0  0  0  0  0  0  0  0  0  0  0
  130.7754  135.3262  162.9467 H   0  0  0  0  0  0  0  0  0  0  0  0
  129.9193  133.0222  162.6828 H   0  0  0  0  0  0  0  0  0  0  0  0
  127.6542  133.2597  163.6181 H   0  0  0  0  0  0  0  0  0  0  0  0
  126.6388  135.9555  160.4709 H   0  0  0  0  0  0  0  0  0  0  0  0
  128.9076  135.7250  159.5425 H   0  0  0  0  0  0  0  0  0  0  0  0
  129.7954  133.2115  154.1329 H   0  0  0  0  0  0  0  0  0  0  0  0
  130.1099  132.2437  151.8932 H   0  0  0  0  0  0  0  0  0  0  0  0
  1  2  1  0
  1 33  1  0
  1 34  1  0
  1 35  1  0
  2  3  1  0
  2 36  1  0
  2 37  1  0
  3 32  2  0
  3  4  1  0
  4  5  2  0
  4 38  1  0
  5  6  1  0
  5 39  1  0
  6  7  1  0
  6 31  2  0
  7 29  1  0
  7  8  2  0
  8  9  1  0
  8 40  1  0
  9 10  1  0
  9 11  1  0
 11 12  1  0
 11 29  2  0
 12 13  1  0
 12 41  1  0
 13 14  1  6
 13 15  1  0
 13 22  1  0
 15 21  1  0
 15 16  2  0
 16 17  1  0
 16 42  1  0
 17 18  2  0
 17 43  1  0
 18 19  1  0
 18 20  1  0
 19 44  1  0
 19 45  1  0
 20 21  2  0
 20 46  1  0
 21 47  1  0
 22 28  1  0
 22 23  2  0
 23 24  1  0
 23 48  1  0
 24 25  2  0
 24 49  1  0
 25 26  1  0
 25 27  1  0
 27 28  2  0
 27 50  1  0
 28 51  1  0
 29 30  1  0
 31 32  1  0
 31 52  1  0
 32 53  1  0
M  CHG  1  29   1
M  END
>  <DOCK_score>  (1) 
-56.842064

>  <SMILES>  (1) 
CCc1ccc(-c2c[nH]c(N[C@@H](c3ccc(N)cc3)c3ccc(Br)cc3)[nH+]2)cc1

$$$$
