C1=C(c2ccc(-c3cnn(-c4ccccc4)c3)cc2)CC[N@H+](Cc2ccc(-c3ccccc3)[nH]2)C1
     RDKit          3D

 64 69  0  0  1  0  0  0  0  0999 V2000
  132.3189  134.3722  161.1129 C   0  0  0  0  0  0  0  0  0  0  0  0
  132.7027  135.5691  161.5041 C   0  0  0  0  0  0  0  0  0  0  0  0
  133.8375  135.6818  162.4429 C   0  0  0  0  0  0  0  0  0  0  0  0
  134.9857  136.3837  162.0700 C   0  0  0  0  0  0  0  0  0  0  0  0
  136.0412  136.4922  162.9477 C   0  0  0  0  0  0  0  0  0  0  0  0
  135.9680  135.8923  164.2045 C   0  0  0  0  0  0  0  0  0  0  0  0
  137.1079  136.0054  165.1474 C   0  0  0  0  0  0  0  0  0  0  0  0
  138.4678  136.1315  164.7991 C   0  0  0  0  0  0  0  0  0  0  0  0
  139.1651  136.2048  165.9018 N   0  0  0  0  0  0  0  0  0  0  0  0
  138.2873  136.1295  166.9900 N   0  0  0  0  0  0  0  0  0  0  0  0
  138.6500  136.1723  168.3431 C   0  0  0  0  0  0  0  0  0  0  0  0
  137.6743  136.0929  169.3278 C   0  0  0  0  0  0  0  0  0  0  0  0
  138.0354  136.1292  170.6603 C   0  0  0  0  0  0  0  0  0  0  0  0
  139.3662  136.2562  171.0143 C   0  0  0  0  0  0  0  0  0  0  0  0
  140.3396  136.3416  170.0360 C   0  0  0  0  0  0  0  0  0  0  0  0
  139.9854  136.2998  168.7016 C   0  0  0  0  0  0  0  0  0  0  0  0
  137.0298  136.0127  166.5102 C   0  0  0  0  0  0  0  0  0  0  0  0
  134.8241  135.1867  164.5759 C   0  0  0  0  0  0  0  0  0  0  0  0
  133.7653  135.0815  163.7017 C   0  0  0  0  0  0  0  0  0  0  0  0
  132.0264  136.8260  161.0298 C   0  0  0  0  0  0  0  0  0  0  0  0
  130.6704  136.4766  160.4113 C   0  0  0  0  0  0  0  0  0  0  0  0
  130.8633  135.3874  159.4408 N   0  0  2  0  0  0  0  0  0  0  0  0
  131.6271  135.6172  158.8228 H   0  0  0  0  0  0  0  0  0  0  0  0
  129.6351  135.2018  158.6567 C   0  0  0  0  0  0  0  0  0  0  0  0
  129.6383  133.8287  158.0358 C   0  0  0  0  0  0  0  0  0  0  0  0
  129.1298  132.7089  158.5940 C   0  0  0  0  0  0  0  0  0  0  0  0
  129.3353  131.6516  157.6928 C   0  0  0  0  0  0  0  0  0  0  0  0
  129.9693  132.1655  156.6019 C   0  0  0  0  0  0  0  0  0  0  0  0
  130.3840  131.4103  155.4002 C   0  0  0  0  0  0  0  0  0  0  0  0
  129.8751  131.7532  154.1468 C   0  0  0  0  0  0  0  0  0  0  0  0
  130.2700  131.0480  153.0288 C   0  0  0  0  0  0  0  0  0  0  0  0
  131.1607  129.9960  153.1496 C   0  0  0  0  0  0  0  0  0  0  0  0
  131.6644  129.6473  154.3902 C   0  0  0  0  0  0  0  0  0  0  0  0
  131.2816  130.3479  155.5153 C   0  0  0  0  0  0  0  0  0  0  0  0
  130.1495  133.5085  156.8134 N   0  0  0  0  0  0  0  0  0  0  0  0
  130.5725  134.1268  156.1972 H   0  0  0  0  0  0  0  0  0  0  0  0
  131.1743  134.1505  160.1667 C   0  0  0  0  0  0  0  0  0  0  0  0
  132.8511  133.5112  161.4896 H   0  0  0  0  0  0  0  0  0  0  0  0
  135.0443  136.8448  161.0952 H   0  0  0  0  0  0  0  0  0  0  0  0
  136.9276  137.0386  162.6612 H   0  0  0  0  0  0  0  0  0  0  0  0
  138.8646  136.1624  163.7951 H   0  0  0  0  0  0  0  0  0  0  0  0
  136.6344  135.9981  169.0518 H   0  0  0  0  0  0  0  0  0  0  0  0
  137.2774  136.0627  171.4266 H   0  0  0  0  0  0  0  0  0  0  0  0
  139.6457  136.2885  172.0570 H   0  0  0  0  0  0  0  0  0  0  0  0
  141.3781  136.4408  170.3154 H   0  0  0  0  0  0  0  0  0  0  0  0
  140.7461  136.3658  167.9380 H   0  0  0  0  0  0  0  0  0  0  0  0
  136.1271  135.9364  167.0981 H   0  0  0  0  0  0  0  0  0  0  0  0
  134.7685  134.7221  165.5493 H   0  0  0  0  0  0  0  0  0  0  0  0
  132.8793  134.5351  163.9896 H   0  0  0  0  0  0  0  0  0  0  0  0
  131.8778  137.4990  161.8740 H   0  0  0  0  0  0  0  0  0  0  0  0
  132.6511  137.3143  160.2819 H   0  0  0  0  0  0  0  0  0  0  0  0
  130.2635  137.3510  159.9037 H   0  0  0  0  0  0  0  0  0  0  0  0
  129.9844  136.1522  161.1937 H   0  0  0  0  0  0  0  0  0  0  0  0
  128.7683  135.3032  159.3098 H   0  0  0  0  0  0  0  0  0  0  0  0
  129.5882  135.9557  157.8710 H   0  0  0  0  0  0  0  0  0  0  0  0
  128.6518  132.6390  159.5600 H   0  0  0  0  0  0  0  0  0  0  0  0
  129.0449  130.6216  157.8379 H   0  0  0  0  0  0  0  0  0  0  0  0
  129.1765  132.5714  154.0517 H   0  0  0  0  0  0  0  0  0  0  0  0
  129.8803  131.3150  152.0577 H   0  0  0  0  0  0  0  0  0  0  0  0
  131.4635  129.4444  152.2719 H   0  0  0  0  0  0  0  0  0  0  0  0
  132.3591  128.8251  154.4779 H   0  0  0  0  0  0  0  0  0  0  0  0
  131.6753  130.0744  156.4832 H   0  0  0  0  0  0  0  0  0  0  0  0
  130.2970  133.8330  160.7303 H   0  0  0  0  0  0  0  0  0  0  0  0
  131.4455  133.3723  159.4534 H   0  0  0  0  0  0  0  0  0  0  0  0
  1 37  1  0
  1  2  2  0
  1 38  1  0
  2  3  1  0
  2 20  1  0
  3 19  1  0
  3  4  2  0
  4  5  1  0
  4 39  1  0
  5  6  2  0
  5 40  1  0
  6  7  1  0
  6 18  1  0
  7 17  2  0
  7  8  1  0
  8  9  2  0
  8 41  1  0
  9 10  1  0
 10 11  1  0
 10 17  1  0
 11 16  1  0
 11 12  2  0
 12 13  1  0
 12 42  1  0
 13 14  2  0
 13 43  1  0
 14 15  1  0
 14 44  1  0
 15 16  2  0
 15 45  1  0
 16 46  1  0
 17 47  1  0
 18 19  2  0
 18 48  1  0
 19 49  1  0
 20 21  1  0
 20 50  1  0
 20 51  1  0
 21 22  1  0
 21 52  1  0
 21 53  1  0
 22 23  1  6
 22 24  1  0
 22 37  1  0
 24 25  1  0
 24 54  1  0
 24 55  1  0
 25 35  1  0
 25 26  2  0
 26 27  1  0
 26 56  1  0
 27 28  2  0
 27 57  1  0
 28 29  1  0
 28 35  1  0
 29 34  1  0
 29 30  2  0
 30 31  1  0
 30 58  1  0
 31 32  2  0
 31 59  1  0
 32 33  1  0
 32 60  1  0
 33 34  2  0
 33 61  1  0
 34 62  1  0
 35 36  1  0
 37 63  1  0
 37 64  1  0
M  CHG  1  22   1
M  END
>  <DOCK_score>  (1) 
-58.155167

>  <SMILES>  (1) 
C1=C(c2ccc(-c3cnn(-c4ccccc4)c3)cc2)CC[N@H+](Cc2ccc(-c3ccccc3)[nH]2)C1

$$$$
