Oc1ccc2c(c1)C([N@H+]1CCCC1CCc1ccccc1)c1cc(O)ccc1-2
     RDKit          3D

 54 58  0  0  1  0  0  0  0  0999 V2000
  131.6740  132.4446  156.5856 O   0  0  0  0  0  0  0  0  0  0  0  0
  130.4776  132.5110  157.2264 C   0  0  0  0  0  0  0  0  0  0  0  0
  129.5893  131.4468  157.1508 C   0  0  0  0  0  0  0  0  0  0  0  0
  128.3774  131.5074  157.8047 C   0  0  0  0  0  0  0  0  0  0  0  0
  128.0337  132.6468  158.5356 C   0  0  0  0  0  0  0  0  0  0  0  0
  128.9275  133.7128  158.6022 C   0  0  0  0  0  0  0  0  0  0  0  0
  130.1406  133.6457  157.9525 C   0  0  0  0  0  0  0  0  0  0  0  0
  128.2918  134.7869  159.4506 C   0  0  0  0  0  0  0  0  0  0  0  0
  129.1207  135.0537  160.6336 N   0  0  1  0  0  0  0  0  0  0  0  0
  128.5645  135.5056  161.3440 H   0  0  0  0  0  0  0  0  0  0  0  0
  129.6617  133.7822  161.1592 C   0  0  0  0  0  0  0  0  0  0  0  0
  131.0718  133.6612  160.5380 C   0  0  0  0  0  0  0  0  0  0  0  0
  131.5475  135.1379  160.5520 C   0  0  0  0  0  0  0  0  0  0  0  0
  130.2515  135.9235  160.2611 C   0  0  2  0  0  0  0  0  0  0  0  0
  130.2182  137.2060  161.0946 C   0  0  0  0  0  0  0  0  0  0  0  0
  129.1954  138.1753  160.4984 C   0  0  0  0  0  0  0  0  0  0  0  0
  129.1626  139.4387  161.3193 C   0  0  0  0  0  0  0  0  0  0  0  0
  128.2905  139.5470  162.3864 C   0  0  0  0  0  0  0  0  0  0  0  0
  128.2638  140.7041  163.1424 C   0  0  0  0  0  0  0  0  0  0  0  0
  129.1017  141.7567  162.8247 C   0  0  0  0  0  0  0  0  0  0  0  0
  129.9700  141.6503  161.7544 C   0  0  0  0  0  0  0  0  0  0  0  0
  130.0005  140.4913  161.0017 C   0  0  0  0  0  0  0  0  0  0  0  0
  126.9468  134.2455  159.8699 C   0  0  0  0  0  0  0  0  0  0  0  0
  125.9372  134.7762  160.6428 C   0  0  0  0  0  0  0  0  0  0  0  0
  124.7804  134.0432  160.8727 C   0  0  0  0  0  0  0  0  0  0  0  0
  123.7843  134.5664  161.6346 O   0  0  0  0  0  0  0  0  0  0  0  0
  124.6418  132.7757  160.3237 C   0  0  0  0  0  0  0  0  0  0  0  0
  125.6497  132.2410  159.5502 C   0  0  0  0  0  0  0  0  0  0  0  0
  126.8148  132.9746  159.3158 C   0  0  0  0  0  0  0  0  0  0  0  0
  132.2220  133.2341  156.6929 H   0  0  0  0  0  0  0  0  0  0  0  0
  129.8508  130.5667  156.5821 H   0  0  0  0  0  0  0  0  0  0  0  0
  127.6909  130.6757  157.7469 H   0  0  0  0  0  0  0  0  0  0  0  0
  130.8293  134.4759  158.0076 H   0  0  0  0  0  0  0  0  0  0  0  0
  128.1639  135.6990  158.8677 H   0  0  0  0  0  0  0  0  0  0  0  0
  129.7290  133.8191  162.2466 H   0  0  0  0  0  0  0  0  0  0  0  0
  129.0377  132.9456  160.8450 H   0  0  0  0  0  0  0  0  0  0  0  0
  131.0176  133.2782  159.5190 H   0  0  0  0  0  0  0  0  0  0  0  0
  131.7188  133.0367  161.1538 H   0  0  0  0  0  0  0  0  0  0  0  0
  132.2872  135.3119  159.7705 H   0  0  0  0  0  0  0  0  0  0  0  0
  131.9485  135.4043  161.5299 H   0  0  0  0  0  0  0  0  0  0  0  0
  130.1968  136.1690  159.2005 H   0  0  0  0  0  0  0  0  0  0  0  0
  129.9366  136.9660  162.1199 H   0  0  0  0  0  0  0  0  0  0  0  0
  131.2047  137.6696  161.0877 H   0  0  0  0  0  0  0  0  0  0  0  0
  129.4771  138.4154  159.4731 H   0  0  0  0  0  0  0  0  0  0  0  0
  128.2088  137.7119  160.5051 H   0  0  0  0  0  0  0  0  0  0  0  0
  127.6328  138.7264  162.6317 H   0  0  0  0  0  0  0  0  0  0  0  0
  127.5852  140.7874  163.9783 H   0  0  0  0  0  0  0  0  0  0  0  0
  129.0776  142.6624  163.4127 H   0  0  0  0  0  0  0  0  0  0  0  0
  130.6244  142.4728  161.5061 H   0  0  0  0  0  0  0  0  0  0  0  0
  130.6785  140.4083  160.1652 H   0  0  0  0  0  0  0  0  0  0  0  0
  126.0457  135.7621  161.0701 H   0  0  0  0  0  0  0  0  0  0  0  0
  123.9718  135.4529  161.9723 H   0  0  0  0  0  0  0  0  0  0  0  0
  123.7414  132.2068  160.5030 H   0  0  0  0  0  0  0  0  0  0  0  0
  125.5381  131.2546  159.1248 H   0  0  0  0  0  0  0  0  0  0  0  0
  1  2  1  0
  1 30  1  0
  2  7  2  0
  2  3  1  0
  3  4  2  0
  3 31  1  0
  4  5  1  0
  4 32  1  0
  5 29  1  0
  5  6  2  0
  6  7  1  0
  6  8  1  0
  7 33  1  0
  8  9  1  0
  8 23  1  0
  8 34  1  0
  9 10  1  1
  9 14  1  0
  9 11  1  0
 11 12  1  0
 11 35  1  0
 11 36  1  0
 12 13  1  0
 12 37  1  0
 12 38  1  0
 13 14  1  0
 13 39  1  0
 13 40  1  0
 14 15  1  0
 14 41  1  6
 15 16  1  0
 15 42  1  0
 15 43  1  0
 16 17  1  0
 16 44  1  0
 16 45  1  0
 17 22  1  0
 17 18  2  0
 18 19  1  0
 18 46  1  0
 19 20  2  0
 19 47  1  0
 20 21  1  0
 20 48  1  0
 21 22  2  0
 21 49  1  0
 22 50  1  0
 23 29  2  0
 23 24  1  0
 24 25  2  0
 24 51  1  0
 25 26  1  0
 25 27  1  0
 26 52  1  0
 27 28  2  0
 27 53  1  0
 28 29  1  0
 28 54  1  0
M  CHG  1   9   1
M  END
>  <DOCK_score>  (1) 
-43.787418

>  <SMILES>  (1) 
Oc1ccc2c(c1)C([N@H+]1CCCC1CCc1ccccc1)c1cc(O)ccc1-2

$$$$
