C[C@H]([NH+]=C(NC1CC1)N[C@H]1CCC(=O)NC1)c1cnn(C2CC2)c1
     RDKit          3D

 51 54  0  0  1  0  0  0  0  0999 V2000
  132.7885  134.1481  162.2511 C   0  0  0  0  0  0  0  0  0  0  0  0
  131.7116  135.0097  161.5888 C   0  0  2  0  0  0  0  0  0  0  0  0
  130.8128  135.0056  162.2055 H   0  0  0  0  0  0  0  0  0  0  0  0
  131.3978  134.4669  160.2648 N   0  0  0  0  0  0  0  0  0  0  0  0
  132.0803  133.9995  159.7580 H   0  0  0  0  0  0  0  0  0  0  0  0
  130.2016  134.6121  159.7676 C   0  0  0  0  0  0  0  0  0  0  0  0
  129.9073  134.1027  158.5250 N   0  0  0  0  0  0  0  0  0  0  0  0
  130.9378  133.3968  157.7598 C   0  0  0  0  0  0  0  0  0  0  0  0
  130.4707  132.4401  156.6608 C   0  0  0  0  0  0  0  0  0  0  0  0
  131.0556  131.8846  157.9609 C   0  0  0  0  0  0  0  0  0  0  0  0
  129.2345  135.2747  160.4858 N   0  0  0  0  0  0  0  0  0  0  0  0
  127.8240  134.9156  160.3198 C   0  0  1  0  0  0  0  0  0  0  0  0
  127.5281  135.0659  159.2816 H   0  0  0  0  0  0  0  0  0  0  0  0
  127.6184  133.4459  160.7057 C   0  0  0  0  0  0  0  0  0  0  0  0
  126.1832  133.0487  160.3511 C   0  0  0  0  0  0  0  0  0  0  0  0
  125.2231  134.0733  160.8837 C   0  0  0  0  0  0  0  0  0  0  0  0
  124.0537  133.7673  160.9824 O   0  0  0  0  0  0  0  0  0  0  0  0
  125.5877  135.3013  161.2543 N   0  0  0  0  0  0  0  0  0  0  0  0
  126.9617  135.7871  161.2338 C   0  0  0  0  0  0  0  0  0  0  0  0
  132.2162  136.4224  161.4458 C   0  0  0  0  0  0  0  0  0  0  0  0
  132.0688  137.4479  162.3857 C   0  0  0  0  0  0  0  0  0  0  0  0
  132.6357  138.5256  161.9069 N   0  0  0  0  0  0  0  0  0  0  0  0
  133.1624  138.2196  160.6455 N   0  0  0  0  0  0  0  0  0  0  0  0
  133.8797  139.1437  159.7637 C   0  0  0  0  0  0  0  0  0  0  0  0
  135.4086  139.0846  159.7719 C   0  0  0  0  0  0  0  0  0  0  0  0
  134.6852  140.2660  160.4215 C   0  0  0  0  0  0  0  0  0  0  0  0
  132.8918  136.9233  160.3858 C   0  0  0  0  0  0  0  0  0  0  0  0
  133.0219  134.5519  163.2363 H   0  0  0  0  0  0  0  0  0  0  0  0
  132.4235  133.1262  162.3546 H   0  0  0  0  0  0  0  0  0  0  0  0
  133.6873  134.1522  161.6344 H   0  0  0  0  0  0  0  0  0  0  0  0
  129.0171  134.2108  158.1552 H   0  0  0  0  0  0  0  0  0  0  0  0
  131.8579  133.9543  157.5845 H   0  0  0  0  0  0  0  0  0  0  0  0
  129.3966  132.3361  156.5072 H   0  0  0  0  0  0  0  0  0  0  0  0
  131.0834  132.3683  155.7622 H   0  0  0  0  0  0  0  0  0  0  0  0
  132.0531  131.4473  157.9176 H   0  0  0  0  0  0  0  0  0  0  0  0
  130.3662  131.4150  158.6626 H   0  0  0  0  0  0  0  0  0  0  0  0
  129.4862  135.9798  161.1025 H   0  0  0  0  0  0  0  0  0  0  0  0
  128.3194  132.8199  160.1536 H   0  0  0  0  0  0  0  0  0  0  0  0
  127.7796  133.3216  161.7766 H   0  0  0  0  0  0  0  0  0  0  0  0
  126.0821  132.9865  159.2675 H   0  0  0  0  0  0  0  0  0  0  0  0
  125.9572  132.0774  160.7909 H   0  0  0  0  0  0  0  0  0  0  0  0
  124.8950  135.9094  161.5565 H   0  0  0  0  0  0  0  0  0  0  0  0
  127.3681  135.7609  162.2449 H   0  0  0  0  0  0  0  0  0  0  0  0
  126.9753  136.8144  160.8700 H   0  0  0  0  0  0  0  0  0  0  0  0
  131.5729  137.3645  163.3414 H   0  0  0  0  0  0  0  0  0  0  0  0
  133.3894  139.3651  158.8157 H   0  0  0  0  0  0  0  0  0  0  0  0
  135.8806  138.3581  160.4334 H   0  0  0  0  0  0  0  0  0  0  0  0
  135.9243  139.2670  158.8291 H   0  0  0  0  0  0  0  0  0  0  0  0
  134.7250  141.2255  159.9060 H   0  0  0  0  0  0  0  0  0  0  0  0
  134.6810  140.3170  161.5102 H   0  0  0  0  0  0  0  0  0  0  0  0
  133.1654  136.3823  159.4919 H   0  0  0  0  0  0  0  0  0  0  0  0
  1  2  1  0
  1 28  1  0
  1 29  1  0
  1 30  1  0
  2  3  1  1
  2  4  1  0
  2 20  1  0
  4  5  1  0
  6  4  2  0
  6  7  1  0
  6 11  1  0
  7  8  1  0
  7 31  1  0
  8 10  1  0
  8  9  1  0
  8 32  1  0
  9 10  1  0
  9 33  1  0
  9 34  1  0
 10 35  1  0
 10 36  1  0
 11 12  1  0
 11 37  1  0
 12 13  1  6
 12 19  1  0
 12 14  1  0
 14 15  1  0
 14 38  1  0
 14 39  1  0
 15 16  1  0
 15 40  1  0
 15 41  1  0
 16 17  2  0
 16 18  1  0
 18 19  1  0
 18 42  1  0
 19 43  1  0
 19 44  1  0
 20 27  2  0
 20 21  1  0
 21 22  2  0
 21 45  1  0
 22 23  1  0
 23 24  1  0
 23 27  1  0
 24 26  1  0
 24 25  1  0
 24 46  1  0
 25 26  1  0
 25 47  1  0
 25 48  1  0
 26 49  1  0
 26 50  1  0
 27 51  1  0
M  CHG  1   4   1
M  END
>  <DOCK_score>  (1) 
-41.941738

>  <SMILES>  (1) 
C[C@H]([NH+]=C(NC1CC1)N[C@H]1CCC(=O)NC1)c1cnn(C2CC2)c1

$$$$
