CCc1ccc(-c2c[nH]c(N[C@H](CSc3ccccc3)c3cccnc3C)[nH+]2)cc1
     RDKit          3D

 57 60  0  0  1  0  0  0  0  0999 V2000
  130.3368  128.4224  151.7053 C   0  0  0  0  0  0  0  0  0  0  0  0
  131.4708  129.3992  152.0226 C   0  0  0  0  0  0  0  0  0  0  0  0
  131.1060  130.2157  153.2356 C   0  0  0  0  0  0  0  0  0  0  0  0
  131.4506  129.7665  154.4972 C   0  0  0  0  0  0  0  0  0  0  0  0
  131.1242  130.5127  155.6114 C   0  0  0  0  0  0  0  0  0  0  0  0
  130.4358  131.7156  155.4640 C   0  0  0  0  0  0  0  0  0  0  0  0
  130.0772  132.5193  156.6580 C   0  0  0  0  0  0  0  0  0  0  0  0
  129.2998  132.1105  157.6912 C   0  0  0  0  0  0  0  0  0  0  0  0
  129.2269  133.1598  158.5748 N   0  0  0  0  0  0  0  0  0  0  0  0
  128.7405  133.1715  159.4139 H   0  0  0  0  0  0  0  0  0  0  0  0
  129.9627  134.1800  158.0553 C   0  0  0  0  0  0  0  0  0  0  0  0
  130.1457  135.4214  158.6400 N   0  0  0  0  0  0  0  0  0  0  0  0
  129.5189  135.7233  159.9293 C   0  0  2  0  0  0  0  0  0  0  0  0
  128.4366  135.6327  159.8371 H   0  0  0  0  0  0  0  0  0  0  0  0
  129.8772  137.1505  160.3488 C   0  0  0  0  0  0  0  0  0  0  0  0
  131.6785  137.3015  160.5019 S   0  0  0  0  0  0  0  0  0  0  0  0
  131.8685  138.5318  161.7488 C   0  0  0  0  0  0  0  0  0  0  0  0
  131.9494  139.8738  161.3966 C   0  0  0  0  0  0  0  0  0  0  0  0
  132.0935  140.8356  162.3769 C   0  0  0  0  0  0  0  0  0  0  0  0
  132.1673  140.4640  163.7070 C   0  0  0  0  0  0  0  0  0  0  0  0
  132.0925  139.1292  164.0608 C   0  0  0  0  0  0  0  0  0  0  0  0
  131.9436  138.1622  163.0864 C   0  0  0  0  0  0  0  0  0  0  0  0
  130.0177  134.7538  160.9697 C   0  0  0  0  0  0  0  0  0  0  0  0
  131.2903  134.2122  160.8718 C   0  0  0  0  0  0  0  0  0  0  0  0
  131.7067  133.3244  161.8517 C   0  0  0  0  0  0  0  0  0  0  0  0
  130.8455  133.0110  162.8865 C   0  0  0  0  0  0  0  0  0  0  0  0
  129.6418  133.5456  162.9475 N   0  0  0  0  0  0  0  0  0  0  0  0
  129.2144  134.3978  162.0363 C   0  0  0  0  0  0  0  0  0  0  0  0
  127.8320  134.9857  162.1562 C   0  0  0  0  0  0  0  0  0  0  0  0
  130.4739  133.7915  156.9126 N   0  0  0  0  0  0  0  0  0  0  0  0
  131.0431  134.3286  156.3395 H   0  0  0  0  0  0  0  0  0  0  0  0
  130.0860  132.1608  154.1904 C   0  0  0  0  0  0  0  0  0  0  0  0
  130.4226  131.4091  153.0829 C   0  0  0  0  0  0  0  0  0  0  0  0
  130.1806  127.7591  152.5560 H   0  0  0  0  0  0  0  0  0  0  0  0
  129.4216  128.9799  151.5064 H   0  0  0  0  0  0  0  0  0  0  0  0
  130.6007  127.8320  150.8279 H   0  0  0  0  0  0  0  0  0  0  0  0
  132.3859  128.8423  152.2210 H   0  0  0  0  0  0  0  0  0  0  0  0
  131.6268  130.0631  151.1714 H   0  0  0  0  0  0  0  0  0  0  0  0
  131.9798  128.8319  154.6106 H   0  0  0  0  0  0  0  0  0  0  0  0
  131.3979  130.1632  156.5959 H   0  0  0  0  0  0  0  0  0  0  0  0
  128.8279  131.1450  157.7986 H   0  0  0  0  0  0  0  0  0  0  0  0
  130.6892  136.0912  158.1962 H   0  0  0  0  0  0  0  0  0  0  0  0
  129.5167  137.8517  159.5963 H   0  0  0  0  0  0  0  0  0  0  0  0
  129.4110  137.3752  161.3080 H   0  0  0  0  0  0  0  0  0  0  0  0
  131.8960  140.1642  160.3578 H   0  0  0  0  0  0  0  0  0  0  0  0
  132.1526  141.8789  162.1043 H   0  0  0  0  0  0  0  0  0  0  0  0
  132.2841  141.2182  164.4712 H   0  0  0  0  0  0  0  0  0  0  0  0
  132.1510  138.8426  165.1005 H   0  0  0  0  0  0  0  0  0  0  0  0
  131.8860  137.1199  163.3632 H   0  0  0  0  0  0  0  0  0  0  0  0
  131.9418  134.4758  160.0518 H   0  0  0  0  0  0  0  0  0  0  0  0
  132.6914  132.8831  161.8072 H   0  0  0  0  0  0  0  0  0  0  0  0
  131.1624  132.3205  163.6542 H   0  0  0  0  0  0  0  0  0  0  0  0
  127.1186  134.3451  161.6379 H   0  0  0  0  0  0  0  0  0  0  0  0
  127.5579  135.0575  163.2089 H   0  0  0  0  0  0  0  0  0  0  0  0
  127.8196  135.9796  161.7090 H   0  0  0  0  0  0  0  0  0  0  0  0
  129.5523  133.0921  154.0703 H   0  0  0  0  0  0  0  0  0  0  0  0
  130.1518  131.7530  152.0956 H   0  0  0  0  0  0  0  0  0  0  0  0
  1  2  1  0
  1 34  1  0
  1 35  1  0
  1 36  1  0
  2  3  1  0
  2 37  1  0
  2 38  1  0
  3 33  2  0
  3  4  1  0
  4  5  2  0
  4 39  1  0
  5  6  1  0
  5 40  1  0
  6  7  1  0
  6 32  2  0
  7 30  1  0
  7  8  2  0
  8  9  1  0
  8 41  1  0
  9 10  1  0
  9 11  1  0
 11 12  1  0
 11 30  2  0
 12 13  1  0
 12 42  1  0
 13 14  1  6
 13 15  1  0
 13 23  1  0
 15 16  1  0
 15 43  1  0
 15 44  1  0
 16 17  1  0
 17 22  1  0
 17 18  2  0
 18 19  1  0
 18 45  1  0
 19 20  2  0
 19 46  1  0
 20 21  1  0
 20 47  1  0
 21 22  2  0
 21 48  1  0
 22 49  1  0
 23 28  1  0
 23 24  2  0
 24 25  1  0
 24 50  1  0
 25 26  2  0
 25 51  1  0
 26 27  1  0
 26 52  1  0
 27 28  2  0
 28 29  1  0
 29 53  1  0
 29 54  1  0
 29 55  1  0
 30 31  1  0
 32 33  1  0
 32 56  1  0
 33 57  1  0
M  CHG  1  30   1
M  END
>  <DOCK_score>  (1) 
-56.128506

>  <SMILES>  (1) 
CCc1ccc(-c2c[nH]c(N[C@H](CSc3ccccc3)c3cccnc3C)[nH+]2)cc1

$$$$
