O[C@H]1C[C@@H](Nc2ccc(-c3n[nH]cc3C[NH2+]C3CC(C4CC4)C3)o2)C[C@@H]1F
     RDKit          3D

 55 59  0  0  1  0  0  0  0  0999 V2000
  126.1747  138.8155  166.0900 O   0  0  0  0  0  0  0  0  0  0  0  0
  127.0293  138.0602  165.2290 C   0  0  1  0  0  0  0  0  0  0  0  0
  127.8773  137.6635  165.7870 H   0  0  0  0  0  0  0  0  0  0  0  0
  126.2396  136.9115  164.5533 C   0  0  0  0  0  0  0  0  0  0  0  0
  127.0763  136.6233  163.2821 C   0  0  1  0  0  0  0  0  0  0  0  0
  127.9321  135.9928  163.5234 H   0  0  0  0  0  0  0  0  0  0  0  0
  126.2466  135.9883  162.2552 N   0  0  0  0  0  0  0  0  0  0  0  0
  126.8195  135.1068  161.3459 C   0  0  0  0  0  0  0  0  0  0  0  0
  126.1933  134.0571  160.7578 C   0  0  0  0  0  0  0  0  0  0  0  0
  127.1340  133.4399  159.9098 C   0  0  0  0  0  0  0  0  0  0  0  0
  128.2922  134.1407  160.0305 C   0  0  0  0  0  0  0  0  0  0  0  0
  129.5572  133.8502  159.3244 C   0  0  0  0  0  0  0  0  0  0  0  0
  129.7609  132.8678  158.4689 N   0  0  0  0  0  0  0  0  0  0  0  0
  131.0887  132.9426  158.0293 N   0  0  0  0  0  0  0  0  0  0  0  0
  131.5123  132.3438  157.3947 H   0  0  0  0  0  0  0  0  0  0  0  0
  131.6754  133.9961  158.6376 C   0  0  0  0  0  0  0  0  0  0  0  0
  130.7618  134.5744  159.4461 C   0  0  0  0  0  0  0  0  0  0  0  0
  130.9868  135.7825  160.3185 C   0  0  0  0  0  0  0  0  0  0  0  0
  132.3723  136.2457  160.1657 N   0  0  0  0  0  0  0  0  0  0  0  0
  132.5406  136.4910  159.2016 H   0  0  0  0  0  0  0  0  0  0  0  0
  133.0054  135.5096  160.4407 H   0  0  0  0  0  0  0  0  0  0  0  0
  132.5917  137.4232  161.0161 C   0  0  2  0  0  0  0  0  0  0  0  0
  131.7136  138.6279  160.6386 C   0  0  0  0  0  0  0  0  0  0  0  0
  132.9444  139.5095  160.9078 C   0  0  1  0  0  0  0  0  0  0  0  0
  133.0554  139.9806  162.3592 C   0  0  0  0  0  0  0  0  0  0  0  0
  132.4086  141.3196  162.7189 C   0  0  0  0  0  0  0  0  0  0  0  0
  133.9320  141.2026  162.6403 C   0  0  0  0  0  0  0  0  0  0  0  0
  133.8037  138.2735  160.5937 C   0  0  0  0  0  0  0  0  0  0  0  0
  128.0870  135.1510  160.9016 O   0  0  0  0  0  0  0  0  0  0  0  0
  127.5438  138.0166  162.8130 C   0  0  0  0  0  0  0  0  0  0  0  0
  127.5140  138.9302  164.0508 C   0  0  2  0  0  0  0  0  0  0  0  0
  126.8229  139.7574  163.8885 H   0  0  0  0  0  0  0  0  0  0  0  0
  128.7967  139.4222  164.3144 F   0  0  0  0  0  0  0  0  0  0  0  0
  126.6175  139.5483  166.5395 H   0  0  0  0  0  0  0  0  0  0  0  0
  125.2341  137.2379  164.2882 H   0  0  0  0  0  0  0  0  0  0  0  0
  126.2019  136.0336  165.1982 H   0  0  0  0  0  0  0  0  0  0  0  0
  125.2974  136.1830  162.2100 H   0  0  0  0  0  0  0  0  0  0  0  0
  125.1673  133.7547  160.9076 H   0  0  0  0  0  0  0  0  0  0  0  0
  126.9673  132.5748  159.2852 H   0  0  0  0  0  0  0  0  0  0  0  0
  132.6974  134.3184  158.5023 H   0  0  0  0  0  0  0  0  0  0  0  0
  130.8050  135.5174  161.3600 H   0  0  0  0  0  0  0  0  0  0  0  0
  130.3030  136.5776  160.0213 H   0  0  0  0  0  0  0  0  0  0  0  0
  132.5751  137.1872  162.0801 H   0  0  0  0  0  0  0  0  0  0  0  0
  130.8910  138.8029  161.3321 H   0  0  0  0  0  0  0  0  0  0  0  0
  131.3964  138.6273  159.5959 H   0  0  0  0  0  0  0  0  0  0  0  0
  133.0664  140.3201  160.1893 H   0  0  0  0  0  0  0  0  0  0  0  0
  133.0341  139.1925  163.1120 H   0  0  0  0  0  0  0  0  0  0  0  0
  131.9038  141.8649  161.9214 H   0  0  0  0  0  0  0  0  0  0  0  0
  131.9613  141.4128  163.7085 H   0  0  0  0  0  0  0  0  0  0  0  0
  134.4871  141.2189  163.5782 H   0  0  0  0  0  0  0  0  0  0  0  0
  134.4296  141.6711  161.7912 H   0  0  0  0  0  0  0  0  0  0  0  0
  134.0591  138.1758  159.5386 H   0  0  0  0  0  0  0  0  0  0  0  0
  134.6661  138.1628  161.2511 H   0  0  0  0  0  0  0  0  0  0  0  0
  128.5578  137.9567  162.4177 H   0  0  0  0  0  0  0  0  0  0  0  0
  126.8670  138.4001  162.0495 H   0  0  0  0  0  0  0  0  0  0  0  0
  1  2  1  0
  1 34  1  0
  2  3  1  1
  2 31  1  0
  2  4  1  0
  4  5  1  0
  4 35  1  0
  4 36  1  0
  5  6  1  1
  5  7  1  0
  5 30  1  0
  7  8  1  0
  7 37  1  0
  8 29  1  0
  8  9  2  0
  9 10  1  0
  9 38  1  0
 10 11  2  0
 10 39  1  0
 11 12  1  0
 11 29  1  0
 12 17  1  0
 12 13  2  0
 13 14  1  0
 14 15  1  0
 14 16  1  0
 16 17  2  0
 16 40  1  0
 17 18  1  0
 18 19  1  0
 18 41  1  0
 18 42  1  0
 19 20  1  0
 19 21  1  0
 19 22  1  0
 22 28  1  0
 22 23  1  0
 22 43  1  1
 23 24  1  0
 23 44  1  0
 23 45  1  0
 24 25  1  0
 24 28  1  0
 24 46  1  6
 25 27  1  0
 25 26  1  0
 25 47  1  0
 26 27  1  0
 26 48  1  0
 26 49  1  0
 27 50  1  0
 27 51  1  0
 28 52  1  0
 28 53  1  0
 30 31  1  0
 30 54  1  0
 30 55  1  0
 31 32  1  6
 31 33  1  0
M  CHG  1  19   1
M  END
>  <DOCK_score>  (1) 
-42.732639

>  <SMILES>  (1) 
O[C@H]1C[C@@H](Nc2ccc(-c3n[nH]cc3C[NH2+]C3CC(C4CC4)C3)o2)C[C@@H]1F

$$$$
