Cc1c(NC[C@@H]2CC2(F)F)cccc1N1CC[NH+](C(c2ccccc2)c2ccccc2)CC1
     RDKit          3D

 65 69  0  0  1  0  0  0  0  0999 V2000
  133.9284  134.7953  163.5322 C   0  0  0  0  0  0  0  0  0  0  0  0
  134.4013  135.8826  162.6021 C   0  0  0  0  0  0  0  0  0  0  0  0
  135.4151  136.7441  162.9977 C   0  0  0  0  0  0  0  0  0  0  0  0
  135.9987  136.6044  164.2589 N   0  0  0  0  0  0  0  0  0  0  0  0
  137.0687  137.5142  164.6757 C   0  0  0  0  0  0  0  0  0  0  0  0
  137.5289  137.1472  166.0880 C   0  0  2  0  0  0  0  0  0  0  0  0
  136.7622  137.2006  166.8609 H   0  0  0  0  0  0  0  0  0  0  0  0
  138.9589  137.5203  166.4842 C   0  0  0  0  0  0  0  0  0  0  0  0
  138.5942  136.0575  166.2230 C   0  0  0  0  0  0  0  0  0  0  0  0
  138.5100  135.2052  167.3293 F   0  0  0  0  0  0  0  0  0  0  0  0
  139.0730  135.4727  165.0457 F   0  0  0  0  0  0  0  0  0  0  0  0
  135.8447  137.7492  162.1399 C   0  0  0  0  0  0  0  0  0  0  0  0
  135.2676  137.8883  160.8922 C   0  0  0  0  0  0  0  0  0  0  0  0
  134.2627  137.0287  160.4930 C   0  0  0  0  0  0  0  0  0  0  0  0
  133.8282  136.0212  161.3461 C   0  0  0  0  0  0  0  0  0  0  0  0
  132.8117  135.1528  160.9418 N   0  0  0  0  0  0  0  0  0  0  0  0
  131.5533  135.8801  160.7236 C   0  0  0  0  0  0  0  0  0  0  0  0
  130.4536  134.8871  160.3408 C   0  0  0  0  0  0  0  0  0  0  0  0
  130.8436  134.1714  159.1190 N   0  0  0  0  0  0  0  0  0  0  0  0
  130.9865  134.8345  158.3721 H   0  0  0  0  0  0  0  0  0  0  0  0
  129.7796  133.2314  158.7418 C   0  0  0  0  0  0  0  0  0  0  0  0
  128.5025  133.9917  158.4930 C   0  0  0  0  0  0  0  0  0  0  0  0
  127.2815  133.3877  158.7279 C   0  0  0  0  0  0  0  0  0  0  0  0
  126.1101  134.0869  158.5043 C   0  0  0  0  0  0  0  0  0  0  0  0
  126.1596  135.3863  158.0355 C   0  0  0  0  0  0  0  0  0  0  0  0
  127.3804  135.9886  157.7956 C   0  0  0  0  0  0  0  0  0  0  0  0
  128.5519  135.2912  158.0242 C   0  0  0  0  0  0  0  0  0  0  0  0
  130.1794  132.4969  157.4880 C   0  0  0  0  0  0  0  0  0  0  0  0
  129.8407  133.0087  156.2494 C   0  0  0  0  0  0  0  0  0  0  0  0
  130.2116  132.3376  155.0993 C   0  0  0  0  0  0  0  0  0  0  0  0
  130.9121  131.1490  155.1880 C   0  0  0  0  0  0  0  0  0  0  0  0
  131.2462  130.6346  156.4268 C   0  0  0  0  0  0  0  0  0  0  0  0
  130.8798  131.3085  157.5768 C   0  0  0  0  0  0  0  0  0  0  0  0
  132.0885  133.4302  159.3601 C   0  0  0  0  0  0  0  0  0  0  0  0
  133.2020  134.4110  159.7345 C   0  0  0  0  0  0  0  0  0  0  0  0
  134.5774  133.9250  163.4335 H   0  0  0  0  0  0  0  0  0  0  0  0
  133.9598  135.1571  164.5599 H   0  0  0  0  0  0  0  0  0  0  0  0
  132.9062  134.5170  163.2760 H   0  0  0  0  0  0  0  0  0  0  0  0
  135.6954  135.9051  164.8589 H   0  0  0  0  0  0  0  0  0  0  0  0
  137.9082  137.4277  163.9861 H   0  0  0  0  0  0  0  0  0  0  0  0
  136.6973  138.5390  164.6693 H   0  0  0  0  0  0  0  0  0  0  0  0
  139.5717  138.0270  165.7388 H   0  0  0  0  0  0  0  0  0  0  0  0
  139.1330  137.8186  167.5181 H   0  0  0  0  0  0  0  0  0  0  0  0
  136.6304  138.4226  162.4489 H   0  0  0  0  0  0  0  0  0  0  0  0
  135.6032  138.6705  160.2275 H   0  0  0  0  0  0  0  0  0  0  0  0
  133.8138  137.1399  159.5169 H   0  0  0  0  0  0  0  0  0  0  0  0
  131.6861  136.6036  159.9194 H   0  0  0  0  0  0  0  0  0  0  0  0
  131.2707  136.4009  161.6384 H   0  0  0  0  0  0  0  0  0  0  0  0
  129.5227  135.4263  160.1648 H   0  0  0  0  0  0  0  0  0  0  0  0
  130.3116  134.1722  161.1512 H   0  0  0  0  0  0  0  0  0  0  0  0
  129.6246  132.5152  159.5487 H   0  0  0  0  0  0  0  0  0  0  0  0
  127.2427  132.3710  159.0899 H   0  0  0  0  0  0  0  0  0  0  0  0
  125.1562  133.6162  158.6914 H   0  0  0  0  0  0  0  0  0  0  0  0
  125.2442  135.9310  157.8566 H   0  0  0  0  0  0  0  0  0  0  0  0
  127.4191  137.0037  157.4290 H   0  0  0  0  0  0  0  0  0  0  0  0
  129.5059  135.7616  157.8364 H   0  0  0  0  0  0  0  0  0  0  0  0
  129.2896  133.9349  156.1802 H   0  0  0  0  0  0  0  0  0  0  0  0
  129.9503  132.7393  154.1314 H   0  0  0  0  0  0  0  0  0  0  0  0
  131.1980  130.6223  154.2896 H   0  0  0  0  0  0  0  0  0  0  0  0
  131.7931  129.7059  156.4962 H   0  0  0  0  0  0  0  0  0  0  0  0
  131.1405  130.9063  158.5446 H   0  0  0  0  0  0  0  0  0  0  0  0
  131.9379  132.7227  160.1756 H   0  0  0  0  0  0  0  0  0  0  0  0
  132.3698  132.8889  158.4569 H   0  0  0  0  0  0  0  0  0  0  0  0
  133.3619  135.1103  158.9137 H   0  0  0  0  0  0  0  0  0  0  0  0
  134.1223  133.8598  159.9277 H   0  0  0  0  0  0  0  0  0  0  0  0
  1  2  1  0
  1 36  1  0
  1 37  1  0
  1 38  1  0
  2 15  2  0
  2  3  1  0
  3  4  1  0
  3 12  2  0
  4  5  1  0
  4 39  1  0
  5  6  1  0
  5 40  1  0
  5 41  1  0
  6  7  1  1
  6  9  1  0
  6  8  1  0
  8  9  1  0
  8 42  1  0
  8 43  1  0
  9 10  1  0
  9 11  1  0
 12 13  1  0
 12 44  1  0
 13 14  2  0
 13 45  1  0
 14 15  1  0
 14 46  1  0
 15 16  1  0
 16 35  1  0
 16 17  1  0
 17 18  1  0
 17 47  1  0
 17 48  1  0
 18 19  1  0
 18 49  1  0
 18 50  1  0
 19 20  1  0
 19 21  1  0
 19 34  1  0
 21 22  1  0
 21 28  1  0
 21 51  1  0
 22 27  1  0
 22 23  2  0
 23 24  1  0
 23 52  1  0
 24 25  2  0
 24 53  1  0
 25 26  1  0
 25 54  1  0
 26 27  2  0
 26 55  1  0
 27 56  1  0
 28 33  1  0
 28 29  2  0
 29 30  1  0
 29 57  1  0
 30 31  2  0
 30 58  1  0
 31 32  1  0
 31 59  1  0
 32 33  2  0
 32 60  1  0
 33 61  1  0
 34 35  1  0
 34 62  1  0
 34 63  1  0
 35 64  1  0
 35 65  1  0
M  CHG  1  19   1
M  END
>  <DOCK_score>  (1) 
-57.368839

>  <SMILES>  (1) 
Cc1c(NC[C@@H]2CC2(F)F)cccc1N1CC[NH+](C(c2ccccc2)c2ccccc2)CC1

$$$$
