CCn1ncnc1C(C)Nc1ccccc1[C@@H](CF)Nc1[nH]c(C)c(C)[nH+]1
     RDKit          3D

 54 56  0  0  1  0  0  0  0  0999 V2000
  125.5649  140.5480  163.8182 C   0  0  0  0  0  0  0  0  0  0  0  0
  125.7385  139.5845  164.9940 C   0  0  0  0  0  0  0  0  0  0  0  0
  125.7717  138.2072  164.4960 N   0  0  0  0  0  0  0  0  0  0  0  0
  124.6741  137.3488  164.3206 N   0  0  0  0  0  0  0  0  0  0  0  0
  125.1467  136.2206  163.8597 C   0  0  0  0  0  0  0  0  0  0  0  0
  126.4700  136.3218  163.7424 N   0  0  0  0  0  0  0  0  0  0  0  0
  126.8590  137.5135  164.1167 C   0  0  0  0  0  0  0  0  0  0  0  0
  128.2787  138.0188  164.1260 C   0  0  1  0  0  0  0  0  0  0  0  0
  128.9222  137.7072  165.4787 C   0  0  0  0  0  0  0  0  0  0  0  0
  129.0385  137.3602  163.0606 N   0  0  0  0  0  0  0  0  0  0  0  0
  129.6263  138.1222  162.0483 C   0  0  0  0  0  0  0  0  0  0  0  0
  130.0450  139.4211  162.3086 C   0  0  0  0  0  0  0  0  0  0  0  0
  130.6300  140.1702  161.3063 C   0  0  0  0  0  0  0  0  0  0  0  0
  130.7903  139.6320  160.0429 C   0  0  0  0  0  0  0  0  0  0  0  0
  130.3695  138.3417  159.7788 C   0  0  0  0  0  0  0  0  0  0  0  0
  129.7882  137.5853  160.7777 C   0  0  0  0  0  0  0  0  0  0  0  0
  129.3307  136.1786  160.4893 C   0  0  1  0  0  0  0  0  0  0  0  0
  129.4073  135.5785  161.3960 H   0  0  0  0  0  0  0  0  0  0  0  0
  127.8764  136.2025  160.0148 C   0  0  0  0  0  0  0  0  0  0  0  0
  127.3106  134.9337  160.1813 F   0  0  0  0  0  0  0  0  0  0  0  0
  130.1757  135.5948  159.4445 N   0  0  0  0  0  0  0  0  0  0  0  0
  129.9448  134.3033  159.0106 C   0  0  0  0  0  0  0  0  0  0  0  0
  128.9950  133.4906  159.4649 N   0  0  0  0  0  0  0  0  0  0  0  0
  128.3481  133.7023  160.1559 H   0  0  0  0  0  0  0  0  0  0  0  0
  129.0861  132.3120  158.7910 C   0  0  0  0  0  0  0  0  0  0  0  0
  128.2038  131.1054  158.9822 C   0  0  0  0  0  0  0  0  0  0  0  0
  130.1109  132.4189  157.9280 C   0  0  0  0  0  0  0  0  0  0  0  0
  130.5879  131.3539  156.9743 C   0  0  0  0  0  0  0  0  0  0  0  0
  130.6391  133.6644  158.0732 N   0  0  0  0  0  0  0  0  0  0  0  0
  131.3917  134.0244  157.5783 H   0  0  0  0  0  0  0  0  0  0  0  0
  124.6314  140.3259  163.3012 H   0  0  0  0  0  0  0  0  0  0  0  0
  125.5403  141.5727  164.1888 H   0  0  0  0  0  0  0  0  0  0  0  0
  126.3996  140.4316  163.1268 H   0  0  0  0  0  0  0  0  0  0  0  0
  124.9038  139.7008  165.6852 H   0  0  0  0  0  0  0  0  0  0  0  0
  126.6720  139.8066  165.5109 H   0  0  0  0  0  0  0  0  0  0  0  0
  124.5601  135.3466  163.6177 H   0  0  0  0  0  0  0  0  0  0  0  0
  128.2819  139.0964  163.9617 H   0  0  0  0  0  0  0  0  0  0  0  0
  128.9188  136.6296  165.6430 H   0  0  0  0  0  0  0  0  0  0  0  0
  129.9490  138.0726  165.4854 H   0  0  0  0  0  0  0  0  0  0  0  0
  128.3569  138.1972  166.2715 H   0  0  0  0  0  0  0  0  0  0  0  0
  129.1333  136.3947  163.0580 H   0  0  0  0  0  0  0  0  0  0  0  0
  129.9165  139.8432  163.2944 H   0  0  0  0  0  0  0  0  0  0  0  0
  130.9607  141.1779  161.5099 H   0  0  0  0  0  0  0  0  0  0  0  0
  131.2451  140.2212  159.2602 H   0  0  0  0  0  0  0  0  0  0  0  0
  130.4956  137.9248  158.7906 H   0  0  0  0  0  0  0  0  0  0  0  0
  127.3149  136.9304  160.6006 H   0  0  0  0  0  0  0  0  0  0  0  0
  127.8424  136.4801  158.9613 H   0  0  0  0  0  0  0  0  0  0  0  0
  130.8972  136.1149  159.0574 H   0  0  0  0  0  0  0  0  0  0  0  0
  128.6335  130.4586  159.7470 H   0  0  0  0  0  0  0  0  0  0  0  0
  127.2105  131.4276  159.2948 H   0  0  0  0  0  0  0  0  0  0  0  0
  128.1291  130.5574  158.0429 H   0  0  0  0  0  0  0  0  0  0  0  0
  131.3453  130.7412  157.4632 H   0  0  0  0  0  0  0  0  0  0  0  0
  129.7467  130.7260  156.6806 H   0  0  0  0  0  0  0  0  0  0  0  0
  131.0166  131.8243  156.0894 H   0  0  0  0  0  0  0  0  0  0  0  0
  1  2  1  0
  1 31  1  0
  1 32  1  0
  1 33  1  0
  2  3  1  0
  2 34  1  0
  2 35  1  0
  3  7  1  0
  3  4  1  0
  4  5  2  0
  5  6  1  0
  5 36  1  0
  6  7  2  0
  7  8  1  0
  8  9  1  0
  8 10  1  0
  8 37  1  6
  9 38  1  0
  9 39  1  0
  9 40  1  0
 10 11  1  0
 10 41  1  0
 11 16  1  0
 11 12  2  0
 12 13  1  0
 12 42  1  0
 13 14  2  0
 13 43  1  0
 14 15  1  0
 14 44  1  0
 15 16  2  0
 15 45  1  0
 16 17  1  0
 17 18  1  1
 17 19  1  0
 17 21  1  0
 19 20  1  0
 19 46  1  0
 19 47  1  0
 21 48  1  0
 22 21  1  0
 22 29  1  0
 22 23  2  0
 23 24  1  0
 23 25  1  0
 25 26  1  0
 25 27  2  0
 26 49  1  0
 26 50  1  0
 26 51  1  0
 27 28  1  0
 27 29  1  0
 28 52  1  0
 28 53  1  0
 28 54  1  0
 29 30  1  0
M  CHG  1  23   1
M  END
>  <DOCK_score>  (1) 
-48.985062

>  <SMILES>  (1) 
CCn1ncnc1C(C)Nc1ccccc1[C@@H](CF)Nc1[nH]c(C)c(C)[nH+]1

$$$$
