Nc1nc(NC2CCCCC2)nc(NC2CCC[N@H+](C3CCCCC3)C2)n1
     RDKit          3D

 63 66  0  0  1  0  0  0  0  0999 V2000
  124.5612  134.9921  161.0041 N   0  0  0  0  0  0  0  0  0  0  0  0
  125.8663  134.7961  160.6002 C   0  0  0  0  0  0  0  0  0  0  0  0
  126.2348  133.6262  160.0873 N   0  0  0  0  0  0  0  0  0  0  0  0
  127.4919  133.4373  159.6988 C   0  0  0  0  0  0  0  0  0  0  0  0
  127.8744  132.2231  159.1658 N   0  0  0  0  0  0  0  0  0  0  0  0
  129.2599  132.0150  158.7377 C   0  0  0  0  0  0  0  0  0  0  0  0
  129.4053  132.4158  157.2683 C   0  0  0  0  0  0  0  0  0  0  0  0
  130.8523  132.1985  156.8210 C   0  0  0  0  0  0  0  0  0  0  0  0
  131.2209  130.7228  156.9860 C   0  0  0  0  0  0  0  0  0  0  0  0
  131.0755  130.3219  158.4554 C   0  0  0  0  0  0  0  0  0  0  0  0
  129.6286  130.5393  158.9025 C   0  0  0  0  0  0  0  0  0  0  0  0
  128.3794  134.4201  159.8180 N   0  0  0  0  0  0  0  0  0  0  0  0
  128.0121  135.5878  160.3360 C   0  0  0  0  0  0  0  0  0  0  0  0
  128.9348  136.6061  160.4651 N   0  0  0  0  0  0  0  0  0  0  0  0
  130.3189  136.3998  160.0314 C   0  0  2  0  0  0  0  0  0  0  0  0
  130.9365  135.2446  160.8247 C   0  0  0  0  0  0  0  0  0  0  0  0
  132.4051  135.0882  160.4199 C   0  0  0  0  0  0  0  0  0  0  0  0
  133.1373  136.4109  160.6567 C   0  0  0  0  0  0  0  0  0  0  0  0
  132.5162  137.4690  159.8509 N   0  0  2  0  0  0  0  0  0  0  0  0
  132.5288  137.1999  158.8786 H   0  0  0  0  0  0  0  0  0  0  0  0
  133.2698  138.7185  160.0215 C   0  0  0  0  0  0  0  0  0  0  0  0
  134.5182  138.6857  159.1376 C   0  0  0  0  0  0  0  0  0  0  0  0
  135.3031  139.9870  159.3153 C   0  0  0  0  0  0  0  0  0  0  0  0
  135.7191  140.1358  160.7801 C   0  0  0  0  0  0  0  0  0  0  0  0
  134.4707  140.1685  161.6640 C   0  0  0  0  0  0  0  0  0  0  0  0
  133.6857  138.8673  161.4864 C   0  0  0  0  0  0  0  0  0  0  0  0
  131.1283  137.6738  160.2825 C   0  0  0  0  0  0  0  0  0  0  0  0
  126.7549  135.7769  160.7247 N   0  0  0  0  0  0  0  0  0  0  0  0
  124.2924  135.8455  161.3786 H   0  0  0  0  0  0  0  0  0  0  0  0
  123.9127  134.2763  160.9134 H   0  0  0  0  0  0  0  0  0  0  0  0
  127.2260  131.5076  159.0747 H   0  0  0  0  0  0  0  0  0  0  0  0
  129.9246  132.6259  159.3484 H   0  0  0  0  0  0  0  0  0  0  0  0
  128.7406  131.8049  156.6575 H   0  0  0  0  0  0  0  0  0  0  0  0
  129.1428  133.4672  157.1507 H   0  0  0  0  0  0  0  0  0  0  0  0
  131.5170  132.8095  157.4318 H   0  0  0  0  0  0  0  0  0  0  0  0
  130.9558  132.4841  155.7743 H   0  0  0  0  0  0  0  0  0  0  0  0
  132.2517  130.5680  156.6674 H   0  0  0  0  0  0  0  0  0  0  0  0
  130.5562  130.1118  156.3752 H   0  0  0  0  0  0  0  0  0  0  0  0
  131.7402  130.9330  159.0662 H   0  0  0  0  0  0  0  0  0  0  0  0
  131.3381  129.2706  158.5729 H   0  0  0  0  0  0  0  0  0  0  0  0
  129.5250  130.2536  159.9494 H   0  0  0  0  0  0  0  0  0  0  0  0
  128.9638  129.9283  158.2919 H   0  0  0  0  0  0  0  0  0  0  0  0
  128.6668  137.4584  160.8430 H   0  0  0  0  0  0  0  0  0  0  0  0
  130.3360  136.1613  158.9680 H   0  0  0  0  0  0  0  0  0  0  0  0
  130.8732  135.4599  161.8913 H   0  0  0  0  0  0  0  0  0  0  0  0
  130.3968  134.3230  160.6062 H   0  0  0  0  0  0  0  0  0  0  0  0
  132.8666  134.3043  161.0204 H   0  0  0  0  0  0  0  0  0  0  0  0
  132.4656  134.8224  159.3646 H   0  0  0  0  0  0  0  0  0  0  0  0
  134.1833  136.3030  160.3698 H   0  0  0  0  0  0  0  0  0  0  0  0
  133.0765  136.6755  161.7122 H   0  0  0  0  0  0  0  0  0  0  0  0
  132.6432  139.5628  159.7341 H   0  0  0  0  0  0  0  0  0  0  0  0
  134.2219  138.5797  158.0941 H   0  0  0  0  0  0  0  0  0  0  0  0
  135.1448  137.8414  159.4250 H   0  0  0  0  0  0  0  0  0  0  0  0
  134.6765  140.8313  159.0280 H   0  0  0  0  0  0  0  0  0  0  0  0
  136.1926  139.9637  158.6856 H   0  0  0  0  0  0  0  0  0  0  0  0
  136.3457  139.2914  161.0675 H   0  0  0  0  0  0  0  0  0  0  0  0
  136.2782  141.0629  160.9067 H   0  0  0  0  0  0  0  0  0  0  0  0
  134.7669  140.2745  162.7076 H   0  0  0  0  0  0  0  0  0  0  0  0
  133.8441  141.0128  161.3766 H   0  0  0  0  0  0  0  0  0  0  0  0
  132.7963  138.8905  162.1160 H   0  0  0  0  0  0  0  0  0  0  0  0
  134.3123  138.0229  161.7737 H   0  0  0  0  0  0  0  0  0  0  0  0
  131.1102  137.9116  161.3461 H   0  0  0  0  0  0  0  0  0  0  0  0
  130.6912  138.4984  159.7193 H   0  0  0  0  0  0  0  0  0  0  0  0
  1  2  1  0
  1 29  1  0
  1 30  1  0
  2 28  2  0
  2  3  1  0
  3  4  2  0
  4  5  1  0
  4 12  1  0
  5  6  1  0
  5 31  1  0
  6 11  1  0
  6  7  1  0
  6 32  1  0
  7  8  1  0
  7 33  1  0
  7 34  1  0
  8  9  1  0
  8 35  1  0
  8 36  1  0
  9 10  1  0
  9 37  1  0
  9 38  1  0
 10 11  1  0
 10 39  1  0
 10 40  1  0
 11 41  1  0
 11 42  1  0
 12 13  2  0
 13 14  1  0
 13 28  1  0
 14 15  1  0
 14 43  1  0
 15 27  1  0
 15 16  1  0
 15 44  1  6
 16 17  1  0
 16 45  1  0
 16 46  1  0
 17 18  1  0
 17 47  1  0
 17 48  1  0
 18 19  1  0
 18 49  1  0
 18 50  1  0
 19 20  1  6
 19 21  1  0
 19 27  1  0
 21 26  1  0
 21 22  1  0
 21 51  1  0
 22 23  1  0
 22 52  1  0
 22 53  1  0
 23 24  1  0
 23 54  1  0
 23 55  1  0
 24 25  1  0
 24 56  1  0
 24 57  1  0
 25 26  1  0
 25 58  1  0
 25 59  1  0
 26 60  1  0
 26 61  1  0
 27 62  1  0
 27 63  1  0
M  CHG  1  19   1
M  END
>  <DOCK_score>  (1) 
-48.735298

>  <SMILES>  (1) 
Nc1nc(NC2CCCCC2)nc(NC2CCC[N@H+](C3CCCCC3)C2)n1

$$$$
