Cc1ccc(Nc2ccc(Nc3[nH]cc(-c4ccc(C(F)(F)F)cc4)[nH+]3)cc2)cc1
     RDKit          3D

 50 53  0  0  1  0  0  0  0  0999 V2000
  127.7587  135.5434  168.3446 C   0  0  0  0  0  0  0  0  0  0  0  0
  127.4218  135.8083  166.8999 C   0  0  0  0  0  0  0  0  0  0  0  0
  127.9291  134.9853  165.9111 C   0  0  0  0  0  0  0  0  0  0  0  0
  127.6228  135.2254  164.5862 C   0  0  0  0  0  0  0  0  0  0  0  0
  126.8035  136.2951  164.2471 C   0  0  0  0  0  0  0  0  0  0  0  0
  126.4920  136.5413  162.9078 N   0  0  0  0  0  0  0  0  0  0  0  0
  127.4023  136.1955  161.9025 C   0  0  0  0  0  0  0  0  0  0  0  0
  127.0361  135.2894  160.9155 C   0  0  0  0  0  0  0  0  0  0  0  0
  127.9340  134.9488  159.9236 C   0  0  0  0  0  0  0  0  0  0  0  0
  129.2036  135.5116  159.9131 C   0  0  0  0  0  0  0  0  0  0  0  0
  130.1146  135.1654  158.9076 N   0  0  0  0  0  0  0  0  0  0  0  0
  130.0616  133.9086  158.3278 C   0  0  0  0  0  0  0  0  0  0  0  0
  129.6396  132.7694  158.9418 N   0  0  0  0  0  0  0  0  0  0  0  0
  129.3256  132.6919  159.8563 H   0  0  0  0  0  0  0  0  0  0  0  0
  129.7358  131.7506  158.0258 C   0  0  0  0  0  0  0  0  0  0  0  0
  130.2221  132.2939  156.8822 C   0  0  0  0  0  0  0  0  0  0  0  0
  130.4953  131.5676  155.6181 C   0  0  0  0  0  0  0  0  0  0  0  0
  129.8368  131.9328  154.4452 C   0  0  0  0  0  0  0  0  0  0  0  0
  130.0954  131.2537  153.2719 C   0  0  0  0  0  0  0  0  0  0  0  0
  131.0059  130.2124  153.2585 C   0  0  0  0  0  0  0  0  0  0  0  0
  131.2841  129.4744  151.9744 C   0  0  0  0  0  0  0  0  0  0  0  0
  130.5084  130.0208  150.9455 F   0  0  0  0  0  0  0  0  0  0  0  0
  132.6396  129.5962  151.6506 F   0  0  0  0  0  0  0  0  0  0  0  0
  130.9617  128.1228  152.1336 F   0  0  0  0  0  0  0  0  0  0  0  0
  131.6581  129.8420  154.4207 C   0  0  0  0  0  0  0  0  0  0  0  0
  131.4117  130.5177  155.5986 C   0  0  0  0  0  0  0  0  0  0  0  0
  130.4088  133.6201  157.0972 N   0  0  0  0  0  0  0  0  0  0  0  0
  130.7452  134.2539  156.4444 H   0  0  0  0  0  0  0  0  0  0  0  0
  129.5717  136.4135  160.9029 C   0  0  0  0  0  0  0  0  0  0  0  0
  128.6720  136.7586  161.8916 C   0  0  0  0  0  0  0  0  0  0  0  0
  126.2996  137.1228  165.2427 C   0  0  0  0  0  0  0  0  0  0  0  0
  126.6057  136.8737  166.5661 C   0  0  0  0  0  0  0  0  0  0  0  0
  128.6656  136.0860  168.6117 H   0  0  0  0  0  0  0  0  0  0  0  0
  126.9361  135.8774  168.9768 H   0  0  0  0  0  0  0  0  0  0  0  0
  127.9184  134.4750  168.4905 H   0  0  0  0  0  0  0  0  0  0  0  0
  128.5657  134.1539  166.1754 H   0  0  0  0  0  0  0  0  0  0  0  0
  128.0192  134.5822  163.8144 H   0  0  0  0  0  0  0  0  0  0  0  0
  125.6446  136.9517  162.6746 H   0  0  0  0  0  0  0  0  0  0  0  0
  126.0488  134.8518  160.9237 H   0  0  0  0  0  0  0  0  0  0  0  0
  127.6492  134.2443  159.1562 H   0  0  0  0  0  0  0  0  0  0  0  0
  130.7828  135.8057  158.6170 H   0  0  0  0  0  0  0  0  0  0  0  0
  129.4764  130.7146  158.1862 H   0  0  0  0  0  0  0  0  0  0  0  0
  129.1259  132.7458  154.4544 H   0  0  0  0  0  0  0  0  0  0  0  0
  129.5854  131.5356  152.3625 H   0  0  0  0  0  0  0  0  0  0  0  0
  132.3646  129.0254  154.4054 H   0  0  0  0  0  0  0  0  0  0  0  0
  131.9247  130.2304  156.5046 H   0  0  0  0  0  0  0  0  0  0  0  0
  130.5605  136.8478  160.8973 H   0  0  0  0  0  0  0  0  0  0  0  0
  128.9568  137.4632  162.6590 H   0  0  0  0  0  0  0  0  0  0  0  0
  125.6658  137.9576  164.9823 H   0  0  0  0  0  0  0  0  0  0  0  0
  126.2113  137.5145  167.3407 H   0  0  0  0  0  0  0  0  0  0  0  0
  1  2  1  0
  1 33  1  0
  1 34  1  0
  1 35  1  0
  2 32  2  0
  2  3  1  0
  3  4  2  0
  3 36  1  0
  4  5  1  0
  4 37  1  0
  5  6  1  0
  5 31  2  0
  6  7  1  0
  6 38  1  0
  7 30  1  0
  7  8  2  0
  8  9  1  0
  8 39  1  0
  9 10  2  0
  9 40  1  0
 10 11  1  0
 10 29  1  0
 11 41  1  0
 12 11  1  0
 12 27  2  0
 12 13  1  0
 13 14  1  0
 13 15  1  0
 15 16  2  0
 15 42  1  0
 16 17  1  0
 16 27  1  0
 17 26  1  0
 17 18  2  0
 18 19  1  0
 18 43  1  0
 19 20  2  0
 19 44  1  0
 20 21  1  0
 20 25  1  0
 21 22  1  0
 21 23  1  0
 21 24  1  0
 25 26  2  0
 25 45  1  0
 26 46  1  0
 27 28  1  0
 29 30  2  0
 29 47  1  0
 30 48  1  0
 31 32  1  0
 31 49  1  0
 32 50  1  0
M  CHG  1  27   1
M  END
>  <DOCK_score>  (1) 
-54.504623

>  <SMILES>  (1) 
Cc1ccc(Nc2ccc(Nc3[nH]cc(-c4ccc(C(F)(F)F)cc4)[nH+]3)cc2)cc1

$$$$
