CCc1ccc(-c2c[nH]c(N[C@@H](CCc3ccccc3)Cc3cncc4c3CCCC4)[nH+]2)cc1
     RDKit          3D

 69 73  0  0  1  0  0  0  0  0999 V2000
  132.0570  129.6063  152.5838 C   0  0  0  0  0  0  0  0  0  0  0  0
  130.6428  129.7409  153.1521 C   0  0  0  0  0  0  0  0  0  0  0  0
  130.6860  130.5565  154.4185 C   0  0  0  0  0  0  0  0  0  0  0  0
  130.5442  131.9311  154.3580 C   0  0  0  0  0  0  0  0  0  0  0  0
  130.5780  132.6825  155.5151 C   0  0  0  0  0  0  0  0  0  0  0  0
  130.7663  132.0548  156.7452 C   0  0  0  0  0  0  0  0  0  0  0  0
  130.8087  132.8575  157.9918 C   0  0  0  0  0  0  0  0  0  0  0  0
  130.4270  132.4389  159.2239 C   0  0  0  0  0  0  0  0  0  0  0  0
  130.6315  133.4909  160.0834 N   0  0  0  0  0  0  0  0  0  0  0  0
  130.4516  133.4973  161.0366 H   0  0  0  0  0  0  0  0  0  0  0  0
  131.1326  134.5225  159.3507 C   0  0  0  0  0  0  0  0  0  0  0  0
  131.4749  135.7701  159.8436 N   0  0  0  0  0  0  0  0  0  0  0  0
  131.3059  136.0663  161.2684 C   0  0  1  0  0  0  0  0  0  0  0  0
  131.6005  135.1978  161.8575 H   0  0  0  0  0  0  0  0  0  0  0  0
  132.1827  137.2614  161.6482 C   0  0  0  0  0  0  0  0  0  0  0  0
  133.6492  136.9278  161.3669 C   0  0  0  0  0  0  0  0  0  0  0  0
  134.5127  138.1049  161.7411 C   0  0  0  0  0  0  0  0  0  0  0  0
  134.7999  139.0776  160.8019 C   0  0  0  0  0  0  0  0  0  0  0  0
  135.5880  140.1598  161.1465 C   0  0  0  0  0  0  0  0  0  0  0  0
  136.0975  140.2638  162.4272 C   0  0  0  0  0  0  0  0  0  0  0  0
  135.8147  139.2882  163.3649 C   0  0  0  0  0  0  0  0  0  0  0  0
  135.0222  138.2088  163.0219 C   0  0  0  0  0  0  0  0  0  0  0  0
  129.8394  136.3999  161.5496 C   0  0  0  0  0  0  0  0  0  0  0  0
  129.5571  136.2235  163.0193 C   0  0  0  0  0  0  0  0  0  0  0  0
  129.7309  134.9923  163.6202 C   0  0  0  0  0  0  0  0  0  0  0  0
  129.4921  134.8341  164.9073 N   0  0  0  0  0  0  0  0  0  0  0  0
  129.0705  135.8297  165.6593 C   0  0  0  0  0  0  0  0  0  0  0  0
  128.8654  137.0928  165.1238 C   0  0  0  0  0  0  0  0  0  0  0  0
  129.1134  137.2973  163.7830 C   0  0  0  0  0  0  0  0  0  0  0  0
  128.9288  138.6311  163.1145 C   0  0  0  0  0  0  0  0  0  0  0  0
  128.0551  139.5434  163.9748 C   0  0  0  0  0  0  0  0  0  0  0  0
  128.6222  139.5570  165.3991 C   0  0  0  0  0  0  0  0  0  0  0  0
  128.3764  138.1882  166.0322 C   0  0  0  0  0  0  0  0  0  0  0  0
  131.2418  134.1385  158.1023 N   0  0  0  0  0  0  0  0  0  0  0  0
  131.5771  134.6838  157.3734 H   0  0  0  0  0  0  0  0  0  0  0  0
  130.9140  130.6700  156.7997 C   0  0  0  0  0  0  0  0  0  0  0  0
  130.8732  129.9281  155.6366 C   0  0  0  0  0  0  0  0  0  0  0  0
  132.4563  130.5965  152.3647 H   0  0  0  0  0  0  0  0  0  0  0  0
  132.6962  129.1100  153.3138 H   0  0  0  0  0  0  0  0  0  0  0  0
  132.0257  129.0164  151.6676 H   0  0  0  0  0  0  0  0  0  0  0  0
  130.0035  130.2372  152.4219 H   0  0  0  0  0  0  0  0  0  0  0  0
  130.2434  128.7506  153.3710 H   0  0  0  0  0  0  0  0  0  0  0  0
  130.4027  132.4169  153.4038 H   0  0  0  0  0  0  0  0  0  0  0  0
  130.4626  133.7553  155.4672 H   0  0  0  0  0  0  0  0  0  0  0  0
  130.0367  131.4651  159.4803 H   0  0  0  0  0  0  0  0  0  0  0  0
  131.8264  136.4480  159.2457 H   0  0  0  0  0  0  0  0  0  0  0  0
  131.8882  138.1298  161.0591 H   0  0  0  0  0  0  0  0  0  0  0  0
  132.0570  137.4818  162.7082 H   0  0  0  0  0  0  0  0  0  0  0  0
  133.9437  136.0593  161.9560 H   0  0  0  0  0  0  0  0  0  0  0  0
  133.7749  136.7074  160.3069 H   0  0  0  0  0  0  0  0  0  0  0  0
  134.4053  138.9941  159.8000 H   0  0  0  0  0  0  0  0  0  0  0  0
  135.8092  140.9218  160.4138 H   0  0  0  0  0  0  0  0  0  0  0  0
  136.7169  141.1070  162.6952 H   0  0  0  0  0  0  0  0  0  0  0  0
  136.2130  139.3693  164.3656 H   0  0  0  0  0  0  0  0  0  0  0  0
  134.8015  137.4465  163.7545 H   0  0  0  0  0  0  0  0  0  0  0  0
  129.6402  137.4324  161.2626 H   0  0  0  0  0  0  0  0  0  0  0  0
  129.1982  135.7325  160.9737 H   0  0  0  0  0  0  0  0  0  0  0  0
  130.0701  134.1527  163.0316 H   0  0  0  0  0  0  0  0  0  0  0  0
  128.8819  135.6603  166.7090 H   0  0  0  0  0  0  0  0  0  0  0  0
  129.9025  139.0985  162.9677 H   0  0  0  0  0  0  0  0  0  0  0  0
  128.4525  138.4855  162.1450 H   0  0  0  0  0  0  0  0  0  0  0  0
  128.0669  140.5537  163.5661 H   0  0  0  0  0  0  0  0  0  0  0  0
  127.0335  139.1635  163.9909 H   0  0  0  0  0  0  0  0  0  0  0  0
  129.6930  139.7576  165.3649 H   0  0  0  0  0  0  0  0  0  0  0  0
  128.1209  140.3270  165.9854 H   0  0  0  0  0  0  0  0  0  0  0  0
  128.9056  138.1308  166.9833 H   0  0  0  0  0  0  0  0  0  0  0  0
  127.3085  138.0595  166.2091 H   0  0  0  0  0  0  0  0  0  0  0  0
  131.0605  130.1784  157.7500 H   0  0  0  0  0  0  0  0  0  0  0  0
  130.9872  128.8549  155.6776 H   0  0  0  0  0  0  0  0  0  0  0  0
  1  2  1  0
  1 38  1  0
  1 39  1  0
  1 40  1  0
  2  3  1  0
  2 41  1  0
  2 42  1  0
  3 37  2  0
  3  4  1  0
  4  5  2  0
  4 43  1  0
  5  6  1  0
  5 44  1  0
  6  7  1  0
  6 36  2  0
  7 34  1  0
  7  8  2  0
  8  9  1  0
  8 45  1  0
  9 10  1  0
  9 11  1  0
 11 12  1  0
 11 34  2  0
 12 13  1  0
 12 46  1  0
 13 14  1  1
 13 15  1  0
 13 23  1  0
 15 16  1  0
 15 47  1  0
 15 48  1  0
 16 17  1  0
 16 49  1  0
 16 50  1  0
 17 22  1  0
 17 18  2  0
 18 19  1  0
 18 51  1  0
 19 20  2  0
 19 52  1  0
 20 21  1  0
 20 53  1  0
 21 22  2  0
 21 54  1  0
 22 55  1  0
 23 24  1  0
 23 56  1  0
 23 57  1  0
 24 29  1  0
 24 25  2  0
 25 26  1  0
 25 58  1  0
 26 27  2  0
 27 28  1  0
 27 59  1  0
 28 33  1  0
 28 29  2  0
 29 30  1  0
 30 31  1  0
 30 60  1  0
 30 61  1  0
 31 32  1  0
 31 62  1  0
 31 63  1  0
 32 33  1  0
 32 64  1  0
 32 65  1  0
 33 66  1  0
 33 67  1  0
 34 35  1  0
 36 37  1  0
 36 68  1  0
 37 69  1  0
M  CHG  1  34   1
M  END
>  <DOCK_score>  (1) 
-57.561405

>  <SMILES>  (1) 
CCc1ccc(-c2c[nH]c(N[C@@H](CCc3ccccc3)Cc3cncc4c3CCCC4)[nH+]2)cc1

$$$$
