C[C@H](Cc1c[nH]c2ccc(O)cc12)[NH2+]C1=CCCCC1
     RDKit          3D

 43 45  0  0  1  0  0  0  0  0999 V2000
  128.6697  135.7960  157.4339 C   0  0  0  0  0  0  0  0  0  0  0  0
  129.1346  134.4362  157.9589 C   0  0  2  0  0  0  0  0  0  0  0  0
  128.4720  133.6562  157.5840 H   0  0  0  0  0  0  0  0  0  0  0  0
  129.1016  134.4416  159.4885 C   0  0  0  0  0  0  0  0  0  0  0  0
  127.6952  134.7079  159.9597 C   0  0  0  0  0  0  0  0  0  0  0  0
  127.1530  135.9091  160.2155 C   0  0  0  0  0  0  0  0  0  0  0  0
  125.8549  135.7582  160.6205 N   0  0  0  0  0  0  0  0  0  0  0  0
  125.2576  136.4841  160.8592 H   0  0  0  0  0  0  0  0  0  0  0  0
  125.5244  134.4195  160.6442 C   0  0  0  0  0  0  0  0  0  0  0  0
  124.3642  133.7282  160.9771 C   0  0  0  0  0  0  0  0  0  0  0  0
  124.3363  132.3537  160.9012 C   0  0  0  0  0  0  0  0  0  0  0  0
  125.4622  131.6428  160.4931 C   0  0  0  0  0  0  0  0  0  0  0  0
  125.4180  130.2853  160.4245 O   0  0  0  0  0  0  0  0  0  0  0  0
  126.6231  132.3105  160.1581 C   0  0  0  0  0  0  0  0  0  0  0  0
  126.6628  133.7047  160.2315 C   0  0  0  0  0  0  0  0  0  0  0  0
  130.5056  134.1765  157.4996 N   0  0  0  0  0  0  0  0  0  0  0  0
  131.1572  134.6750  158.0869 H   0  0  0  0  0  0  0  0  0  0  0  0
  130.6056  134.4892  156.5456 H   0  0  0  0  0  0  0  0  0  0  0  0
  130.7690  132.8053  157.5707 C   0  0  0  0  0  0  0  0  0  0  0  0
  131.2661  132.3391  158.6712 C   0  0  0  0  0  0  0  0  0  0  0  0
  131.6098  130.8954  158.8932 C   0  0  0  0  0  0  0  0  0  0  0  0
  130.9160  130.0213  157.8461 C   0  0  0  0  0  0  0  0  0  0  0  0
  131.1827  130.6212  156.4598 C   0  0  0  0  0  0  0  0  0  0  0  0
  130.4524  131.9647  156.3686 C   0  0  0  0  0  0  0  0  0  0  0  0
  129.3323  136.5760  157.8089 H   0  0  0  0  0  0  0  0  0  0  0  0
  128.6933  135.7920  156.3442 H   0  0  0  0  0  0  0  0  0  0  0  0
  127.6524  135.9887  157.7747 H   0  0  0  0  0  0  0  0  0  0  0  0
  129.4329  133.4729  159.8626 H   0  0  0  0  0  0  0  0  0  0  0  0
  129.7642  135.2217  159.8635 H   0  0  0  0  0  0  0  0  0  0  0  0
  127.6647  136.8546  160.1141 H   0  0  0  0  0  0  0  0  0  0  0  0
  123.4856  134.2693  161.2955 H   0  0  0  0  0  0  0  0  0  0  0  0
  123.4330  131.8218  161.1608 H   0  0  0  0  0  0  0  0  0  0  0  0
  124.5650  129.9064  160.6775 H   0  0  0  0  0  0  0  0  0  0  0  0
  127.4953  131.7581  159.8411 H   0  0  0  0  0  0  0  0  0  0  0  0
  131.4443  133.0323  159.4800 H   0  0  0  0  0  0  0  0  0  0  0  0
  132.6891  130.7647  158.8152 H   0  0  0  0  0  0  0  0  0  0  0  0
  131.2828  130.5950  159.8886 H   0  0  0  0  0  0  0  0  0  0  0  0
  131.3170  129.0087  157.8903 H   0  0  0  0  0  0  0  0  0  0  0  0
  129.8436  129.9996  158.0393 H   0  0  0  0  0  0  0  0  0  0  0  0
  132.2538  130.7726  156.3258 H   0  0  0  0  0  0  0  0  0  0  0  0
  130.8057  129.9476  155.6903 H   0  0  0  0  0  0  0  0  0  0  0  0
  129.3772  131.7927  156.3211 H   0  0  0  0  0  0  0  0  0  0  0  0
  130.7728  132.4877  155.4675 H   0  0  0  0  0  0  0  0  0  0  0  0
  1  2  1  0
  1 25  1  0
  1 26  1  0
  1 27  1  0
  2  3  1  6
  2  4  1  0
  2 16  1  0
  4  5  1  0
  4 28  1  0
  4 29  1  0
  5 15  1  0
  5  6  2  0
  6  7  1  0
  6 30  1  0
  7  8  1  0
  7  9  1  0
  9 15  2  0
  9 10  1  0
 10 11  2  0
 10 31  1  0
 11 12  1  0
 11 32  1  0
 12 13  1  0
 12 14  2  0
 13 33  1  0
 14 15  1  0
 14 34  1  0
 16 17  1  0
 16 18  1  0
 16 19  1  0
 19 24  1  0
 19 20  2  0
 20 21  1  0
 20 35  1  0
 21 22  1  0
 21 36  1  0
 21 37  1  0
 22 23  1  0
 22 38  1  0
 22 39  1  0
 23 24  1  0
 23 40  1  0
 23 41  1  0
 24 42  1  0
 24 43  1  0
M  CHG  1  16   1
M  END
>  <DOCK_score>  (1) 
-47.073372

>  <SMILES>  (1) 
C[C@H](Cc1c[nH]c2ccc(O)cc12)[NH2+]C1=CCCCC1

$$$$
