CCc1ccc(-c2c[nH]c(N[C@@H](CCBr)c3ccc(F)cc3)[nH+]2)cc1
     RDKit          3D

 47 49  0  0  1  0  0  0  0  0999 V2000
  130.6578  128.3150  151.8161 C   0  0  0  0  0  0  0  0  0  0  0  0
  131.7312  129.3502  152.1572 C   0  0  0  0  0  0  0  0  0  0  0  0
  131.3261  130.1040  153.3977 C   0  0  0  0  0  0  0  0  0  0  0  0
  131.7080  129.6382  154.6424 C   0  0  0  0  0  0  0  0  0  0  0  0
  131.3439  130.3270  155.7816 C   0  0  0  0  0  0  0  0  0  0  0  0
  130.5808  131.4886  155.6764 C   0  0  0  0  0  0  0  0  0  0  0  0
  130.1821  132.2304  156.8974 C   0  0  0  0  0  0  0  0  0  0  0  0
  129.4395  131.7416  157.9214 C   0  0  0  0  0  0  0  0  0  0  0  0
  129.3089  132.7557  158.8388 N   0  0  0  0  0  0  0  0  0  0  0  0
  128.8294  132.7105  159.6807 H   0  0  0  0  0  0  0  0  0  0  0  0
  129.9762  133.8356  158.3481 C   0  0  0  0  0  0  0  0  0  0  0  0
  130.0864  135.0669  158.9712 N   0  0  0  0  0  0  0  0  0  0  0  0
  129.0156  135.5406  159.8517 C   0  0  1  0  0  0  0  0  0  0  0  0
  128.8858  134.8391  160.6758 H   0  0  0  0  0  0  0  0  0  0  0  0
  129.3840  136.9177  160.4075 C   0  0  0  0  0  0  0  0  0  0  0  0
  128.5622  137.1956  161.6677 C   0  0  0  0  0  0  0  0  0  0  0  0
  129.0355  138.9650  162.3820 Br  0  0  0  0  0  0  0  0  0  0  0  0
  127.7307  135.6416  159.0706 C   0  0  0  0  0  0  0  0  0  0  0  0
  126.5188  135.4474  159.7066 C   0  0  0  0  0  0  0  0  0  0  0  0
  125.3396  135.5453  158.9925 C   0  0  0  0  0  0  0  0  0  0  0  0
  125.3730  135.8273  157.6373 C   0  0  0  0  0  0  0  0  0  0  0  0
  124.2211  135.9178  156.9371 F   0  0  0  0  0  0  0  0  0  0  0  0
  126.5878  136.0160  157.0002 C   0  0  0  0  0  0  0  0  0  0  0  0
  127.7654  135.9227  157.7175 C   0  0  0  0  0  0  0  0  0  0  0  0
  130.5009  133.5163  157.1902 N   0  0  0  0  0  0  0  0  0  0  0  0
  131.0309  134.1057  156.6311 H   0  0  0  0  0  0  0  0  0  0  0  0
  130.1944  131.9507  154.4197 C   0  0  0  0  0  0  0  0  0  0  0  0
  130.5686  131.2567  153.2870 C   0  0  0  0  0  0  0  0  0  0  0  0
  129.7082  128.8202  151.6404 H   0  0  0  0  0  0  0  0  0  0  0  0
  130.9509  127.7698  150.9188 H   0  0  0  0  0  0  0  0  0  0  0  0
  130.5498  127.6170  152.6463 H   0  0  0  0  0  0  0  0  0  0  0  0
  132.6809  128.8455  152.3327 H   0  0  0  0  0  0  0  0  0  0  0  0
  131.8391  130.0488  151.3267 H   0  0  0  0  0  0  0  0  0  0  0  0
  132.2955  128.7355  154.7230 H   0  0  0  0  0  0  0  0  0  0  0  0
  131.6466  129.9645  156.7530 H   0  0  0  0  0  0  0  0  0  0  0  0
  129.0291  130.7458  158.0004 H   0  0  0  0  0  0  0  0  0  0  0  0
  130.8725  135.6159  158.8249 H   0  0  0  0  0  0  0  0  0  0  0  0
  130.4455  136.9378  160.6543 H   0  0  0  0  0  0  0  0  0  0  0  0
  129.1704  137.6807  159.6590 H   0  0  0  0  0  0  0  0  0  0  0  0
  127.5007  137.1755  161.4210 H   0  0  0  0  0  0  0  0  0  0  0  0
  128.7757  136.4326  162.4163 H   0  0  0  0  0  0  0  0  0  0  0  0
  126.4931  135.2231  160.7626 H   0  0  0  0  0  0  0  0  0  0  0  0
  124.3926  135.3983  159.4905 H   0  0  0  0  0  0  0  0  0  0  0  0
  126.6150  136.2357  155.9433 H   0  0  0  0  0  0  0  0  0  0  0  0
  128.7130  136.0699  157.2209 H   0  0  0  0  0  0  0  0  0  0  0  0
  129.6028  132.8501  154.3322 H   0  0  0  0  0  0  0  0  0  0  0  0
  130.2694  131.6137  152.3126 H   0  0  0  0  0  0  0  0  0  0  0  0
  1  2  1  0
  1 29  1  0
  1 30  1  0
  1 31  1  0
  2  3  1  0
  2 32  1  0
  2 33  1  0
  3 28  2  0
  3  4  1  0
  4  5  2  0
  4 34  1  0
  5  6  1  0
  5 35  1  0
  6  7  1  0
  6 27  2  0
  7 25  1  0
  7  8  2  0
  8  9  1  0
  8 36  1  0
  9 10  1  0
  9 11  1  0
 11 12  1  0
 11 25  2  0
 12 13  1  0
 12 37  1  0
 13 14  1  1
 13 15  1  0
 13 18  1  0
 15 16  1  0
 15 38  1  0
 15 39  1  0
 16 17  1  0
 16 40  1  0
 16 41  1  0
 18 24  1  0
 18 19  2  0
 19 20  1  0
 19 42  1  0
 20 21  2  0
 20 43  1  0
 21 22  1  0
 21 23  1  0
 23 24  2  0
 23 44  1  0
 24 45  1  0
 25 26  1  0
 27 28  1  0
 27 46  1  0
 28 47  1  0
M  CHG  1  25   1
M  END
>  <DOCK_score>  (1) 
-59.465763

>  <SMILES>  (1) 
CCc1ccc(-c2c[nH]c(N[C@@H](CCBr)c3ccc(F)cc3)[nH+]2)cc1

$$$$
