O=C1CC[C@H](NC(NC2CCc3ccccc3C2)=[NH+][C@H]2COc3cc(Cl)ccc3C2)CN1
     RDKit          3D

 62 66  0  0  1  0  0  0  0  0999 V2000
  124.5225  136.2793  164.6705 O   0  0  0  0  0  0  0  0  0  0  0  0
  125.6464  136.1903  164.2234 C   0  0  0  0  0  0  0  0  0  0  0  0
  126.7512  135.7800  165.1540 C   0  0  0  0  0  0  0  0  0  0  0  0
  128.1076  136.1425  164.5442 C   0  0  0  0  0  0  0  0  0  0  0  0
  128.1396  135.6351  163.0974 C   0  0  2  0  0  0  0  0  0  0  0  0
  127.8711  134.5790  163.0742 H   0  0  0  0  0  0  0  0  0  0  0  0
  129.4844  135.8124  162.5441 N   0  0  0  0  0  0  0  0  0  0  0  0
  129.7527  135.4262  161.2522 C   0  0  0  0  0  0  0  0  0  0  0  0
  130.7127  136.0869  160.5226 N   0  0  0  0  0  0  0  0  0  0  0  0
  131.4495  137.2023  161.1217 C   0  0  2  0  0  0  0  0  0  0  0  0
  130.4725  138.3206  161.5035 C   0  0  0  0  0  0  0  0  0  0  0  0
  131.2266  139.3556  162.3359 C   0  0  0  0  0  0  0  0  0  0  0  0
  132.4916  139.7782  161.6358 C   0  0  0  0  0  0  0  0  0  0  0  0
  133.0952  140.9595  162.0477 C   0  0  0  0  0  0  0  0  0  0  0  0
  134.2595  141.3969  161.4514 C   0  0  0  0  0  0  0  0  0  0  0  0
  134.8341  140.6514  160.4386 C   0  0  0  0  0  0  0  0  0  0  0  0
  134.2319  139.4821  160.0228 C   0  0  0  0  0  0  0  0  0  0  0  0
  133.0582  139.0411  160.6204 C   0  0  0  0  0  0  0  0  0  0  0  0
  132.4502  137.7603  160.1118 C   0  0  0  0  0  0  0  0  0  0  0  0
  129.0972  134.4338  160.7192 N   0  0  0  0  0  0  0  0  0  0  0  0
  128.1866  134.2485  160.9978 H   0  0  0  0  0  0  0  0  0  0  0  0
  129.7355  133.5979  159.6994 C   0  0  1  0  0  0  0  0  0  0  0  0
  130.8111  133.5639  159.8728 H   0  0  0  0  0  0  0  0  0  0  0  0
  129.1571  132.1782  159.7579 C   0  0  0  0  0  0  0  0  0  0  0  0
  129.8687  131.3629  158.8259 O   0  0  0  0  0  0  0  0  0  0  0  0
  130.0290  131.8348  157.5622 C   0  0  0  0  0  0  0  0  0  0  0  0
  130.3846  130.9386  156.5592 C   0  0  0  0  0  0  0  0  0  0  0  0
  130.5609  131.3808  155.2630 C   0  0  0  0  0  0  0  0  0  0  0  0
  131.0041  130.2585  154.0149 Cl  0  0  0  0  0  0  0  0  0  0  0  0
  130.3844  132.7196  154.9600 C   0  0  0  0  0  0  0  0  0  0  0  0
  130.0302  133.6108  155.9535 C   0  0  0  0  0  0  0  0  0  0  0  0
  129.8498  133.1722  157.2549 C   0  0  0  0  0  0  0  0  0  0  0  0
  129.4541  134.1743  158.3095 C   0  0  0  0  0  0  0  0  0  0  0  0
  127.1352  136.4417  162.2734 C   0  0  0  0  0  0  0  0  0  0  0  0
  125.8350  136.4622  162.9315 N   0  0  0  0  0  0  0  0  0  0  0  0
  126.7046  134.7035  165.3192 H   0  0  0  0  0  0  0  0  0  0  0  0
  126.6329  136.2964  166.1066 H   0  0  0  0  0  0  0  0  0  0  0  0
  128.9055  135.6697  165.1167 H   0  0  0  0  0  0  0  0  0  0  0  0
  128.2387  137.2244  164.5566 H   0  0  0  0  0  0  0  0  0  0  0  0
  130.1856  136.2025  163.0892 H   0  0  0  0  0  0  0  0  0  0  0  0
  130.9021  135.8143  159.6112 H   0  0  0  0  0  0  0  0  0  0  0  0
  131.9782  136.8577  162.0104 H   0  0  0  0  0  0  0  0  0  0  0  0
  129.6512  137.9067  162.0885 H   0  0  0  0  0  0  0  0  0  0  0  0
  130.0808  138.7899  160.6010 H   0  0  0  0  0  0  0  0  0  0  0  0
  131.4787  138.9236  163.3043 H   0  0  0  0  0  0  0  0  0  0  0  0
  130.5907  140.2280  162.4868 H   0  0  0  0  0  0  0  0  0  0  0  0
  132.6493  141.5402  162.8418 H   0  0  0  0  0  0  0  0  0  0  0  0
  134.7229  142.3163  161.7772 H   0  0  0  0  0  0  0  0  0  0  0  0
  135.7489  140.9854  159.9721 H   0  0  0  0  0  0  0  0  0  0  0  0
  134.6793  138.9024  159.2289 H   0  0  0  0  0  0  0  0  0  0  0  0
  131.9389  137.9548  159.1691 H   0  0  0  0  0  0  0  0  0  0  0  0
  133.2406  137.0280  159.9469 H   0  0  0  0  0  0  0  0  0  0  0  0
  129.2754  131.7749  160.7636 H   0  0  0  0  0  0  0  0  0  0  0  0
  128.0999  132.2014  159.4931 H   0  0  0  0  0  0  0  0  0  0  0  0
  130.5230  129.8938  156.7951 H   0  0  0  0  0  0  0  0  0  0  0  0
  130.5238  133.0673  153.9469 H   0  0  0  0  0  0  0  0  0  0  0  0
  129.8930  134.6551  155.7145 H   0  0  0  0  0  0  0  0  0  0  0  0
  128.3910  134.3970  158.2176 H   0  0  0  0  0  0  0  0  0  0  0  0
  130.0291  135.0902  158.1734 H   0  0  0  0  0  0  0  0  0  0  0  0
  127.4987  137.4632  162.1617 H   0  0  0  0  0  0  0  0  0  0  0  0
  127.0326  135.9892  161.2870 H   0  0  0  0  0  0  0  0  0  0  0  0
  125.0581  136.6880  162.3965 H   0  0  0  0  0  0  0  0  0  0  0  0
  1  2  2  0
  2 35  1  0
  2  3  1  0
  3  4  1  0
  3 36  1  0
  3 37  1  0
  4  5  1  0
  4 38  1  0
  4 39  1  0
  5  6  1  1
  5  7  1  0
  5 34  1  0
  7 40  1  0
  8  7  1  0
  8  9  1  0
  8 20  2  0
  9 10  1  0
  9 41  1  0
 10 19  1  0
 10 11  1  0
 10 42  1  1
 11 12  1  0
 11 43  1  0
 11 44  1  0
 12 13  1  0
 12 45  1  0
 12 46  1  0
 13 18  2  0
 13 14  1  0
 14 15  2  0
 14 47  1  0
 15 16  1  0
 15 48  1  0
 16 17  2  0
 16 49  1  0
 17 18  1  0
 17 50  1  0
 18 19  1  0
 19 51  1  0
 19 52  1  0
 20 21  1  0
 20 22  1  0
 22 23  1  1
 22 33  1  0
 22 24  1  0
 24 25  1  0
 24 53  1  0
 24 54  1  0
 25 26  1  0
 26 32  2  0
 26 27  1  0
 27 28  2  0
 27 55  1  0
 28 29  1  0
 28 30  1  0
 30 31  2  0
 30 56  1  0
 31 32  1  0
 31 57  1  0
 32 33  1  0
 33 58  1  0
 33 59  1  0
 34 35  1  0
 34 60  1  0
 34 61  1  0
 35 62  1  0
M  CHG  1  20   1
M  END
>  <DOCK_score>  (1) 
-47.184357

>  <SMILES>  (1) 
O=C1CC[C@H](NC(NC2CCc3ccccc3C2)=[NH+][C@H]2COc3cc(Cl)ccc3C2)CN1

$$$$
