[NH3+][C@@H](C=C1CC(n2cccn2)C1)C(=O)Nc1cccc(O)c1
     RDKit          3D

 41 43  0  0  1  0  0  0  0  0999 V2000
  130.5509  133.6561  158.0290 N   0  0  0  0  0  0  0  0  0  0  0  0
  129.8788  133.7374  157.2807 H   0  0  0  0  0  0  0  0  0  0  0  0
  131.4223  134.0788  157.7459 H   0  0  0  0  0  0  0  0  0  0  0  0
  130.7030  132.6812  158.2399 H   0  0  0  0  0  0  0  0  0  0  0  0
  130.0392  134.3416  159.2233 C   0  0  1  0  0  0  0  0  0  0  0  0
  130.7651  134.2537  160.0315 H   0  0  0  0  0  0  0  0  0  0  0  0
  129.8120  135.7976  158.9080 C   0  0  0  0  0  0  0  0  0  0  0  0
  130.4543  136.7210  159.5796 C   0  0  0  0  0  0  0  0  0  0  0  0
  131.4639  136.7520  160.7073 C   0  0  0  0  0  0  0  0  0  0  0  0
  131.9331  138.1096  160.1529 C   0  0  0  0  0  0  0  0  0  0  0  0
  132.2398  139.0955  161.1921 N   0  0  0  0  0  0  0  0  0  0  0  0
  132.6955  138.8251  162.4332 C   0  0  0  0  0  0  0  0  0  0  0  0
  132.8552  140.0031  163.0797 C   0  0  0  0  0  0  0  0  0  0  0  0
  132.4752  141.0279  162.2069 C   0  0  0  0  0  0  0  0  0  0  0  0
  132.1061  140.4850  161.0752 N   0  0  0  0  0  0  0  0  0  0  0  0
  130.5130  138.2340  159.5789 C   0  0  0  0  0  0  0  0  0  0  0  0
  128.7378  133.7101  159.6460 C   0  0  0  0  0  0  0  0  0  0  0  0
  128.7028  132.5351  159.9449 O   0  0  0  0  0  0  0  0  0  0  0  0
  127.6129  134.4509  159.6918 N   0  0  0  0  0  0  0  0  0  0  0  0
  126.4046  133.8646  160.0843 C   0  0  0  0  0  0  0  0  0  0  0  0
  126.1719  132.5178  159.8351 C   0  0  0  0  0  0  0  0  0  0  0  0
  124.9795  131.9388  160.2234 C   0  0  0  0  0  0  0  0  0  0  0  0
  124.0172  132.6958  160.8647 C   0  0  0  0  0  0  0  0  0  0  0  0
  124.2419  134.0428  161.1110 C   0  0  0  0  0  0  0  0  0  0  0  0
  123.2927  134.7871  161.7371 O   0  0  0  0  0  0  0  0  0  0  0  0
  125.4376  134.6274  160.7233 C   0  0  0  0  0  0  0  0  0  0  0  0
  129.1198  136.0797  158.1286 H   0  0  0  0  0  0  0  0  0  0  0  0
  131.0107  136.8185  161.6964 H   0  0  0  0  0  0  0  0  0  0  0  0
  132.2177  135.9677  160.6389 H   0  0  0  0  0  0  0  0  0  0  0  0
  132.7104  138.0342  159.3923 H   0  0  0  0  0  0  0  0  0  0  0  0
  132.8989  137.8444  162.8373 H   0  0  0  0  0  0  0  0  0  0  0  0
  133.2091  140.1294  164.0921 H   0  0  0  0  0  0  0  0  0  0  0  0
  132.4844  142.0849  162.4290 H   0  0  0  0  0  0  0  0  0  0  0  0
  130.4832  138.6707  158.5806 H   0  0  0  0  0  0  0  0  0  0  0  0
  129.8038  138.6978  160.2643 H   0  0  0  0  0  0  0  0  0  0  0  0
  127.6409  135.3905  159.4528 H   0  0  0  0  0  0  0  0  0  0  0  0
  126.9238  131.9231  159.3378 H   0  0  0  0  0  0  0  0  0  0  0  0
  124.8004  130.8915  160.0291 H   0  0  0  0  0  0  0  0  0  0  0  0
  123.0876  132.2393  161.1711 H   0  0  0  0  0  0  0  0  0  0  0  0
  123.5398  135.7133  161.8642 H   0  0  0  0  0  0  0  0  0  0  0  0
  125.6159  135.6747  160.9179 H   0  0  0  0  0  0  0  0  0  0  0  0
  1  2  1  0
  1  3  1  0
  1  4  1  0
  1  5  1  0
  5  6  1  1
  5  7  1  0
  5 17  1  0
  7  8  2  0
  7 27  1  0
  8 16  1  0
  8  9  1  0
  9 10  1  0
  9 28  1  0
  9 29  1  0
 10 11  1  0
 10 16  1  0
 10 30  1  0
 11 15  1  0
 11 12  1  0
 12 13  2  0
 12 31  1  0
 13 14  1  0
 13 32  1  0
 14 15  2  0
 14 33  1  0
 16 34  1  0
 16 35  1  0
 17 18  2  0
 17 19  1  0
 19 20  1  0
 19 36  1  0
 20 26  1  0
 20 21  2  0
 21 22  1  0
 21 37  1  0
 22 23  2  0
 22 38  1  0
 23 24  1  0
 23 39  1  0
 24 25  1  0
 24 26  2  0
 25 40  1  0
 26 41  1  0
M  CHG  1   1   1
M  END
>  <DOCK_score>  (1) 
-41.890663

>  <SMILES>  (1) 
[NH3+][C@@H](C=C1CC(n2cccn2)C1)C(=O)Nc1cccc(O)c1

$$$$
