Cc1ccccc1CNC(N[C@H]1C[C@@H](O)C1)=[NH+]Cc1ccnn1C
     RDKit          3D

 50 52  0  0  1  0  0  0  0  0999 V2000
  130.1817  139.2918  161.0204 C   0  0  0  0  0  0  0  0  0  0  0  0
  131.5863  138.8428  160.7098 C   0  0  0  0  0  0  0  0  0  0  0  0
  132.5652  139.7784  160.4307 C   0  0  0  0  0  0  0  0  0  0  0  0
  133.8523  139.3663  160.1407 C   0  0  0  0  0  0  0  0  0  0  0  0
  134.1617  138.0188  160.1340 C   0  0  0  0  0  0  0  0  0  0  0  0
  133.1844  137.0839  160.4182 C   0  0  0  0  0  0  0  0  0  0  0  0
  131.8970  137.4961  160.7088 C   0  0  0  0  0  0  0  0  0  0  0  0
  130.8311  136.4767  161.0183 C   0  0  0  0  0  0  0  0  0  0  0  0
  130.1658  136.0736  159.7769 N   0  0  0  0  0  0  0  0  0  0  0  0
  129.1516  135.1460  159.8104 C   0  0  0  0  0  0  0  0  0  0  0  0
  128.3486  135.0453  160.9217 N   0  0  0  0  0  0  0  0  0  0  0  0
  127.2679  134.0568  160.9573 C   0  0  1  0  0  0  0  0  0  0  0  0
  127.6266  133.0334  160.8475 H   0  0  0  0  0  0  0  0  0  0  0  0
  126.2980  134.2466  162.1355 C   0  0  0  0  0  0  0  0  0  0  0  0
  125.1643  133.9000  161.1560 C   0  0  1  0  0  0  0  0  0  0  0  0
  124.9468  132.8334  161.0995 H   0  0  0  0  0  0  0  0  0  0  0  0
  123.9921  134.6981  161.3315 O   0  0  0  0  0  0  0  0  0  0  0  0
  126.0879  134.4005  160.0329 C   0  0  0  0  0  0  0  0  0  0  0  0
  128.9514  134.3620  158.7885 N   0  0  0  0  0  0  0  0  0  0  0  0
  128.2359  133.7076  158.8122 H   0  0  0  0  0  0  0  0  0  0  0  0
  129.8108  134.4653  157.6065 C   0  0  0  0  0  0  0  0  0  0  0  0
  129.9138  133.1171  156.9411 C   0  0  0  0  0  0  0  0  0  0  0  0
  129.8194  132.8733  155.6135 C   0  0  0  0  0  0  0  0  0  0  0  0
  129.9706  131.4967  155.4167 C   0  0  0  0  0  0  0  0  0  0  0  0
  130.1495  130.9343  156.5845 N   0  0  0  0  0  0  0  0  0  0  0  0
  130.1227  131.9372  157.5622 N   0  0  0  0  0  0  0  0  0  0  0  0
  130.2890  131.7398  159.0042 C   0  0  0  0  0  0  0  0  0  0  0  0
  130.0810  139.4542  162.0936 H   0  0  0  0  0  0  0  0  0  0  0  0
  129.9719  140.2213  160.4911 H   0  0  0  0  0  0  0  0  0  0  0  0
  129.4761  138.5247  160.7013 H   0  0  0  0  0  0  0  0  0  0  0  0
  132.3235  140.8310  160.4355 H   0  0  0  0  0  0  0  0  0  0  0  0
  134.6161  140.0969  159.9189 H   0  0  0  0  0  0  0  0  0  0  0  0
  135.1674  137.6968  159.9070 H   0  0  0  0  0  0  0  0  0  0  0  0
  133.4261  136.0313  160.4130 H   0  0  0  0  0  0  0  0  0  0  0  0
  130.0988  136.9116  161.6984 H   0  0  0  0  0  0  0  0  0  0  0  0
  131.2877  135.6041  161.4857 H   0  0  0  0  0  0  0  0  0  0  0  0
  130.4409  136.4611  158.9312 H   0  0  0  0  0  0  0  0  0  0  0  0
  128.4973  135.6288  161.6821 H   0  0  0  0  0  0  0  0  0  0  0  0
  126.4278  133.5123  162.9305 H   0  0  0  0  0  0  0  0  0  0  0  0
  126.2567  135.2707  162.5064 H   0  0  0  0  0  0  0  0  0  0  0  0
  124.1403  135.6461  161.2125 H   0  0  0  0  0  0  0  0  0  0  0  0
  125.9892  135.4667  159.8289 H   0  0  0  0  0  0  0  0  0  0  0  0
  126.0482  133.7905  159.1304 H   0  0  0  0  0  0  0  0  0  0  0  0
  129.3825  135.1835  156.9075 H   0  0  0  0  0  0  0  0  0  0  0  0
  130.8039  134.7988  157.9075 H   0  0  0  0  0  0  0  0  0  0  0  0
  129.6556  133.6112  154.8421 H   0  0  0  0  0  0  0  0  0  0  0  0
  129.9437  130.9863  154.4654 H   0  0  0  0  0  0  0  0  0  0  0  0
  129.3153  131.5635  159.4613 H   0  0  0  0  0  0  0  0  0  0  0  0
  130.9346  130.8795  159.1811 H   0  0  0  0  0  0  0  0  0  0  0  0
  130.7408  132.6294  159.4429 H   0  0  0  0  0  0  0  0  0  0  0  0
  1  2  1  0
  1 28  1  0
  1 29  1  0
  1 30  1  0
  2  7  2  0
  2  3  1  0
  3  4  2  0
  3 31  1  0
  4  5  1  0
  4 32  1  0
  5  6  2  0
  5 33  1  0
  6  7  1  0
  6 34  1  0
  7  8  1  0
  8  9  1  0
  8 35  1  0
  8 36  1  0
  9 37  1  0
 10  9  1  0
 10 11  1  0
 10 19  2  0
 11 12  1  0
 11 38  1  0
 12 13  1  6
 12 18  1  0
 12 14  1  0
 14 15  1  0
 14 39  1  0
 14 40  1  0
 15 16  1  6
 15 17  1  0
 15 18  1  0
 17 41  1  0
 18 42  1  0
 18 43  1  0
 19 20  1  0
 19 21  1  0
 21 22  1  0
 21 44  1  0
 21 45  1  0
 22 26  1  0
 22 23  2  0
 23 24  1  0
 23 46  1  0
 24 25  2  0
 24 47  1  0
 25 26  1  0
 26 27  1  0
 27 48  1  0
 27 49  1  0
 27 50  1  0
M  CHG  1  19   1
M  END
>  <DOCK_score>  (1) 
-46.987167

>  <SMILES>  (1) 
Cc1ccccc1CNC(N[C@H]1C[C@@H](O)C1)=[NH+]Cc1ccnn1C

$$$$
