C[C@@H](Cc1ccc(-c2ccccc2)cc1)Nc1[nH]cc(-c2cccc(O)c2)[nH+]1
     RDKit          3D

 52 55  0  0  1  0  0  0  0  0999 V2000
  130.4075  135.1142  161.8355 C   0  0  0  0  0  0  0  0  0  0  0  0
  129.4283  135.5524  160.7446 C   0  0  1  0  0  0  0  0  0  0  0  0
  128.5222  134.9495  160.8062 H   0  0  0  0  0  0  0  0  0  0  0  0
  129.0736  137.0277  160.9402 C   0  0  0  0  0  0  0  0  0  0  0  0
  130.3263  137.8611  160.8548 C   0  0  0  0  0  0  0  0  0  0  0  0
  130.7397  138.3607  159.6331 C   0  0  0  0  0  0  0  0  0  0  0  0
  131.8865  139.1241  159.5491 C   0  0  0  0  0  0  0  0  0  0  0  0
  132.6281  139.3914  160.6981 C   0  0  0  0  0  0  0  0  0  0  0  0
  133.8621  140.2111  160.6140 C   0  0  0  0  0  0  0  0  0  0  0  0
  134.2571  140.9935  161.6971 C   0  0  0  0  0  0  0  0  0  0  0  0
  135.4055  141.7544  161.6133 C   0  0  0  0  0  0  0  0  0  0  0  0
  136.1640  141.7412  160.4565 C   0  0  0  0  0  0  0  0  0  0  0  0
  135.7738  140.9704  159.3764 C   0  0  0  0  0  0  0  0  0  0  0  0
  134.6300  140.2016  159.4512 C   0  0  0  0  0  0  0  0  0  0  0  0
  132.2098  138.8812  161.9254 C   0  0  0  0  0  0  0  0  0  0  0  0
  131.0587  138.1234  161.9986 C   0  0  0  0  0  0  0  0  0  0  0  0
  130.0480  135.3693  159.4298 N   0  0  0  0  0  0  0  0  0  0  0  0
  129.9008  134.1688  158.7562 C   0  0  0  0  0  0  0  0  0  0  0  0
  129.2130  133.0852  159.2088 N   0  0  0  0  0  0  0  0  0  0  0  0
  128.7415  133.0157  160.0536 H   0  0  0  0  0  0  0  0  0  0  0  0
  129.3071  132.1090  158.2468 C   0  0  0  0  0  0  0  0  0  0  0  0
  130.0557  132.6208  157.2387 C   0  0  0  0  0  0  0  0  0  0  0  0
  130.4270  131.9207  155.9848 C   0  0  0  0  0  0  0  0  0  0  0  0
  131.1705  130.7424  156.0357 C   0  0  0  0  0  0  0  0  0  0  0  0
  131.5101  130.0900  154.8679 C   0  0  0  0  0  0  0  0  0  0  0  0
  131.1239  130.6072  153.6452 C   0  0  0  0  0  0  0  0  0  0  0  0
  130.3885  131.7828  153.5854 C   0  0  0  0  0  0  0  0  0  0  0  0
  130.0118  132.2881  152.3812 O   0  0  0  0  0  0  0  0  0  0  0  0
  130.0387  132.4415  154.7527 C   0  0  0  0  0  0  0  0  0  0  0  0
  130.4054  133.8864  157.5800 N   0  0  0  0  0  0  0  0  0  0  0  0
  130.9435  134.4863  157.0401 H   0  0  0  0  0  0  0  0  0  0  0  0
  131.3136  135.7170  161.7738 H   0  0  0  0  0  0  0  0  0  0  0  0
  129.9464  135.2504  162.8136 H   0  0  0  0  0  0  0  0  0  0  0  0
  130.6602  134.0631  161.6960 H   0  0  0  0  0  0  0  0  0  0  0  0
  128.6125  137.1640  161.9184 H   0  0  0  0  0  0  0  0  0  0  0  0
  128.3759  137.3398  160.1630 H   0  0  0  0  0  0  0  0  0  0  0  0
  130.1640  138.1532  158.7432 H   0  0  0  0  0  0  0  0  0  0  0  0
  132.2082  139.5139  158.5947 H   0  0  0  0  0  0  0  0  0  0  0  0
  133.6654  141.0048  162.6006 H   0  0  0  0  0  0  0  0  0  0  0  0
  135.7127  142.3609  162.4523 H   0  0  0  0  0  0  0  0  0  0  0  0
  137.0618  142.3383  160.3951 H   0  0  0  0  0  0  0  0  0  0  0  0
  136.3675  140.9668  158.4742 H   0  0  0  0  0  0  0  0  0  0  0  0
  134.3283  139.5972  158.6086 H   0  0  0  0  0  0  0  0  0  0  0  0
  132.7832  139.0819  162.8184 H   0  0  0  0  0  0  0  0  0  0  0  0
  130.7312  137.7308  162.9500 H   0  0  0  0  0  0  0  0  0  0  0  0
  130.5617  136.0892  159.0312 H   0  0  0  0  0  0  0  0  0  0  0  0
  128.8716  131.1215  158.2876 H   0  0  0  0  0  0  0  0  0  0  0  0
  131.4773  130.3382  156.9891 H   0  0  0  0  0  0  0  0  0  0  0  0
  132.0825  129.1750  154.9090 H   0  0  0  0  0  0  0  0  0  0  0  0
  131.3957  130.0952  152.7340 H   0  0  0  0  0  0  0  0  0  0  0  0
  130.3021  131.7598  151.6250 H   0  0  0  0  0  0  0  0  0  0  0  0
  129.4668  133.3564  154.7077 H   0  0  0  0  0  0  0  0  0  0  0  0
  1  2  1  0
  1 32  1  0
  1 33  1  0
  1 34  1  0
  2  3  1  6
  2  4  1  0
  2 17  1  0
  4  5  1  0
  4 35  1  0
  4 36  1  0
  5 16  1  0
  5  6  2  0
  6  7  1  0
  6 37  1  0
  7  8  2  0
  7 38  1  0
  8  9  1  0
  8 15  1  0
  9 14  1  0
  9 10  2  0
 10 11  1  0
 10 39  1  0
 11 12  2  0
 11 40  1  0
 12 13  1  0
 12 41  1  0
 13 14  2  0
 13 42  1  0
 14 43  1  0
 15 16  2  0
 15 44  1  0
 16 45  1  0
 17 46  1  0
 18 17  1  0
 18 30  2  0
 18 19  1  0
 19 20  1  0
 19 21  1  0
 21 22  2  0
 21 47  1  0
 22 23  1  0
 22 30  1  0
 23 29  1  0
 23 24  2  0
 24 25  1  0
 24 48  1  0
 25 26  2  0
 25 49  1  0
 26 27  1  0
 26 50  1  0
 27 28  1  0
 27 29  2  0
 28 51  1  0
 29 52  1  0
 30 31  1  0
M  CHG  1  30   1
M  END
>  <DOCK_score>  (1) 
-57.551758

>  <SMILES>  (1) 
C[C@@H](Cc1ccc(-c2ccccc2)cc1)Nc1[nH]cc(-c2cccc(O)c2)[nH+]1

$$$$
