OC[C@H]1C[C@@H](Nc2ccc(-c3n[nH]cc3C[NH2+]Cc3cccc(C4CC4)c3)o2)C1
     RDKit          3D

 58 62  0  0  1  0  0  0  0  0999 V2000
  126.1587  139.7083  166.0977 O   0  0  0  0  0  0  0  0  0  0  0  0
  126.6682  138.4043  165.8115 C   0  0  0  0  0  0  0  0  0  0  0  0
  127.2047  138.3695  164.3790 C   0  0  1  0  0  0  0  0  0  0  0  0
  128.0095  139.0852  164.2110 H   0  0  0  0  0  0  0  0  0  0  0  0
  127.5254  136.9523  163.8755 C   0  0  0  0  0  0  0  0  0  0  0  0
  126.9300  137.3824  162.5245 C   0  0  1  0  0  0  0  0  0  0  0  0
  127.6594  137.8271  161.8476 H   0  0  0  0  0  0  0  0  0  0  0  0
  126.1181  136.3446  161.8840 N   0  0  0  0  0  0  0  0  0  0  0  0
  126.7114  135.4352  161.0161 C   0  0  0  0  0  0  0  0  0  0  0  0
  126.0739  134.4321  160.3625 C   0  0  0  0  0  0  0  0  0  0  0  0
  127.0443  133.7621  159.5914 C   0  0  0  0  0  0  0  0  0  0  0  0
  128.2293  134.3871  159.8203 C   0  0  0  0  0  0  0  0  0  0  0  0
  129.5300  134.0222  159.2217 C   0  0  0  0  0  0  0  0  0  0  0  0
  129.7450  133.0358  158.3736 N   0  0  0  0  0  0  0  0  0  0  0  0
  131.1078  133.0297  158.0506 N   0  0  0  0  0  0  0  0  0  0  0  0
  131.5467  132.4100  157.4469 H   0  0  0  0  0  0  0  0  0  0  0  0
  131.7046  134.0396  158.7204 C   0  0  0  0  0  0  0  0  0  0  0  0
  130.7624  134.6676  159.4560 C   0  0  0  0  0  0  0  0  0  0  0  0
  130.9865  135.8513  160.3612 C   0  0  0  0  0  0  0  0  0  0  0  0
  130.8120  137.0931  159.5961 N   0  0  0  0  0  0  0  0  0  0  0  0
  129.8757  137.1286  159.2215 H   0  0  0  0  0  0  0  0  0  0  0  0
  131.4783  137.1180  158.8388 H   0  0  0  0  0  0  0  0  0  0  0  0
  131.0304  138.2470  160.4785 C   0  0  0  0  0  0  0  0  0  0  0  0
  132.4287  138.1940  161.0379 C   0  0  0  0  0  0  0  0  0  0  0  0
  132.6732  137.5316  162.2265 C   0  0  0  0  0  0  0  0  0  0  0  0
  133.9558  137.4829  162.7395 C   0  0  0  0  0  0  0  0  0  0  0  0
  134.9940  138.0959  162.0642 C   0  0  0  0  0  0  0  0  0  0  0  0
  134.7499  138.7588  160.8755 C   0  0  0  0  0  0  0  0  0  0  0  0
  135.8819  139.4275  160.1390 C   0  0  0  0  0  0  0  0  0  0  0  0
  136.7728  140.3853  160.9325 C   0  0  0  0  0  0  0  0  0  0  0  0
  135.7800  140.9364  159.9071 C   0  0  0  0  0  0  0  0  0  0  0  0
  133.4669  138.8073  160.3623 C   0  0  0  0  0  0  0  0  0  0  0  0
  128.0131  135.4017  160.6837 O   0  0  0  0  0  0  0  0  0  0  0  0
  126.1028  138.4160  163.3072 C   0  0  0  0  0  0  0  0  0  0  0  0
  126.8166  140.4130  166.0221 H   0  0  0  0  0  0  0  0  0  0  0  0
  125.8693  137.6707  165.9180 H   0  0  0  0  0  0  0  0  0  0  0  0
  127.4736  138.1682  166.5069 H   0  0  0  0  0  0  0  0  0  0  0  0
  126.9531  136.1712  164.3761 H   0  0  0  0  0  0  0  0  0  0  0  0
  128.5927  136.7352  163.8330 H   0  0  0  0  0  0  0  0  0  0  0  0
  125.1667  136.2922  162.0654 H   0  0  0  0  0  0  0  0  0  0  0  0
  125.0220  134.1945  160.4193 H   0  0  0  0  0  0  0  0  0  0  0  0
  126.8786  132.9135  158.9443 H   0  0  0  0  0  0  0  0  0  0  0  0
  132.7523  134.2979  158.6772 H   0  0  0  0  0  0  0  0  0  0  0  0
  131.9979  135.8131  160.7659 H   0  0  0  0  0  0  0  0  0  0  0  0
  130.2667  135.8246  161.1793 H   0  0  0  0  0  0  0  0  0  0  0  0
  130.3107  138.2202  161.2965 H   0  0  0  0  0  0  0  0  0  0  0  0
  130.9010  139.1684  159.9107 H   0  0  0  0  0  0  0  0  0  0  0  0
  131.8619  137.0523  162.7543 H   0  0  0  0  0  0  0  0  0  0  0  0
  134.1466  136.9657  163.6682 H   0  0  0  0  0  0  0  0  0  0  0  0
  135.9962  138.0576  162.4651 H   0  0  0  0  0  0  0  0  0  0  0  0
  136.3542  138.8293  159.3598 H   0  0  0  0  0  0  0  0  0  0  0  0
  136.5402  140.5318  161.9873 H   0  0  0  0  0  0  0  0  0  0  0  0
  137.8316  140.4173  160.6756 H   0  0  0  0  0  0  0  0  0  0  0  0
  136.1857  141.3308  158.9756 H   0  0  0  0  0  0  0  0  0  0  0  0
  134.8941  141.4453  160.2869 H   0  0  0  0  0  0  0  0  0  0  0  0
  133.2769  139.3207  159.4314 H   0  0  0  0  0  0  0  0  0  0  0  0
  126.0216  139.3803  162.8058 H   0  0  0  0  0  0  0  0  0  0  0  0
  125.1416  138.0350  163.6524 H   0  0  0  0  0  0  0  0  0  0  0  0
  1  2  1  0
  1 35  1  0
  2  3  1  0
  2 36  1  0
  2 37  1  0
  3  4  1  6
  3 34  1  0
  3  5  1  0
  5  6  1  0
  5 38  1  0
  5 39  1  0
  6  7  1  6
  6  8  1  0
  6 34  1  0
  8  9  1  0
  8 40  1  0
  9 33  1  0
  9 10  2  0
 10 11  1  0
 10 41  1  0
 11 12  2  0
 11 42  1  0
 12 13  1  0
 12 33  1  0
 13 18  1  0
 13 14  2  0
 14 15  1  0
 15 16  1  0
 15 17  1  0
 17 18  2  0
 17 43  1  0
 18 19  1  0
 19 20  1  0
 19 44  1  0
 19 45  1  0
 20 21  1  0
 20 22  1  0
 20 23  1  0
 23 24  1  0
 23 46  1  0
 23 47  1  0
 24 32  1  0
 24 25  2  0
 25 26  1  0
 25 48  1  0
 26 27  2  0
 26 49  1  0
 27 28  1  0
 27 50  1  0
 28 29  1  0
 28 32  2  0
 29 31  1  0
 29 30  1  0
 29 51  1  0
 30 31  1  0
 30 52  1  0
 30 53  1  0
 31 54  1  0
 31 55  1  0
 32 56  1  0
 34 57  1  0
 34 58  1  0
M  CHG  1  20   1
M  END
>  <DOCK_score>  (1) 
-44.623108

>  <SMILES>  (1) 
OC[C@H]1C[C@@H](Nc2ccc(-c3n[nH]cc3C[NH2+]Cc3cccc(C4CC4)c3)o2)C1

$$$$
