O[C@H]1C=CC(Oc2cccc(NC3CC[NH+]4CCCCC34)c2)CC1
     RDKit          3D

 53 56  0  0  1  0  0  0  0  0999 V2000
  124.0401  134.3230  161.6424 O   0  0  0  0  0  0  0  0  0  0  0  0
  125.0426  133.6157  160.9099 C   0  0  1  0  0  0  0  0  0  0  0  0
  125.1909  134.0970  159.9432 H   0  0  0  0  0  0  0  0  0  0  0  0
  126.3306  133.6389  161.6798 C   0  0  0  0  0  0  0  0  0  0  0  0
  127.1122  132.6162  161.8169 C   0  0  0  0  0  0  0  0  0  0  0  0
  126.8344  131.2616  161.2339 C   0  0  2  0  0  0  0  0  0  0  0  0
  128.0378  130.7306  160.6751 O   0  0  0  0  0  0  0  0  0  0  0  0
  128.6232  131.4457  159.6787 C   0  0  0  0  0  0  0  0  0  0  0  0
  128.2772  131.2055  158.3560 C   0  0  0  0  0  0  0  0  0  0  0  0
  128.8710  131.9319  157.3417 C   0  0  0  0  0  0  0  0  0  0  0  0
  129.8111  132.8994  157.6402 C   0  0  0  0  0  0  0  0  0  0  0  0
  130.1612  133.1443  158.9622 C   0  0  0  0  0  0  0  0  0  0  0  0
  131.1109  134.1228  159.2644 N   0  0  0  0  0  0  0  0  0  0  0  0
  131.0361  134.8486  160.5347 C   0  0  1  0  0  0  0  0  0  0  0  0
  131.9539  134.1854  161.5938 C   0  0  0  0  0  0  0  0  0  0  0  0
  132.9462  135.3015  162.0173 C   0  0  0  0  0  0  0  0  0  0  0  0
  132.2193  136.5424  161.7057 N   0  0  1  0  0  0  0  0  0  0  0  0
  131.4956  136.6970  162.3918 H   0  0  0  0  0  0  0  0  0  0  0  0
  133.0478  137.7343  161.5825 C   0  0  0  0  0  0  0  0  0  0  0  0
  132.1196  138.9242  161.2970 C   0  0  0  0  0  0  0  0  0  0  0  0
  131.2910  138.6829  160.0356 C   0  0  0  0  0  0  0  0  0  0  0  0
  130.5588  137.3340  160.1207 C   0  0  0  0  0  0  0  0  0  0  0  0
  131.6066  136.2617  160.3798 C   0  0  2  0  0  0  0  0  0  0  0  0
  129.5653  132.4152  159.9825 C   0  0  0  0  0  0  0  0  0  0  0  0
  125.7702  131.3670  160.1394 C   0  0  0  0  0  0  0  0  0  0  0  0
  124.5862  132.1718  160.6897 C   0  0  0  0  0  0  0  0  0  0  0  0
  124.2564  135.2503  161.8105 H   0  0  0  0  0  0  0  0  0  0  0  0
  126.6234  134.5666  162.1490 H   0  0  0  0  0  0  0  0  0  0  0  0
  128.0206  132.7459  162.3865 H   0  0  0  0  0  0  0  0  0  0  0  0
  126.4768  130.5964  162.0199 H   0  0  0  0  0  0  0  0  0  0  0  0
  127.5431  130.4495  158.1194 H   0  0  0  0  0  0  0  0  0  0  0  0
  128.5998  131.7431  156.3135 H   0  0  0  0  0  0  0  0  0  0  0  0
  130.2737  133.4658  156.8455 H   0  0  0  0  0  0  0  0  0  0  0  0
  131.8200  134.3218  158.6331 H   0  0  0  0  0  0  0  0  0  0  0  0
  130.0069  134.8870  160.8915 H   0  0  0  0  0  0  0  0  0  0  0  0
  131.3666  133.8551  162.4507 H   0  0  0  0  0  0  0  0  0  0  0  0
  132.4911  133.3439  161.1565 H   0  0  0  0  0  0  0  0  0  0  0  0
  133.1608  135.2399  163.0842 H   0  0  0  0  0  0  0  0  0  0  0  0
  133.8667  135.2370  161.4373 H   0  0  0  0  0  0  0  0  0  0  0  0
  133.5939  137.9019  162.5108 H   0  0  0  0  0  0  0  0  0  0  0  0
  133.7497  137.6122  160.7576 H   0  0  0  0  0  0  0  0  0  0  0  0
  132.7202  139.8243  161.1648 H   0  0  0  0  0  0  0  0  0  0  0  0
  131.4495  139.0616  162.1456 H   0  0  0  0  0  0  0  0  0  0  0  0
  131.9501  138.6801  159.1676 H   0  0  0  0  0  0  0  0  0  0  0  0
  130.5588  139.4832  159.9279 H   0  0  0  0  0  0  0  0  0  0  0  0
  130.0459  137.1312  159.1806 H   0  0  0  0  0  0  0  0  0  0  0  0
  129.8392  137.3540  160.9392 H   0  0  0  0  0  0  0  0  0  0  0  0
  132.3723  136.2725  159.6042 H   0  0  0  0  0  0  0  0  0  0  0  0
  129.8325  132.6067  161.0113 H   0  0  0  0  0  0  0  0  0  0  0  0
  126.1874  131.8763  159.2707 H   0  0  0  0  0  0  0  0  0  0  0  0
  125.4352  130.3690  159.8568 H   0  0  0  0  0  0  0  0  0  0  0  0
  124.2602  131.7421  161.6369 H   0  0  0  0  0  0  0  0  0  0  0  0
  123.7627  132.1527  159.9760 H   0  0  0  0  0  0  0  0  0  0  0  0
  1  2  1  0
  1 27  1  0
  2  3  1  6
  2 26  1  0
  2  4  1  0
  4  5  2  0
  4 28  1  0
  5  6  1  0
  5 29  1  0
  6  7  1  0
  6 25  1  0
  6 30  1  1
  7  8  1  0
  8 24  1  0
  8  9  2  0
  9 10  1  0
  9 31  1  0
 10 11  2  0
 10 32  1  0
 11 12  1  0
 11 33  1  0
 12 13  1  0
 12 24  2  0
 13 14  1  0
 13 34  1  0
 14 23  1  0
 14 15  1  0
 14 35  1  1
 15 16  1  0
 15 36  1  0
 15 37  1  0
 16 17  1  0
 16 38  1  0
 16 39  1  0
 17 18  1  1
 17 23  1  0
 17 19  1  0
 19 20  1  0
 19 40  1  0
 19 41  1  0
 20 21  1  0
 20 42  1  0
 20 43  1  0
 21 22  1  0
 21 44  1  0
 21 45  1  0
 22 23  1  0
 22 46  1  0
 22 47  1  0
 23 48  1  6
 24 49  1  0
 25 26  1  0
 25 50  1  0
 25 51  1  0
 26 52  1  0
 26 53  1  0
M  CHG  1  17   1
M  END
>  <DOCK_score>  (1) 
-41.9641

>  <SMILES>  (1) 
O[C@H]1C=CC(Oc2cccc(NC3CC[NH+]4CCCCC34)c2)CC1

$$$$
