FC1(F)CC1CNc1ccc(-c2n[nH]cc2C[NH2+]CC2CC3C[C@@H]3C2)o1
     RDKit          3D

 51 55  0  0  1  0  0  0  0  0999 V2000
  127.7058  137.2750  166.7724 F   0  0  0  0  0  0  0  0  0  0  0  0
  127.2954  137.7422  165.5191 C   0  0  0  0  0  0  0  0  0  0  0  0
  127.9617  138.8802  165.0517 F   0  0  0  0  0  0  0  0  0  0  0  0
  125.8163  137.5909  165.1585 C   0  0  0  0  0  0  0  0  0  0  0  0
  126.8629  136.7017  164.4842 C   0  0  1  0  0  0  0  0  0  0  0  0
  127.1916  136.9855  163.0171 C   0  0  0  0  0  0  0  0  0  0  0  0
  126.3235  136.1775  162.1570 N   0  0  0  0  0  0  0  0  0  0  0  0
  126.8803  135.2623  161.2712 C   0  0  0  0  0  0  0  0  0  0  0  0
  126.2353  134.2089  160.7108 C   0  0  0  0  0  0  0  0  0  0  0  0
  127.1644  133.5529  159.8793 C   0  0  0  0  0  0  0  0  0  0  0  0
  128.3347  134.2366  159.9807 C   0  0  0  0  0  0  0  0  0  0  0  0
  129.5935  133.9061  159.2814 C   0  0  0  0  0  0  0  0  0  0  0  0
  129.7789  132.8990  158.4508 N   0  0  0  0  0  0  0  0  0  0  0  0
  131.1071  132.9398  158.0079 N   0  0  0  0  0  0  0  0  0  0  0  0
  131.5194  132.3177  157.3882 H   0  0  0  0  0  0  0  0  0  0  0  0
  131.7128  133.9984  158.5881 C   0  0  0  0  0  0  0  0  0  0  0  0
  130.8106  134.6124  159.3832 C   0  0  0  0  0  0  0  0  0  0  0  0
  131.0579  135.8378  160.2245 C   0  0  0  0  0  0  0  0  0  0  0  0
  132.4509  136.2732  160.0582 N   0  0  0  0  0  0  0  0  0  0  0  0
  133.0717  135.5335  160.3508 H   0  0  0  0  0  0  0  0  0  0  0  0
  132.6215  136.4913  159.0878 H   0  0  0  0  0  0  0  0  0  0  0  0
  132.6920  137.4678  160.8783 C   0  0  0  0  0  0  0  0  0  0  0  0
  134.1431  137.9213  160.7049 C   0  0  2  0  0  0  0  0  0  0  0  0
  134.5273  138.9579  161.7898 C   0  0  0  0  0  0  0  0  0  0  0  0
  135.6985  139.7435  161.1642 C   0  0  2  0  0  0  0  0  0  0  0  0
  135.3710  140.9612  160.2977 C   0  0  0  0  0  0  0  0  0  0  0  0
  135.5631  139.5937  159.6389 C   0  0  2  0  0  0  0  0  0  0  0  0
  136.4265  139.4289  158.9941 H   0  0  0  0  0  0  0  0  0  0  0  0
  134.3146  138.7224  159.3906 C   0  0  0  0  0  0  0  0  0  0  0  0
  128.1481  135.2726  160.8255 O   0  0  0  0  0  0  0  0  0  0  0  0
  125.3619  138.3782  164.5570 H   0  0  0  0  0  0  0  0  0  0  0  0
  125.1629  137.1274  165.8976 H   0  0  0  0  0  0  0  0  0  0  0  0
  126.8985  135.6531  164.7795 H   0  0  0  0  0  0  0  0  0  0  0  0
  128.2337  136.7320  162.8225 H   0  0  0  0  0  0  0  0  0  0  0  0
  127.0295  138.0427  162.8064 H   0  0  0  0  0  0  0  0  0  0  0  0
  125.3603  136.2812  162.2057 H   0  0  0  0  0  0  0  0  0  0  0  0
  125.2043  133.9286  160.8688 H   0  0  0  0  0  0  0  0  0  0  0  0
  126.9822  132.6746  159.2780 H   0  0  0  0  0  0  0  0  0  0  0  0
  132.7397  134.2997  158.4431 H   0  0  0  0  0  0  0  0  0  0  0  0
  130.8737  135.6022  161.2727 H   0  0  0  0  0  0  0  0  0  0  0  0
  130.3873  136.6370  159.9086 H   0  0  0  0  0  0  0  0  0  0  0  0
  132.0214  138.2670  160.5622 H   0  0  0  0  0  0  0  0  0  0  0  0
  132.5077  137.2322  161.9264 H   0  0  0  0  0  0  0  0  0  0  0  0
  134.8185  137.0662  160.7272 H   0  0  0  0  0  0  0  0  0  0  0  0
  133.6888  139.6231  161.9960 H   0  0  0  0  0  0  0  0  0  0  0  0
  134.8494  138.4546  162.7014 H   0  0  0  0  0  0  0  0  0  0  0  0
  136.6696  139.6841  161.6556 H   0  0  0  0  0  0  0  0  0  0  0  0
  136.1571  141.7026  160.1552 H   0  0  0  0  0  0  0  0  0  0  0  0
  134.3564  141.3563  160.3492 H   0  0  0  0  0  0  0  0  0  0  0  0
  134.4813  138.0472  158.5512 H   0  0  0  0  0  0  0  0  0  0  0  0
  133.4406  139.3477  159.2081 H   0  0  0  0  0  0  0  0  0  0  0  0
  1  2  1  0
  2  5  1  0
  2  3  1  0
  2  4  1  0
  4  5  1  0
  4 31  1  0
  4 32  1  0
  5  6  1  0
  5 33  1  1
  6  7  1  0
  6 34  1  0
  6 35  1  0
  7  8  1  0
  7 36  1  0
  8 30  1  0
  8  9  2  0
  9 10  1  0
  9 37  1  0
 10 11  2  0
 10 38  1  0
 11 12  1  0
 11 30  1  0
 12 17  1  0
 12 13  2  0
 13 14  1  0
 14 15  1  0
 14 16  1  0
 16 17  2  0
 16 39  1  0
 17 18  1  0
 18 19  1  0
 18 40  1  0
 18 41  1  0
 19 20  1  0
 19 21  1  0
 19 22  1  0
 22 23  1  0
 22 42  1  0
 22 43  1  0
 23 29  1  0
 23 24  1  0
 23 44  1  6
 24 25  1  0
 24 45  1  0
 24 46  1  0
 25 27  1  0
 25 26  1  0
 25 47  1  1
 26 27  1  0
 26 48  1  0
 26 49  1  0
 27 28  1  6
 27 29  1  0
 29 50  1  0
 29 51  1  0
M  CHG  1  19   1
M  END
>  <DOCK_score>  (1) 
-44.217548

>  <SMILES>  (1) 
FC1(F)CC1CNc1ccc(-c2n[nH]cc2C[NH2+]CC2CC3C[C@@H]3C2)o1

$$$$
