CCc1ccc(-c2c[nH]c(N[C@@H](Nc3cn(C)nc3C)c3ccccc3)[nH+]2)cc1
     RDKit          3D

 56 59  0  0  1  0  0  0  0  0999 V2000
  130.5807  128.3393  151.6786 C   0  0  0  0  0  0  0  0  0  0  0  0
  131.6742  129.3465  152.0398 C   0  0  0  0  0  0  0  0  0  0  0  0
  131.2842  130.0829  153.2955 C   0  0  0  0  0  0  0  0  0  0  0  0
  131.6576  129.5846  154.5302 C   0  0  0  0  0  0  0  0  0  0  0  0
  131.3081  130.2576  155.6834 C   0  0  0  0  0  0  0  0  0  0  0  0
  130.5677  131.4356  155.6023 C   0  0  0  0  0  0  0  0  0  0  0  0
  130.1843  132.1605  156.8384 C   0  0  0  0  0  0  0  0  0  0  0  0
  129.4332  131.6657  157.8533 C   0  0  0  0  0  0  0  0  0  0  0  0
  129.3223  132.6640  158.7904 N   0  0  0  0  0  0  0  0  0  0  0  0
  128.8424  132.6114  159.6317 H   0  0  0  0  0  0  0  0  0  0  0  0
  130.0096  133.7405  158.3204 C   0  0  0  0  0  0  0  0  0  0  0  0
  130.1438  134.9568  158.9677 N   0  0  0  0  0  0  0  0  0  0  0  0
  129.0831  135.4334  159.8587 C   0  0  1  0  0  0  0  0  0  0  0  0
  128.9406  134.7182  160.6689 H   0  0  0  0  0  0  0  0  0  0  0  0
  129.4615  136.7341  160.4164 N   0  0  0  0  0  0  0  0  0  0  0  0
  130.1818  136.7995  161.6246 C   0  0  0  0  0  0  0  0  0  0  0  0
  130.1206  135.9019  162.6406 C   0  0  0  0  0  0  0  0  0  0  0  0
  130.9657  136.3293  163.6164 N   0  0  0  0  0  0  0  0  0  0  0  0
  131.2134  135.6609  164.8963 C   0  0  0  0  0  0  0  0  0  0  0  0
  131.5576  137.5216  163.1804 N   0  0  0  0  0  0  0  0  0  0  0  0
  131.0939  137.8001  161.9888 C   0  0  0  0  0  0  0  0  0  0  0  0
  131.4730  138.9949  161.1521 C   0  0  0  0  0  0  0  0  0  0  0  0
  127.7998  135.5743  159.0815 C   0  0  0  0  0  0  0  0  0  0  0  0
  126.5847  135.3909  159.7145 C   0  0  0  0  0  0  0  0  0  0  0  0
  125.4073  135.5239  159.0024 C   0  0  0  0  0  0  0  0  0  0  0  0
  125.4453  135.8324  157.6554 C   0  0  0  0  0  0  0  0  0  0  0  0
  126.6607  136.0107  157.0212 C   0  0  0  0  0  0  0  0  0  0  0  0
  127.8378  135.8814  157.7342 C   0  0  0  0  0  0  0  0  0  0  0  0
  130.5282  133.4338  157.1564 N   0  0  0  0  0  0  0  0  0  0  0  0
  131.0693  134.0238  156.6087 H   0  0  0  0  0  0  0  0  0  0  0  0
  130.1892  131.9303  154.3555 C   0  0  0  0  0  0  0  0  0  0  0  0
  130.5492  131.2520  153.2087 C   0  0  0  0  0  0  0  0  0  0  0  0
  130.8627  127.8069  150.7703 H   0  0  0  0  0  0  0  0  0  0  0  0
  130.4597  127.6269  152.4946 H   0  0  0  0  0  0  0  0  0  0  0  0
  129.6409  128.8662  151.5139 H   0  0  0  0  0  0  0  0  0  0  0  0
  132.6138  128.8202  152.2040 H   0  0  0  0  0  0  0  0  0  0  0  0
  131.7950  130.0595  151.2233 H   0  0  0  0  0  0  0  0  0  0  0  0
  132.2272  128.6691  154.5921 H   0  0  0  0  0  0  0  0  0  0  0  0
  131.6042  129.8699  156.6469 H   0  0  0  0  0  0  0  0  0  0  0  0
  129.0040  130.6765  157.9131 H   0  0  0  0  0  0  0  0  0  0  0  0
  130.9404  135.4934  158.8314 H   0  0  0  0  0  0  0  0  0  0  0  0
  129.2160  137.5504  159.9534 H   0  0  0  0  0  0  0  0  0  0  0  0
  129.5115  135.0107  162.6691 H   0  0  0  0  0  0  0  0  0  0  0  0
  132.0401  134.9592  164.7859 H   0  0  0  0  0  0  0  0  0  0  0  0
  131.4668  136.4050  165.6516 H   0  0  0  0  0  0  0  0  0  0  0  0
  130.3176  135.1216  165.2041 H   0  0  0  0  0  0  0  0  0  0  0  0
  130.8013  139.8234  161.3763 H   0  0  0  0  0  0  0  0  0  0  0  0
  132.4984  139.2868  161.3791 H   0  0  0  0  0  0  0  0  0  0  0  0
  131.3937  138.7384  160.0957 H   0  0  0  0  0  0  0  0  0  0  0  0
  126.5550  135.1465  160.7661 H   0  0  0  0  0  0  0  0  0  0  0  0
  124.4578  135.3842  159.4978 H   0  0  0  0  0  0  0  0  0  0  0  0
  124.5255  135.9337  157.0985 H   0  0  0  0  0  0  0  0  0  0  0  0
  126.6903  136.2514  155.9688 H   0  0  0  0  0  0  0  0  0  0  0  0
  128.7873  136.0206  157.2387 H   0  0  0  0  0  0  0  0  0  0  0  0
  129.6153  132.8426  154.2868 H   0  0  0  0  0  0  0  0  0  0  0  0
  130.2562  131.6342  152.2420 H   0  0  0  0  0  0  0  0  0  0  0  0
  1  2  1  0
  1 33  1  0
  1 34  1  0
  1 35  1  0
  2  3  1  0
  2 36  1  0
  2 37  1  0
  3 32  2  0
  3  4  1  0
  4  5  2  0
  4 38  1  0
  5  6  1  0
  5 39  1  0
  6  7  1  0
  6 31  2  0
  7 29  1  0
  7  8  2  0
  8  9  1  0
  8 40  1  0
  9 10  1  0
  9 11  1  0
 11 12  1  0
 11 29  2  0
 12 13  1  0
 12 41  1  0
 13 14  1  1
 13 15  1  0
 13 23  1  0
 15 16  1  0
 15 42  1  0
 16 21  1  0
 16 17  2  0
 17 18  1  0
 17 43  1  0
 18 19  1  0
 18 20  1  0
 19 44  1  0
 19 45  1  0
 19 46  1  0
 20 21  2  0
 21 22  1  0
 22 47  1  0
 22 48  1  0
 22 49  1  0
 23 28  1  0
 23 24  2  0
 24 25  1  0
 24 50  1  0
 25 26  2  0
 25 51  1  0
 26 27  1  0
 26 52  1  0
 27 28  2  0
 27 53  1  0
 28 54  1  0
 29 30  1  0
 31 32  1  0
 31 55  1  0
 32 56  1  0
M  CHG  1  29   1
M  END
>  <DOCK_score>  (1) 
-58.435085

>  <SMILES>  (1) 
CCc1ccc(-c2c[nH]c(N[C@@H](Nc3cn(C)nc3C)c3ccccc3)[nH+]2)cc1

$$$$
