c1ccc(-c2ccc(CCNc3ccc(-c4n[nH]cc4C[NH2+]CC4CC4)o3)cc2)cc1
     RDKit          3D

 60 64  0  0  0  0  0  0  0  0999 V2000
  132.6755  142.7310  167.6431 C   0  0  0  0  0  0  0  0  0  0  0  0
  131.4080  142.3741  168.0642 C   0  0  0  0  0  0  0  0  0  0  0  0
  130.5804  141.6475  167.2323 C   0  0  0  0  0  0  0  0  0  0  0  0
  131.0246  141.2732  165.9659 C   0  0  0  0  0  0  0  0  0  0  0  0
  130.1394  140.4914  165.0672 C   0  0  0  0  0  0  0  0  0  0  0  0
  128.7564  140.6445  165.1417 C   0  0  0  0  0  0  0  0  0  0  0  0
  127.9378  139.9147  164.3038 C   0  0  0  0  0  0  0  0  0  0  0  0
  128.4880  139.0325  163.3914 C   0  0  0  0  0  0  0  0  0  0  0  0
  127.5890  138.2379  162.4794 C   0  0  0  0  0  0  0  0  0  0  0  0
  127.2158  136.9171  163.1556 C   0  0  0  0  0  0  0  0  0  0  0  0
  126.3420  136.1446  162.2691 N   0  0  0  0  0  0  0  0  0  0  0  0
  126.8919  135.2531  161.3553 C   0  0  0  0  0  0  0  0  0  0  0  0
  126.2402  134.2200  160.7657 C   0  0  0  0  0  0  0  0  0  0  0  0
  127.1646  133.5828  159.9145 C   0  0  0  0  0  0  0  0  0  0  0  0
  128.3392  134.2557  160.0351 C   0  0  0  0  0  0  0  0  0  0  0  0
  129.5963  133.9361  159.3274 C   0  0  0  0  0  0  0  0  0  0  0  0
  129.7773  132.9471  158.4745 N   0  0  0  0  0  0  0  0  0  0  0  0
  131.1045  132.9945  158.0293 N   0  0  0  0  0  0  0  0  0  0  0  0
  131.5133  132.3862  157.3940 H   0  0  0  0  0  0  0  0  0  0  0  0
  131.7182  134.0297  158.6423 C   0  0  0  0  0  0  0  0  0  0  0  0
  130.8180  134.6312  159.4490 C   0  0  0  0  0  0  0  0  0  0  0  0
  131.0727  135.8320  160.3233 C   0  0  0  0  0  0  0  0  0  0  0  0
  132.4687  136.2624  160.1696 N   0  0  0  0  0  0  0  0  0  0  0  0
  133.0844  135.5110  160.4425 H   0  0  0  0  0  0  0  0  0  0  0  0
  132.6414  136.5055  159.2057 H   0  0  0  0  0  0  0  0  0  0  0  0
  132.7169  137.4329  161.0217 C   0  0  0  0  0  0  0  0  0  0  0  0
  134.1710  137.8813  160.8616 C   0  0  0  0  0  0  0  0  0  0  0  0
  134.4708  139.3738  161.0131 C   0  0  0  0  0  0  0  0  0  0  0  0
  134.5204  138.7201  159.6308 C   0  0  0  0  0  0  0  0  0  0  0  0
  128.1604  135.2662  160.9117 O   0  0  0  0  0  0  0  0  0  0  0  0
  129.8599  138.8728  163.3168 C   0  0  0  0  0  0  0  0  0  0  0  0
  130.6881  139.6014  164.1463 C   0  0  0  0  0  0  0  0  0  0  0  0
  132.3050  141.6305  165.5484 C   0  0  0  0  0  0  0  0  0  0  0  0
  133.1223  142.3617  166.3865 C   0  0  0  0  0  0  0  0  0  0  0  0
  133.3207  143.2989  168.2971 H   0  0  0  0  0  0  0  0  0  0  0  0
  131.0649  142.6643  169.0463 H   0  0  0  0  0  0  0  0  0  0  0  0
  129.5904  141.3694  167.5625 H   0  0  0  0  0  0  0  0  0  0  0  0
  128.3258  141.3329  165.8539 H   0  0  0  0  0  0  0  0  0  0  0  0
  126.8658  140.0323  164.3609 H   0  0  0  0  0  0  0  0  0  0  0  0
  128.1100  138.0328  161.5442 H   0  0  0  0  0  0  0  0  0  0  0  0
  126.6839  138.8091  162.2735 H   0  0  0  0  0  0  0  0  0  0  0  0
  128.1210  136.3459  163.3616 H   0  0  0  0  0  0  0  0  0  0  0  0
  126.6948  137.1221  164.0908 H   0  0  0  0  0  0  0  0  0  0  0  0
  125.3796  136.2553  162.3197 H   0  0  0  0  0  0  0  0  0  0  0  0
  125.2082  133.9402  160.9182 H   0  0  0  0  0  0  0  0  0  0  0  0
  126.9771  132.7222  159.2896 H   0  0  0  0  0  0  0  0  0  0  0  0
  132.7488  134.3246  158.5106 H   0  0  0  0  0  0  0  0  0  0  0  0
  130.4076  136.6437  160.0285 H   0  0  0  0  0  0  0  0  0  0  0  0
  130.8860  135.5694  161.3646 H   0  0  0  0  0  0  0  0  0  0  0  0
  132.0519  138.2446  160.7268 H   0  0  0  0  0  0  0  0  0  0  0  0
  132.5302  137.1705  162.0631 H   0  0  0  0  0  0  0  0  0  0  0  0
  134.9221  137.1777  161.2210 H   0  0  0  0  0  0  0  0  0  0  0  0
  133.6322  140.0365  161.2267 H   0  0  0  0  0  0  0  0  0  0  0  0
  135.4194  139.6527  161.4722 H   0  0  0  0  0  0  0  0  0  0  0  0
  135.5014  138.5687  159.1805 H   0  0  0  0  0  0  0  0  0  0  0  0
  133.7143  138.9526  158.9349 H   0  0  0  0  0  0  0  0  0  0  0  0
  130.2840  138.1795  162.6055 H   0  0  0  0  0  0  0  0  0  0  0  0
  131.7594  139.4787  164.0847 H   0  0  0  0  0  0  0  0  0  0  0  0
  132.6558  141.3394  164.5692 H   0  0  0  0  0  0  0  0  0  0  0  0
  134.1135  142.6426  166.0624 H   0  0  0  0  0  0  0  0  0  0  0  0
  1 34  2  0
  1  2  1  0
  1 35  1  0
  2  3  2  0
  2 36  1  0
  3  4  1  0
  3 37  1  0
  4  5  1  0
  4 33  2  0
  5 32  1  0
  5  6  2  0
  6  7  1  0
  6 38  1  0
  7  8  2  0
  7 39  1  0
  8  9  1  0
  8 31  1  0
  9 10  1  0
  9 40  1  0
  9 41  1  0
 10 11  1  0
 10 42  1  0
 10 43  1  0
 11 12  1  0
 11 44  1  0
 12 30  1  0
 12 13  2  0
 13 14  1  0
 13 45  1  0
 14 15  2  0
 14 46  1  0
 15 16  1  0
 15 30  1  0
 16 21  1  0
 16 17  2  0
 17 18  1  0
 18 19  1  0
 18 20  1  0
 20 21  2  0
 20 47  1  0
 21 22  1  0
 22 23  1  0
 22 48  1  0
 22 49  1  0
 23 24  1  0
 23 25  1  0
 23 26  1  0
 26 27  1  0
 26 50  1  0
 26 51  1  0
 27 29  1  0
 27 28  1  0
 27 52  1  0
 28 29  1  0
 28 53  1  0
 28 54  1  0
 29 55  1  0
 29 56  1  0
 31 32  2  0
 31 57  1  0
 32 58  1  0
 33 34  1  0
 33 59  1  0
 34 60  1  0
M  CHG  1  23   1
M  END
>  <DOCK_score>  (1) 
-46.693192

>  <SMILES>  (1) 
c1ccc(-c2ccc(CCNc3ccc(-c4n[nH]cc4C[NH2+]CC4CC4)o3)cc2)cc1

$$$$
