Cc1cccc([C@H](Nc2[nH]cc(-c3ccc(N)cc3)[nH+]2)C2CC(O)C2)c1CBr
     RDKit          3D

 54 57  0  0  1  0  0  0  0  0999 V2000
  133.8084  135.8444  162.5292 C   0  0  0  0  0  0  0  0  0  0  0  0
  132.6557  136.3948  161.7298 C   0  0  0  0  0  0  0  0  0  0  0  0
  132.4396  137.7595  161.6777 C   0  0  0  0  0  0  0  0  0  0  0  0
  131.3826  138.2643  160.9441 C   0  0  0  0  0  0  0  0  0  0  0  0
  130.5430  137.4049  160.2600 C   0  0  0  0  0  0  0  0  0  0  0  0
  130.7558  136.0404  160.3163 C   0  0  0  0  0  0  0  0  0  0  0  0
  129.8382  135.1034  159.5741 C   0  0  2  0  0  0  0  0  0  0  0  0
  129.7845  134.1522  160.1035 H   0  0  0  0  0  0  0  0  0  0  0  0
  130.3568  134.8811  158.2221 N   0  0  0  0  0  0  0  0  0  0  0  0
  130.1187  133.6788  157.5783 C   0  0  0  0  0  0  0  0  0  0  0  0
  129.4154  132.6319  158.0892 N   0  0  0  0  0  0  0  0  0  0  0  0
  128.9946  132.5938  158.9623 H   0  0  0  0  0  0  0  0  0  0  0  0
  129.4120  131.6380  157.1393 C   0  0  0  0  0  0  0  0  0  0  0  0
  130.1126  132.1067  156.0773 C   0  0  0  0  0  0  0  0  0  0  0  0
  130.3733  131.3764  154.8125 C   0  0  0  0  0  0  0  0  0  0  0  0
  129.9201  131.8954  153.6007 C   0  0  0  0  0  0  0  0  0  0  0  0
  130.1682  131.2176  152.4258 C   0  0  0  0  0  0  0  0  0  0  0  0
  130.8593  130.0125  152.4502 C   0  0  0  0  0  0  0  0  0  0  0  0
  131.1043  129.3248  151.2592 N   0  0  0  0  0  0  0  0  0  0  0  0
  131.3075  129.4901  153.6580 C   0  0  0  0  0  0  0  0  0  0  0  0
  131.0667  130.1674  154.8348 C   0  0  0  0  0  0  0  0  0  0  0  0
  130.5288  133.3633  156.3739 N   0  0  0  0  0  0  0  0  0  0  0  0
  131.0489  133.9362  155.7889 H   0  0  0  0  0  0  0  0  0  0  0  0
  128.4403  135.7194  159.4891 C   0  0  2  0  0  0  0  0  0  0  0  0
  127.7787  135.9373  160.8602 C   0  0  0  0  0  0  0  0  0  0  0  0
  126.4654  135.4663  160.2135 C   0  0  2  0  0  0  0  0  0  0  0  0
  125.6809  134.6232  161.0596 O   0  0  0  0  0  0  0  0  0  0  0  0
  127.3311  134.6927  159.2049 C   0  0  0  0  0  0  0  0  0  0  0  0
  131.8141  135.5355  161.0490 C   0  0  0  0  0  0  0  0  0  0  0  0
  132.0494  134.0480  161.1057 C   0  0  0  0  0  0  0  0  0  0  0  0
  131.0611  133.2856  162.6247 Br  0  0  0  0  0  0  0  0  0  0  0  0
  134.6912  135.7755  161.8935 H   0  0  0  0  0  0  0  0  0  0  0  0
  134.0166  136.5064  163.3697 H   0  0  0  0  0  0  0  0  0  0  0  0
  133.5512  134.8531  162.9025 H   0  0  0  0  0  0  0  0  0  0  0  0
  133.0970  138.4310  162.2099 H   0  0  0  0  0  0  0  0  0  0  0  0
  131.2142  139.3304  160.9032 H   0  0  0  0  0  0  0  0  0  0  0  0
  129.7190  137.7996  159.6840 H   0  0  0  0  0  0  0  0  0  0  0  0
  130.8670  135.5763  157.7780 H   0  0  0  0  0  0  0  0  0  0  0  0
  128.9413  130.6695  157.2231 H   0  0  0  0  0  0  0  0  0  0  0  0
  129.3788  132.8297  153.5816 H   0  0  0  0  0  0  0  0  0  0  0  0
  129.8211  131.6215  151.4862 H   0  0  0  0  0  0  0  0  0  0  0  0
  131.5870  128.4830  151.2758 H   0  0  0  0  0  0  0  0  0  0  0  0
  130.7919  129.6877  150.4162 H   0  0  0  0  0  0  0  0  0  0  0  0
  131.8444  128.5532  153.6748 H   0  0  0  0  0  0  0  0  0  0  0  0
  131.4156  129.7616  155.7729 H   0  0  0  0  0  0  0  0  0  0  0  0
  128.4019  136.5944  158.8403 H   0  0  0  0  0  0  0  0  0  0  0  0
  128.1490  135.2663  161.6352 H   0  0  0  0  0  0  0  0  0  0  0  0
  127.7606  136.9804  161.1753 H   0  0  0  0  0  0  0  0  0  0  0  0
  125.8863  136.2728  159.7637 H   0  0  0  0  0  0  0  0  0  0  0  0
  126.2020  134.0124  161.5985 H   0  0  0  0  0  0  0  0  0  0  0  0
  126.9516  134.7314  158.1839 H   0  0  0  0  0  0  0  0  0  0  0  0
  127.5795  133.6812  159.5262 H   0  0  0  0  0  0  0  0  0  0  0  0
  131.7024  133.5897  160.1797 H   0  0  0  0  0  0  0  0  0  0  0  0
  133.1144  133.8533  161.2307 H   0  0  0  0  0  0  0  0  0  0  0  0
  1  2  1  0
  1 32  1  0
  1 33  1  0
  1 34  1  0
  2 29  2  0
  2  3  1  0
  3  4  2  0
  3 35  1  0
  4  5  1  0
  4 36  1  0
  5  6  2  0
  5 37  1  0
  6  7  1  0
  6 29  1  0
  7  8  1  1
  7  9  1  0
  7 24  1  0
  9 38  1  0
 10  9  1  0
 10 22  2  0
 10 11  1  0
 11 12  1  0
 11 13  1  0
 13 14  2  0
 13 39  1  0
 14 15  1  0
 14 22  1  0
 15 21  1  0
 15 16  2  0
 16 17  1  0
 16 40  1  0
 17 18  2  0
 17 41  1  0
 18 19  1  0
 18 20  1  0
 19 42  1  0
 19 43  1  0
 20 21  2  0
 20 44  1  0
 21 45  1  0
 22 23  1  0
 24 28  1  0
 24 25  1  0
 24 46  1  6
 25 26  1  0
 25 47  1  0
 25 48  1  0
 26 27  1  0
 26 28  1  0
 26 49  1  6
 27 50  1  0
 28 51  1  0
 28 52  1  0
 29 30  1  0
 30 31  1  0
 30 53  1  0
 30 54  1  0
M  CHG  1  22   1
M  END
>  <DOCK_score>  (1) 
-58.157948

>  <SMILES>  (1) 
Cc1cccc([C@H](Nc2[nH]cc(-c3ccc(N)cc3)[nH+]2)C2CC(O)C2)c1CBr

$$$$
