CCN1CC[NH+]=C1NCc1ccc(Nc2cccc(OC3CC3)c2)cc1
     RDKit          3D

 53 56  0  0  1  0  0  0  0  0999 V2000
  131.5860  130.5444  158.8916 C   0  0  0  0  0  0  0  0  0  0  0  0
  130.3501  130.3526  158.0103 C   0  0  0  0  0  0  0  0  0  0  0  0
  130.5058  131.1260  156.7759 N   0  0  0  0  0  0  0  0  0  0  0  0
  131.1163  130.6415  155.5267 C   0  0  0  0  0  0  0  0  0  0  0  0
  131.0107  131.8584  154.5860 C   0  0  0  0  0  0  0  0  0  0  0  0
  130.3514  132.8849  155.4050 N   0  0  0  0  0  0  0  0  0  0  0  0
  130.1318  133.7802  155.1033 H   0  0  0  0  0  0  0  0  0  0  0  0
  130.1087  132.4214  156.5876 C   0  0  0  0  0  0  0  0  0  0  0  0
  129.4986  133.1651  157.5698 N   0  0  0  0  0  0  0  0  0  0  0  0
  129.0989  134.5483  157.2994 C   0  0  0  0  0  0  0  0  0  0  0  0
  128.4576  135.1357  158.5303 C   0  0  0  0  0  0  0  0  0  0  0  0
  128.8083  136.4052  158.9519 C   0  0  0  0  0  0  0  0  0  0  0  0
  128.2185  136.9487  160.0762 C   0  0  0  0  0  0  0  0  0  0  0  0
  127.2802  136.2140  160.7903 C   0  0  0  0  0  0  0  0  0  0  0  0
  126.6858  136.7582  161.9316 N   0  0  0  0  0  0  0  0  0  0  0  0
  127.4767  137.1336  163.0199 C   0  0  0  0  0  0  0  0  0  0  0  0
  128.6676  136.4665  163.2777 C   0  0  0  0  0  0  0  0  0  0  0  0
  129.4499  136.8388  164.3532 C   0  0  0  0  0  0  0  0  0  0  0  0
  129.0505  137.8753  165.1759 C   0  0  0  0  0  0  0  0  0  0  0  0
  127.8621  138.5459  164.9232 C   0  0  0  0  0  0  0  0  0  0  0  0
  127.4713  139.5652  165.7326 O   0  0  0  0  0  0  0  0  0  0  0  0
  127.3013  140.8474  165.1252 C   0  0  0  0  0  0  0  0  0  0  0  0
  127.0612  142.0415  166.0512 C   0  0  0  0  0  0  0  0  0  0  0  0
  125.9138  141.4876  165.2028 C   0  0  0  0  0  0  0  0  0  0  0  0
  127.0765  138.1790  163.8417 C   0  0  0  0  0  0  0  0  0  0  0  0
  126.9345  134.9368  160.3671 C   0  0  0  0  0  0  0  0  0  0  0  0
  127.5240  134.4016  159.2388 C   0  0  0  0  0  0  0  0  0  0  0  0
  132.4709  130.2002  158.3564 H   0  0  0  0  0  0  0  0  0  0  0  0
  131.6973  131.6008  159.1364 H   0  0  0  0  0  0  0  0  0  0  0  0
  131.4702  129.9690  159.8100 H   0  0  0  0  0  0  0  0  0  0  0  0
  129.4652  130.6969  158.5456 H   0  0  0  0  0  0  0  0  0  0  0  0
  130.2388  129.2963  157.7657 H   0  0  0  0  0  0  0  0  0  0  0  0
  132.1594  130.3699  155.6885 H   0  0  0  0  0  0  0  0  0  0  0  0
  130.5571  129.7948  155.1285 H   0  0  0  0  0  0  0  0  0  0  0  0
  132.0021  132.1899  154.2773 H   0  0  0  0  0  0  0  0  0  0  0  0
  130.4015  131.6164  153.7151 H   0  0  0  0  0  0  0  0  0  0  0  0
  129.3327  132.7740  158.4418 H   0  0  0  0  0  0  0  0  0  0  0  0
  129.9778  135.1351  157.0326 H   0  0  0  0  0  0  0  0  0  0  0  0
  128.3862  134.5661  156.4748 H   0  0  0  0  0  0  0  0  0  0  0  0
  129.5413  136.9740  158.3990 H   0  0  0  0  0  0  0  0  0  0  0  0
  128.4895  137.9419  160.4023 H   0  0  0  0  0  0  0  0  0  0  0  0
  125.7233  136.8753  161.9679 H   0  0  0  0  0  0  0  0  0  0  0  0
  128.9820  135.6561  162.6366 H   0  0  0  0  0  0  0  0  0  0  0  0
  130.3756  136.3191  164.5519 H   0  0  0  0  0  0  0  0  0  0  0  0
  129.6644  138.1640  166.0162 H   0  0  0  0  0  0  0  0  0  0  0  0
  127.8858  141.0207  164.2216 H   0  0  0  0  0  0  0  0  0  0  0  0
  127.0328  141.8490  167.1237 H   0  0  0  0  0  0  0  0  0  0  0  0
  127.4874  143.0006  165.7566 H   0  0  0  0  0  0  0  0  0  0  0  0
  125.5856  142.0824  164.3503 H   0  0  0  0  0  0  0  0  0  0  0  0
  125.1307  140.9306  165.7170 H   0  0  0  0  0  0  0  0  0  0  0  0
  126.1536  138.7027  163.6409 H   0  0  0  0  0  0  0  0  0  0  0  0
  126.2051  134.3629  160.9197 H   0  0  0  0  0  0  0  0  0  0  0  0
  127.2559  133.4086  158.9095 H   0  0  0  0  0  0  0  0  0  0  0  0
  1  2  1  0
  1 28  1  0
  1 29  1  0
  1 30  1  0
  2  3  1  0
  2 31  1  0
  2 32  1  0
  3  8  1  0
  3  4  1  0
  4  5  1  0
  4 33  1  0
  4 34  1  0
  5  6  1  0
  5 35  1  0
  5 36  1  0
  6  7  1  0
  6  8  2  0
  8  9  1  0
  9 10  1  0
  9 37  1  0
 10 11  1  0
 10 38  1  0
 10 39  1  0
 11 27  1  0
 11 12  2  0
 12 13  1  0
 12 40  1  0
 13 14  2  0
 13 41  1  0
 14 15  1  0
 14 26  1  0
 15 16  1  0
 15 42  1  0
 16 25  1  0
 16 17  2  0
 17 18  1  0
 17 43  1  0
 18 19  2  0
 18 44  1  0
 19 20  1  0
 19 45  1  0
 20 21  1  0
 20 25  2  0
 21 22  1  0
 22 24  1  0
 22 23  1  0
 22 46  1  0
 23 24  1  0
 23 47  1  0
 23 48  1  0
 24 49  1  0
 24 50  1  0
 25 51  1  0
 26 27  2  0
 26 52  1  0
 27 53  1  0
M  CHG  1   6   1
M  END
>  <DOCK_score>  (1) 
-43.098053

>  <SMILES>  (1) 
CCN1CC[NH+]=C1NCc1ccc(Nc2cccc(OC3CC3)c2)cc1

$$$$
