Nc1ccc(-c2c[nH]c(Nc3ccc(Nc4ccc(NC(=O)Nc5ccccc5)cc4)cc3)[nH+]2)cc1
     RDKit          3D

 62 66  0  0  1  0  0  0  0  0999 V2000
  131.2652  129.8584  152.0129 N   0  0  0  0  0  0  0  0  0  0  0  0
  130.9847  130.5552  153.1908 C   0  0  0  0  0  0  0  0  0  0  0  0
  130.6684  131.9078  153.1387 C   0  0  0  0  0  0  0  0  0  0  0  0
  130.3915  132.5973  154.3002 C   0  0  0  0  0  0  0  0  0  0  0  0
  130.4287  131.9368  155.5272 C   0  0  0  0  0  0  0  0  0  0  0  0
  130.1312  132.6765  156.7784 C   0  0  0  0  0  0  0  0  0  0  0  0
  129.5787  132.1547  157.9016 C   0  0  0  0  0  0  0  0  0  0  0  0
  129.4843  133.1796  158.8126 N   0  0  0  0  0  0  0  0  0  0  0  0
  129.1318  133.1165  159.7141 H   0  0  0  0  0  0  0  0  0  0  0  0
  129.9743  134.3000  158.2150 C   0  0  0  0  0  0  0  0  0  0  0  0
  130.0550  135.5547  158.7959 N   0  0  0  0  0  0  0  0  0  0  0  0
  129.1200  135.9390  159.7649 C   0  0  0  0  0  0  0  0  0  0  0  0
  129.4832  136.8321  160.7647 C   0  0  0  0  0  0  0  0  0  0  0  0
  128.5630  137.2070  161.7231 C   0  0  0  0  0  0  0  0  0  0  0  0
  127.2706  136.6993  161.6813 C   0  0  0  0  0  0  0  0  0  0  0  0
  126.3362  137.0837  162.6495 N   0  0  0  0  0  0  0  0  0  0  0  0
  126.7036  137.9794  163.6597 C   0  0  0  0  0  0  0  0  0  0  0  0
  127.2205  137.5019  164.8573 C   0  0  0  0  0  0  0  0  0  0  0  0
  127.5884  138.3862  165.8515 C   0  0  0  0  0  0  0  0  0  0  0  0
  127.4310  139.7523  165.6589 C   0  0  0  0  0  0  0  0  0  0  0  0
  127.7987  140.6495  166.6711 N   0  0  0  0  0  0  0  0  0  0  0  0
  127.7223  140.2755  167.9636 C   0  0  0  0  0  0  0  0  0  0  0  0
  127.3344  139.1597  168.2517 O   0  0  0  0  0  0  0  0  0  0  0  0
  128.0759  141.1383  168.9368 N   0  0  0  0  0  0  0  0  0  0  0  0
  127.9967  140.7498  170.2789 C   0  0  0  0  0  0  0  0  0  0  0  0
  128.8754  141.2858  171.2113 C   0  0  0  0  0  0  0  0  0  0  0  0
  128.7918  140.9037  172.5359 C   0  0  0  0  0  0  0  0  0  0  0  0
  127.8408  139.9813  172.9323 C   0  0  0  0  0  0  0  0  0  0  0  0
  126.9679  139.4420  172.0053 C   0  0  0  0  0  0  0  0  0  0  0  0
  127.0432  139.8235  170.6801 C   0  0  0  0  0  0  0  0  0  0  0  0
  126.9090  140.2297  164.4642 C   0  0  0  0  0  0  0  0  0  0  0  0
  126.5463  139.3462  163.4672 C   0  0  0  0  0  0  0  0  0  0  0  0
  126.9075  135.8062  160.6814 C   0  0  0  0  0  0  0  0  0  0  0  0
  127.8294  135.4274  159.7260 C   0  0  0  0  0  0  0  0  0  0  0  0
  130.3627  133.9941  157.0007 N   0  0  0  0  0  0  0  0  0  0  0  0
  130.7536  134.6118  156.3630 H   0  0  0  0  0  0  0  0  0  0  0  0
  130.7516  130.5817  155.5775 C   0  0  0  0  0  0  0  0  0  0  0  0
  131.0221  129.8948  154.4129 C   0  0  0  0  0  0  0  0  0  0  0  0
  131.2394  130.3192  151.1591 H   0  0  0  0  0  0  0  0  0  0  0  0
  131.4865  128.9151  152.0481 H   0  0  0  0  0  0  0  0  0  0  0  0
  130.6396  132.4190  152.1878 H   0  0  0  0  0  0  0  0  0  0  0  0
  130.1456  133.6481  154.2594 H   0  0  0  0  0  0  0  0  0  0  0  0
  129.2757  131.1293  158.0531 H   0  0  0  0  0  0  0  0  0  0  0  0
  130.7591  136.1673  158.5314 H   0  0  0  0  0  0  0  0  0  0  0  0
  130.4868  137.2299  160.7948 H   0  0  0  0  0  0  0  0  0  0  0  0
  128.8468  137.8980  162.5031 H   0  0  0  0  0  0  0  0  0  0  0  0
  125.4338  136.7292  162.6203 H   0  0  0  0  0  0  0  0  0  0  0  0
  127.3388  136.4391  165.0088 H   0  0  0  0  0  0  0  0  0  0  0  0
  127.9940  138.0152  166.7812 H   0  0  0  0  0  0  0  0  0  0  0  0
  128.1082  141.5396  166.4411 H   0  0  0  0  0  0  0  0  0  0  0  0
  128.3853  142.0284  168.7069 H   0  0  0  0  0  0  0  0  0  0  0  0
  129.6209  142.0030  170.9016 H   0  0  0  0  0  0  0  0  0  0  0  0
  129.4725  141.3230  173.2621 H   0  0  0  0  0  0  0  0  0  0  0  0
  127.7801  139.6814  173.9680 H   0  0  0  0  0  0  0  0  0  0  0  0
  126.2268  138.7212  172.3180 H   0  0  0  0  0  0  0  0  0  0  0  0
  126.3614  139.4016  169.9565 H   0  0  0  0  0  0  0  0  0  0  0  0
  126.7864  141.2922  164.3148 H   0  0  0  0  0  0  0  0  0  0  0  0
  126.1400  139.7175  162.5381 H   0  0  0  0  0  0  0  0  0  0  0  0
  125.9039  135.4083  160.6511 H   0  0  0  0  0  0  0  0  0  0  0  0
  127.5471  134.7328  158.9487 H   0  0  0  0  0  0  0  0  0  0  0  0
  130.7854  130.0691  156.5276 H   0  0  0  0  0  0  0  0  0  0  0  0
  131.2676  128.8438  154.4508 H   0  0  0  0  0  0  0  0  0  0  0  0
  1  2  1  0
  1 39  1  0
  1 40  1  0
  2 38  2  0
  2  3  1  0
  3  4  2  0
  3 41  1  0
  4  5  1  0
  4 42  1  0
  5  6  1  0
  5 37  2  0
  6 35  1  0
  6  7  2  0
  7  8  1  0
  7 43  1  0
  8  9  1  0
  8 10  1  0
 10 11  1  0
 10 35  2  0
 11 12  1  0
 11 44  1  0
 12 34  1  0
 12 13  2  0
 13 14  1  0
 13 45  1  0
 14 15  2  0
 14 46  1  0
 15 16  1  0
 15 33  1  0
 16 17  1  0
 16 47  1  0
 17 32  1  0
 17 18  2  0
 18 19  1  0
 18 48  1  0
 19 20  2  0
 19 49  1  0
 20 21  1  0
 20 31  1  0
 21 22  1  0
 21 50  1  0
 22 23  2  0
 22 24  1  0
 24 25  1  0
 24 51  1  0
 25 30  1  0
 25 26  2  0
 26 27  1  0
 26 52  1  0
 27 28  2  0
 27 53  1  0
 28 29  1  0
 28 54  1  0
 29 30  2  0
 29 55  1  0
 30 56  1  0
 31 32  2  0
 31 57  1  0
 32 58  1  0
 33 34  2  0
 33 59  1  0
 34 60  1  0
 35 36  1  0
 37 38  1  0
 37 61  1  0
 38 62  1  0
M  CHG  1  35   1
M  END
>  <DOCK_score>  (1) 
-56.006802

>  <SMILES>  (1) 
Nc1ccc(-c2c[nH]c(Nc3ccc(Nc4ccc(NC(=O)Nc5ccccc5)cc4)cc3)[nH+]2)cc1

$$$$
