Fc1ccc(C[C@@H](Nc2[nH]cc(-c3ccc(C4=CCC=CC4)cc3)[nH+]2)C(F)F)cc1
     RDKit          3D

 53 56  0  0  1  0  0  0  0  0999 V2000
  126.0316  133.1114  159.7347 F   0  0  0  0  0  0  0  0  0  0  0  0
  127.0113  133.9340  160.1695 C   0  0  0  0  0  0  0  0  0  0  0  0
  127.5477  134.8837  159.3167 C   0  0  0  0  0  0  0  0  0  0  0  0
  128.5501  135.7242  159.7623 C   0  0  0  0  0  0  0  0  0  0  0  0
  129.0176  135.6166  161.0589 C   0  0  0  0  0  0  0  0  0  0  0  0
  130.1111  136.5334  161.5435 C   0  0  0  0  0  0  0  0  0  0  0  0
  131.4732  135.8947  161.2646 C   0  0  1  0  0  0  0  0  0  0  0  0
  131.5407  134.9406  161.7873 H   0  0  0  0  0  0  0  0  0  0  0  0
  131.6233  135.6740  159.8242 N   0  0  0  0  0  0  0  0  0  0  0  0
  131.2072  134.4805  159.2597 C   0  0  0  0  0  0  0  0  0  0  0  0
  130.6460  133.4387  159.9323 N   0  0  0  0  0  0  0  0  0  0  0  0
  130.4676  133.3994  160.8849 H   0  0  0  0  0  0  0  0  0  0  0  0
  130.3794  132.4534  159.0135 C   0  0  0  0  0  0  0  0  0  0  0  0
  130.7797  132.9231  157.8052 C   0  0  0  0  0  0  0  0  0  0  0  0
  130.6816  132.2033  156.5132 C   0  0  0  0  0  0  0  0  0  0  0  0
  129.9299  132.7437  155.4693 C   0  0  0  0  0  0  0  0  0  0  0  0
  129.8423  132.0781  154.2672 C   0  0  0  0  0  0  0  0  0  0  0  0
  130.4974  130.8565  154.0966 C   0  0  0  0  0  0  0  0  0  0  0  0
  130.3995  130.1393  152.8091 C   0  0  0  0  0  0  0  0  0  0  0  0
  130.4744  128.8258  152.8105 C   0  0  0  0  0  0  0  0  0  0  0  0
  130.3813  128.0096  151.5564 C   0  0  0  0  0  0  0  0  0  0  0  0
  130.6788  128.8420  150.3461 C   0  0  0  0  0  0  0  0  0  0  0  0
  130.6102  130.1377  150.3441 C   0  0  0  0  0  0  0  0  0  0  0  0
  130.2253  130.9375  151.5519 C   0  0  0  0  0  0  0  0  0  0  0  0
  131.2453  130.3136  155.1438 C   0  0  0  0  0  0  0  0  0  0  0  0
  131.3364  130.9830  156.3434 C   0  0  0  0  0  0  0  0  0  0  0  0
  131.2887  134.1674  157.9896 N   0  0  0  0  0  0  0  0  0  0  0  0
  131.6511  134.7361  157.2923 H   0  0  0  0  0  0  0  0  0  0  0  0
  132.5833  136.8256  161.7565 C   0  0  0  0  0  0  0  0  0  0  0  0
  133.8287  136.2415  161.5015 F   0  0  0  0  0  0  0  0  0  0  0  0
  132.4964  138.0502  161.0855 F   0  0  0  0  0  0  0  0  0  0  0  0
  128.4868  134.6649  161.9094 C   0  0  0  0  0  0  0  0  0  0  0  0
  127.4800  133.8274  161.4679 C   0  0  0  0  0  0  0  0  0  0  0  0
  127.1831  134.9675  158.3035 H   0  0  0  0  0  0  0  0  0  0  0  0
  128.9686  136.4651  159.0974 H   0  0  0  0  0  0  0  0  0  0  0  0
  129.9994  136.6976  162.6152 H   0  0  0  0  0  0  0  0  0  0  0  0
  130.0435  137.4875  161.0206 H   0  0  0  0  0  0  0  0  0  0  0  0
  132.0143  136.3642  159.2658 H   0  0  0  0  0  0  0  0  0  0  0  0
  129.9319  131.4910  159.2137 H   0  0  0  0  0  0  0  0  0  0  0  0
  129.4197  133.6862  155.6030 H   0  0  0  0  0  0  0  0  0  0  0  0
  129.2639  132.4986  153.4579 H   0  0  0  0  0  0  0  0  0  0  0  0
  130.6043  128.3149  153.7531 H   0  0  0  0  0  0  0  0  0  0  0  0
  129.3760  127.5977  151.4684 H   0  0  0  0  0  0  0  0  0  0  0  0
  131.0988  127.1910  151.6122 H   0  0  0  0  0  0  0  0  0  0  0  0
  130.9641  128.3401  149.4333 H   0  0  0  0  0  0  0  0  0  0  0  0
  130.8403  130.6643  149.4298 H   0  0  0  0  0  0  0  0  0  0  0  0
  129.1819  131.2401  151.4626 H   0  0  0  0  0  0  0  0  0  0  0  0
  130.8521  131.8278  151.6042 H   0  0  0  0  0  0  0  0  0  0  0  0
  131.7518  129.3689  155.0125 H   0  0  0  0  0  0  0  0  0  0  0  0
  131.9149  130.5635  157.1530 H   0  0  0  0  0  0  0  0  0  0  0  0
  132.4716  136.9897  162.8282 H   0  0  0  0  0  0  0  0  0  0  0  0
  128.8561  134.5786  162.9207 H   0  0  0  0  0  0  0  0  0  0  0  0
  127.0626  133.0866  162.1339 H   0  0  0  0  0  0  0  0  0  0  0  0
  1  2  1  0
  2 33  2  0
  2  3  1  0
  3  4  2  0
  3 34  1  0
  4  5  1  0
  4 35  1  0
  5  6  1  0
  5 32  2  0
  6  7  1  0
  6 36  1  0
  6 37  1  0
  7  8  1  1
  7  9  1  0
  7 29  1  0
  9 38  1  0
 10  9  1  0
 10 27  2  0
 10 11  1  0
 11 12  1  0
 11 13  1  0
 13 14  2  0
 13 39  1  0
 14 15  1  0
 14 27  1  0
 15 26  1  0
 15 16  2  0
 16 17  1  0
 16 40  1  0
 17 18  2  0
 17 41  1  0
 18 19  1  0
 18 25  1  0
 19 24  1  0
 19 20  2  0
 20 21  1  0
 20 42  1  0
 21 22  1  0
 21 43  1  0
 21 44  1  0
 22 23  2  0
 22 45  1  0
 23 24  1  0
 23 46  1  0
 24 47  1  0
 24 48  1  0
 25 26  2  0
 25 49  1  0
 26 50  1  0
 27 28  1  0
 29 30  1  0
 29 31  1  0
 29 51  1  0
 32 33  1  0
 32 52  1  0
 33 53  1  0
M  CHG  1  27   1
M  END
>  <DOCK_score>  (1) 
-58.826157

>  <SMILES>  (1) 
Fc1ccc(C[C@@H](Nc2[nH]cc(-c3ccc(C4=CCC=CC4)cc3)[nH+]2)C(F)F)cc1

$$$$
