CC(C)=Cn1cc([C@H](Nc2[nH]cc(-c3ccc(Cl)cc3)[nH+]2)c2ccccc2)nn1
     RDKit          3D

 51 54  0  0  1  0  0  0  0  0999 V2000
  130.1187  141.3552  161.5042 C   0  0  0  0  0  0  0  0  0  0  0  0
  131.4041  140.8526  162.1098 C   0  0  0  0  0  0  0  0  0  0  0  0
  132.2937  141.7952  162.8788 C   0  0  0  0  0  0  0  0  0  0  0  0
  131.7502  139.5888  161.9669 C   0  0  0  0  0  0  0  0  0  0  0  0
  130.8615  138.6833  161.3843 N   0  0  0  0  0  0  0  0  0  0  0  0
  131.0697  137.3526  161.1752 C   0  0  0  0  0  0  0  0  0  0  0  0
  129.9538  136.8711  160.5876 C   0  0  0  0  0  0  0  0  0  0  0  0
  129.7333  135.4407  160.1682 C   0  0  2  0  0  0  0  0  0  0  0  0
  130.2927  134.7781  160.8286 H   0  0  0  0  0  0  0  0  0  0  0  0
  130.1945  135.2593  158.7895 N   0  0  0  0  0  0  0  0  0  0  0  0
  130.0929  134.0189  158.1832 C   0  0  0  0  0  0  0  0  0  0  0  0
  129.5863  132.8945  158.7584 N   0  0  0  0  0  0  0  0  0  0  0  0
  129.2336  132.8187  159.6589 H   0  0  0  0  0  0  0  0  0  0  0  0
  129.6657  131.8867  157.8280 C   0  0  0  0  0  0  0  0  0  0  0  0
  130.2181  132.4239  156.7123 C   0  0  0  0  0  0  0  0  0  0  0  0
  130.4985  131.7062  155.4446 C   0  0  0  0  0  0  0  0  0  0  0  0
  130.4580  132.3895  154.2305 C   0  0  0  0  0  0  0  0  0  0  0  0
  130.7248  131.7185  153.0546 C   0  0  0  0  0  0  0  0  0  0  0  0
  131.0209  130.3663  153.0784 C   0  0  0  0  0  0  0  0  0  0  0  0
  131.3484  129.5263  151.5948 Cl  0  0  0  0  0  0  0  0  0  0  0  0
  131.0571  129.6819  154.2812 C   0  0  0  0  0  0  0  0  0  0  0  0
  130.7975  130.3449  155.4631 C   0  0  0  0  0  0  0  0  0  0  0  0
  130.4693  133.7337  156.9605 N   0  0  0  0  0  0  0  0  0  0  0  0
  130.8645  134.3593  156.3333 H   0  0  0  0  0  0  0  0  0  0  0  0
  128.2649  135.1126  160.2538 C   0  0  0  0  0  0  0  0  0  0  0  0
  127.7380  134.6019  161.4253 C   0  0  0  0  0  0  0  0  0  0  0  0
  126.3902  134.3051  161.5052 C   0  0  0  0  0  0  0  0  0  0  0  0
  125.5712  134.5105  160.4107 C   0  0  0  0  0  0  0  0  0  0  0  0
  126.0991  135.0162  159.2375 C   0  0  0  0  0  0  0  0  0  0  0  0
  127.4460  135.3170  159.1590 C   0  0  0  0  0  0  0  0  0  0  0  0
  129.0757  137.8644  160.4433 N   0  0  0  0  0  0  0  0  0  0  0  0
  129.5728  138.9598  160.9030 N   0  0  0  0  0  0  0  0  0  0  0  0
  129.2931  141.1560  162.1874 H   0  0  0  0  0  0  0  0  0  0  0  0
  130.1948  142.4283  161.3292 H   0  0  0  0  0  0  0  0  0  0  0  0
  129.9389  140.8446  160.5583 H   0  0  0  0  0  0  0  0  0  0  0  0
  133.0082  142.2575  162.1977 H   0  0  0  0  0  0  0  0  0  0  0  0
  131.6850  142.5689  163.3468 H   0  0  0  0  0  0  0  0  0  0  0  0
  132.8313  141.2410  163.6483 H   0  0  0  0  0  0  0  0  0  0  0  0
  132.7212  139.2536  162.3004 H   0  0  0  0  0  0  0  0  0  0  0  0
  131.9574  136.7920  161.4283 H   0  0  0  0  0  0  0  0  0  0  0  0
  130.5712  136.0082  158.3016 H   0  0  0  0  0  0  0  0  0  0  0  0
  129.3526  130.8617  157.9614 H   0  0  0  0  0  0  0  0  0  0  0  0
  130.2225  133.4433  154.2105 H   0  0  0  0  0  0  0  0  0  0  0  0
  130.6980  132.2480  152.1138 H   0  0  0  0  0  0  0  0  0  0  0  0
  131.2886  128.6270  154.2944 H   0  0  0  0  0  0  0  0  0  0  0  0
  130.8263  129.8102  156.4010 H   0  0  0  0  0  0  0  0  0  0  0  0
  128.3785  134.4381  162.2792 H   0  0  0  0  0  0  0  0  0  0  0  0
  125.9776  133.9103  162.4219 H   0  0  0  0  0  0  0  0  0  0  0  0
  124.5187  134.2760  160.4724 H   0  0  0  0  0  0  0  0  0  0  0  0
  125.4592  135.1765  158.3824 H   0  0  0  0  0  0  0  0  0  0  0  0
  127.8586  135.7122  158.2425 H   0  0  0  0  0  0  0  0  0  0  0  0
  1  2  1  0
  1 33  1  0
  1 34  1  0
  1 35  1  0
  2  3  1  0
  2  4  2  0
  3 36  1  0
  3 37  1  0
  3 38  1  0
  4  5  1  0
  4 39  1  0
  5 32  1  0
  5  6  1  0
  6  7  2  0
  6 40  1  0
  7  8  1  0
  7 31  1  0
  8  9  1  1
  8 10  1  0
  8 25  1  0
 10 41  1  0
 11 10  1  0
 11 23  2  0
 11 12  1  0
 12 13  1  0
 12 14  1  0
 14 15  2  0
 14 42  1  0
 15 16  1  0
 15 23  1  0
 16 22  1  0
 16 17  2  0
 17 18  1  0
 17 43  1  0
 18 19  2  0
 18 44  1  0
 19 20  1  0
 19 21  1  0
 21 22  2  0
 21 45  1  0
 22 46  1  0
 23 24  1  0
 25 30  1  0
 25 26  2  0
 26 27  1  0
 26 47  1  0
 27 28  2  0
 27 48  1  0
 28 29  1  0
 28 49  1  0
 29 30  2  0
 29 50  1  0
 30 51  1  0
 31 32  2  0
M  CHG  1  23   1
M  END
>  <DOCK_score>  (1) 
-57.555687

>  <SMILES>  (1) 
CC(C)=Cn1cc([C@H](Nc2[nH]cc(-c3ccc(Cl)cc3)[nH+]2)c2ccccc2)nn1

$$$$
