Cc1nnc(COC23CC(C2)[N@H+](C2C=CC(C)(c4ccccc4)CC2)C3)[nH]1
     RDKit          3D

 56 60  0  0  1  0  0  0  0  0999 V2000
  124.8321  134.5952  163.0114 C   0  0  0  0  0  0  0  0  0  0  0  0
  126.2228  135.1681  162.9182 C   0  0  0  0  0  0  0  0  0  0  0  0
  127.2980  134.6836  163.4773 N   0  0  0  0  0  0  0  0  0  0  0  0
  128.3080  135.4252  163.1881 N   0  0  0  0  0  0  0  0  0  0  0  0
  127.9230  136.4166  162.4313 C   0  0  0  0  0  0  0  0  0  0  0  0
  128.7997  137.5091  161.8760 C   0  0  0  0  0  0  0  0  0  0  0  0
  128.4862  137.7170  160.4974 O   0  0  0  0  0  0  0  0  0  0  0  0
  128.6796  136.5632  159.6768 C   0  0  1  0  0  0  0  0  0  0  0  0
  127.6101  135.4412  159.6112 C   0  0  0  0  0  0  0  0  0  0  0  0
  128.3798  135.0791  158.3168 C   0  0  1  0  0  0  0  0  0  0  0  0
  128.3784  136.6247  158.1282 C   0  0  0  0  0  0  0  0  0  0  0  0
  129.7343  134.6662  158.8187 N   0  0  2  0  0  0  0  0  0  0  0  0
  130.4181  134.6855  158.0768 H   0  0  0  0  0  0  0  0  0  0  0  0
  129.6824  133.3422  159.4530 C   0  0  1  0  0  0  0  0  0  0  0  0
  128.7679  132.4495  158.6667 C   0  0  0  0  0  0  0  0  0  0  0  0
  129.1759  131.5267  157.8556 C   0  0  0  0  0  0  0  0  0  0  0  0
  130.6205  131.2105  157.6003 C   0  0  1  0  0  0  0  0  0  0  0  0
  131.0038  129.9399  158.3617 C   0  0  0  0  0  0  0  0  0  0  0  0
  130.8297  130.9873  156.1246 C   0  0  0  0  0  0  0  0  0  0  0  0
  130.5432  131.9973  155.2255 C   0  0  0  0  0  0  0  0  0  0  0  0
  130.7397  131.7943  153.8723 C   0  0  0  0  0  0  0  0  0  0  0  0
  131.2130  130.5778  153.4175 C   0  0  0  0  0  0  0  0  0  0  0  0
  131.4942  129.5659  154.3162 C   0  0  0  0  0  0  0  0  0  0  0  0
  131.3028  129.7706  155.6698 C   0  0  0  0  0  0  0  0  0  0  0  0
  131.5031  132.3727  158.0657 C   0  0  0  0  0  0  0  0  0  0  0  0
  131.0917  132.7475  159.4952 C   0  0  0  0  0  0  0  0  0  0  0  0
  130.0031  135.7371  159.8281 C   0  0  0  0  0  0  0  0  0  0  0  0
  126.5878  136.2845  162.2427 N   0  0  0  0  0  0  0  0  0  0  0  0
  126.0107  136.8693  161.7269 H   0  0  0  0  0  0  0  0  0  0  0  0
  124.3181  135.0267  163.8703 H   0  0  0  0  0  0  0  0  0  0  0  0
  124.2802  134.8311  162.1014 H   0  0  0  0  0  0  0  0  0  0  0  0
  124.8920  133.5132  163.1297 H   0  0  0  0  0  0  0  0  0  0  0  0
  129.8461  137.2188  161.9708 H   0  0  0  0  0  0  0  0  0  0  0  0
  128.6268  138.4311  162.4309 H   0  0  0  0  0  0  0  0  0  0  0  0
  126.5930  135.7967  159.4465 H   0  0  0  0  0  0  0  0  0  0  0  0
  127.6864  134.6974  160.4043 H   0  0  0  0  0  0  0  0  0  0  0  0
  127.9087  134.4509  157.5609 H   0  0  0  0  0  0  0  0  0  0  0  0
  129.1913  137.0058  157.5103 H   0  0  0  0  0  0  0  0  0  0  0  0
  127.4060  137.0492  157.8787 H   0  0  0  0  0  0  0  0  0  0  0  0
  129.3024  133.4434  160.4697 H   0  0  0  0  0  0  0  0  0  0  0  0
  127.7030  132.5854  158.7845 H   0  0  0  0  0  0  0  0  0  0  0  0
  128.4302  130.9454  157.3337 H   0  0  0  0  0  0  0  0  0  0  0  0
  130.3836  129.1110  158.0209 H   0  0  0  0  0  0  0  0  0  0  0  0
  132.0529  129.7085  158.1775 H   0  0  0  0  0  0  0  0  0  0  0  0
  130.8480  130.0953  159.4294 H   0  0  0  0  0  0  0  0  0  0  0  0
  130.1693  132.9463  155.5805 H   0  0  0  0  0  0  0  0  0  0  0  0
  130.5196  132.5849  153.1702 H   0  0  0  0  0  0  0  0  0  0  0  0
  131.3630  130.4180  152.3600 H   0  0  0  0  0  0  0  0  0  0  0  0
  131.8638  128.6153  153.9608 H   0  0  0  0  0  0  0  0  0  0  0  0
  131.5224  128.9800  156.3720 H   0  0  0  0  0  0  0  0  0  0  0  0
  131.3630  133.2302  157.4074 H   0  0  0  0  0  0  0  0  0  0  0  0
  132.5487  132.0649  158.0541 H   0  0  0  0  0  0  0  0  0  0  0  0
  131.7885  133.4838  159.8957 H   0  0  0  0  0  0  0  0  0  0  0  0
  131.0947  131.8563  160.1228 H   0  0  0  0  0  0  0  0  0  0  0  0
  130.1020  135.3231  160.8316 H   0  0  0  0  0  0  0  0  0  0  0  0
  130.8764  136.3304  159.5569 H   0  0  0  0  0  0  0  0  0  0  0  0
  1  2  1  0
  1 30  1  0
  1 31  1  0
  1 32  1  0
  2 28  1  0
  2  3  2  0
  3  4  1  0
  4  5  2  0
  5  6  1  0
  5 28  1  0
  6  7  1  0
  6 33  1  0
  6 34  1  0
  8  7  1  1
  8 11  1  0
  8 27  1  0
  8  9  1  0
  9 10  1  0
  9 35  1  0
  9 36  1  0
 10 11  1  0
 10 12  1  0
 10 37  1  6
 11 38  1  0
 11 39  1  0
 12 13  1  6
 12 14  1  0
 12 27  1  0
 14 26  1  0
 14 15  1  0
 14 40  1  1
 15 16  2  0
 15 41  1  0
 16 17  1  0
 16 42  1  0
 17 18  1  1
 17 19  1  0
 17 25  1  0
 18 43  1  0
 18 44  1  0
 18 45  1  0
 19 24  1  0
 19 20  2  0
 20 21  1  0
 20 46  1  0
 21 22  2  0
 21 47  1  0
 22 23  1  0
 22 48  1  0
 23 24  2  0
 23 49  1  0
 24 50  1  0
 25 26  1  0
 25 51  1  0
 25 52  1  0
 26 53  1  0
 26 54  1  0
 27 55  1  0
 27 56  1  0
 28 29  1  0
M  CHG  1  12   1
M  END
>  <DOCK_score>  (1) 
-44.212933

>  <SMILES>  (1) 
Cc1nnc(COC23CC(C2)[N@H+](C2C=CC(C)(c4ccccc4)CC2)C3)[nH]1

$$$$
