Cc1cccc(-c2cccc(C3=CC[N@H+](Cc4ccc(-c5ccccc5)[nH]4)CC3)c2)c1
     RDKit          3D

 60 64  0  0  1  0  0  0  0  0999 V2000
  135.7738  138.6099  166.5935 C   0  0  0  0  0  0  0  0  0  0  0  0
  135.9181  139.5024  165.3877 C   0  0  0  0  0  0  0  0  0  0  0  0
  136.4709  140.7635  165.5240 C   0  0  0  0  0  0  0  0  0  0  0  0
  136.6065  141.5872  164.4219 C   0  0  0  0  0  0  0  0  0  0  0  0
  136.1960  141.1530  163.1775 C   0  0  0  0  0  0  0  0  0  0  0  0
  135.6334  139.8864  163.0353 C   0  0  0  0  0  0  0  0  0  0  0  0
  135.1845  139.4164  161.7012 C   0  0  0  0  0  0  0  0  0  0  0  0
  135.8258  139.8696  160.5490 C   0  0  0  0  0  0  0  0  0  0  0  0
  135.4099  139.4336  159.3062 C   0  0  0  0  0  0  0  0  0  0  0  0
  134.3616  138.5416  159.1964 C   0  0  0  0  0  0  0  0  0  0  0  0
  133.7081  138.0852  160.3422 C   0  0  0  0  0  0  0  0  0  0  0  0
  132.5815  137.1354  160.2238 C   0  0  0  0  0  0  0  0  0  0  0  0
  131.3608  137.6110  160.1046 C   0  0  0  0  0  0  0  0  0  0  0  0
  130.1497  136.7316  159.9846 C   0  0  0  0  0  0  0  0  0  0  0  0
  130.5406  135.3735  159.5896 N   0  0  2  0  0  0  0  0  0  0  0  0
  130.9047  135.3869  158.6487 H   0  0  0  0  0  0  0  0  0  0  0  0
  129.3708  134.4871  159.6533 C   0  0  0  0  0  0  0  0  0  0  0  0
  129.6213  133.2634  158.8102 C   0  0  0  0  0  0  0  0  0  0  0  0
  129.3534  131.9893  159.1692 C   0  0  0  0  0  0  0  0  0  0  0  0
  129.7339  131.1568  158.1040 C   0  0  0  0  0  0  0  0  0  0  0  0
  130.2271  131.9581  157.1188 C   0  0  0  0  0  0  0  0  0  0  0  0
  130.7465  131.5082  155.8094 C   0  0  0  0  0  0  0  0  0  0  0  0
  130.6351  132.3344  154.6900 C   0  0  0  0  0  0  0  0  0  0  0  0
  131.1266  131.9108  153.4725 C   0  0  0  0  0  0  0  0  0  0  0  0
  131.7192  130.6660  153.3574 C   0  0  0  0  0  0  0  0  0  0  0  0
  131.8275  129.8399  154.4621 C   0  0  0  0  0  0  0  0  0  0  0  0
  131.3449  130.2534  155.6865 C   0  0  0  0  0  0  0  0  0  0  0  0
  130.1511  133.2563  157.5542 N   0  0  0  0  0  0  0  0  0  0  0  0
  130.4302  134.0385  157.0532 H   0  0  0  0  0  0  0  0  0  0  0  0
  131.5782  134.8864  160.5122 C   0  0  0  0  0  0  0  0  0  0  0  0
  132.8719  135.6598  160.2443 C   0  0  0  0  0  0  0  0  0  0  0  0
  134.1238  138.5226  161.5983 C   0  0  0  0  0  0  0  0  0  0  0  0
  135.4990  139.0602  164.1495 C   0  0  0  0  0  0  0  0  0  0  0  0
  136.6733  138.0047  166.7073 H   0  0  0  0  0  0  0  0  0  0  0  0
  135.6329  139.2223  167.4840 H   0  0  0  0  0  0  0  0  0  0  0  0
  134.9111  137.9570  166.4611 H   0  0  0  0  0  0  0  0  0  0  0  0
  136.7980  141.1054  166.4948 H   0  0  0  0  0  0  0  0  0  0  0  0
  137.0386  142.5707  164.5339 H   0  0  0  0  0  0  0  0  0  0  0  0
  136.3069  141.7954  162.3165 H   0  0  0  0  0  0  0  0  0  0  0  0
  136.6495  140.5636  160.6284 H   0  0  0  0  0  0  0  0  0  0  0  0
  135.9098  139.7881  158.4168 H   0  0  0  0  0  0  0  0  0  0  0  0
  134.0441  138.2001  158.2223 H   0  0  0  0  0  0  0  0  0  0  0  0
  131.2237  138.6822  160.0922 H   0  0  0  0  0  0  0  0  0  0  0  0
  129.4765  137.1457  159.2339 H   0  0  0  0  0  0  0  0  0  0  0  0
  129.6380  136.6942  160.9463 H   0  0  0  0  0  0  0  0  0  0  0  0
  129.1981  134.1872  160.6869 H   0  0  0  0  0  0  0  0  0  0  0  0
  128.4943  135.0145  159.2768 H   0  0  0  0  0  0  0  0  0  0  0  0
  128.9242  131.6683  160.1068 H   0  0  0  0  0  0  0  0  0  0  0  0
  129.6512  130.0804  158.0721 H   0  0  0  0  0  0  0  0  0  0  0  0
  130.1688  133.3046  154.7776 H   0  0  0  0  0  0  0  0  0  0  0  0
  131.0448  132.5507  152.6063 H   0  0  0  0  0  0  0  0  0  0  0  0
  132.0985  130.3374  152.4011 H   0  0  0  0  0  0  0  0  0  0  0  0
  132.2911  128.8692  154.3655 H   0  0  0  0  0  0  0  0  0  0  0  0
  131.4297  129.6075  156.5478 H   0  0  0  0  0  0  0  0  0  0  0  0
  131.2596  135.0516  161.5414 H   0  0  0  0  0  0  0  0  0  0  0  0
  131.7466  133.8226  160.3448 H   0  0  0  0  0  0  0  0  0  0  0  0
  133.5942  135.4429  161.0314 H   0  0  0  0  0  0  0  0  0  0  0  0
  133.2830  135.3573  159.2814 H   0  0  0  0  0  0  0  0  0  0  0  0
  133.6242  138.1694  162.4883 H   0  0  0  0  0  0  0  0  0  0  0  0
  135.0674  138.0759  164.0441 H   0  0  0  0  0  0  0  0  0  0  0  0
  1  2  1  0
  1 34  1  0
  1 35  1  0
  1 36  1  0
  2 33  2  0
  2  3  1  0
  3  4  2  0
  3 37  1  0
  4  5  1  0
  4 38  1  0
  5  6  2  0
  5 39  1  0
  6  7  1  0
  6 33  1  0
  7 32  1  0
  7  8  2  0
  8  9  1  0
  8 40  1  0
  9 10  2  0
  9 41  1  0
 10 11  1  0
 10 42  1  0
 11 12  1  0
 11 32  2  0
 12 31  1  0
 12 13  2  0
 13 14  1  0
 13 43  1  0
 14 15  1  0
 14 44  1  0
 14 45  1  0
 15 16  1  6
 15 17  1  0
 15 30  1  0
 17 18  1  0
 17 46  1  0
 17 47  1  0
 18 28  1  0
 18 19  2  0
 19 20  1  0
 19 48  1  0
 20 21  2  0
 20 49  1  0
 21 22  1  0
 21 28  1  0
 22 27  1  0
 22 23  2  0
 23 24  1  0
 23 50  1  0
 24 25  2  0
 24 51  1  0
 25 26  1  0
 25 52  1  0
 26 27  2  0
 26 53  1  0
 27 54  1  0
 28 29  1  0
 30 31  1  0
 30 55  1  0
 30 56  1  0
 31 57  1  0
 31 58  1  0
 32 59  1  0
 33 60  1  0
M  CHG  1  15   1
M  END
>  <DOCK_score>  (1) 
-59.170582

>  <SMILES>  (1) 
Cc1cccc(-c2cccc(C3=CC[N@H+](Cc4ccc(-c5ccccc5)[nH]4)CC3)c2)c1

$$$$
