CCc1ccc(-c2c[nH]c(NCc3cc(O)cc(NCc4c[nH]nc4-c4ccccc4)c3)[nH+]2)cc1
     RDKit          3D

 64 68  0  0  1  0  0  0  0  0999 V2000
  130.6215  128.7038  151.9745 C   0  0  0  0  0  0  0  0  0  0  0  0
  131.7996  129.5397  152.4788 C   0  0  0  0  0  0  0  0  0  0  0  0
  131.3555  130.3787  153.6493 C   0  0  0  0  0  0  0  0  0  0  0  0
  131.4590  129.8778  154.9346 C   0  0  0  0  0  0  0  0  0  0  0  0
  131.0584  130.6435  156.0107 C   0  0  0  0  0  0  0  0  0  0  0  0
  130.5394  131.9197  155.7998 C   0  0  0  0  0  0  0  0  0  0  0  0
  130.1028  132.7457  156.9518 C   0  0  0  0  0  0  0  0  0  0  0  0
  129.6049  132.2806  158.1243 C   0  0  0  0  0  0  0  0  0  0  0  0
  129.3338  133.3775  158.9054 N   0  0  0  0  0  0  0  0  0  0  0  0
  128.9696  133.3667  159.8044 H   0  0  0  0  0  0  0  0  0  0  0  0
  129.6664  134.4823  158.1836 C   0  0  0  0  0  0  0  0  0  0  0  0
  129.5399  135.7930  158.6110 N   0  0  0  0  0  0  0  0  0  0  0  0
  129.0084  136.0802  159.9457 C   0  0  0  0  0  0  0  0  0  0  0  0
  129.8917  135.4416  160.9863 C   0  0  0  0  0  0  0  0  0  0  0  0
  129.3260  134.7524  162.0424 C   0  0  0  0  0  0  0  0  0  0  0  0
  130.1365  134.1589  162.9999 C   0  0  0  0  0  0  0  0  0  0  0  0
  129.5787  133.4773  164.0349 O   0  0  0  0  0  0  0  0  0  0  0  0
  131.5150  134.2663  162.9030 C   0  0  0  0  0  0  0  0  0  0  0  0
  132.0814  134.9633  161.8448 C   0  0  0  0  0  0  0  0  0  0  0  0
  133.4700  135.0741  161.7437 N   0  0  0  0  0  0  0  0  0  0  0  0
  134.3098  134.8605  162.9250 C   0  0  0  0  0  0  0  0  0  0  0  0
  135.5593  135.6951  162.8107 C   0  0  0  0  0  0  0  0  0  0  0  0
  136.8179  135.2836  163.0779 C   0  0  0  0  0  0  0  0  0  0  0  0
  137.6525  136.3208  162.8513 N   0  0  0  0  0  0  0  0  0  0  0  0
  138.6163  136.3100  162.9596 H   0  0  0  0  0  0  0  0  0  0  0  0
  136.8840  137.4165  162.4380 N   0  0  0  0  0  0  0  0  0  0  0  0
  135.6218  137.0446  162.4121 C   0  0  0  0  0  0  0  0  0  0  0  0
  134.4681  137.8962  162.0294 C   0  0  0  0  0  0  0  0  0  0  0  0
  134.4103  138.4657  160.7592 C   0  0  0  0  0  0  0  0  0  0  0  0
  133.3326  139.2526  160.4069 C   0  0  0  0  0  0  0  0  0  0  0  0
  132.3164  139.4855  161.3160 C   0  0  0  0  0  0  0  0  0  0  0  0
  132.3712  138.9268  162.5802 C   0  0  0  0  0  0  0  0  0  0  0  0
  133.4417  138.1337  162.9411 C   0  0  0  0  0  0  0  0  0  0  0  0
  131.2648  135.5509  160.8860 C   0  0  0  0  0  0  0  0  0  0  0  0
  130.1256  134.1007  157.0168 N   0  0  0  0  0  0  0  0  0  0  0  0
  130.4323  134.6926  156.3122 H   0  0  0  0  0  0  0  0  0  0  0  0
  130.4326  132.4171  154.5021 C   0  0  0  0  0  0  0  0  0  0  0  0
  130.8408  131.6444  153.4340 C   0  0  0  0  0  0  0  0  0  0  0  0
  130.9427  128.0970  151.1279 H   0  0  0  0  0  0  0  0  0  0  0  0
  130.2687  128.0533  152.7747 H   0  0  0  0  0  0  0  0  0  0  0  0
  129.8140  129.3656  151.6616 H   0  0  0  0  0  0  0  0  0  0  0  0
  132.6071  128.8779  152.7918 H   0  0  0  0  0  0  0  0  0  0  0  0
  132.1524  130.1903  151.6786 H   0  0  0  0  0  0  0  0  0  0  0  0
  131.8578  128.8874  155.0966 H   0  0  0  0  0  0  0  0  0  0  0  0
  131.1438  130.2532  157.0141 H   0  0  0  0  0  0  0  0  0  0  0  0
  129.4528  131.2457  158.3932 H   0  0  0  0  0  0  0  0  0  0  0  0
  129.8031  136.5211  158.0267 H   0  0  0  0  0  0  0  0  0  0  0  0
  128.9835  137.1587  160.1025 H   0  0  0  0  0  0  0  0  0  0  0  0
  127.9989  135.6775  160.0292 H   0  0  0  0  0  0  0  0  0  0  0  0
  128.2518  134.6721  162.1204 H   0  0  0  0  0  0  0  0  0  0  0  0
  128.6120  133.4604  164.0193 H   0  0  0  0  0  0  0  0  0  0  0  0
  132.1472  133.8083  163.6493 H   0  0  0  0  0  0  0  0  0  0  0  0
  133.8784  135.2925  160.8914 H   0  0  0  0  0  0  0  0  0  0  0  0
  133.7592  135.1513  163.8197 H   0  0  0  0  0  0  0  0  0  0  0  0
  134.5814  133.8070  162.9920 H   0  0  0  0  0  0  0  0  0  0  0  0
  137.1064  134.2977  163.4115 H   0  0  0  0  0  0  0  0  0  0  0  0
  135.2055  138.2885  160.0502 H   0  0  0  0  0  0  0  0  0  0  0  0
  133.2845  139.6909  159.4210 H   0  0  0  0  0  0  0  0  0  0  0  0
  131.4770  140.1055  161.0377 H   0  0  0  0  0  0  0  0  0  0  0  0
  131.5749  139.1113  163.2861 H   0  0  0  0  0  0  0  0  0  0  0  0
  133.4833  137.6977  163.9283 H   0  0  0  0  0  0  0  0  0  0  0  0
  131.7043  136.0932  160.0618 H   0  0  0  0  0  0  0  0  0  0  0  0
  130.0309  133.4052  154.3328 H   0  0  0  0  0  0  0  0  0  0  0  0
  130.7586  132.0289  152.4281 H   0  0  0  0  0  0  0  0  0  0  0  0
  1  2  1  0
  1 39  1  0
  1 40  1  0
  1 41  1  0
  2  3  1  0
  2 42  1  0
  2 43  1  0
  3 38  2  0
  3  4  1  0
  4  5  2  0
  4 44  1  0
  5  6  1  0
  5 45  1  0
  6  7  1  0
  6 37  2  0
  7 35  1  0
  7  8  2  0
  8  9  1  0
  8 46  1  0
  9 10  1  0
  9 11  1  0
 11 12  1  0
 11 35  2  0
 12 13  1  0
 12 47  1  0
 13 14  1  0
 13 48  1  0
 13 49  1  0
 14 34  1  0
 14 15  2  0
 15 16  1  0
 15 50  1  0
 16 17  1  0
 16 18  2  0
 17 51  1  0
 18 19  1  0
 18 52  1  0
 19 20  1  0
 19 34  2  0
 20 21  1  0
 20 53  1  0
 21 22  1  0
 21 54  1  0
 21 55  1  0
 22 27  1  0
 22 23  2  0
 23 24  1  0
 23 56  1  0
 24 25  1  0
 24 26  1  0
 26 27  2  0
 27 28  1  0
 28 33  1  0
 28 29  2  0
 29 30  1  0
 29 57  1  0
 30 31  2  0
 30 58  1  0
 31 32  1  0
 31 59  1  0
 32 33  2  0
 32 60  1  0
 33 61  1  0
 34 62  1  0
 35 36  1  0
 37 38  1  0
 37 63  1  0
 38 64  1  0
M  CHG  1  35   1
M  END
>  <DOCK_score>  (1) 
-57.364433

>  <SMILES>  (1) 
CCc1ccc(-c2c[nH]c(NCc3cc(O)cc(NCc4c[nH]nc4-c4ccccc4)c3)[nH+]2)cc1

$$$$
