OCC[NH2+]Cc1c[nH]nc1-c1ccc(N[C@H]2COc3cc(O)ccc3C2)o1
     RDKit          3D

 50 53  0  0  1  0  0  0  0  0999 V2000
  131.8231  139.3467  158.4715 O   0  0  0  0  0  0  0  0  0  0  0  0
  130.8879  139.3401  159.5520 C   0  0  0  0  0  0  0  0  0  0  0  0
  131.1601  138.1351  160.4547 C   0  0  0  0  0  0  0  0  0  0  0  0
  131.0173  136.8978  159.6758 N   0  0  0  0  0  0  0  0  0  0  0  0
  131.6775  136.9024  158.9129 H   0  0  0  0  0  0  0  0  0  0  0  0
  130.0793  136.8379  159.3087 H   0  0  0  0  0  0  0  0  0  0  0  0
  131.2786  135.7407  160.5425 C   0  0  0  0  0  0  0  0  0  0  0  0
  131.1321  134.4713  159.7435 C   0  0  0  0  0  0  0  0  0  0  0  0
  132.1132  133.8443  159.0601 C   0  0  0  0  0  0  0  0  0  0  0  0
  131.5828  132.7462  158.4795 N   0  0  0  0  0  0  0  0  0  0  0  0
  132.0603  132.1080  157.9268 H   0  0  0  0  0  0  0  0  0  0  0  0
  130.2250  132.6855  158.8179 N   0  0  0  0  0  0  0  0  0  0  0  0
  129.9454  133.7268  159.5768 C   0  0  0  0  0  0  0  0  0  0  0  0
  128.6254  134.0526  160.1552 C   0  0  0  0  0  0  0  0  0  0  0  0
  127.4847  133.3319  159.9915 C   0  0  0  0  0  0  0  0  0  0  0  0
  126.4725  134.0020  160.7065 C   0  0  0  0  0  0  0  0  0  0  0  0
  127.0456  135.0912  161.2767 C   0  0  0  0  0  0  0  0  0  0  0  0
  126.3964  136.0265  162.0742 N   0  0  0  0  0  0  0  0  0  0  0  0
  127.1345  136.7315  163.1252 C   0  0  1  0  0  0  0  0  0  0  0  0
  128.1296  136.9912  162.7641 H   0  0  0  0  0  0  0  0  0  0  0  0
  126.3789  138.0065  163.5214 C   0  0  0  0  0  0  0  0  0  0  0  0
  127.1709  138.7231  164.4695 O   0  0  0  0  0  0  0  0  0  0  0  0
  127.6719  138.0349  165.5282 C   0  0  0  0  0  0  0  0  0  0  0  0
  128.1251  138.7520  166.6300 C   0  0  0  0  0  0  0  0  0  0  0  0
  128.6471  138.0870  167.7265 C   0  0  0  0  0  0  0  0  0  0  0  0
  129.0889  138.7897  168.8025 O   0  0  0  0  0  0  0  0  0  0  0  0
  128.7177  136.7008  167.7243 C   0  0  0  0  0  0  0  0  0  0  0  0
  128.2659  135.9901  166.6309 C   0  0  0  0  0  0  0  0  0  0  0  0
  127.7412  136.6523  165.5327 C   0  0  0  0  0  0  0  0  0  0  0  0
  127.2514  135.8374  164.3620 C   0  0  0  0  0  0  0  0  0  0  0  0
  128.3454  135.1168  160.9365 O   0  0  0  0  0  0  0  0  0  0  0  0
  131.7850  138.5578  157.9137 H   0  0  0  0  0  0  0  0  0  0  0  0
  129.8747  139.2753  159.1553 H   0  0  0  0  0  0  0  0  0  0  0  0
  130.9938  140.2582  160.1298 H   0  0  0  0  0  0  0  0  0  0  0  0
  130.4469  138.1300  161.2789 H   0  0  0  0  0  0  0  0  0  0  0  0
  132.1733  138.1998  160.8514 H   0  0  0  0  0  0  0  0  0  0  0  0
  130.5654  135.7357  161.3667 H   0  0  0  0  0  0  0  0  0  0  0  0
  132.2918  135.8054  160.9392 H   0  0  0  0  0  0  0  0  0  0  0  0
  133.1423  134.1646  158.9900 H   0  0  0  0  0  0  0  0  0  0  0  0
  127.3744  132.4227  159.4192 H   0  0  0  0  0  0  0  0  0  0  0  0
  125.4377  133.7038  160.7874 H   0  0  0  0  0  0  0  0  0  0  0  0
  125.4546  136.2125  161.9349 H   0  0  0  0  0  0  0  0  0  0  0  0
  126.2140  138.6246  162.6389 H   0  0  0  0  0  0  0  0  0  0  0  0
  125.4210  137.7415  163.9689 H   0  0  0  0  0  0  0  0  0  0  0  0
  128.0702  139.8306  166.6304 H   0  0  0  0  0  0  0  0  0  0  0  0
  128.9982  139.7481  168.7105 H   0  0  0  0  0  0  0  0  0  0  0  0
  129.1259  136.1788  168.5771 H   0  0  0  0  0  0  0  0  0  0  0  0
  128.3212  134.9116  166.6314 H   0  0  0  0  0  0  0  0  0  0  0  0
  126.2748  135.4151  164.5980 H   0  0  0  0  0  0  0  0  0  0  0  0
  127.9561  135.0304  164.1609 H   0  0  0  0  0  0  0  0  0  0  0  0
  1  2  1  0
  1 32  1  0
  2  3  1  0
  2 33  1  0
  2 34  1  0
  3  4  1  0
  3 35  1  0
  3 36  1  0
  4  5  1  0
  4  6  1  0
  4  7  1  0
  7  8  1  0
  7 37  1  0
  7 38  1  0
  8 13  1  0
  8  9  2  0
  9 10  1  0
  9 39  1  0
 10 11  1  0
 10 12  1  0
 12 13  2  0
 13 14  1  0
 14 31  1  0
 14 15  2  0
 15 16  1  0
 15 40  1  0
 16 17  2  0
 16 41  1  0
 17 18  1  0
 17 31  1  0
 18 19  1  0
 18 42  1  0
 19 20  1  6
 19 30  1  0
 19 21  1  0
 21 22  1  0
 21 43  1  0
 21 44  1  0
 22 23  1  0
 23 29  2  0
 23 24  1  0
 24 25  2  0
 24 45  1  0
 25 26  1  0
 25 27  1  0
 26 46  1  0
 27 28  2  0
 27 47  1  0
 28 29  1  0
 28 48  1  0
 29 30  1  0
 30 49  1  0
 30 50  1  0
M  CHG  1   4   1
M  END
>  <DOCK_score>  (1) 
-43.879055

>  <SMILES>  (1) 
OCC[NH2+]Cc1c[nH]nc1-c1ccc(N[C@H]2COc3cc(O)ccc3C2)o1

$$$$
