COc1ccc([C@@H](Cc2ccccc2)NC(NC2CCC2)=[NH+][C@H]2CCC(=O)NC2)cc1
     RDKit          3D

 64 67  0  0  1  0  0  0  0  0999 V2000
  134.5502  135.6207  165.8538 C   0  0  0  0  0  0  0  0  0  0  0  0
  134.8630  135.4991  164.4650 O   0  0  0  0  0  0  0  0  0  0  0  0
  133.9138  135.9043  163.5807 C   0  0  0  0  0  0  0  0  0  0  0  0
  134.1508  135.8138  162.2166 C   0  0  0  0  0  0  0  0  0  0  0  0
  133.1841  136.2260  161.3201 C   0  0  0  0  0  0  0  0  0  0  0  0
  131.9813  136.7286  161.7809 C   0  0  0  0  0  0  0  0  0  0  0  0
  130.9286  137.1776  160.8006 C   0  0  1  0  0  0  0  0  0  0  0  0
  130.0565  137.5405  161.3448 H   0  0  0  0  0  0  0  0  0  0  0  0
  131.4900  138.3024  159.9287 C   0  0  0  0  0  0  0  0  0  0  0  0
  131.4315  139.6031  160.6873 C   0  0  0  0  0  0  0  0  0  0  0  0
  130.3123  140.4090  160.5922 C   0  0  0  0  0  0  0  0  0  0  0  0
  130.2567  141.5999  161.2919 C   0  0  0  0  0  0  0  0  0  0  0  0
  131.3242  141.9897  162.0788 C   0  0  0  0  0  0  0  0  0  0  0  0
  132.4457  141.1867  162.1694 C   0  0  0  0  0  0  0  0  0  0  0  0
  132.4992  139.9933  161.4738 C   0  0  0  0  0  0  0  0  0  0  0  0
  130.5392  136.0492  159.9512 N   0  0  0  0  0  0  0  0  0  0  0  0
  129.5055  135.2265  160.3322 C   0  0  0  0  0  0  0  0  0  0  0  0
  129.1402  134.1677  159.5350 N   0  0  0  0  0  0  0  0  0  0  0  0
  129.8522  133.9159  158.2796 C   0  0  0  0  0  0  0  0  0  0  0  0
  129.3576  134.7791  157.1071 C   0  0  0  0  0  0  0  0  0  0  0  0
  129.5122  133.5269  156.2250 C   0  0  0  0  0  0  0  0  0  0  0  0
  129.3237  132.6966  157.5056 C   0  0  0  0  0  0  0  0  0  0  0  0
  128.8720  135.4506  161.4490 N   0  0  0  0  0  0  0  0  0  0  0  0
  129.3354  135.8617  162.1954 H   0  0  0  0  0  0  0  0  0  0  0  0
  127.4601  135.0815  161.5770 C   0  0  1  0  0  0  0  0  0  0  0  0
  126.9750  135.1481  160.6031 H   0  0  0  0  0  0  0  0  0  0  0  0
  127.3492  133.6482  162.1102 C   0  0  0  0  0  0  0  0  0  0  0  0
  125.8787  133.2260  162.0609 C   0  0  0  0  0  0  0  0  0  0  0  0
  125.0202  134.2918  162.6792 C   0  0  0  0  0  0  0  0  0  0  0  0
  123.8935  133.9967  163.0175 O   0  0  0  0  0  0  0  0  0  0  0  0
  125.4306  135.5451  162.8767 N   0  0  0  0  0  0  0  0  0  0  0  0
  126.7695  136.0280  162.5597 C   0  0  0  0  0  0  0  0  0  0  0  0
  131.7449  136.8250  163.1398 C   0  0  0  0  0  0  0  0  0  0  0  0
  132.7061  136.4088  164.0406 C   0  0  0  0  0  0  0  0  0  0  0  0
  134.3554  136.6662  166.0920 H   0  0  0  0  0  0  0  0  0  0  0  0
  133.6655  135.0255  166.0804 H   0  0  0  0  0  0  0  0  0  0  0  0
  135.3907  135.2630  166.4483 H   0  0  0  0  0  0  0  0  0  0  0  0
  135.0903  135.4217  161.8562 H   0  0  0  0  0  0  0  0  0  0  0  0
  133.3679  136.1555  160.2582 H   0  0  0  0  0  0  0  0  0  0  0  0
  130.8974  138.3862  159.0176 H   0  0  0  0  0  0  0  0  0  0  0  0
  132.5251  138.0792  159.6696 H   0  0  0  0  0  0  0  0  0  0  0  0
  129.4799  140.1064  159.9742 H   0  0  0  0  0  0  0  0  0  0  0  0
  129.3805  142.2274  161.2208 H   0  0  0  0  0  0  0  0  0  0  0  0
  131.2822  142.9219  162.6225 H   0  0  0  0  0  0  0  0  0  0  0  0
  133.2799  141.4913  162.7839 H   0  0  0  0  0  0  0  0  0  0  0  0
  133.3754  139.3658  161.5445 H   0  0  0  0  0  0  0  0  0  0  0  0
  131.0106  135.8827  159.1201 H   0  0  0  0  0  0  0  0  0  0  0  0
  128.4108  133.5874  159.8038 H   0  0  0  0  0  0  0  0  0  0  0  0
  130.9355  133.9211  158.3992 H   0  0  0  0  0  0  0  0  0  0  0  0
  128.3253  135.1123  157.2151 H   0  0  0  0  0  0  0  0  0  0  0  0
  130.0388  135.5877  156.8423 H   0  0  0  0  0  0  0  0  0  0  0  0
  130.5028  133.4265  155.7814 H   0  0  0  0  0  0  0  0  0  0  0  0
  128.7087  133.3990  155.4996 H   0  0  0  0  0  0  0  0  0  0  0  0
  129.9777  131.8265  157.5621 H   0  0  0  0  0  0  0  0  0  0  0  0
  128.2822  132.4595  157.7229 H   0  0  0  0  0  0  0  0  0  0  0  0
  127.9442  132.9786  161.4891 H   0  0  0  0  0  0  0  0  0  0  0  0
  127.7075  133.6105  163.1388 H   0  0  0  0  0  0  0  0  0  0  0  0
  125.5794  133.0766  161.0235 H   0  0  0  0  0  0  0  0  0  0  0  0
  125.7509  132.2937  162.6111 H   0  0  0  0  0  0  0  0  0  0  0  0
  124.7977  136.1767  163.2528 H   0  0  0  0  0  0  0  0  0  0  0  0
  127.3558  136.0857  163.4768 H   0  0  0  0  0  0  0  0  0  0  0  0
  126.7017  137.0213  162.1161 H   0  0  0  0  0  0  0  0  0  0  0  0
  130.8065  137.2223  163.4974 H   0  0  0  0  0  0  0  0  0  0  0  0
  132.5193  136.4802  165.1019 H   0  0  0  0  0  0  0  0  0  0  0  0
  1  2  1  0
  1 35  1  0
  1 36  1  0
  1 37  1  0
  2  3  1  0
  3 34  2  0
  3  4  1  0
  4  5  2  0
  4 38  1  0
  5  6  1  0
  5 39  1  0
  6  7  1  0
  6 33  2  0
  7  8  1  1
  7  9  1  0
  7 16  1  0
  9 10  1  0
  9 40  1  0
  9 41  1  0
 10 15  1  0
 10 11  2  0
 11 12  1  0
 11 42  1  0
 12 13  2  0
 12 43  1  0
 13 14  1  0
 13 44  1  0
 14 15  2  0
 14 45  1  0
 15 46  1  0
 16 47  1  0
 17 16  1  0
 17 18  1  0
 17 23  2  0
 18 19  1  0
 18 48  1  0
 19 22  1  0
 19 20  1  0
 19 49  1  0
 20 21  1  0
 20 50  1  0
 20 51  1  0
 21 22  1  0
 21 52  1  0
 21 53  1  0
 22 54  1  0
 22 55  1  0
 23 24  1  0
 23 25  1  0
 25 26  1  6
 25 32  1  0
 25 27  1  0
 27 28  1  0
 27 56  1  0
 27 57  1  0
 28 29  1  0
 28 58  1  0
 28 59  1  0
 29 30  2  0
 29 31  1  0
 31 32  1  0
 31 60  1  0
 32 61  1  0
 32 62  1  0
 33 34  1  0
 33 63  1  0
 34 64  1  0
M  CHG  1  23   1
M  END
>  <DOCK_score>  (1) 
-40.998703

>  <SMILES>  (1) 
COc1ccc([C@@H](Cc2ccccc2)NC(NC2CCC2)=[NH+][C@H]2CCC(=O)NC2)cc1

$$$$
