Nc1ccc(-c2c[nH]c(NCC(=CC(=O)NC3CC3)Cc3ccccc3)[nH+]2)cc1
     RDKit          3D

 55 58  0  0  1  0  0  0  0  0999 V2000
  131.4415  129.8472  151.8745 N   0  0  0  0  0  0  0  0  0  0  0  0
  131.1922  130.4967  153.0859 C   0  0  0  0  0  0  0  0  0  0  0  0
  130.9243  131.8612  153.0991 C   0  0  0  0  0  0  0  0  0  0  0  0
  130.6775  132.5045  154.2936 C   0  0  0  0  0  0  0  0  0  0  0  0
  130.6970  131.7859  155.4880 C   0  0  0  0  0  0  0  0  0  0  0  0
  130.4323  132.4758  156.7744 C   0  0  0  0  0  0  0  0  0  0  0  0
  129.8710  131.9205  157.8768 C   0  0  0  0  0  0  0  0  0  0  0  0
  129.8071  132.9076  158.8317 N   0  0  0  0  0  0  0  0  0  0  0  0
  129.4509  132.8165  159.7294 H   0  0  0  0  0  0  0  0  0  0  0  0
  130.3366  134.0357  158.2851 C   0  0  0  0  0  0  0  0  0  0  0  0
  130.4584  135.2593  158.9211 N   0  0  0  0  0  0  0  0  0  0  0  0
  129.9956  135.4164  160.3021 C   0  0  0  0  0  0  0  0  0  0  0  0
  130.2405  136.8324  160.7561 C   0  0  0  0  0  0  0  0  0  0  0  0
  129.2194  137.5940  161.1384 C   0  0  0  0  0  0  0  0  0  0  0  0
  129.4458  139.0033  161.4942 C   0  0  0  0  0  0  0  0  0  0  0  0
  129.9090  139.7710  160.6725 O   0  0  0  0  0  0  0  0  0  0  0  0
  129.1402  139.4435  162.7308 N   0  0  0  0  0  0  0  0  0  0  0  0
  129.3657  140.8471  163.0852 C   0  0  0  0  0  0  0  0  0  0  0  0
  130.7605  141.2354  163.5798 C   0  0  0  0  0  0  0  0  0  0  0  0
  129.5884  141.1756  164.5628 C   0  0  0  0  0  0  0  0  0  0  0  0
  131.6421  137.3852  160.7768 C   0  0  0  0  0  0  0  0  0  0  0  0
  132.4964  136.5544  161.6993 C   0  0  0  0  0  0  0  0  0  0  0  0
  132.5978  136.8896  163.0364 C   0  0  0  0  0  0  0  0  0  0  0  0
  133.3774  136.1247  163.8837 C   0  0  0  0  0  0  0  0  0  0  0  0
  134.0641  135.0305  163.3915 C   0  0  0  0  0  0  0  0  0  0  0  0
  133.9667  134.6982  162.0532 C   0  0  0  0  0  0  0  0  0  0  0  0
  133.1829  135.4601  161.2071 C   0  0  0  0  0  0  0  0  0  0  0  0
  130.7119  133.7727  157.0570 N   0  0  0  0  0  0  0  0  0  0  0  0
  131.1206  134.4059  156.4462 H   0  0  0  0  0  0  0  0  0  0  0  0
  130.9713  130.4192  155.4724 C   0  0  0  0  0  0  0  0  0  0  0  0
  131.2124  129.7791  154.2750 C   0  0  0  0  0  0  0  0  0  0  0  0
  131.4277  130.3485  151.0435 H   0  0  0  0  0  0  0  0  0  0  0  0
  131.6290  128.8963  151.8638 H   0  0  0  0  0  0  0  0  0  0  0  0
  130.9097  132.4176  152.1735 H   0  0  0  0  0  0  0  0  0  0  0  0
  130.4689  133.5641  154.3038 H   0  0  0  0  0  0  0  0  0  0  0  0
  129.5352  130.8996  157.9832 H   0  0  0  0  0  0  0  0  0  0  0  0
  130.8503  136.0126  158.4523 H   0  0  0  0  0  0  0  0  0  0  0  0
  128.9291  135.1971  160.3551 H   0  0  0  0  0  0  0  0  0  0  0  0
  130.5405  134.7283  160.9485 H   0  0  0  0  0  0  0  0  0  0  0  0
  128.2239  137.1778  161.1877 H   0  0  0  0  0  0  0  0  0  0  0  0
  128.7708  138.8312  163.3861 H   0  0  0  0  0  0  0  0  0  0  0  0
  128.8239  141.5768  162.4834 H   0  0  0  0  0  0  0  0  0  0  0  0
  131.5102  140.4468  163.6418 H   0  0  0  0  0  0  0  0  0  0  0  0
  131.1360  142.2208  163.3040 H   0  0  0  0  0  0  0  0  0  0  0  0
  129.1936  142.1216  164.9331 H   0  0  0  0  0  0  0  0  0  0  0  0
  129.5667  140.3476  165.2713 H   0  0  0  0  0  0  0  0  0  0  0  0
  132.0593  137.3556  159.7703 H   0  0  0  0  0  0  0  0  0  0  0  0
  131.6210  138.4158  161.1311 H   0  0  0  0  0  0  0  0  0  0  0  0
  132.0649  137.7472  163.4201 H   0  0  0  0  0  0  0  0  0  0  0  0
  133.4537  136.3845  164.9292 H   0  0  0  0  0  0  0  0  0  0  0  0
  134.6767  134.4355  164.0525 H   0  0  0  0  0  0  0  0  0  0  0  0
  134.5034  133.8436  161.6686 H   0  0  0  0  0  0  0  0  0  0  0  0
  133.1072  135.2008  160.1615 H   0  0  0  0  0  0  0  0  0  0  0  0
  130.9914  129.8615  156.3970 H   0  0  0  0  0  0  0  0  0  0  0  0
  131.4206  128.7195  154.2620 H   0  0  0  0  0  0  0  0  0  0  0  0
  1  2  1  0
  1 32  1  0
  1 33  1  0
  2 31  2  0
  2  3  1  0
  3  4  2  0
  3 34  1  0
  4  5  1  0
  4 35  1  0
  5  6  1  0
  5 30  2  0
  6 28  1  0
  6  7  2  0
  7  8  1  0
  7 36  1  0
  8  9  1  0
  8 10  1  0
 10 11  1  0
 10 28  2  0
 11 12  1  0
 11 37  1  0
 12 13  1  0
 12 38  1  0
 12 39  1  0
 13 14  2  0
 13 21  1  0
 14 15  1  0
 14 40  1  0
 15 16  2  0
 15 17  1  0
 17 18  1  0
 17 41  1  0
 18 20  1  0
 18 19  1  0
 18 42  1  0
 19 20  1  0
 19 43  1  0
 19 44  1  0
 20 45  1  0
 20 46  1  0
 21 22  1  0
 21 47  1  0
 21 48  1  0
 22 27  1  0
 22 23  2  0
 23 24  1  0
 23 49  1  0
 24 25  2  0
 24 50  1  0
 25 26  1  0
 25 51  1  0
 26 27  2  0
 26 52  1  0
 27 53  1  0
 28 29  1  0
 30 31  1  0
 30 54  1  0
 31 55  1  0
M  CHG  1  28   1
M  END
>  <DOCK_score>  (1) 
-56.968174

>  <SMILES>  (1) 
Nc1ccc(-c2c[nH]c(NCC(=CC(=O)NC3CC3)Cc3ccccc3)[nH+]2)cc1

$$$$
