Cc1nccn1CCC(=O)c1cccc(C[NH2+][C@@H]2C[C@H]3C[C@@H]2C[C@H]3c2ccccc2)c1
     RDKit          3D

 63 67  0  0  1  0  0  0  0  0999 V2000
  128.3765  139.5894  167.4301 C   0  0  0  0  0  0  0  0  0  0  0  0
  127.5566  140.7628  166.9594 C   0  0  0  0  0  0  0  0  0  0  0  0
  127.4265  141.9001  167.5862 N   0  0  0  0  0  0  0  0  0  0  0  0
  126.6256  142.7078  166.8753 C   0  0  0  0  0  0  0  0  0  0  0  0
  126.2498  142.0482  165.7630 C   0  0  0  0  0  0  0  0  0  0  0  0
  126.8353  140.8120  165.8188 N   0  0  0  0  0  0  0  0  0  0  0  0
  126.7083  139.7444  164.8237 C   0  0  0  0  0  0  0  0  0  0  0  0
  127.8117  139.8915  163.7741 C   0  0  0  0  0  0  0  0  0  0  0  0
  127.6810  138.7932  162.7506 C   0  0  0  0  0  0  0  0  0  0  0  0
  126.7931  137.9736  162.8507 O   0  0  0  0  0  0  0  0  0  0  0  0
  128.6312  138.7154  161.6294 C   0  0  0  0  0  0  0  0  0  0  0  0
  129.6534  139.6621  161.5073 C   0  0  0  0  0  0  0  0  0  0  0  0
  130.5430  139.5791  160.4573 C   0  0  0  0  0  0  0  0  0  0  0  0
  130.4198  138.5686  159.5192 C   0  0  0  0  0  0  0  0  0  0  0  0
  129.4076  137.6315  159.6300 C   0  0  0  0  0  0  0  0  0  0  0  0
  129.2827  136.5354  158.6033 C   0  0  0  0  0  0  0  0  0  0  0  0
  130.0723  135.3724  159.0300 N   0  0  0  0  0  0  0  0  0  0  0  0
  131.0412  135.6389  159.1212 H   0  0  0  0  0  0  0  0  0  0  0  0
  129.7294  135.0411  159.9191 H   0  0  0  0  0  0  0  0  0  0  0  0
  129.9504  134.3041  158.0292 C   0  0  2  0  0  0  0  0  0  0  0  0
  129.9726  134.7226  157.0230 H   0  0  0  0  0  0  0  0  0  0  0  0
  128.6467  133.5037  158.2512 C   0  0  0  0  0  0  0  0  0  0  0  0
  129.1228  132.0484  158.5456 C   0  0  1  0  0  0  0  0  0  0  0  0
  128.3791  131.2650  158.3998 H   0  0  0  0  0  0  0  0  0  0  0  0
  130.3991  131.9710  157.6354 C   0  0  0  0  0  0  0  0  0  0  0  0
  131.0916  133.2569  158.2103 C   0  0  2  0  0  0  0  0  0  0  0  0
  132.0582  133.5274  157.7857 H   0  0  0  0  0  0  0  0  0  0  0  0
  131.0657  132.9311  159.7646 C   0  0  0  0  0  0  0  0  0  0  0  0
  129.7613  132.1264  159.9661 C   0  0  1  0  0  0  0  0  0  0  0  0
  129.9852  131.1264  160.3374 H   0  0  0  0  0  0  0  0  0  0  0  0
  128.8408  132.8472  160.9169 C   0  0  0  0  0  0  0  0  0  0  0  0
  129.3649  133.5645  161.9760 C   0  0  0  0  0  0  0  0  0  0  0  0
  128.5208  134.2301  162.8452 C   0  0  0  0  0  0  0  0  0  0  0  0
  127.1521  134.1694  162.6616 C   0  0  0  0  0  0  0  0  0  0  0  0
  126.6277  133.4475  161.6058 C   0  0  0  0  0  0  0  0  0  0  0  0
  127.4720  132.7866  160.7333 C   0  0  0  0  0  0  0  0  0  0  0  0
  128.5132  137.6977  160.6776 C   0  0  0  0  0  0  0  0  0  0  0  0
  129.3916  139.6767  167.0428 H   0  0  0  0  0  0  0  0  0  0  0  0
  128.4031  139.5784  168.5198 H   0  0  0  0  0  0  0  0  0  0  0  0
  127.9279  138.6642  167.0683 H   0  0  0  0  0  0  0  0  0  0  0  0
  126.3371  143.7130  167.1451 H   0  0  0  0  0  0  0  0  0  0  0  0
  125.6078  142.4216  164.9789 H   0  0  0  0  0  0  0  0  0  0  0  0
  126.8016  138.7762  165.3157 H   0  0  0  0  0  0  0  0  0  0  0  0
  125.7343  139.8133  164.3392 H   0  0  0  0  0  0  0  0  0  0  0  0
  127.7183  140.8596  163.2821 H   0  0  0  0  0  0  0  0  0  0  0  0
  128.7856  139.8227  164.2586 H   0  0  0  0  0  0  0  0  0  0  0  0
  129.7482  140.4537  162.2359 H   0  0  0  0  0  0  0  0  0  0  0  0
  131.3354  140.3070  160.3639 H   0  0  0  0  0  0  0  0  0  0  0  0
  131.1172  138.5113  158.6966 H   0  0  0  0  0  0  0  0  0  0  0  0
  128.2360  136.2476  158.5048 H   0  0  0  0  0  0  0  0  0  0  0  0
  129.6529  136.8934  157.6427 H   0  0  0  0  0  0  0  0  0  0  0  0
  128.0961  133.9030  159.1030 H   0  0  0  0  0  0  0  0  0  0  0  0
  128.0280  133.5288  157.3543 H   0  0  0  0  0  0  0  0  0  0  0  0
  130.9840  131.0714  157.8271 H   0  0  0  0  0  0  0  0  0  0  0  0
  130.1545  132.0764  156.5785 H   0  0  0  0  0  0  0  0  0  0  0  0
  131.0412  133.8481  160.3534 H   0  0  0  0  0  0  0  0  0  0  0  0
  131.9307  132.3274  160.0389 H   0  0  0  0  0  0  0  0  0  0  0  0
  130.4341  133.6083  162.1220 H   0  0  0  0  0  0  0  0  0  0  0  0
  128.9305  134.7944  163.6698 H   0  0  0  0  0  0  0  0  0  0  0  0
  126.4924  134.6864  163.3427 H   0  0  0  0  0  0  0  0  0  0  0  0
  125.5582  133.4001  161.4623 H   0  0  0  0  0  0  0  0  0  0  0  0
  127.0624  132.2224  159.9084 H   0  0  0  0  0  0  0  0  0  0  0  0
  127.7236  136.9657  160.7626 H   0  0  0  0  0  0  0  0  0  0  0  0
  1  2  1  0
  1 38  1  0
  1 39  1  0
  1 40  1  0
  2  6  1  0
  2  3  2  0
  3  4  1  0
  4  5  2  0
  4 41  1  0
  5  6  1  0
  5 42  1  0
  6  7  1  0
  7  8  1  0
  7 43  1  0
  7 44  1  0
  8  9  1  0
  8 45  1  0
  8 46  1  0
  9 10  2  0
  9 11  1  0
 11 37  1  0
 11 12  2  0
 12 13  1  0
 12 47  1  0
 13 14  2  0
 13 48  1  0
 14 15  1  0
 14 49  1  0
 15 16  1  0
 15 37  2  0
 16 17  1  0
 16 50  1  0
 16 51  1  0
 17 18  1  0
 17 19  1  0
 17 20  1  0
 20 21  1  6
 20 26  1  0
 20 22  1  0
 22 23  1  0
 22 52  1  0
 22 53  1  0
 23 24  1  1
 23 29  1  0
 23 25  1  0
 25 26  1  0
 25 54  1  0
 25 55  1  0
 26 27  1  6
 26 28  1  0
 28 29  1  0
 28 56  1  0
 28 57  1  0
 29 30  1  1
 29 31  1  0
 31 36  1  0
 31 32  2  0
 32 33  1  0
 32 58  1  0
 33 34  2  0
 33 59  1  0
 34 35  1  0
 34 60  1  0
 35 36  2  0
 35 61  1  0
 36 62  1  0
 37 63  1  0
M  CHG  1  17   1
M  END
>  <DOCK_score>  (1) 
-44.371498

>  <SMILES>  (1) 
Cc1nccn1CCC(=O)c1cccc(C[NH2+][C@@H]2C[C@H]3C[C@@H]2C[C@H]3c2ccccc2)c1

$$$$
