COc1cc(O)ccc1Nc1[nH]cc(-c2ccncc2)[nH+]1
     RDKit          3D

 36 38  0  0  1  0  0  0  0  0999 V2000
  131.5054  134.9697  161.7411 C   0  0  0  0  0  0  0  0  0  0  0  0
  130.9747  136.1632  161.1615 O   0  0  0  0  0  0  0  0  0  0  0  0
  129.6458  136.1710  160.8726 C   0  0  0  0  0  0  0  0  0  0  0  0
  128.7327  136.6070  161.8184 C   0  0  0  0  0  0  0  0  0  0  0  0
  127.3781  136.6092  161.5241 C   0  0  0  0  0  0  0  0  0  0  0  0
  126.4809  137.0322  162.4543 O   0  0  0  0  0  0  0  0  0  0  0  0
  126.9360  136.1803  160.2808 C   0  0  0  0  0  0  0  0  0  0  0  0
  127.8446  135.7496  159.3327 C   0  0  0  0  0  0  0  0  0  0  0  0
  129.2011  135.7455  159.6229 C   0  0  0  0  0  0  0  0  0  0  0  0
  130.1233  135.3078  158.6612 N   0  0  0  0  0  0  0  0  0  0  0  0
  130.0451  134.0181  158.1633 C   0  0  0  0  0  0  0  0  0  0  0  0
  129.5776  132.9334  158.8409 N   0  0  0  0  0  0  0  0  0  0  0  0
  129.2458  132.9247  159.7524 H   0  0  0  0  0  0  0  0  0  0  0  0
  129.6679  131.8540  157.9991 C   0  0  0  0  0  0  0  0  0  0  0  0
  130.1877  132.3078  156.8305 C   0  0  0  0  0  0  0  0  0  0  0  0
  130.4642  131.4927  155.6238 C   0  0  0  0  0  0  0  0  0  0  0  0
  129.8381  131.7769  154.4058 C   0  0  0  0  0  0  0  0  0  0  0  0
  130.1274  130.9958  153.3068 C   0  0  0  0  0  0  0  0  0  0  0  0
  130.9736  129.9876  153.3961 N   0  0  0  0  0  0  0  0  0  0  0  0
  131.5820  129.6825  154.5272 C   0  0  0  0  0  0  0  0  0  0  0  0
  131.3540  130.4147  155.6733 C   0  0  0  0  0  0  0  0  0  0  0  0
  130.4087  133.6400  156.9622 N   0  0  0  0  0  0  0  0  0  0  0  0
  130.7771  134.2197  156.2772 H   0  0  0  0  0  0  0  0  0  0  0  0
  132.5729  135.0968  161.9211 H   0  0  0  0  0  0  0  0  0  0  0  0
  130.9992  134.7681  162.6852 H   0  0  0  0  0  0  0  0  0  0  0  0
  131.3490  134.1339  161.0591 H   0  0  0  0  0  0  0  0  0  0  0  0
  129.0757  136.9414  162.7863 H   0  0  0  0  0  0  0  0  0  0  0  0
  125.5611  136.9978  162.1582 H   0  0  0  0  0  0  0  0  0  0  0  0
  125.8801  136.1826  160.0535 H   0  0  0  0  0  0  0  0  0  0  0  0
  127.4986  135.4156  158.3658 H   0  0  0  0  0  0  0  0  0  0  0  0
  130.8160  135.9086  158.3448 H   0  0  0  0  0  0  0  0  0  0  0  0
  129.3802  130.8375  158.2234 H   0  0  0  0  0  0  0  0  0  0  0  0
  129.1413  132.5983  154.3264 H   0  0  0  0  0  0  0  0  0  0  0  0
  129.6518  131.2098  152.3611 H   0  0  0  0  0  0  0  0  0  0  0  0
  132.2675  128.8484  154.5555 H   0  0  0  0  0  0  0  0  0  0  0  0
  131.8554  130.1598  156.5954 H   0  0  0  0  0  0  0  0  0  0  0  0
  1  2  1  0
  1 24  1  0
  1 25  1  0
  1 26  1  0
  2  3  1  0
  3  9  2  0
  3  4  1  0
  4  5  2  0
  4 27  1  0
  5  6  1  0
  5  7  1  0
  6 28  1  0
  7  8  2  0
  7 29  1  0
  8  9  1  0
  8 30  1  0
  9 10  1  0
 10 31  1  0
 11 10  1  0
 11 22  2  0
 11 12  1  0
 12 13  1  0
 12 14  1  0
 14 15  2  0
 14 32  1  0
 15 16  1  0
 15 22  1  0
 16 21  1  0
 16 17  2  0
 17 18  1  0
 17 33  1  0
 18 19  2  0
 18 34  1  0
 19 20  1  0
 20 21  2  0
 20 35  1  0
 21 36  1  0
 22 23  1  0
M  CHG  1  22   1
M  END
>  <DOCK_score>  (1) 
-45.146534

>  <SMILES>  (1) 
COc1cc(O)ccc1Nc1[nH]cc(-c2ccncc2)[nH+]1

$$$$
