c1ccn2ncc(Nc3ccc(-c4n[nH]cc4C[NH2+]CC4CC(C5CC5)C4)o3)c2c1
     RDKit          3D

 57 62  0  0  1  0  0  0  0  0999 V2000
  125.8597  138.8745  165.5334 C   0  0  0  0  0  0  0  0  0  0  0  0
  126.9324  139.7696  165.6885 C   0  0  0  0  0  0  0  0  0  0  0  0
  127.8956  139.8525  164.7482 C   0  0  0  0  0  0  0  0  0  0  0  0
  127.8454  139.0683  163.6285 N   0  0  0  0  0  0  0  0  0  0  0  0
  128.6902  138.9508  162.5181 N   0  0  0  0  0  0  0  0  0  0  0  0
  128.1997  138.0438  161.7001 C   0  0  0  0  0  0  0  0  0  0  0  0
  127.0242  137.5362  162.2392 C   0  0  0  0  0  0  0  0  0  0  0  0
  126.2036  136.5479  161.6646 N   0  0  0  0  0  0  0  0  0  0  0  0
  126.7607  135.5692  160.8521 C   0  0  0  0  0  0  0  0  0  0  0  0
  126.0829  134.5621  160.2451 C   0  0  0  0  0  0  0  0  0  0  0  0
  127.0277  133.8070  159.5238 C   0  0  0  0  0  0  0  0  0  0  0  0
  128.2378  134.3921  159.7269 C   0  0  0  0  0  0  0  0  0  0  0  0
  129.5247  133.9372  159.1615 C   0  0  0  0  0  0  0  0  0  0  0  0
  129.7016  132.8949  158.3735 N   0  0  0  0  0  0  0  0  0  0  0  0
  131.0648  132.8108  158.0634 N   0  0  0  0  0  0  0  0  0  0  0  0
  131.4798  132.1383  157.5008 H   0  0  0  0  0  0  0  0  0  0  0  0
  131.7020  133.8273  158.6840 C   0  0  0  0  0  0  0  0  0  0  0  0
  130.7830  134.5407  159.3691 C   0  0  0  0  0  0  0  0  0  0  0  0
  131.0533  135.7643  160.2064 C   0  0  0  0  0  0  0  0  0  0  0  0
  132.4884  136.0755  160.1699 N   0  0  0  0  0  0  0  0  0  0  0  0
  133.0113  135.2945  160.5370 H   0  0  0  0  0  0  0  0  0  0  0  0
  132.7704  136.2509  159.2171 H   0  0  0  0  0  0  0  0  0  0  0  0
  132.7518  137.2682  160.9861 C   0  0  0  0  0  0  0  0  0  0  0  0
  134.2467  137.5922  160.9481 C   0  0  2  0  0  0  0  0  0  0  0  0
  134.6208  138.8653  161.7253 C   0  0  0  0  0  0  0  0  0  0  0  0
  135.5932  139.1855  160.5779 C   0  0  2  0  0  0  0  0  0  0  0  0
  135.6260  140.6665  160.1949 C   0  0  0  0  0  0  0  0  0  0  0  0
  136.9475  141.2315  159.6702 C   0  0  0  0  0  0  0  0  0  0  0  0
  136.4586  141.6044  161.0712 C   0  0  0  0  0  0  0  0  0  0  0  0
  134.6835  138.3358  159.6749 C   0  0  0  0  0  0  0  0  0  0  0  0
  128.0630  135.4564  160.5383 O   0  0  0  0  0  0  0  0  0  0  0  0
  126.8033  138.1891  163.4497 C   0  0  0  0  0  0  0  0  0  0  0  0
  125.7950  138.0872  164.4251 C   0  0  0  0  0  0  0  0  0  0  0  0
  125.0910  138.8121  166.2893 H   0  0  0  0  0  0  0  0  0  0  0  0
  126.9858  140.3954  166.5672 H   0  0  0  0  0  0  0  0  0  0  0  0
  128.7145  140.5441  164.8806 H   0  0  0  0  0  0  0  0  0  0  0  0
  128.6404  137.7423  160.7614 H   0  0  0  0  0  0  0  0  0  0  0  0
  125.2489  136.5503  161.8361 H   0  0  0  0  0  0  0  0  0  0  0  0
  125.0209  134.3750  160.3046 H   0  0  0  0  0  0  0  0  0  0  0  0
  126.8291  132.9311  158.9240 H   0  0  0  0  0  0  0  0  0  0  0  0
  132.7612  134.0331  158.6401 H   0  0  0  0  0  0  0  0  0  0  0  0
  130.4884  136.6080  159.8097 H   0  0  0  0  0  0  0  0  0  0  0  0
  130.7486  135.5748  161.2356 H   0  0  0  0  0  0  0  0  0  0  0  0
  132.1870  138.1118  160.5894 H   0  0  0  0  0  0  0  0  0  0  0  0
  132.4472  137.0786  162.0153 H   0  0  0  0  0  0  0  0  0  0  0  0
  134.8723  136.7327  161.1882 H   0  0  0  0  0  0  0  0  0  0  0  0
  133.8016  139.5787  161.8153 H   0  0  0  0  0  0  0  0  0  0  0  0
  135.1169  138.6669  162.6754 H   0  0  0  0  0  0  0  0  0  0  0  0
  136.5879  138.7623  160.7175 H   0  0  0  0  0  0  0  0  0  0  0  0
  134.7043  141.0622  159.7683 H   0  0  0  0  0  0  0  0  0  0  0  0
  137.7935  140.5480  159.5977 H   0  0  0  0  0  0  0  0  0  0  0  0
  136.8955  141.9990  158.8982 H   0  0  0  0  0  0  0  0  0  0  0  0
  136.0849  142.6174  161.2209 H   0  0  0  0  0  0  0  0  0  0  0  0
  136.9831  141.1664  161.9205 H   0  0  0  0  0  0  0  0  0  0  0  0
  135.2301  137.7099  158.9696 H   0  0  0  0  0  0  0  0  0  0  0  0
  133.8811  138.9032  159.2035 H   0  0  0  0  0  0  0  0  0  0  0  0
  124.9762  137.3952  164.2939 H   0  0  0  0  0  0  0  0  0  0  0  0
  1 33  2  0
  1  2  1  0
  1 34  1  0
  2  3  2  0
  2 35  1  0
  3  4  1  0
  3 36  1  0
  4 32  1  0
  4  5  1  0
  5  6  2  0
  6  7  1  0
  6 37  1  0
  7  8  1  0
  7 32  2  0
  8  9  1  0
  8 38  1  0
  9 31  1  0
  9 10  2  0
 10 11  1  0
 10 39  1  0
 11 12  2  0
 11 40  1  0
 12 13  1  0
 12 31  1  0
 13 18  1  0
 13 14  2  0
 14 15  1  0
 15 16  1  0
 15 17  1  0
 17 18  2  0
 17 41  1  0
 18 19  1  0
 19 20  1  0
 19 42  1  0
 19 43  1  0
 20 21  1  0
 20 22  1  0
 20 23  1  0
 23 24  1  0
 23 44  1  0
 23 45  1  0
 24 30  1  0
 24 25  1  0
 24 46  1  1
 25 26  1  0
 25 47  1  0
 25 48  1  0
 26 27  1  0
 26 30  1  0
 26 49  1  1
 27 29  1  0
 27 28  1  0
 27 50  1  0
 28 29  1  0
 28 51  1  0
 28 52  1  0
 29 53  1  0
 29 54  1  0
 30 55  1  0
 30 56  1  0
 32 33  1  0
 33 57  1  0
M  CHG  1  20   1
M  END
>  <DOCK_score>  (1) 
-45.601471

>  <SMILES>  (1) 
c1ccn2ncc(Nc3ccc(-c4n[nH]cc4C[NH2+]CC4CC(C5CC5)C4)o3)c2c1

$$$$
