O=C(NC1CCc2ccc(O)cc21)[C@H]1CCC[NH+]1Cc1ccc(Cl)cc1
     RDKit          3D

 50 53  0  0  1  0  0  0  0  0999 V2000
  130.2249  135.3232  159.0892 O   0  0  0  0  0  0  0  0  0  0  0  0
  129.8915  135.2711  160.2541 C   0  0  0  0  0  0  0  0  0  0  0  0
  128.8536  134.4949  160.6239 N   0  0  0  0  0  0  0  0  0  0  0  0
  128.1281  133.7142  159.6188 C   0  0  1  0  0  0  0  0  0  0  0  0
  128.7666  132.3179  159.4619 C   0  0  0  0  0  0  0  0  0  0  0  0
  127.5437  131.4186  159.1824 C   0  0  0  0  0  0  0  0  0  0  0  0
  126.3729  132.1351  159.8283 C   0  0  0  0  0  0  0  0  0  0  0  0
  125.1146  131.6662  160.1695 C   0  0  0  0  0  0  0  0  0  0  0  0
  124.1947  132.5083  160.7602 C   0  0  0  0  0  0  0  0  0  0  0  0
  124.5309  133.8304  161.0139 C   0  0  0  0  0  0  0  0  0  0  0  0
  123.6283  134.6634  161.5955 O   0  0  0  0  0  0  0  0  0  0  0  0
  125.7901  134.2988  160.6733 C   0  0  0  0  0  0  0  0  0  0  0  0
  126.7104  133.4520  160.0802 C   0  0  0  0  0  0  0  0  0  0  0  0
  130.6379  136.0741  161.2881 C   0  0  1  0  0  0  0  0  0  0  0  0
  129.9576  136.7697  161.7797 H   0  0  0  0  0  0  0  0  0  0  0  0
  131.2678  135.1314  162.3300 C   0  0  0  0  0  0  0  0  0  0  0  0
  132.7870  135.4086  162.2590 C   0  0  0  0  0  0  0  0  0  0  0  0
  132.8519  136.8269  161.6386 C   0  0  0  0  0  0  0  0  0  0  0  0
  131.7460  136.8149  160.6472 N   0  0  2  0  0  0  0  0  0  0  0  0
  132.0388  136.3428  159.8049 H   0  0  0  0  0  0  0  0  0  0  0  0
  131.3261  138.1888  160.3402 C   0  0  0  0  0  0  0  0  0  0  0  0
  132.5439  139.0576  160.1582 C   0  0  0  0  0  0  0  0  0  0  0  0
  133.0895  139.7185  161.2430 C   0  0  0  0  0  0  0  0  0  0  0  0
  134.2098  140.5109  161.0777 C   0  0  0  0  0  0  0  0  0  0  0  0
  134.7786  140.6515  159.8244 C   0  0  0  0  0  0  0  0  0  0  0  0
  136.1813  141.6526  159.6147 Cl  0  0  0  0  0  0  0  0  0  0  0  0
  134.2288  139.9942  158.7382 C   0  0  0  0  0  0  0  0  0  0  0  0
  133.1118  139.1976  158.9057 C   0  0  0  0  0  0  0  0  0  0  0  0
  128.5871  134.4532  161.5555 H   0  0  0  0  0  0  0  0  0  0  0  0
  128.1255  134.2384  158.6631 H   0  0  0  0  0  0  0  0  0  0  0  0
  129.4600  132.3012  158.6211 H   0  0  0  0  0  0  0  0  0  0  0  0
  129.2678  132.0154  160.3814 H   0  0  0  0  0  0  0  0  0  0  0  0
  127.3819  131.3232  158.1087 H   0  0  0  0  0  0  0  0  0  0  0  0
  127.6857  130.4363  159.6330 H   0  0  0  0  0  0  0  0  0  0  0  0
  124.8525  130.6373  159.9719 H   0  0  0  0  0  0  0  0  0  0  0  0
  123.2147  132.1391  161.0244 H   0  0  0  0  0  0  0  0  0  0  0  0
  123.9544  135.5635  161.7314 H   0  0  0  0  0  0  0  0  0  0  0  0
  126.0534  135.3275  160.8701 H   0  0  0  0  0  0  0  0  0  0  0  0
  130.8877  135.3601  163.3257 H   0  0  0  0  0  0  0  0  0  0  0  0
  131.0604  134.0923  162.0746 H   0  0  0  0  0  0  0  0  0  0  0  0
  133.2272  135.4033  163.2561 H   0  0  0  0  0  0  0  0  0  0  0  0
  133.2822  134.6806  161.6166 H   0  0  0  0  0  0  0  0  0  0  0  0
  132.6783  137.5878  162.3995 H   0  0  0  0  0  0  0  0  0  0  0  0
  133.8111  136.9882  161.1469 H   0  0  0  0  0  0  0  0  0  0  0  0
  130.7369  138.1924  159.4232 H   0  0  0  0  0  0  0  0  0  0  0  0
  130.7228  138.5763  161.1611 H   0  0  0  0  0  0  0  0  0  0  0  0
  132.6428  139.6122  162.2205 H   0  0  0  0  0  0  0  0  0  0  0  0
  134.6385  141.0237  161.9260 H   0  0  0  0  0  0  0  0  0  0  0  0
  134.6725  140.1033  157.7596 H   0  0  0  0  0  0  0  0  0  0  0  0
  132.6828  138.6843  158.0578 H   0  0  0  0  0  0  0  0  0  0  0  0
  1  2  2  0
  2  3  1  0
  2 14  1  0
  3  4  1  0
  3 29  1  0
  4 13  1  0
  4  5  1  0
  4 30  1  6
  5  6  1  0
  5 31  1  0
  5 32  1  0
  6  7  1  0
  6 33  1  0
  6 34  1  0
  7 13  2  0
  7  8  1  0
  8  9  2  0
  8 35  1  0
  9 10  1  0
  9 36  1  0
 10 11  1  0
 10 12  2  0
 11 37  1  0
 12 13  1  0
 12 38  1  0
 14 15  1  1
 14 19  1  0
 14 16  1  0
 16 17  1  0
 16 39  1  0
 16 40  1  0
 17 18  1  0
 17 41  1  0
 17 42  1  0
 18 19  1  0
 18 43  1  0
 18 44  1  0
 19 20  1  6
 19 21  1  0
 21 22  1  0
 21 45  1  0
 21 46  1  0
 22 28  1  0
 22 23  2  0
 23 24  1  0
 23 47  1  0
 24 25  2  0
 24 48  1  0
 25 26  1  0
 25 27  1  0
 27 28  2  0
 27 49  1  0
 28 50  1  0
M  CHG  1  19   1
M  END
>  <DOCK_score>  (1) 
-44.657433

>  <SMILES>  (1) 
O=C(NC1CCc2ccc(O)cc21)[C@H]1CCC[NH+]1Cc1ccc(Cl)cc1

$$$$
