O=C(Nc1ccccc1CO)N(c1ccccc1Nc1[nH]c2ccccc2[nH+]1)C1CCC1
     RDKit          3D

 58 62  0  0  0  0  0  0  0  0999 V2000
  127.0262  137.1162  162.0536 O   0  0  0  0  0  0  0  0  0  0  0  0
  128.0175  136.4193  162.1530 C   0  0  0  0  0  0  0  0  0  0  0  0
  128.7046  136.3864  163.3120 N   0  0  0  0  0  0  0  0  0  0  0  0
  128.2769  137.1542  164.4009 C   0  0  0  0  0  0  0  0  0  0  0  0
  127.6035  138.3500  164.1877 C   0  0  0  0  0  0  0  0  0  0  0  0
  127.1827  139.1054  165.2643 C   0  0  0  0  0  0  0  0  0  0  0  0
  127.4313  138.6729  166.5536 C   0  0  0  0  0  0  0  0  0  0  0  0
  128.1018  137.4827  166.7698 C   0  0  0  0  0  0  0  0  0  0  0  0
  128.5199  136.7194  165.6970 C   0  0  0  0  0  0  0  0  0  0  0  0
  129.2447  135.4196  165.9331 C   0  0  0  0  0  0  0  0  0  0  0  0
  130.3783  135.3420  165.0664 O   0  0  0  0  0  0  0  0  0  0  0  0
  128.4295  135.6798  161.1042 N   0  0  0  0  0  0  0  0  0  0  0  0
  127.7152  135.7141  159.8991 C   0  0  0  0  0  0  0  0  0  0  0  0
  126.3819  135.3337  159.8699 C   0  0  0  0  0  0  0  0  0  0  0  0
  125.6792  135.3678  158.6801 C   0  0  0  0  0  0  0  0  0  0  0  0
  126.3017  135.7811  157.5163 C   0  0  0  0  0  0  0  0  0  0  0  0
  127.6301  136.1627  157.5363 C   0  0  0  0  0  0  0  0  0  0  0  0
  128.3414  136.1362  158.7268 C   0  0  0  0  0  0  0  0  0  0  0  0
  129.6857  136.5276  158.7506 N   0  0  0  0  0  0  0  0  0  0  0  0
  130.0820  137.5797  159.5440 C   0  0  0  0  0  0  0  0  0  0  0  0
  131.3308  138.0295  159.6462 N   0  0  0  0  0  0  0  0  0  0  0  0
  132.1021  137.6729  159.1783 H   0  0  0  0  0  0  0  0  0  0  0  0
  131.3418  139.0827  160.5222 C   0  0  0  0  0  0  0  0  0  0  0  0
  132.3406  139.9240  161.0041 C   0  0  0  0  0  0  0  0  0  0  0  0
  132.0243  140.9144  161.9086 C   0  0  0  0  0  0  0  0  0  0  0  0
  130.7173  141.0794  162.3428 C   0  0  0  0  0  0  0  0  0  0  0  0
  129.7163  140.2553  161.8757 C   0  0  0  0  0  0  0  0  0  0  0  0
  130.0183  139.2498  160.9616 C   0  0  0  0  0  0  0  0  0  0  0  0
  129.2734  138.2923  160.3255 N   0  0  0  0  0  0  0  0  0  0  0  0
  128.3183  138.1561  160.4277 H   0  0  0  0  0  0  0  0  0  0  0  0
  129.6240  134.8403  161.2240 C   0  0  0  0  0  0  0  0  0  0  0  0
  129.6673  133.6826  160.2125 C   0  0  0  0  0  0  0  0  0  0  0  0
  130.2248  132.8126  161.3514 C   0  0  0  0  0  0  0  0  0  0  0  0
  129.5179  133.7711  162.3241 C   0  0  0  0  0  0  0  0  0  0  0  0
  129.4955  135.8305  163.3914 H   0  0  0  0  0  0  0  0  0  0  0  0
  127.4093  138.6889  163.1807 H   0  0  0  0  0  0  0  0  0  0  0  0
  126.6589  140.0354  165.0989 H   0  0  0  0  0  0  0  0  0  0  0  0
  127.1023  139.2655  167.3944 H   0  0  0  0  0  0  0  0  0  0  0  0
  128.2948  137.1474  167.7782 H   0  0  0  0  0  0  0  0  0  0  0  0
  129.5765  135.3716  166.9704 H   0  0  0  0  0  0  0  0  0  0  0  0
  128.5728  134.5862  165.7279 H   0  0  0  0  0  0  0  0  0  0  0  0
  131.0203  136.0539  165.1939 H   0  0  0  0  0  0  0  0  0  0  0  0
  125.8925  135.0106  160.7768 H   0  0  0  0  0  0  0  0  0  0  0  0
  124.6412  135.0707  158.6589 H   0  0  0  0  0  0  0  0  0  0  0  0
  125.7483  135.8059  156.5892 H   0  0  0  0  0  0  0  0  0  0  0  0
  128.1129  136.4852  156.6257 H   0  0  0  0  0  0  0  0  0  0  0  0
  130.3376  136.0571  158.2078 H   0  0  0  0  0  0  0  0  0  0  0  0
  133.3602  139.8011  160.6699 H   0  0  0  0  0  0  0  0  0  0  0  0
  132.7997  141.5670  162.2819 H   0  0  0  0  0  0  0  0  0  0  0  0
  130.4823  141.8591  163.0521 H   0  0  0  0  0  0  0  0  0  0  0  0
  128.7007  140.3893  162.2174 H   0  0  0  0  0  0  0  0  0  0  0  0
  130.5462  135.4198  161.2659 H   0  0  0  0  0  0  0  0  0  0  0  0
  128.6828  133.3691  159.8654 H   0  0  0  0  0  0  0  0  0  0  0  0
  130.3739  133.8408  159.3979 H   0  0  0  0  0  0  0  0  0  0  0  0
  131.3119  132.8368  161.4274 H   0  0  0  0  0  0  0  0  0  0  0  0
  129.8210  131.8002  161.3652 H   0  0  0  0  0  0  0  0  0  0  0  0
  130.1038  134.0007  163.2141 H   0  0  0  0  0  0  0  0  0  0  0  0
  128.4924  133.4828  162.5553 H   0  0  0  0  0  0  0  0  0  0  0  0
  1  2  2  0
  2  3  1  0
  2 12  1  0
  3  4  1  0
  3 35  1  0
  4  9  1  0
  4  5  2  0
  5  6  1  0
  5 36  1  0
  6  7  2  0
  6 37  1  0
  7  8  1  0
  7 38  1  0
  8  9  2  0
  8 39  1  0
  9 10  1  0
 10 11  1  0
 10 40  1  0
 10 41  1  0
 11 42  1  0
 12 13  1  0
 12 31  1  0
 13 18  1  0
 13 14  2  0
 14 15  1  0
 14 43  1  0
 15 16  2  0
 15 44  1  0
 16 17  1  0
 16 45  1  0
 17 18  2  0
 17 46  1  0
 18 19  1  0
 19 20  1  0
 19 47  1  0
 20 29  1  0
 20 21  2  0
 21 22  1  0
 21 23  1  0
 23 28  2  0
 23 24  1  0
 24 25  2  0
 24 48  1  0
 25 26  1  0
 25 49  1  0
 26 27  2  0
 26 50  1  0
 27 28  1  0
 27 51  1  0
 28 29  1  0
 29 30  1  0
 31 34  1  0
 31 32  1  0
 31 52  1  0
 32 33  1  0
 32 53  1  0
 32 54  1  0
 33 34  1  0
 33 55  1  0
 33 56  1  0
 34 57  1  0
 34 58  1  0
M  CHG  1  21   1
M  END
>  <DOCK_score>  (1) 
-41.345242

>  <SMILES>  (1) 
O=C(Nc1ccccc1CO)N(c1ccccc1Nc1[nH]c2ccccc2[nH+]1)C1CCC1

$$$$
