CCc1ccc(-c2c[nH]c(N[C@@H](Cc3ccc(-c4ccc5c(c4)CCCC5)cc3)C3CCC3)[nH+]2)cc1
     RDKit          3D

 74 79  0  0  1  0  0  0  0  0999 V2000
  132.0842  129.6340  152.4392 C   0  0  0  0  0  0  0  0  0  0  0  0
  130.6635  129.6656  153.0060 C   0  0  0  0  0  0  0  0  0  0  0  0
  130.6427  130.4950  154.2641 C   0  0  0  0  0  0  0  0  0  0  0  0
  130.3956  131.8542  154.1893 C   0  0  0  0  0  0  0  0  0  0  0  0
  130.3707  132.6178  155.3386 C   0  0  0  0  0  0  0  0  0  0  0  0
  130.6053  132.0190  156.5751 C   0  0  0  0  0  0  0  0  0  0  0  0
  130.5847  132.8354  157.8134 C   0  0  0  0  0  0  0  0  0  0  0  0
  130.2351  132.4015  159.0497 C   0  0  0  0  0  0  0  0  0  0  0  0
  130.3573  133.4748  159.8983 N   0  0  0  0  0  0  0  0  0  0  0  0
  130.1765  133.4771  160.8513 H   0  0  0  0  0  0  0  0  0  0  0  0
  130.7785  134.5341  159.1551 C   0  0  0  0  0  0  0  0  0  0  0  0
  131.0234  135.8093  159.6350 N   0  0  0  0  0  0  0  0  0  0  0  0
  130.2707  136.3162  160.7851 C   0  0  1  0  0  0  0  0  0  0  0  0
  130.4464  135.6722  161.6468 H   0  0  0  0  0  0  0  0  0  0  0  0
  130.7311  137.7388  161.1092 C   0  0  0  0  0  0  0  0  0  0  0  0
  132.0175  137.6843  161.8923 C   0  0  0  0  0  0  0  0  0  0  0  0
  133.2302  137.6904  161.2267 C   0  0  0  0  0  0  0  0  0  0  0  0
  134.4115  137.6455  161.9390 C   0  0  0  0  0  0  0  0  0  0  0  0
  134.3809  137.5832  163.3306 C   0  0  0  0  0  0  0  0  0  0  0  0
  135.6476  137.5285  164.1016 C   0  0  0  0  0  0  0  0  0  0  0  0
  136.7818  136.9382  163.5473 C   0  0  0  0  0  0  0  0  0  0  0  0
  137.9502  136.8922  164.2746 C   0  0  0  0  0  0  0  0  0  0  0  0
  138.0105  137.4277  165.5562 C   0  0  0  0  0  0  0  0  0  0  0  0
  136.8937  138.0179  166.1065 C   0  0  0  0  0  0  0  0  0  0  0  0
  135.7132  138.0711  165.3800 C   0  0  0  0  0  0  0  0  0  0  0  0
  136.8959  138.6318  167.4822 C   0  0  0  0  0  0  0  0  0  0  0  0
  138.0845  138.1232  168.2954 C   0  0  0  0  0  0  0  0  0  0  0  0
  139.3570  138.3114  167.4611 C   0  0  0  0  0  0  0  0  0  0  0  0
  139.3196  137.3256  166.2953 C   0  0  0  0  0  0  0  0  0  0  0  0
  133.1565  137.5720  163.9957 C   0  0  0  0  0  0  0  0  0  0  0  0
  131.9814  137.6226  163.2736 C   0  0  0  0  0  0  0  0  0  0  0  0
  128.7772  136.3269  160.4527 C   0  0  0  0  0  0  0  0  0  0  0  0
  127.8895  136.7896  161.6200 C   0  0  0  0  0  0  0  0  0  0  0  0
  126.9026  135.6842  161.2021 C   0  0  0  0  0  0  0  0  0  0  0  0
  128.1062  134.9499  160.5880 C   0  0  0  0  0  0  0  0  0  0  0  0
  130.9181  134.1469  157.9107 N   0  0  0  0  0  0  0  0  0  0  0  0
  131.2112  134.7087  157.1763 H   0  0  0  0  0  0  0  0  0  0  0  0
  130.8589  130.6502  156.6439 C   0  0  0  0  0  0  0  0  0  0  0  0
  130.8763  129.8956  155.4885 C   0  0  0  0  0  0  0  0  0  0  0  0
  132.4066  130.6497  152.2102 H   0  0  0  0  0  0  0  0  0  0  0  0
  132.7590  129.1957  153.1747 H   0  0  0  0  0  0  0  0  0  0  0  0
  132.0992  129.0341  151.5295 H   0  0  0  0  0  0  0  0  0  0  0  0
  129.9886  130.1037  152.2707 H   0  0  0  0  0  0  0  0  0  0  0  0
  130.3410  128.6499  153.2352 H   0  0  0  0  0  0  0  0  0  0  0  0
  130.2183  132.3177  153.2301 H   0  0  0  0  0  0  0  0  0  0  0  0
  130.1733  133.6779  155.2795 H   0  0  0  0  0  0  0  0  0  0  0  0
  129.9204  131.4032  159.3161 H   0  0  0  0  0  0  0  0  0  0  0  0
  131.6934  136.3673  159.2100 H   0  0  0  0  0  0  0  0  0  0  0  0
  130.8932  138.2884  160.1820 H   0  0  0  0  0  0  0  0  0  0  0  0
  129.9667  138.2423  161.7010 H   0  0  0  0  0  0  0  0  0  0  0  0
  133.2526  137.7346  160.1479 H   0  0  0  0  0  0  0  0  0  0  0  0
  135.3577  137.6544  161.4184 H   0  0  0  0  0  0  0  0  0  0  0  0
  136.7446  136.5188  162.5528 H   0  0  0  0  0  0  0  0  0  0  0  0
  138.8290  136.4344  163.8450 H   0  0  0  0  0  0  0  0  0  0  0  0
  134.8380  138.5335  165.8120 H   0  0  0  0  0  0  0  0  0  0  0  0
  136.9601  139.7163  167.3918 H   0  0  0  0  0  0  0  0  0  0  0  0
  135.9708  138.3687  167.9948 H   0  0  0  0  0  0  0  0  0  0  0  0
  138.1655  138.6915  169.2220 H   0  0  0  0  0  0  0  0  0  0  0  0
  137.9478  137.0661  168.5233 H   0  0  0  0  0  0  0  0  0  0  0  0
  139.3975  139.3311  167.0784 H   0  0  0  0  0  0  0  0  0  0  0  0
  140.2333  138.1158  168.0791 H   0  0  0  0  0  0  0  0  0  0  0  0
  139.4380  136.3120  166.6780 H   0  0  0  0  0  0  0  0  0  0  0  0
  140.1375  137.5482  165.6101 H   0  0  0  0  0  0  0  0  0  0  0  0
  133.1271  137.5242  165.0742 H   0  0  0  0  0  0  0  0  0  0  0  0
  131.0318  137.6136  163.7880 H   0  0  0  0  0  0  0  0  0  0  0  0
  128.5569  136.8294  159.5108 H   0  0  0  0  0  0  0  0  0  0  0  0
  128.3376  136.6272  162.6003 H   0  0  0  0  0  0  0  0  0  0  0  0
  127.4951  137.7981  161.4956 H   0  0  0  0  0  0  0  0  0  0  0  0
  126.1687  136.0117  160.4658 H   0  0  0  0  0  0  0  0  0  0  0  0
  126.4523  135.1571  162.0433 H   0  0  0  0  0  0  0  0  0  0  0  0
  127.8863  134.4754  159.6317 H   0  0  0  0  0  0  0  0  0  0  0  0
  128.6135  134.2836  161.2856 H   0  0  0  0  0  0  0  0  0  0  0  0
  131.0418  130.1812  157.5994 H   0  0  0  0  0  0  0  0  0  0  0  0
  131.0724  128.8348  155.5407 H   0  0  0  0  0  0  0  0  0  0  0  0
  1  2  1  0
  1 40  1  0
  1 41  1  0
  1 42  1  0
  2  3  1  0
  2 43  1  0
  2 44  1  0
  3 39  2  0
  3  4  1  0
  4  5  2  0
  4 45  1  0
  5  6  1  0
  5 46  1  0
  6  7  1  0
  6 38  2  0
  7 36  1  0
  7  8  2  0
  8  9  1  0
  8 47  1  0
  9 10  1  0
  9 11  1  0
 11 12  1  0
 11 36  2  0
 12 13  1  0
 12 48  1  0
 13 14  1  1
 13 15  1  0
 13 32  1  0
 15 16  1  0
 15 49  1  0
 15 50  1  0
 16 31  1  0
 16 17  2  0
 17 18  1  0
 17 51  1  0
 18 19  2  0
 18 52  1  0
 19 20  1  0
 19 30  1  0
 20 25  1  0
 20 21  2  0
 21 22  1  0
 21 53  1  0
 22 23  2  0
 22 54  1  0
 23 29  1  0
 23 24  1  0
 24 25  2  0
 24 26  1  0
 25 55  1  0
 26 27  1  0
 26 56  1  0
 26 57  1  0
 27 28  1  0
 27 58  1  0
 27 59  1  0
 28 29  1  0
 28 60  1  0
 28 61  1  0
 29 62  1  0
 29 63  1  0
 30 31  2  0
 30 64  1  0
 31 65  1  0
 32 35  1  0
 32 33  1  0
 32 66  1  0
 33 34  1  0
 33 67  1  0
 33 68  1  0
 34 35  1  0
 34 69  1  0
 34 70  1  0
 35 71  1  0
 35 72  1  0
 36 37  1  0
 38 39  1  0
 38 73  1  0
 39 74  1  0
M  CHG  1  36   1
M  END
>  <DOCK_score>  (1) 
-58.251568

>  <SMILES>  (1) 
CCc1ccc(-c2c[nH]c(N[C@@H](Cc3ccc(-c4ccc5c(c4)CCCC5)cc3)C3CCC3)[nH+]2)cc1

$$$$
