O=C(C[NH+]1CCC(c2c[nH]nc2C(=O)Nc2cnn(CC(F)(F)F)c2)CC1)c1cc2ccccc2[nH]1
     RDKit          3D

 61 65  0  0  1  0  0  0  0  0999 V2000
  132.1133  130.0558  157.1945 O   0  0  0  0  0  0  0  0  0  0  0  0
  131.6219  130.9144  156.4911 C   0  0  0  0  0  0  0  0  0  0  0  0
  131.4397  132.3121  157.0244 C   0  0  0  0  0  0  0  0  0  0  0  0
  130.1208  132.4252  157.6612 N   0  0  1  0  0  0  0  0  0  0  0  0
  129.4385  131.9259  157.1105 H   0  0  0  0  0  0  0  0  0  0  0  0
  130.1785  131.8462  159.0087 C   0  0  0  0  0  0  0  0  0  0  0  0
  128.7879  131.8880  159.6459 C   0  0  0  0  0  0  0  0  0  0  0  0
  128.3160  133.3423  159.7334 C   0  0  2  0  0  0  0  0  0  0  0  0
  126.9155  133.3851  160.2880 C   0  0  0  0  0  0  0  0  0  0  0  0
  125.9525  132.4430  160.1553 C   0  0  0  0  0  0  0  0  0  0  0  0
  124.8600  132.8929  160.8092 N   0  0  0  0  0  0  0  0  0  0  0  0
  124.0182  132.4157  160.8766 H   0  0  0  0  0  0  0  0  0  0  0  0
  125.0942  134.0463  161.3243 N   0  0  0  0  0  0  0  0  0  0  0  0
  126.3303  134.4183  161.0578 C   0  0  0  0  0  0  0  0  0  0  0  0
  126.9793  135.6769  161.4775 C   0  0  0  0  0  0  0  0  0  0  0  0
  128.1308  135.9027  161.1592 O   0  0  0  0  0  0  0  0  0  0  0  0
  126.2951  136.5750  162.2135 N   0  0  0  0  0  0  0  0  0  0  0  0
  126.9133  137.7741  162.6136 C   0  0  0  0  0  0  0  0  0  0  0  0
  128.2264  138.1661  162.3146 C   0  0  0  0  0  0  0  0  0  0  0  0
  128.4396  139.3378  162.8563 N   0  0  0  0  0  0  0  0  0  0  0  0
  127.2723  139.7363  163.5199 N   0  0  0  0  0  0  0  0  0  0  0  0
  127.0850  140.9875  164.2588 C   0  0  0  0  0  0  0  0  0  0  0  0
  127.4855  140.7813  165.7209 C   0  0  0  0  0  0  0  0  0  0  0  0
  128.8295  140.3976  165.7865 F   0  0  0  0  0  0  0  0  0  0  0  0
  127.3068  141.9759  166.4264 F   0  0  0  0  0  0  0  0  0  0  0  0
  126.6872  139.7815  166.2866 F   0  0  0  0  0  0  0  0  0  0  0  0
  126.3431  138.7600  163.3527 C   0  0  0  0  0  0  0  0  0  0  0  0
  128.3313  133.9604  158.3324 C   0  0  0  0  0  0  0  0  0  0  0  0
  129.7384  133.8401  157.7431 C   0  0  0  0  0  0  0  0  0  0  0  0
  131.2070  130.5928  155.1273 C   0  0  0  0  0  0  0  0  0  0  0  0
  130.6401  131.4649  154.2462 C   0  0  0  0  0  0  0  0  0  0  0  0
  130.3931  130.7622  153.0442 C   0  0  0  0  0  0  0  0  0  0  0  0
  129.8391  131.1314  151.8105 C   0  0  0  0  0  0  0  0  0  0  0  0
  129.7231  130.2065  150.8147 C   0  0  0  0  0  0  0  0  0  0  0  0
  130.1494  128.8984  151.0105 C   0  0  0  0  0  0  0  0  0  0  0  0
  130.6972  128.5109  152.2124 C   0  0  0  0  0  0  0  0  0  0  0  0
  130.8266  129.4361  153.2448 C   0  0  0  0  0  0  0  0  0  0  0  0
  131.3209  129.3529  154.5247 N   0  0  0  0  0  0  0  0  0  0  0  0
  131.6891  128.5560  154.9373 H   0  0  0  0  0  0  0  0  0  0  0  0
  131.5094  133.0260  156.2036 H   0  0  0  0  0  0  0  0  0  0  0  0
  132.2170  132.5251  157.7583 H   0  0  0  0  0  0  0  0  0  0  0  0
  130.8753  132.4190  159.6205 H   0  0  0  0  0  0  0  0  0  0  0  0
  130.5175  130.8121  158.9451 H   0  0  0  0  0  0  0  0  0  0  0  0
  128.8331  131.4592  160.6470 H   0  0  0  0  0  0  0  0  0  0  0  0
  128.0898  131.3149  159.0357 H   0  0  0  0  0  0  0  0  0  0  0  0
  128.9841  133.9035  160.3867 H   0  0  0  0  0  0  0  0  0  0  0  0
  126.0414  131.5062  159.6253 H   0  0  0  0  0  0  0  0  0  0  0  0
  125.3764  136.3948  162.4675 H   0  0  0  0  0  0  0  0  0  0  0  0
  128.9399  137.5976  161.7365 H   0  0  0  0  0  0  0  0  0  0  0  0
  127.7070  141.7663  163.8178 H   0  0  0  0  0  0  0  0  0  0  0  0
  126.0379  141.2863  164.2077 H   0  0  0  0  0  0  0  0  0  0  0  0
  125.3347  138.7654  163.7395 H   0  0  0  0  0  0  0  0  0  0  0  0
  127.6239  133.4318  157.6936 H   0  0  0  0  0  0  0  0  0  0  0  0
  128.0504  135.0118  158.3954 H   0  0  0  0  0  0  0  0  0  0  0  0
  130.4447  134.3704  158.3818 H   0  0  0  0  0  0  0  0  0  0  0  0
  129.7520  134.2780  156.7450 H   0  0  0  0  0  0  0  0  0  0  0  0
  130.4211  132.5061  154.4319 H   0  0  0  0  0  0  0  0  0  0  0  0
  129.5052  132.1458  151.6489 H   0  0  0  0  0  0  0  0  0  0  0  0
  129.2962  130.4935  149.8649 H   0  0  0  0  0  0  0  0  0  0  0  0
  130.0502  128.1786  150.2114 H   0  0  0  0  0  0  0  0  0  0  0  0
  131.0254  127.4918  152.3545 H   0  0  0  0  0  0  0  0  0  0  0  0
  1  2  2  0
  2  3  1  0
  2 30  1  0
  3  4  1  0
  3 40  1  0
  3 41  1  0
  4  5  1  6
  4 29  1  0
  4  6  1  0
  6  7  1  0
  6 42  1  0
  6 43  1  0
  7  8  1  0
  7 44  1  0
  7 45  1  0
  8  9  1  0
  8 28  1  0
  8 46  1  1
  9 14  1  0
  9 10  2  0
 10 11  1  0
 10 47  1  0
 11 12  1  0
 11 13  1  0
 13 14  2  0
 14 15  1  0
 15 16  2  0
 15 17  1  0
 17 18  1  0
 17 48  1  0
 18 27  2  0
 18 19  1  0
 19 20  2  0
 19 49  1  0
 20 21  1  0
 21 22  1  0
 21 27  1  0
 22 23  1  0
 22 50  1  0
 22 51  1  0
 23 24  1  0
 23 25  1  0
 23 26  1  0
 27 52  1  0
 28 29  1  0
 28 53  1  0
 28 54  1  0
 29 55  1  0
 29 56  1  0
 30 38  1  0
 30 31  2  0
 31 32  1  0
 31 57  1  0
 32 37  2  0
 32 33  1  0
 33 34  2  0
 33 58  1  0
 34 35  1  0
 34 59  1  0
 35 36  2  0
 35 60  1  0
 36 37  1  0
 36 61  1  0
 37 38  1  0
 38 39  1  0
M  CHG  1   4   1
M  END
>  <DOCK_score>  (1) 
-46.313393

>  <SMILES>  (1) 
O=C(C[NH+]1CCC(c2c[nH]nc2C(=O)Nc2cnn(CC(F)(F)F)c2)CC1)c1cc2ccccc2[nH]1

$$$$
