Cc1ccc(C2=CC[N@@H+](C(c3ccccc3)c3ccc(Oc4cc(=O)c4=O)cc3)CC2)cc1
     RDKit          3D

 59 63  0  0  1  0  0  0  0  0999 V2000
  136.5001  140.9182  161.6315 C   0  0  0  0  0  0  0  0  0  0  0  0
  135.4777  139.8548  161.3242 C   0  0  0  0  0  0  0  0  0  0  0  0
  134.3334  140.1825  160.6187 C   0  0  0  0  0  0  0  0  0  0  0  0
  133.3937  139.2132  160.3338 C   0  0  0  0  0  0  0  0  0  0  0  0
  133.5991  137.9003  160.7593 C   0  0  0  0  0  0  0  0  0  0  0  0
  132.5965  136.8568  160.4576 C   0  0  0  0  0  0  0  0  0  0  0  0
  133.0009  135.6144  160.3036 C   0  0  0  0  0  0  0  0  0  0  0  0
  132.0628  134.4819  160.0004 C   0  0  0  0  0  0  0  0  0  0  0  0
  130.7875  134.9968  159.4883 N   0  0  1  0  0  0  0  0  0  0  0  0
  130.9325  135.4176  158.5828 H   0  0  0  0  0  0  0  0  0  0  0  0
  129.8242  133.8941  159.3696 C   0  0  1  0  0  0  0  0  0  0  0  0
  128.5155  134.4249  158.8436 C   0  0  0  0  0  0  0  0  0  0  0  0
  127.3285  133.8110  159.1975 C   0  0  0  0  0  0  0  0  0  0  0  0
  126.1277  134.3002  158.7183 C   0  0  0  0  0  0  0  0  0  0  0  0
  126.1145  135.3980  157.8781 C   0  0  0  0  0  0  0  0  0  0  0  0
  127.3019  136.0088  157.5205 C   0  0  0  0  0  0  0  0  0  0  0  0
  128.5024  135.5220  158.0030 C   0  0  0  0  0  0  0  0  0  0  0  0
  130.3636  132.8562  158.4195 C   0  0  0  0  0  0  0  0  0  0  0  0
  130.6434  133.1989  157.1094 C   0  0  0  0  0  0  0  0  0  0  0  0
  131.1370  132.2492  156.2362 C   0  0  0  0  0  0  0  0  0  0  0  0
  131.3524  130.9504  156.6747 C   0  0  0  0  0  0  0  0  0  0  0  0
  131.8379  130.0144  155.8177 O   0  0  0  0  0  0  0  0  0  0  0  0
  131.2867  129.9657  154.5878 C   0  0  0  0  0  0  0  0  0  0  0  0
  130.2851  130.6945  153.9721 C   0  0  0  0  0  0  0  0  0  0  0  0
  130.4568  129.9080  152.7488 C   0  0  0  0  0  0  0  0  0  0  0  0
  129.9359  129.9051  151.6502 O   0  0  0  0  0  0  0  0  0  0  0  0
  131.5321  129.1138  153.4039 C   0  0  0  0  0  0  0  0  0  0  0  0
  132.2695  128.1970  153.1045 O   0  0  0  0  0  0  0  0  0  0  0  0
  131.0658  130.6079  157.9885 C   0  0  0  0  0  0  0  0  0  0  0  0
  130.5773  131.5627  158.8590 C   0  0  0  0  0  0  0  0  0  0  0  0
  130.2679  136.0059  160.4249 C   0  0  0  0  0  0  0  0  0  0  0  0
  131.1509  137.2536  160.3374 C   0  0  0  0  0  0  0  0  0  0  0  0
  134.7522  137.5777  161.4758 C   0  0  0  0  0  0  0  0  0  0  0  0
  135.6868  138.5550  161.7491 C   0  0  0  0  0  0  0  0  0  0  0  0
  136.2626  141.3851  162.5873 H   0  0  0  0  0  0  0  0  0  0  0  0
  137.4903  140.4663  161.6834 H   0  0  0  0  0  0  0  0  0  0  0  0
  136.4862  141.6735  160.8452 H   0  0  0  0  0  0  0  0  0  0  0  0
  134.1756  141.1991  160.2899 H   0  0  0  0  0  0  0  0  0  0  0  0
  132.5010  139.4701  159.7831 H   0  0  0  0  0  0  0  0  0  0  0  0
  134.0550  135.3996  160.3991 H   0  0  0  0  0  0  0  0  0  0  0  0
  131.8814  133.9106  160.9108 H   0  0  0  0  0  0  0  0  0  0  0  0
  132.5162  133.8325  159.2515 H   0  0  0  0  0  0  0  0  0  0  0  0
  129.6660  133.4429  160.3491 H   0  0  0  0  0  0  0  0  0  0  0  0
  127.3390  132.9511  159.8509 H   0  0  0  0  0  0  0  0  0  0  0  0
  125.2001  133.8227  158.9974 H   0  0  0  0  0  0  0  0  0  0  0  0
  125.1767  135.7781  157.5010 H   0  0  0  0  0  0  0  0  0  0  0  0
  127.2916  136.8663  156.8640 H   0  0  0  0  0  0  0  0  0  0  0  0
  129.4301  135.9991  157.7231 H   0  0  0  0  0  0  0  0  0  0  0  0
  130.4755  134.2099  156.7685 H   0  0  0  0  0  0  0  0  0  0  0  0
  131.3547  132.5172  155.2128 H   0  0  0  0  0  0  0  0  0  0  0  0
  129.6436  131.5110  154.2695 H   0  0  0  0  0  0  0  0  0  0  0  0
  131.2281  129.5966  158.3311 H   0  0  0  0  0  0  0  0  0  0  0  0
  130.3577  131.2976  159.8827 H   0  0  0  0  0  0  0  0  0  0  0  0
  129.2436  136.2630  160.1545 H   0  0  0  0  0  0  0  0  0  0  0  0
  130.2927  135.6101  161.4400 H   0  0  0  0  0  0  0  0  0  0  0  0
  130.8936  137.9378  161.1459 H   0  0  0  0  0  0  0  0  0  0  0  0
  130.9882  137.7467  159.3789 H   0  0  0  0  0  0  0  0  0  0  0  0
  134.9147  136.5642  161.8117 H   0  0  0  0  0  0  0  0  0  0  0  0
  136.5820  138.3059  162.2997 H   0  0  0  0  0  0  0  0  0  0  0  0
  1  2  1  0
  1 35  1  0
  1 36  1  0
  1 37  1  0
  2 34  2  0
  2  3  1  0
  3  4  2  0
  3 38  1  0
  4  5  1  0
  4 39  1  0
  5  6  1  0
  5 33  2  0
  6 32  1  0
  6  7  2  0
  7  8  1  0
  7 40  1  0
  8  9  1  0
  8 41  1  0
  8 42  1  0
  9 10  1  6
  9 11  1  0
  9 31  1  0
 11 12  1  0
 11 18  1  0
 11 43  1  1
 12 17  1  0
 12 13  2  0
 13 14  1  0
 13 44  1  0
 14 15  2  0
 14 45  1  0
 15 16  1  0
 15 46  1  0
 16 17  2  0
 16 47  1  0
 17 48  1  0
 18 30  1  0
 18 19  2  0
 19 20  1  0
 19 49  1  0
 20 21  2  0
 20 50  1  0
 21 22  1  0
 21 29  1  0
 22 23  1  0
 23 27  1  0
 23 24  2  0
 24 25  1  0
 24 51  1  0
 25 26  2  0
 25 27  1  0
 27 28  2  0
 29 30  2  0
 29 52  1  0
 30 53  1  0
 31 32  1  0
 31 54  1  0
 31 55  1  0
 32 56  1  0
 32 57  1  0
 33 34  1  0
 33 58  1  0
 34 59  1  0
M  CHG  1   9   1
M  END
>  <DOCK_score>  (1) 
-64.084702

>  <SMILES>  (1) 
Cc1ccc(C2=CC[N@@H+](C(c3ccccc3)c3ccc(Oc4cc(=O)c4=O)cc3)CC2)cc1

$$$$
