CCc1ccc(-c2c[nH]c(N[C@@H](C3=CCOCC3)c3cccc(-c4ccc(C)cc4)n3)[nH+]2)cc1
     RDKit          3D

 65 69  0  0  1  0  0  0  0  0999 V2000
  130.3496  128.5514  151.6160 C   0  0  0  0  0  0  0  0  0  0  0  0
  131.4954  129.5076  151.9530 C   0  0  0  0  0  0  0  0  0  0  0  0
  131.1456  130.2949  153.1893 C   0  0  0  0  0  0  0  0  0  0  0  0
  131.4919  129.8088  154.4368 C   0  0  0  0  0  0  0  0  0  0  0  0
  131.1784  130.5280  155.5721 C   0  0  0  0  0  0  0  0  0  0  0  0
  130.5020  131.7415  155.4604 C   0  0  0  0  0  0  0  0  0  0  0  0
  130.1576  132.5166  156.6773 C   0  0  0  0  0  0  0  0  0  0  0  0
  129.3809  132.0883  157.7031 C   0  0  0  0  0  0  0  0  0  0  0  0
  129.3239  133.1140  158.6152 N   0  0  0  0  0  0  0  0  0  0  0  0
  128.8419  133.1081  159.4569 H   0  0  0  0  0  0  0  0  0  0  0  0
  130.0683  134.1400  158.1196 C   0  0  0  0  0  0  0  0  0  0  0  0
  130.2674  135.3631  158.7367 N   0  0  0  0  0  0  0  0  0  0  0  0
  129.6499  135.6369  160.0366 C   0  0  1  0  0  0  0  0  0  0  0  0
  128.5663  135.5603  159.9476 H   0  0  0  0  0  0  0  0  0  0  0  0
  130.1429  134.6344  161.0481 C   0  0  0  0  0  0  0  0  0  0  0  0
  129.3594  134.2999  162.0299 C   0  0  0  0  0  0  0  0  0  0  0  0
  129.7592  133.3172  163.0935 C   0  0  0  0  0  0  0  0  0  0  0  0
  130.9057  132.5755  162.6722 O   0  0  0  0  0  0  0  0  0  0  0  0
  131.9690  133.4100  162.1960 C   0  0  0  0  0  0  0  0  0  0  0  0
  131.5203  134.0547  160.8796 C   0  0  0  0  0  0  0  0  0  0  0  0
  130.0200  137.0271  160.4857 C   0  0  0  0  0  0  0  0  0  0  0  0
  129.0233  137.9589  160.7113 C   0  0  0  0  0  0  0  0  0  0  0  0
  129.3680  139.2359  161.1300 C   0  0  0  0  0  0  0  0  0  0  0  0
  130.7089  139.5370  161.2976 C   0  0  0  0  0  0  0  0  0  0  0  0
  131.6604  138.5510  161.0468 C   0  0  0  0  0  0  0  0  0  0  0  0
  133.1012  138.8579  161.2212 C   0  0  0  0  0  0  0  0  0  0  0  0
  133.9899  137.8525  161.5976 C   0  0  0  0  0  0  0  0  0  0  0  0
  135.3303  138.1424  161.7527 C   0  0  0  0  0  0  0  0  0  0  0  0
  135.7902  139.4306  161.5469 C   0  0  0  0  0  0  0  0  0  0  0  0
  137.2538  139.7424  161.7244 C   0  0  0  0  0  0  0  0  0  0  0  0
  134.9118  140.4336  161.1782 C   0  0  0  0  0  0  0  0  0  0  0  0
  133.5703  140.1538  161.0146 C   0  0  0  0  0  0  0  0  0  0  0  0
  131.2886  137.3398  160.6528 N   0  0  0  0  0  0  0  0  0  0  0  0
  130.5690  133.7774  156.9640 N   0  0  0  0  0  0  0  0  0  0  0  0
  131.1407  134.3239  156.4023 H   0  0  0  0  0  0  0  0  0  0  0  0
  130.1507  132.2242  154.2010 C   0  0  0  0  0  0  0  0  0  0  0  0
  130.4741  131.4992  153.0721 C   0  0  0  0  0  0  0  0  0  0  0  0
  130.6026  127.9820  150.7217 H   0  0  0  0  0  0  0  0  0  0  0  0
  130.1908  127.8673  152.4495 H   0  0  0  0  0  0  0  0  0  0  0  0
  129.4393  129.1236  151.4371 H   0  0  0  0  0  0  0  0  0  0  0  0
  132.4056  128.9358  152.1316 H   0  0  0  0  0  0  0  0  0  0  0  0
  131.6543  130.1921  151.1191 H   0  0  0  0  0  0  0  0  0  0  0  0
  132.0120  128.8662  154.5223 H   0  0  0  0  0  0  0  0  0  0  0  0
  131.4532  130.1494  156.5455 H   0  0  0  0  0  0  0  0  0  0  0  0
  128.8990  131.1255  157.7868 H   0  0  0  0  0  0  0  0  0  0  0  0
  130.8158  136.0389  158.3083 H   0  0  0  0  0  0  0  0  0  0  0  0
  128.3784  134.7483  162.0834 H   0  0  0  0  0  0  0  0  0  0  0  0
  129.9942  133.8549  164.0122 H   0  0  0  0  0  0  0  0  0  0  0  0
  128.9333  132.6309  163.2801 H   0  0  0  0  0  0  0  0  0  0  0  0
  132.1864  134.1836  162.9324 H   0  0  0  0  0  0  0  0  0  0  0  0
  132.8601  132.8065  162.0235 H   0  0  0  0  0  0  0  0  0  0  0  0
  131.5035  133.3028  160.0906 H   0  0  0  0  0  0  0  0  0  0  0  0
  132.2176  134.8479  160.6098 H   0  0  0  0  0  0  0  0  0  0  0  0
  127.9863  137.6939  160.5669 H   0  0  0  0  0  0  0  0  0  0  0  0
  128.6077  139.9798  161.3165 H   0  0  0  0  0  0  0  0  0  0  0  0
  131.0130  140.5226  161.6179 H   0  0  0  0  0  0  0  0  0  0  0  0
  133.6309  136.8475  161.7636 H   0  0  0  0  0  0  0  0  0  0  0  0
  136.0206  137.3631  162.0402 H   0  0  0  0  0  0  0  0  0  0  0  0
  137.4401  140.0357  162.7576 H   0  0  0  0  0  0  0  0  0  0  0  0
  137.8453  138.8587  161.4855 H   0  0  0  0  0  0  0  0  0  0  0  0
  137.5349  140.5586  161.0588 H   0  0  0  0  0  0  0  0  0  0  0  0
  135.2764  141.4375  161.0184 H   0  0  0  0  0  0  0  0  0  0  0  0
  132.8853  140.9377  160.7268 H   0  0  0  0  0  0  0  0  0  0  0  0
  129.6263  133.1638  154.1087 H   0  0  0  0  0  0  0  0  0  0  0  0
  130.2027  131.8724  152.0957 H   0  0  0  0  0  0  0  0  0  0  0  0
  1  2  1  0
  1 38  1  0
  1 39  1  0
  1 40  1  0
  2  3  1  0
  2 41  1  0
  2 42  1  0
  3 37  2  0
  3  4  1  0
  4  5  2  0
  4 43  1  0
  5  6  1  0
  5 44  1  0
  6  7  1  0
  6 36  2  0
  7 34  1  0
  7  8  2  0
  8  9  1  0
  8 45  1  0
  9 10  1  0
  9 11  1  0
 11 12  1  0
 11 34  2  0
 12 13  1  0
 12 46  1  0
 13 14  1  6
 13 15  1  0
 13 21  1  0
 15 20  1  0
 15 16  2  0
 16 17  1  0
 16 47  1  0
 17 18  1  0
 17 48  1  0
 17 49  1  0
 18 19  1  0
 19 20  1  0
 19 50  1  0
 19 51  1  0
 20 52  1  0
 20 53  1  0
 21 33  1  0
 21 22  2  0
 22 23  1  0
 22 54  1  0
 23 24  2  0
 23 55  1  0
 24 25  1  0
 24 56  1  0
 25 26  1  0
 25 33  2  0
 26 32  1  0
 26 27  2  0
 27 28  1  0
 27 57  1  0
 28 29  2  0
 28 58  1  0
 29 30  1  0
 29 31  1  0
 30 59  1  0
 30 60  1  0
 30 61  1  0
 31 32  2  0
 31 62  1  0
 32 63  1  0
 34 35  1  0
 36 37  1  0
 36 64  1  0
 37 65  1  0
M  CHG  1  34   1
M  END
>  <DOCK_score>  (1) 
-63.265125

>  <SMILES>  (1) 
CCc1ccc(-c2c[nH]c(N[C@@H](C3=CCOCC3)c3cccc(-c4ccc(C)cc4)n3)[nH+]2)cc1

$$$$
