O=C1CC[C@H](NC(NC2CC(F)(F)C2)=[NH+]C2COC2)CN1
     RDKit          3D

 42 44  0  0  1  0  0  0  0  0999 V2000
  123.7454  133.6662  161.6863 O   0  0  0  0  0  0  0  0  0  0  0  0
  124.8903  133.9499  161.4043 C   0  0  0  0  0  0  0  0  0  0  0  0
  125.8138  132.8429  160.9830 C   0  0  0  0  0  0  0  0  0  0  0  0
  127.2675  133.3087  161.0956 C   0  0  0  0  0  0  0  0  0  0  0  0
  127.3937  134.6739  160.4089 C   0  0  2  0  0  0  0  0  0  0  0  0
  126.9865  134.6146  159.3995 H   0  0  0  0  0  0  0  0  0  0  0  0
  128.8042  135.0648  160.3477 N   0  0  0  0  0  0  0  0  0  0  0  0
  129.5701  134.7077  159.2631 C   0  0  0  0  0  0  0  0  0  0  0  0
  129.0121  133.9837  158.2362 N   0  0  0  0  0  0  0  0  0  0  0  0
  129.8281  133.6030  157.0805 C   0  0  0  0  0  0  0  0  0  0  0  0
  129.2791  132.3900  156.3113 C   0  0  0  0  0  0  0  0  0  0  0  0
  130.7384  131.9204  156.1700 C   0  0  0  0  0  0  0  0  0  0  0  0
  131.3766  132.4156  155.0279 F   0  0  0  0  0  0  0  0  0  0  0  0
  130.9041  130.5405  156.3297 F   0  0  0  0  0  0  0  0  0  0  0  0
  131.0399  132.7284  157.4433 C   0  0  0  0  0  0  0  0  0  0  0  0
  130.8251  135.0555  159.2086 N   0  0  0  0  0  0  0  0  0  0  0  0
  131.2481  135.2116  158.3499 H   0  0  0  0  0  0  0  0  0  0  0  0
  131.5965  135.2104  160.4444 C   0  0  0  0  0  0  0  0  0  0  0  0
  132.0420  136.6585  160.7220 C   0  0  0  0  0  0  0  0  0  0  0  0
  133.3112  136.0786  161.0849 O   0  0  0  0  0  0  0  0  0  0  0  0
  133.0965  134.8989  160.2843 C   0  0  0  0  0  0  0  0  0  0  0  0
  126.6102  135.7052  161.2220 C   0  0  0  0  0  0  0  0  0  0  0  0
  125.2588  135.2271  161.4858 N   0  0  0  0  0  0  0  0  0  0  0  0
  125.6008  132.5671  159.9502 H   0  0  0  0  0  0  0  0  0  0  0  0
  125.6597  131.9778  161.6279 H   0  0  0  0  0  0  0  0  0  0  0  0
  127.5434  133.3994  162.1462 H   0  0  0  0  0  0  0  0  0  0  0  0
  127.9225  132.5887  160.6050 H   0  0  0  0  0  0  0  0  0  0  0  0
  129.1978  135.5758  161.0721 H   0  0  0  0  0  0  0  0  0  0  0  0
  128.0782  133.7248  158.2768 H   0  0  0  0  0  0  0  0  0  0  0  0
  130.0768  134.4498  156.4406 H   0  0  0  0  0  0  0  0  0  0  0  0
  128.6644  131.7280  156.9213 H   0  0  0  0  0  0  0  0  0  0  0  0
  128.8094  132.6506  155.3627 H   0  0  0  0  0  0  0  0  0  0  0  0
  131.9898  133.2618  157.4073 H   0  0  0  0  0  0  0  0  0  0  0  0
  130.9082  132.1601  158.3641 H   0  0  0  0  0  0  0  0  0  0  0  0
  131.1336  134.7186  161.2999 H   0  0  0  0  0  0  0  0  0  0  0  0
  132.0823  137.2859  159.8316 H   0  0  0  0  0  0  0  0  0  0  0  0
  131.5182  137.1292  161.5540 H   0  0  0  0  0  0  0  0  0  0  0  0
  133.4090  133.9740  160.7692 H   0  0  0  0  0  0  0  0  0  0  0  0
  133.4584  134.9868  159.2600 H   0  0  0  0  0  0  0  0  0  0  0  0
  127.1213  135.8814  162.1684 H   0  0  0  0  0  0  0  0  0  0  0  0
  126.5559  136.6392  160.6626 H   0  0  0  0  0  0  0  0  0  0  0  0
  124.5864  135.8799  161.7358 H   0  0  0  0  0  0  0  0  0  0  0  0
  1  2  2  0
  2 23  1  0
  2  3  1  0
  3  4  1  0
  3 24  1  0
  3 25  1  0
  4  5  1  0
  4 26  1  0
  4 27  1  0
  5  6  1  6
  5  7  1  0
  5 22  1  0
  7 28  1  0
  8  7  1  0
  8  9  1  0
  8 16  2  0
  9 10  1  0
  9 29  1  0
 10 15  1  0
 10 11  1  0
 10 30  1  0
 11 12  1  0
 11 31  1  0
 11 32  1  0
 12 13  1  0
 12 14  1  0
 12 15  1  0
 15 33  1  0
 15 34  1  0
 16 17  1  0
 16 18  1  0
 18 21  1  0
 18 19  1  0
 18 35  1  0
 19 20  1  0
 19 36  1  0
 19 37  1  0
 20 21  1  0
 21 38  1  0
 21 39  1  0
 22 23  1  0
 22 40  1  0
 22 41  1  0
 23 42  1  0
M  CHG  1  16   1
M  END
>  <DOCK_score>  (1) 
-43.016777

>  <SMILES>  (1) 
O=C1CC[C@H](NC(NC2CC(F)(F)C2)=[NH+]C2COC2)CN1

$$$$
