Nc1ccc(-c2c[nH]c(N[C@H](c3ccccc3)c3nc4ccccc4[nH]3)[nH+]2)cc1
     RDKit          3D

 50 54  0  0  1  0  0  0  0  0999 V2000
  131.5737  129.8487  151.8956 N   0  0  0  0  0  0  0  0  0  0  0  0
  131.2968  130.4671  153.1173 C   0  0  0  0  0  0  0  0  0  0  0  0
  130.8528  131.7838  153.1436 C   0  0  0  0  0  0  0  0  0  0  0  0
  130.5789  132.3962  154.3482 C   0  0  0  0  0  0  0  0  0  0  0  0
  130.7477  131.6936  155.5403 C   0  0  0  0  0  0  0  0  0  0  0  0
  130.4536  132.3503  156.8377 C   0  0  0  0  0  0  0  0  0  0  0  0
  130.0138  131.7339  157.9625 C   0  0  0  0  0  0  0  0  0  0  0  0
  129.8734  132.7082  158.9222 N   0  0  0  0  0  0  0  0  0  0  0  0
  129.5742  132.5764  159.8354 H   0  0  0  0  0  0  0  0  0  0  0  0
  130.2321  133.8916  158.3543 C   0  0  0  0  0  0  0  0  0  0  0  0
  130.2316  135.1228  158.9874 N   0  0  0  0  0  0  0  0  0  0  0  0
  129.8195  135.2253  160.3896 C   0  0  2  0  0  0  0  0  0  0  0  0
  130.2147  134.3761  160.9473 H   0  0  0  0  0  0  0  0  0  0  0  0
  128.3148  135.2243  160.4724 C   0  0  0  0  0  0  0  0  0  0  0  0
  127.6842  134.6987  161.5846 C   0  0  0  0  0  0  0  0  0  0  0  0
  126.3040  134.7016  161.6624 C   0  0  0  0  0  0  0  0  0  0  0  0
  125.5543  135.2218  160.6241 C   0  0  0  0  0  0  0  0  0  0  0  0
  126.1849  135.7426  159.5095 C   0  0  0  0  0  0  0  0  0  0  0  0
  127.5652  135.7435  159.4336 C   0  0  0  0  0  0  0  0  0  0  0  0
  130.3542  136.5054  160.9780 C   0  0  0  0  0  0  0  0  0  0  0  0
  131.0706  137.3797  160.3336 N   0  0  0  0  0  0  0  0  0  0  0  0
  131.3826  138.4118  161.1591 C   0  0  0  0  0  0  0  0  0  0  0  0
  132.1127  139.5916  160.9933 C   0  0  0  0  0  0  0  0  0  0  0  0
  132.2554  140.4568  162.0408 C   0  0  0  0  0  0  0  0  0  0  0  0
  131.6812  140.1773  163.2729 C   0  0  0  0  0  0  0  0  0  0  0  0
  130.9569  139.0193  163.4596 C   0  0  0  0  0  0  0  0  0  0  0  0
  130.8016  138.1279  162.4066 C   0  0  0  0  0  0  0  0  0  0  0  0
  130.1579  136.9155  162.2601 N   0  0  0  0  0  0  0  0  0  0  0  0
  129.6585  136.4434  162.9447 H   0  0  0  0  0  0  0  0  0  0  0  0
  130.5727  133.6745  157.1073 N   0  0  0  0  0  0  0  0  0  0  0  0
  130.8654  134.3524  156.4782 H   0  0  0  0  0  0  0  0  0  0  0  0
  131.1987  130.3749  155.5119 C   0  0  0  0  0  0  0  0  0  0  0  0
  131.4654  129.7645  154.3045 C   0  0  0  0  0  0  0  0  0  0  0  0
  131.4560  130.3382  151.0665 H   0  0  0  0  0  0  0  0  0  0  0  0
  131.8836  128.9297  151.8764 H   0  0  0  0  0  0  0  0  0  0  0  0
  130.7225  132.3278  152.2197 H   0  0  0  0  0  0  0  0  0  0  0  0
  130.2336  133.4193  154.3682 H   0  0  0  0  0  0  0  0  0  0  0  0
  129.8120  130.6796  158.0814 H   0  0  0  0  0  0  0  0  0  0  0  0
  130.5041  135.9175  158.5027 H   0  0  0  0  0  0  0  0  0  0  0  0
  128.2699  134.2888  162.3942 H   0  0  0  0  0  0  0  0  0  0  0  0
  125.8114  134.2951  162.5334 H   0  0  0  0  0  0  0  0  0  0  0  0
  124.4759  135.2217  160.6837 H   0  0  0  0  0  0  0  0  0  0  0  0
  125.5992  136.1490  158.6983 H   0  0  0  0  0  0  0  0  0  0  0  0
  128.0577  136.1503  158.5628 H   0  0  0  0  0  0  0  0  0  0  0  0
  132.5599  139.8212  160.0373 H   0  0  0  0  0  0  0  0  0  0  0  0
  132.8206  141.3675  161.9086 H   0  0  0  0  0  0  0  0  0  0  0  0
  131.8027  140.8717  164.0911 H   0  0  0  0  0  0  0  0  0  0  0  0
  130.5126  138.8063  164.4207 H   0  0  0  0  0  0  0  0  0  0  0  0
  131.3343  129.8301  156.4345 H   0  0  0  0  0  0  0  0  0  0  0  0
  131.8106  128.7414  154.2818 H   0  0  0  0  0  0  0  0  0  0  0  0
  1  2  1  0
  1 34  1  0
  1 35  1  0
  2 33  2  0
  2  3  1  0
  3  4  2  0
  3 36  1  0
  4  5  1  0
  4 37  1  0
  5  6  1  0
  5 32  2  0
  6 30  1  0
  6  7  2  0
  7  8  1  0
  7 38  1  0
  8  9  1  0
  8 10  1  0
 10 11  1  0
 10 30  2  0
 11 12  1  0
 11 39  1  0
 12 13  1  1
 12 14  1  0
 12 20  1  0
 14 19  1  0
 14 15  2  0
 15 16  1  0
 15 40  1  0
 16 17  2  0
 16 41  1  0
 17 18  1  0
 17 42  1  0
 18 19  2  0
 18 43  1  0
 19 44  1  0
 20 28  1  0
 20 21  2  0
 21 22  1  0
 22 27  2  0
 22 23  1  0
 23 24  2  0
 23 45  1  0
 24 25  1  0
 24 46  1  0
 25 26  2  0
 25 47  1  0
 26 27  1  0
 26 48  1  0
 27 28  1  0
 28 29  1  0
 30 31  1  0
 32 33  1  0
 32 49  1  0
 33 50  1  0
M  CHG  1  30   1
M  END
>  <DOCK_score>  (1) 
-57.416557

>  <SMILES>  (1) 
Nc1ccc(-c2c[nH]c(N[C@H](c3ccccc3)c3nc4ccccc4[nH]3)[nH+]2)cc1

$$$$
