CCCCc1c[nH]c(Nc2ccc(Nc3cccc(OC)c3)cc2)[nH+]1
     RDKit          3D

 50 52  0  0  1  0  0  0  0  0999 V2000
  129.8827  131.2036  151.5975 C   0  0  0  0  0  0  0  0  0  0  0  0
  130.6416  131.0132  152.9124 C   0  0  0  0  0  0  0  0  0  0  0  0
  129.9923  131.8660  154.0042 C   0  0  0  0  0  0  0  0  0  0  0  0
  130.7510  131.6756  155.3190 C   0  0  0  0  0  0  0  0  0  0  0  0
  130.1115  132.5156  156.3943 C   0  0  0  0  0  0  0  0  0  0  0  0
  129.1251  132.1218  157.2180 C   0  0  0  0  0  0  0  0  0  0  0  0
  128.8391  133.1880  158.0400 N   0  0  0  0  0  0  0  0  0  0  0  0
  128.1708  133.2117  158.7426 H   0  0  0  0  0  0  0  0  0  0  0  0
  129.6722  134.2020  157.6809 C   0  0  0  0  0  0  0  0  0  0  0  0
  129.7141  135.4601  158.2601 N   0  0  0  0  0  0  0  0  0  0  0  0
  128.8465  135.7754  159.3128 C   0  0  0  0  0  0  0  0  0  0  0  0
  129.3602  136.1396  160.5507 C   0  0  0  0  0  0  0  0  0  0  0  0
  128.5046  136.4561  161.5871 C   0  0  0  0  0  0  0  0  0  0  0  0
  127.1300  136.3990  161.3950 C   0  0  0  0  0  0  0  0  0  0  0  0
  126.2629  136.7148  162.4473 N   0  0  0  0  0  0  0  0  0  0  0  0
  126.7794  137.0871  163.6906 C   0  0  0  0  0  0  0  0  0  0  0  0
  127.0318  138.4258  163.9667 C   0  0  0  0  0  0  0  0  0  0  0  0
  127.5417  138.7937  165.1961 C   0  0  0  0  0  0  0  0  0  0  0  0
  127.8026  137.8328  166.1548 C   0  0  0  0  0  0  0  0  0  0  0  0
  127.5536  136.4946  165.8846 C   0  0  0  0  0  0  0  0  0  0  0  0
  127.8112  135.5511  166.8282 O   0  0  0  0  0  0  0  0  0  0  0  0
  128.3375  136.0079  168.0757 C   0  0  0  0  0  0  0  0  0  0  0  0
  127.0360  136.1214  164.6542 C   0  0  0  0  0  0  0  0  0  0  0  0
  126.6165  136.0293  160.1587 C   0  0  0  0  0  0  0  0  0  0  0  0
  127.4720  135.7183  159.1207 C   0  0  0  0  0  0  0  0  0  0  0  0
  130.4337  133.7842  156.6973 N   0  0  0  0  0  0  0  0  0  0  0  0
  131.1195  134.3097  156.2562 H   0  0  0  0  0  0  0  0  0  0  0  0
  128.8451  130.8970  151.7291 H   0  0  0  0  0  0  0  0  0  0  0  0
  129.9173  132.2536  151.3070 H   0  0  0  0  0  0  0  0  0  0  0  0
  130.3453  130.5960  150.8197 H   0  0  0  0  0  0  0  0  0  0  0  0
  131.6792  131.3197  152.7807 H   0  0  0  0  0  0  0  0  0  0  0  0
  130.6070  129.9632  153.2029 H   0  0  0  0  0  0  0  0  0  0  0  0
  128.9546  131.5594  154.1357 H   0  0  0  0  0  0  0  0  0  0  0  0
  130.0267  132.9161  153.7135 H   0  0  0  0  0  0  0  0  0  0  0  0
  131.7887  131.9823  155.1872 H   0  0  0  0  0  0  0  0  0  0  0  0
  130.7167  130.6256  155.6095 H   0  0  0  0  0  0  0  0  0  0  0  0
  128.6475  131.1532  157.2319 H   0  0  0  0  0  0  0  0  0  0  0  0
  130.3446  136.1224  157.9363 H   0  0  0  0  0  0  0  0  0  0  0  0
  130.4288  136.1793  160.7013 H   0  0  0  0  0  0  0  0  0  0  0  0
  128.9041  136.7437  162.5484 H   0  0  0  0  0  0  0  0  0  0  0  0
  125.3029  136.6749  162.3132 H   0  0  0  0  0  0  0  0  0  0  0  0
  126.8288  139.1786  163.2193 H   0  0  0  0  0  0  0  0  0  0  0  0
  127.7366  139.8344  165.4093 H   0  0  0  0  0  0  0  0  0  0  0  0
  128.2014  138.1237  167.1155 H   0  0  0  0  0  0  0  0  0  0  0  0
  128.4971  135.1560  168.7365 H   0  0  0  0  0  0  0  0  0  0  0  0
  129.2856  136.5180  167.9050 H   0  0  0  0  0  0  0  0  0  0  0  0
  127.6314  136.6984  168.5371 H   0  0  0  0  0  0  0  0  0  0  0  0
  126.8369  135.0809  164.4439 H   0  0  0  0  0  0  0  0  0  0  0  0
  125.5477  135.9846  160.0094 H   0  0  0  0  0  0  0  0  0  0  0  0
  127.0726  135.4312  158.1593 H   0  0  0  0  0  0  0  0  0  0  0  0
  1  2  1  0
  1 28  1  0
  1 29  1  0
  1 30  1  0
  2  3  1  0
  2 31  1  0
  2 32  1  0
  3  4  1  0
  3 33  1  0
  3 34  1  0
  4  5  1  0
  4 35  1  0
  4 36  1  0
  5 26  1  0
  5  6  2  0
  6  7  1  0
  6 37  1  0
  7  8  1  0
  7  9  1  0
  9 10  1  0
  9 26  2  0
 10 11  1  0
 10 38  1  0
 11 25  1  0
 11 12  2  0
 12 13  1  0
 12 39  1  0
 13 14  2  0
 13 40  1  0
 14 15  1  0
 14 24  1  0
 15 16  1  0
 15 41  1  0
 16 23  1  0
 16 17  2  0
 17 18  1  0
 17 42  1  0
 18 19  2  0
 18 43  1  0
 19 20  1  0
 19 44  1  0
 20 21  1  0
 20 23  2  0
 21 22  1  0
 22 45  1  0
 22 46  1  0
 22 47  1  0
 23 48  1  0
 24 25  2  0
 24 49  1  0
 25 50  1  0
 26 27  1  0
M  CHG  1  26   1
M  END
>  <DOCK_score>  (1) 
-52.532917

>  <SMILES>  (1) 
CCCCc1c[nH]c(Nc2ccc(Nc3cccc(OC)c3)cc2)[nH+]1

$$$$
