Oc1cc(Br)cc(C[NH+]=C(NCc2cccc3[nH]ncc23)NC2CC=CC2)c1
     RDKit          3D

 51 54  0  0  1  0  0  0  0  0999 V2000
  124.7916  135.9880  163.5128 O   0  0  0  0  0  0  0  0  0  0  0  0
  126.0204  135.9976  164.0931 C   0  0  0  0  0  0  0  0  0  0  0  0
  126.1653  135.6179  165.4196 C   0  0  0  0  0  0  0  0  0  0  0  0
  127.4161  135.6290  166.0074 C   0  0  0  0  0  0  0  0  0  0  0  0
  127.6152  135.1124  167.8156 Br  0  0  0  0  0  0  0  0  0  0  0  0
  128.5238  136.0130  165.2720 C   0  0  0  0  0  0  0  0  0  0  0  0
  128.3802  136.3971  163.9519 C   0  0  0  0  0  0  0  0  0  0  0  0
  129.5877  136.8204  163.1557 C   0  0  0  0  0  0  0  0  0  0  0  0
  129.5477  136.1882  161.8348 N   0  0  0  0  0  0  0  0  0  0  0  0
  128.8126  135.6003  161.6004 H   0  0  0  0  0  0  0  0  0  0  0  0
  130.5001  136.4154  160.9744 C   0  0  0  0  0  0  0  0  0  0  0  0
  131.5421  137.2486  161.3067 N   0  0  0  0  0  0  0  0  0  0  0  0
  132.6127  137.5040  160.3397 C   0  0  0  0  0  0  0  0  0  0  0  0
  133.6238  138.4426  160.9460 C   0  0  0  0  0  0  0  0  0  0  0  0
  133.4821  139.7922  160.7988 C   0  0  0  0  0  0  0  0  0  0  0  0
  134.4085  140.6660  161.3537 C   0  0  0  0  0  0  0  0  0  0  0  0
  135.4807  140.1949  162.0576 C   0  0  0  0  0  0  0  0  0  0  0  0
  135.6517  138.8231  162.2244 C   0  0  0  0  0  0  0  0  0  0  0  0
  136.5923  138.0535  162.8578 N   0  0  0  0  0  0  0  0  0  0  0  0
  137.3653  138.3907  163.3370 H   0  0  0  0  0  0  0  0  0  0  0  0
  136.2590  136.7039  162.7023 N   0  0  0  0  0  0  0  0  0  0  0  0
  135.1633  136.5909  162.0073 C   0  0  0  0  0  0  0  0  0  0  0  0
  134.7131  137.9356  161.6628 C   0  0  0  0  0  0  0  0  0  0  0  0
  130.4628  135.8221  159.7349 N   0  0  0  0  0  0  0  0  0  0  0  0
  129.3524  134.9343  159.3809 C   0  0  0  0  0  0  0  0  0  0  0  0
  129.3950  133.6327  160.2147 C   0  0  0  0  0  0  0  0  0  0  0  0
  128.9531  132.5495  159.2586 C   0  0  0  0  0  0  0  0  0  0  0  0
  129.0201  132.9589  158.0210 C   0  0  0  0  0  0  0  0  0  0  0  0
  129.5179  134.3836  157.9455 C   0  0  0  0  0  0  0  0  0  0  0  0
  127.1318  136.3875  163.3600 C   0  0  0  0  0  0  0  0  0  0  0  0
  124.7914  136.2684  162.5873 H   0  0  0  0  0  0  0  0  0  0  0  0
  125.3016  135.3144  165.9923 H   0  0  0  0  0  0  0  0  0  0  0  0
  129.5012  136.0167  165.7314 H   0  0  0  0  0  0  0  0  0  0  0  0
  130.4936  136.5132  163.6783 H   0  0  0  0  0  0  0  0  0  0  0  0
  129.5848  137.9042  163.0400 H   0  0  0  0  0  0  0  0  0  0  0  0
  131.5686  137.6672  162.1812 H   0  0  0  0  0  0  0  0  0  0  0  0
  132.1910  137.9551  159.4415 H   0  0  0  0  0  0  0  0  0  0  0  0
  133.0996  136.5639  160.0800 H   0  0  0  0  0  0  0  0  0  0  0  0
  132.6416  140.1846  160.2455 H   0  0  0  0  0  0  0  0  0  0  0  0
  134.2801  141.7308  161.2270 H   0  0  0  0  0  0  0  0  0  0  0  0
  136.1938  140.8849  162.4840 H   0  0  0  0  0  0  0  0  0  0  0  0
  134.6752  135.6669  161.7347 H   0  0  0  0  0  0  0  0  0  0  0  0
  131.1715  135.9912  159.0945 H   0  0  0  0  0  0  0  0  0  0  0  0
  128.3953  135.4429  159.4969 H   0  0  0  0  0  0  0  0  0  0  0  0
  130.4088  133.4394  160.5654 H   0  0  0  0  0  0  0  0  0  0  0  0
  128.7069  133.6991  161.0576 H   0  0  0  0  0  0  0  0  0  0  0  0
  128.6246  131.5657  159.5596 H   0  0  0  0  0  0  0  0  0  0  0  0
  128.7544  132.3584  157.1635 H   0  0  0  0  0  0  0  0  0  0  0  0
  128.9135  134.9604  157.2455 H   0  0  0  0  0  0  0  0  0  0  0  0
  130.5665  134.4060  157.6487 H   0  0  0  0  0  0  0  0  0  0  0  0
  127.0211  136.6837  162.3274 H   0  0  0  0  0  0  0  0  0  0  0  0
  1  2  1  0
  1 31  1  0
  2 30  2  0
  2  3  1  0
  3  4  2  0
  3 32  1  0
  4  5  1  0
  4  6  1  0
  6  7  2  0
  6 33  1  0
  7  8  1  0
  7 30  1  0
  8  9  1  0
  8 34  1  0
  8 35  1  0
  9 10  1  0
 11  9  2  0
 11 12  1  0
 11 24  1  0
 12 13  1  0
 12 36  1  0
 13 14  1  0
 13 37  1  0
 13 38  1  0
 14 23  1  0
 14 15  2  0
 15 16  1  0
 15 39  1  0
 16 17  2  0
 16 40  1  0
 17 18  1  0
 17 41  1  0
 18 23  2  0
 18 19  1  0
 19 20  1  0
 19 21  1  0
 21 22  2  0
 22 23  1  0
 22 42  1  0
 24 25  1  0
 24 43  1  0
 25 29  1  0
 25 26  1  0
 25 44  1  0
 26 27  1  0
 26 45  1  0
 26 46  1  0
 27 28  2  0
 27 47  1  0
 28 29  1  0
 28 48  1  0
 29 49  1  0
 29 50  1  0
 30 51  1  0
M  CHG  1   9   1
M  END
>  <DOCK_score>  (1) 
-44.304901

>  <SMILES>  (1) 
Oc1cc(Br)cc(C[NH+]=C(NCc2cccc3[nH]ncc23)NC2CC=CC2)c1

$$$$
