O=[N+]([O-])c1ccc(-c2c[nH]c(Nc3cc(SC4CC4)c(O)cc3F)[nH+]2)cc1
     RDKit          3D

 43 46  0  0  1  0  0  0  0  0999 V2000
  131.6401  128.3684  152.2661 O   0  0  0  0  0  0  0  0  0  0  0  0
  131.3393  129.6464  152.1629 N   0  0  0  0  0  0  0  0  0  0  0  0
  131.3046  130.2211  150.9784 O   0  0  0  0  0  0  0  0  0  0  0  0
  131.0402  130.4375  153.3791 C   0  0  0  0  0  0  0  0  0  0  0  0
  130.7238  131.7820  153.2658 C   0  0  0  0  0  0  0  0  0  0  0  0
  130.4443  132.5250  154.3914 C   0  0  0  0  0  0  0  0  0  0  0  0
  130.4806  131.9176  155.6540 C   0  0  0  0  0  0  0  0  0  0  0  0
  130.1835  132.7046  156.8636 C   0  0  0  0  0  0  0  0  0  0  0  0
  129.5884  132.2045  158.1126 C   0  0  0  0  0  0  0  0  0  0  0  0
  129.4988  133.2677  158.9279 N   0  0  0  0  0  0  0  0  0  0  0  0
  129.1432  133.2675  159.8304 H   0  0  0  0  0  0  0  0  0  0  0  0
  130.0013  134.3573  158.2554 C   0  0  0  0  0  0  0  0  0  0  0  0
  130.0755  135.6016  158.7551 N   0  0  0  0  0  0  0  0  0  0  0  0
  129.1542  136.0260  159.6761 C   0  0  0  0  0  0  0  0  0  0  0  0
  127.8560  135.5146  159.6518 C   0  0  0  0  0  0  0  0  0  0  0  0
  126.9311  135.9391  160.5849 C   0  0  0  0  0  0  0  0  0  0  0  0
  125.2934  135.2894  160.5617 S   0  0  0  0  0  0  0  0  0  0  0  0
  125.5061  133.8622  161.6544 C   0  0  0  0  0  0  0  0  0  0  0  0
  125.8785  132.5265  161.0077 C   0  0  0  0  0  0  0  0  0  0  0  0
  124.4688  132.7411  161.5622 C   0  0  0  0  0  0  0  0  0  0  0  0
  127.2974  136.9011  161.5560 C   0  0  0  0  0  0  0  0  0  0  0  0
  126.3895  137.3221  162.4669 O   0  0  0  0  0  0  0  0  0  0  0  0
  128.5907  137.4142  161.5751 C   0  0  0  0  0  0  0  0  0  0  0  0
  129.5168  136.9871  160.6484 C   0  0  0  0  0  0  0  0  0  0  0  0
  130.7718  137.4868  160.6686 F   0  0  0  0  0  0  0  0  0  0  0  0
  130.4032  134.0006  157.0388 N   0  0  0  0  0  0  0  0  0  0  0  0
  130.7927  134.5968  156.3801 H   0  0  0  0  0  0  0  0  0  0  0  0
  130.8067  130.5586  155.7599 C   0  0  0  0  0  0  0  0  0  0  0  0
  131.0779  129.8288  154.6235 C   0  0  0  0  0  0  0  0  0  0  0  0
  130.6965  132.2486  152.2921 H   0  0  0  0  0  0  0  0  0  0  0  0
  130.1975  133.5727  154.3013 H   0  0  0  0  0  0  0  0  0  0  0  0
  129.2828  131.1912  158.3281 H   0  0  0  0  0  0  0  0  0  0  0  0
  130.7813  136.1998  158.4640 H   0  0  0  0  0  0  0  0  0  0  0  0
  127.5764  134.7842  158.9069 H   0  0  0  0  0  0  0  0  0  0  0  0
  125.9254  134.0805  162.6365 H   0  0  0  0  0  0  0  0  0  0  0  0
  125.9955  132.5074  159.9241 H   0  0  0  0  0  0  0  0  0  0  0  0
  126.5431  131.8659  161.5644 H   0  0  0  0  0  0  0  0  0  0  0  0
  124.2061  132.2216  162.4838 H   0  0  0  0  0  0  0  0  0  0  0  0
  123.6585  132.8631  160.8436 H   0  0  0  0  0  0  0  0  0  0  0  0
  125.5198  136.9097  162.3749 H   0  0  0  0  0  0  0  0  0  0  0  0
  128.8688  138.1483  162.3167 H   0  0  0  0  0  0  0  0  0  0  0  0
  130.8409  130.0839  156.7293 H   0  0  0  0  0  0  0  0  0  0  0  0
  131.3250  128.7806  154.7030 H   0  0  0  0  0  0  0  0  0  0  0  0
  1  2  2  0
  2  3  1  0
  2  4  1  0
  4 29  2  0
  4  5  1  0
  5  6  2  0
  5 30  1  0
  6  7  1  0
  6 31  1  0
  7  8  1  0
  7 28  2  0
  8 26  1  0
  8  9  2  0
  9 10  1  0
  9 32  1  0
 10 11  1  0
 10 12  1  0
 12 13  1  0
 12 26  2  0
 13 14  1  0
 13 33  1  0
 14 24  1  0
 14 15  2  0
 15 16  1  0
 15 34  1  0
 16 17  1  0
 16 21  2  0
 17 18  1  0
 18 20  1  0
 18 19  1  0
 18 35  1  0
 19 20  1  0
 19 36  1  0
 19 37  1  0
 20 38  1  0
 20 39  1  0
 21 22  1  0
 21 23  1  0
 22 40  1  0
 23 24  2  0
 23 41  1  0
 24 25  1  0
 26 27  1  0
 28 29  1  0
 28 42  1  0
 29 43  1  0
M  CHG  3   2   1   3  -1  26   1
M  END
>  <DOCK_score>  (1) 
-48.885651

>  <SMILES>  (1) 
O=[N+]([O-])c1ccc(-c2c[nH]c(Nc3cc(SC4CC4)c(O)cc3F)[nH+]2)cc1

$$$$
