F[C@@H](CNc1[nH]cc(-c2ccc(Br)cc2)[nH+]1)c1ccc(-c2cccc3ccccc23)cc1
     RDKit          3D

 54 58  0  0  1  0  0  0  0  0999 V2000
  131.2814  137.7711  160.4476 F   0  0  0  0  0  0  0  0  0  0  0  0
  131.1499  136.8035  161.4496 C   0  0  1  0  0  0  0  0  0  0  0  0
  130.5427  137.2022  162.2622 H   0  0  0  0  0  0  0  0  0  0  0  0
  130.4740  135.5589  160.8710 C   0  0  0  0  0  0  0  0  0  0  0  0
  130.9933  135.3020  159.5254 N   0  0  0  0  0  0  0  0  0  0  0  0
  130.5266  134.2205  158.7981 C   0  0  0  0  0  0  0  0  0  0  0  0
  129.5955  133.3229  159.2215 N   0  0  0  0  0  0  0  0  0  0  0  0
  129.1432  133.3258  160.0795 H   0  0  0  0  0  0  0  0  0  0  0  0
  129.4120  132.4137  158.2080 C   0  0  0  0  0  0  0  0  0  0  0  0
  130.2418  132.7767  157.1987 C   0  0  0  0  0  0  0  0  0  0  0  0
  130.3896  132.0807  155.8971 C   0  0  0  0  0  0  0  0  0  0  0  0
  130.1121  132.7540  154.7086 C   0  0  0  0  0  0  0  0  0  0  0  0
  130.2563  132.1037  153.5002 C   0  0  0  0  0  0  0  0  0  0  0  0
  130.6656  130.7820  153.4674 C   0  0  0  0  0  0  0  0  0  0  0  0
  130.8543  129.8948  151.8080 Br  0  0  0  0  0  0  0  0  0  0  0  0
  130.9371  130.1069  154.6451 C   0  0  0  0  0  0  0  0  0  0  0  0
  130.8011  130.7497  155.8585 C   0  0  0  0  0  0  0  0  0  0  0  0
  130.9128  133.8890  157.5902 N   0  0  0  0  0  0  0  0  0  0  0  0
  131.5731  134.3629  157.0609 H   0  0  0  0  0  0  0  0  0  0  0  0
  132.5137  136.4360  161.9751 C   0  0  0  0  0  0  0  0  0  0  0  0
  133.6405  137.0445  161.4520 C   0  0  0  0  0  0  0  0  0  0  0  0
  134.8920  136.7121  161.9290 C   0  0  0  0  0  0  0  0  0  0  0  0
  135.0193  135.7604  162.9405 C   0  0  0  0  0  0  0  0  0  0  0  0
  136.3598  135.3986  163.4570 C   0  0  0  0  0  0  0  0  0  0  0  0
  137.0761  134.3654  162.8787 C   0  0  0  0  0  0  0  0  0  0  0  0
  138.3348  134.0200  163.3575 C   0  0  0  0  0  0  0  0  0  0  0  0
  138.8972  134.6852  164.4049 C   0  0  0  0  0  0  0  0  0  0  0  0
  138.2046  135.7410  165.0217 C   0  0  0  0  0  0  0  0  0  0  0  0
  138.7623  136.4426  166.1048 C   0  0  0  0  0  0  0  0  0  0  0  0
  138.0644  137.4605  166.6789 C   0  0  0  0  0  0  0  0  0  0  0  0
  136.8023  137.8183  166.2098 C   0  0  0  0  0  0  0  0  0  0  0  0
  136.2316  137.1598  165.1629 C   0  0  0  0  0  0  0  0  0  0  0  0
  136.9213  136.1059  164.5462 C   0  0  0  0  0  0  0  0  0  0  0  0
  133.8801  135.1466  163.4601 C   0  0  0  0  0  0  0  0  0  0  0  0
  132.6337  135.4915  162.9789 C   0  0  0  0  0  0  0  0  0  0  0  0
  130.6827  134.7013  161.5108 H   0  0  0  0  0  0  0  0  0  0  0  0
  129.3973  135.7206  160.8200 H   0  0  0  0  0  0  0  0  0  0  0  0
  131.6642  135.8897  159.1441 H   0  0  0  0  0  0  0  0  0  0  0  0
  128.7390  131.5691  158.2152 H   0  0  0  0  0  0  0  0  0  0  0  0
  129.7885  133.7843  154.7334 H   0  0  0  0  0  0  0  0  0  0  0  0
  130.0454  132.6257  152.5785 H   0  0  0  0  0  0  0  0  0  0  0  0
  131.2559  129.0755  154.6140 H   0  0  0  0  0  0  0  0  0  0  0  0
  131.0135  130.2223  156.7768 H   0  0  0  0  0  0  0  0  0  0  0  0
  133.5406  137.7811  160.6683 H   0  0  0  0  0  0  0  0  0  0  0  0
  135.7709  137.1881  161.5200 H   0  0  0  0  0  0  0  0  0  0  0  0
  136.6531  133.8218  162.0470 H   0  0  0  0  0  0  0  0  0  0  0  0
  138.8763  133.2104  162.8908 H   0  0  0  0  0  0  0  0  0  0  0  0
  139.8742  134.3980  164.7643 H   0  0  0  0  0  0  0  0  0  0  0  0
  139.7396  136.1757  166.4790 H   0  0  0  0  0  0  0  0  0  0  0  0
  138.4951  137.9982  167.5107 H   0  0  0  0  0  0  0  0  0  0  0  0
  136.2690  138.6297  166.6826 H   0  0  0  0  0  0  0  0  0  0  0  0
  135.2524  137.4476  164.8098 H   0  0  0  0  0  0  0  0  0  0  0  0
  133.9727  134.4057  164.2404 H   0  0  0  0  0  0  0  0  0  0  0  0
  131.7502  135.0203  163.3839 H   0  0  0  0  0  0  0  0  0  0  0  0
  1  2  1  0
  2  3  1  1
  2  4  1  0
  2 20  1  0
  4  5  1  0
  4 36  1  0
  4 37  1  0
  5 38  1  0
  6  5  1  0
  6 18  2  0
  6  7  1  0
  7  8  1  0
  7  9  1  0
  9 10  2  0
  9 39  1  0
 10 11  1  0
 10 18  1  0
 11 17  1  0
 11 12  2  0
 12 13  1  0
 12 40  1  0
 13 14  2  0
 13 41  1  0
 14 15  1  0
 14 16  1  0
 16 17  2  0
 16 42  1  0
 17 43  1  0
 18 19  1  0
 20 35  1  0
 20 21  2  0
 21 22  1  0
 21 44  1  0
 22 23  2  0
 22 45  1  0
 23 24  1  0
 23 34  1  0
 24 33  1  0
 24 25  2  0
 25 26  1  0
 25 46  1  0
 26 27  2  0
 26 47  1  0
 27 28  1  0
 27 48  1  0
 28 33  2  0
 28 29  1  0
 29 30  2  0
 29 49  1  0
 30 31  1  0
 30 50  1  0
 31 32  2  0
 31 51  1  0
 32 33  1  0
 32 52  1  0
 34 35  2  0
 34 53  1  0
 35 54  1  0
M  CHG  1  18   1
M  END
>  <DOCK_score>  (1) 
-64.21196

>  <SMILES>  (1) 
F[C@@H](CNc1[nH]cc(-c2ccc(Br)cc2)[nH+]1)c1ccc(-c2cccc3ccccc23)cc1

$$$$
