Oc1ccc(NC2Cc3ccccc3C2)c(Nc2[nH]c3ccccc3[nH+]2)c1
     RDKit          3D

 48 52  0  0  0  0  0  0  0  0999 V2000
  125.7540  135.5479  161.7511 O   0  0  0  0  0  0  0  0  0  0  0  0
  126.9687  136.0712  161.4342 C   0  0  0  0  0  0  0  0  0  0  0  0
  127.4800  137.1301  162.1700 C   0  0  0  0  0  0  0  0  0  0  0  0
  128.7142  137.6648  161.8512 C   0  0  0  0  0  0  0  0  0  0  0  0
  129.4447  137.1435  160.7943 C   0  0  0  0  0  0  0  0  0  0  0  0
  130.6968  137.6858  160.4714 N   0  0  0  0  0  0  0  0  0  0  0  0
  131.7762  137.6769  161.4617 C   0  0  0  0  0  0  0  0  0  0  0  0
  133.0996  138.1654  160.8353 C   0  0  0  0  0  0  0  0  0  0  0  0
  134.1803  137.3375  161.5041 C   0  0  0  0  0  0  0  0  0  0  0  0
  135.5481  137.5416  161.5785 C   0  0  0  0  0  0  0  0  0  0  0  0
  136.3492  136.6429  162.2551 C   0  0  0  0  0  0  0  0  0  0  0  0
  135.7848  135.5354  162.8602 C   0  0  0  0  0  0  0  0  0  0  0  0
  134.4210  135.3301  162.7871 C   0  0  0  0  0  0  0  0  0  0  0  0
  133.6161  136.2303  162.1092 C   0  0  0  0  0  0  0  0  0  0  0  0
  132.1187  136.2333  161.8871 C   0  0  0  0  0  0  0  0  0  0  0  0
  128.9328  136.0791  160.0533 C   0  0  0  0  0  0  0  0  0  0  0  0
  129.6685  135.5496  158.9849 N   0  0  0  0  0  0  0  0  0  0  0  0
  130.0504  134.2279  159.0009 C   0  0  0  0  0  0  0  0  0  0  0  0
  129.7803  133.3678  159.9805 N   0  0  0  0  0  0  0  0  0  0  0  0
  129.2871  133.5684  160.7914 H   0  0  0  0  0  0  0  0  0  0  0  0
  130.3142  132.1508  159.6483 C   0  0  0  0  0  0  0  0  0  0  0  0
  130.3426  130.9081  160.2749 C   0  0  0  0  0  0  0  0  0  0  0  0
  130.9852  129.8502  159.6693 C   0  0  0  0  0  0  0  0  0  0  0  0
  131.6036  130.0141  158.4384 C   0  0  0  0  0  0  0  0  0  0  0  0
  131.5845  131.2373  157.8042 C   0  0  0  0  0  0  0  0  0  0  0  0
  130.9404  132.3167  158.4020 C   0  0  0  0  0  0  0  0  0  0  0  0
  130.7488  133.6243  158.0414 N   0  0  0  0  0  0  0  0  0  0  0  0
  131.0685  134.0402  157.2255 H   0  0  0  0  0  0  0  0  0  0  0  0
  127.6943  135.5455  160.3762 C   0  0  0  0  0  0  0  0  0  0  0  0
  125.4815  134.8141  161.1832 H   0  0  0  0  0  0  0  0  0  0  0  0
  126.9125  137.5376  162.9935 H   0  0  0  0  0  0  0  0  0  0  0  0
  129.1096  138.4896  162.4256 H   0  0  0  0  0  0  0  0  0  0  0  0
  130.8482  138.0668  159.5924 H   0  0  0  0  0  0  0  0  0  0  0  0
  131.5105  138.2831  162.3277 H   0  0  0  0  0  0  0  0  0  0  0  0
  133.0980  137.9861  159.7601 H   0  0  0  0  0  0  0  0  0  0  0  0
  133.2476  139.2251  161.0425 H   0  0  0  0  0  0  0  0  0  0  0  0
  135.9897  138.4066  161.1060 H   0  0  0  0  0  0  0  0  0  0  0  0
  137.4155  136.8048  162.3109 H   0  0  0  0  0  0  0  0  0  0  0  0
  136.4096  134.8316  163.3901 H   0  0  0  0  0  0  0  0  0  0  0  0
  133.9809  134.4648  163.2606 H   0  0  0  0  0  0  0  0  0  0  0  0
  131.5989  135.9776  162.8103 H   0  0  0  0  0  0  0  0  0  0  0  0
  131.8509  135.5324  161.0963 H   0  0  0  0  0  0  0  0  0  0  0  0
  129.9086  136.1148  158.2340 H   0  0  0  0  0  0  0  0  0  0  0  0
  129.8625  130.7736  161.2329 H   0  0  0  0  0  0  0  0  0  0  0  0
  131.0070  128.8864  160.1563 H   0  0  0  0  0  0  0  0  0  0  0  0
  132.1039  129.1771  157.9742 H   0  0  0  0  0  0  0  0  0  0  0  0
  132.0677  131.3580  156.8458 H   0  0  0  0  0  0  0  0  0  0  0  0
  127.2934  134.7239  159.8012 H   0  0  0  0  0  0  0  0  0  0  0  0
  1  2  1  0
  1 30  1  0
  2 29  2  0
  2  3  1  0
  3  4  2  0
  3 31  1  0
  4  5  1  0
  4 32  1  0
  5  6  1  0
  5 16  2  0
  6  7  1  0
  6 33  1  0
  7 15  1  0
  7  8  1  0
  7 34  1  0
  8  9  1  0
  8 35  1  0
  8 36  1  0
  9 14  2  0
  9 10  1  0
 10 11  2  0
 10 37  1  0
 11 12  1  0
 11 38  1  0
 12 13  2  0
 12 39  1  0
 13 14  1  0
 13 40  1  0
 14 15  1  0
 15 41  1  0
 15 42  1  0
 16 17  1  0
 16 29  1  0
 17 18  1  0
 17 43  1  0
 18 27  1  0
 18 19  2  0
 19 20  1  0
 19 21  1  0
 21 26  2  0
 21 22  1  0
 22 23  2  0
 22 44  1  0
 23 24  1  0
 23 45  1  0
 24 25  2  0
 24 46  1  0
 25 26  1  0
 25 47  1  0
 26 27  1  0
 27 28  1  0
 29 48  1  0
M  CHG  1  19   1
M  END
>  <DOCK_score>  (1) 
-50.721195

>  <SMILES>  (1) 
Oc1ccc(NC2Cc3ccccc3C2)c(Nc2[nH]c3ccccc3[nH+]2)c1

$$$$
