Oc1ccc(Nc2[nH]cc(C3CC3)[nH+]2)cc1C1CC1
     RDKit          3D

 37 40  0  0  1  0  0  0  0  0999 V2000
  126.6201  137.3719  162.3556 O   0  0  0  0  0  0  0  0  0  0  0  0
  127.4867  136.8596  161.4412 C   0  0  0  0  0  0  0  0  0  0  0  0
  128.7972  137.3127  161.3983 C   0  0  0  0  0  0  0  0  0  0  0  0
  129.6776  136.7935  160.4700 C   0  0  0  0  0  0  0  0  0  0  0  0
  129.2508  135.8170  159.5791 C   0  0  0  0  0  0  0  0  0  0  0  0
  130.1426  135.2902  158.6372 N   0  0  0  0  0  0  0  0  0  0  0  0
  129.9931  133.9853  158.1957 C   0  0  0  0  0  0  0  0  0  0  0  0
  129.4774  132.9547  158.9190 N   0  0  0  0  0  0  0  0  0  0  0  0
  129.1489  132.9972  159.8307 H   0  0  0  0  0  0  0  0  0  0  0  0
  129.5074  131.8411  158.1109 C   0  0  0  0  0  0  0  0  0  0  0  0
  130.0414  132.2224  156.9379 C   0  0  0  0  0  0  0  0  0  0  0  0
  130.2761  131.3326  155.7445 C   0  0  0  0  0  0  0  0  0  0  0  0
  131.5336  130.4611  155.7495 C   0  0  0  0  0  0  0  0  0  0  0  0
  131.4493  131.6784  154.8252 C   0  0  0  0  0  0  0  0  0  0  0  0
  130.3300  133.5326  157.0111 N   0  0  0  0  0  0  0  0  0  0  0  0
  130.7257  134.0607  156.3002 H   0  0  0  0  0  0  0  0  0  0  0  0
  127.9406  135.3598  159.6267 C   0  0  0  0  0  0  0  0  0  0  0  0
  127.0598  135.8843  160.5523 C   0  0  0  0  0  0  0  0  0  0  0  0
  125.6362  135.3922  160.6005 C   0  0  0  0  0  0  0  0  0  0  0  0
  125.2893  134.3349  161.6505 C   0  0  0  0  0  0  0  0  0  0  0  0
  125.3736  133.9461  160.1732 C   0  0  0  0  0  0  0  0  0  0  0  0
  125.7309  136.9949  162.3090 H   0  0  0  0  0  0  0  0  0  0  0  0
  129.1289  138.0720  162.0910 H   0  0  0  0  0  0  0  0  0  0  0  0
  130.6977  137.1462  160.4367 H   0  0  0  0  0  0  0  0  0  0  0  0
  130.8652  135.8387  158.2936 H   0  0  0  0  0  0  0  0  0  0  0  0
  129.1693  130.8489  158.3708 H   0  0  0  0  0  0  0  0  0  0  0  0
  129.3794  130.9197  155.2823 H   0  0  0  0  0  0  0  0  0  0  0  0
  132.1911  130.5313  156.6160 H   0  0  0  0  0  0  0  0  0  0  0  0
  131.4643  129.4750  155.2904 H   0  0  0  0  0  0  0  0  0  0  0  0
  131.3245  131.4927  153.7585 H   0  0  0  0  0  0  0  0  0  0  0  0
  132.0511  132.5497  155.0835 H   0  0  0  0  0  0  0  0  0  0  0  0
  127.6091  134.5972  158.9374 H   0  0  0  0  0  0  0  0  0  0  0  0
  124.8740  136.1341  160.3622 H   0  0  0  0  0  0  0  0  0  0  0  0
  124.2988  134.3811  162.1032 H   0  0  0  0  0  0  0  0  0  0  0  0
  126.0907  133.9956  162.3068 H   0  0  0  0  0  0  0  0  0  0  0  0
  126.2305  133.3510  159.8575 H   0  0  0  0  0  0  0  0  0  0  0  0
  124.4384  133.7359  159.6540 H   0  0  0  0  0  0  0  0  0  0  0  0
  1  2  1  0
  1 22  1  0
  2 18  2  0
  2  3  1  0
  3  4  2  0
  3 23  1  0
  4  5  1  0
  4 24  1  0
  5  6  1  0
  5 17  2  0
  6 25  1  0
  7  6  1  0
  7 15  2  0
  7  8  1  0
  8  9  1  0
  8 10  1  0
 10 11  2  0
 10 26  1  0
 11 12  1  0
 11 15  1  0
 12 14  1  0
 12 13  1  0
 12 27  1  0
 13 14  1  0
 13 28  1  0
 13 29  1  0
 14 30  1  0
 14 31  1  0
 15 16  1  0
 17 18  1  0
 17 32  1  0
 18 19  1  0
 19 21  1  0
 19 20  1  0
 19 33  1  0
 20 21  1  0
 20 34  1  0
 20 35  1  0
 21 36  1  0
 21 37  1  0
M  CHG  1  15   1
M  END
>  <DOCK_score>  (1) 
-42.802002

>  <SMILES>  (1) 
Oc1ccc(Nc2[nH]cc(C3CC3)[nH+]2)cc1C1CC1

$$$$
