Brc1ccc(-c2c[nH]c(N[C@@H](/C=C/c3ccccc3)c3cccs3)[nH+]2)cc1
     RDKit          3D

 46 49  0  0  1  0  0  0  0  0999 V2000
  131.1389  129.1386  151.7711 Br  0  0  0  0  0  0  0  0  0  0  0  0
  130.8304  130.0993  153.3704 C   0  0  0  0  0  0  0  0  0  0  0  0
  129.9724  131.1861  153.3668 C   0  0  0  0  0  0  0  0  0  0  0  0
  129.7438  131.8913  154.5307 C   0  0  0  0  0  0  0  0  0  0  0  0
  130.3782  131.5076  155.7111 C   0  0  0  0  0  0  0  0  0  0  0  0
  130.1366  132.2623  156.9651 C   0  0  0  0  0  0  0  0  0  0  0  0
  129.6184  131.7584  158.1125 C   0  0  0  0  0  0  0  0  0  0  0  0
  129.5670  132.7931  159.0148 N   0  0  0  0  0  0  0  0  0  0  0  0
  129.2419  132.7439  159.9274 H   0  0  0  0  0  0  0  0  0  0  0  0
  130.0557  133.8999  158.3917 C   0  0  0  0  0  0  0  0  0  0  0  0
  130.1748  135.1576  158.9579 N   0  0  0  0  0  0  0  0  0  0  0  0
  129.2361  135.5843  159.9985 C   0  0  1  0  0  0  0  0  0  0  0  0
  129.3028  134.9053  160.8486 H   0  0  0  0  0  0  0  0  0  0  0  0
  129.5810  136.9821  160.4435 C   0  0  0  0  0  0  0  0  0  0  0  0
  129.9002  137.2150  161.7090 C   0  0  0  0  0  0  0  0  0  0  0  0
  130.2384  138.5861  162.1456 C   0  0  0  0  0  0  0  0  0  0  0  0
  130.6306  139.5430  161.2088 C   0  0  0  0  0  0  0  0  0  0  0  0
  130.9386  140.8228  161.6220 C   0  0  0  0  0  0  0  0  0  0  0  0
  130.8717  141.1546  162.9637 C   0  0  0  0  0  0  0  0  0  0  0  0
  130.4895  140.2089  163.8979 C   0  0  0  0  0  0  0  0  0  0  0  0
  130.1725  138.9274  163.4969 C   0  0  0  0  0  0  0  0  0  0  0  0
  127.8331  135.5641  159.4484 C   0  0  0  0  0  0  0  0  0  0  0  0
  126.7305  135.3324  160.1625 C   0  0  0  0  0  0  0  0  0  0  0  0
  125.5503  135.3648  159.4399 C   0  0  0  0  0  0  0  0  0  0  0  0
  125.6944  135.6226  158.1392 C   0  0  0  0  0  0  0  0  0  0  0  0
  127.3987  135.8497  157.7682 S   0  0  0  0  0  0  0  0  0  0  0  0
  130.3950  133.5787  157.1671 N   0  0  0  0  0  0  0  0  0  0  0  0
  130.7713  134.1853  156.5102 H   0  0  0  0  0  0  0  0  0  0  0  0
  131.2447  130.4159  155.7077 C   0  0  0  0  0  0  0  0  0  0  0  0
  131.4622  129.7144  154.5395 C   0  0  0  0  0  0  0  0  0  0  0  0
  129.4813  131.4826  152.4518 H   0  0  0  0  0  0  0  0  0  0  0  0
  129.0743  132.7388  154.5273 H   0  0  0  0  0  0  0  0  0  0  0  0
  129.3097  130.7380  158.2853 H   0  0  0  0  0  0  0  0  0  0  0  0
  130.8799  135.7563  158.6655 H   0  0  0  0  0  0  0  0  0  0  0  0
  129.5681  137.7941  159.7317 H   0  0  0  0  0  0  0  0  0  0  0  0
  129.9131  136.4030  162.4208 H   0  0  0  0  0  0  0  0  0  0  0  0
  130.6883  139.2836  160.1619 H   0  0  0  0  0  0  0  0  0  0  0  0
  131.2374  141.5659  160.8974 H   0  0  0  0  0  0  0  0  0  0  0  0
  131.1186  142.1564  163.2830 H   0  0  0  0  0  0  0  0  0  0  0  0
  130.4388  140.4745  164.9436 H   0  0  0  0  0  0  0  0  0  0  0  0
  129.8736  138.1901  164.2274 H   0  0  0  0  0  0  0  0  0  0  0  0
  126.7567  135.1349  161.2239 H   0  0  0  0  0  0  0  0  0  0  0  0
  124.5857  135.1943  159.8949 H   0  0  0  0  0  0  0  0  0  0  0  0
  124.8878  135.6860  157.4239 H   0  0  0  0  0  0  0  0  0  0  0  0
  131.7419  130.1171  156.6187 H   0  0  0  0  0  0  0  0  0  0  0  0
  132.1300  128.8656  154.5368 H   0  0  0  0  0  0  0  0  0  0  0  0
  1  2  1  0
  2 30  2  0
  2  3  1  0
  3  4  2  0
  3 31  1  0
  4  5  1  0
  4 32  1  0
  5  6  1  0
  5 29  2  0
  6 27  1  0
  6  7  2  0
  7  8  1  0
  7 33  1  0
  8  9  1  0
  8 10  1  0
 10 11  1  0
 10 27  2  0
 11 12  1  0
 11 34  1  0
 12 13  1  1
 12 14  1  0
 12 22  1  0
 14 15  2  0
 14 35  1  0
 15 16  1  0
 15 36  1  0
 16 21  1  0
 16 17  2  0
 17 18  1  0
 17 37  1  0
 18 19  2  0
 18 38  1  0
 19 20  1  0
 19 39  1  0
 20 21  2  0
 20 40  1  0
 21 41  1  0
 22 26  1  0
 22 23  2  0
 23 24  1  0
 23 42  1  0
 24 25  2  0
 24 43  1  0
 25 26  1  0
 25 44  1  0
 27 28  1  0
 29 30  1  0
 29 45  1  0
 30 46  1  0
M  CHG  1  27   1
M  END
>  <DOCK_score>  (1) 
-60.295639

>  <SMILES>  (1) 
Brc1ccc(-c2c[nH]c(N[C@@H](/C=C/c3ccccc3)c3cccs3)[nH+]2)cc1

$$$$
