CCc1ccc(-c2c[nH]c(N[C@@H](C=CC3=COCCO3)c3ccc(F)cc3)[nH+]2)cc1
     RDKit          3D

 55 58  0  0  1  0  0  0  0  0999 V2000
  130.3774  128.2477  151.6518 C   0  0  0  0  0  0  0  0  0  0  0  0
  131.3388  129.4268  151.8126 C   0  0  0  0  0  0  0  0  0  0  0  0
  131.0605  130.1276  153.1174 C   0  0  0  0  0  0  0  0  0  0  0  0
  131.7202  129.7317  154.2665 C   0  0  0  0  0  0  0  0  0  0  0  0
  131.4728  130.3731  155.4632 C   0  0  0  0  0  0  0  0  0  0  0  0
  130.5482  131.4148  155.5144 C   0  0  0  0  0  0  0  0  0  0  0  0
  130.2743  132.1046  156.7987 C   0  0  0  0  0  0  0  0  0  0  0  0
  129.8026  131.5257  157.9307 C   0  0  0  0  0  0  0  0  0  0  0  0
  129.6974  132.5200  158.8728 N   0  0  0  0  0  0  0  0  0  0  0  0
  129.3873  132.4156  159.7859 H   0  0  0  0  0  0  0  0  0  0  0  0
  130.1083  133.6784  158.2884 C   0  0  0  0  0  0  0  0  0  0  0  0
  130.1546  134.9186  158.9016 N   0  0  0  0  0  0  0  0  0  0  0  0
  129.7383  135.0609  160.2990 C   0  0  1  0  0  0  0  0  0  0  0  0
  130.0945  134.2055  160.8732 H   0  0  0  0  0  0  0  0  0  0  0  0
  130.3216  136.3274  160.8704 C   0  0  0  0  0  0  0  0  0  0  0  0
  131.4834  136.7887  160.4160 C   0  0  0  0  0  0  0  0  0  0  0  0
  132.0527  138.0248  160.9737 C   0  0  0  0  0  0  0  0  0  0  0  0
  133.2187  138.4727  160.5059 C   0  0  0  0  0  0  0  0  0  0  0  0
  133.7931  139.6026  160.9883 O   0  0  0  0  0  0  0  0  0  0  0  0
  132.9470  140.4881  161.7317 C   0  0  0  0  0  0  0  0  0  0  0  0
  132.1208  139.6442  162.7131 C   0  0  0  0  0  0  0  0  0  0  0  0
  131.3739  138.6865  161.9502 O   0  0  0  0  0  0  0  0  0  0  0  0
  128.2343  135.1231  160.3713 C   0  0  0  0  0  0  0  0  0  0  0  0
  127.5760  134.6422  161.4876 C   0  0  0  0  0  0  0  0  0  0  0  0
  126.1971  134.7040  161.5574 C   0  0  0  0  0  0  0  0  0  0  0  0
  125.4745  135.2379  160.5040 C   0  0  0  0  0  0  0  0  0  0  0  0
  124.1262  135.2938  160.5686 F   0  0  0  0  0  0  0  0  0  0  0  0
  126.1346  135.7141  159.3839 C   0  0  0  0  0  0  0  0  0  0  0  0
  127.5137  135.6561  159.3186 C   0  0  0  0  0  0  0  0  0  0  0  0
  130.4570  133.4251  157.0506 N   0  0  0  0  0  0  0  0  0  0  0  0
  130.7907  134.0780  156.4155 H   0  0  0  0  0  0  0  0  0  0  0  0
  129.8825  131.8063  154.3543 C   0  0  0  0  0  0  0  0  0  0  0  0
  130.1416  131.1613  153.1621 C   0  0  0  0  0  0  0  0  0  0  0  0
  129.3504  128.6127  151.6563 H   0  0  0  0  0  0  0  0  0  0  0  0
  130.5788  127.7408  150.7080 H   0  0  0  0  0  0  0  0  0  0  0  0
  130.5184  127.5492  152.4766 H   0  0  0  0  0  0  0  0  0  0  0  0
  132.3657  129.0622  151.8078 H   0  0  0  0  0  0  0  0  0  0  0  0
  131.1976  130.1257  150.9875 H   0  0  0  0  0  0  0  0  0  0  0  0
  132.4332  128.9214  154.2265 H   0  0  0  0  0  0  0  0  0  0  0  0
  131.9920  130.0659  156.3591 H   0  0  0  0  0  0  0  0  0  0  0  0
  129.5565  130.4829  158.0657 H   0  0  0  0  0  0  0  0  0  0  0  0
  130.4627  135.6934  158.4061 H   0  0  0  0  0  0  0  0  0  0  0  0
  129.7963  136.8606  161.6490 H   0  0  0  0  0  0  0  0  0  0  0  0
  132.0087  136.2555  159.6374 H   0  0  0  0  0  0  0  0  0  0  0  0
  133.7182  137.9216  159.7227 H   0  0  0  0  0  0  0  0  0  0  0  0
  133.5568  141.2033  162.2838 H   0  0  0  0  0  0  0  0  0  0  0  0
  132.2811  141.0190  161.0514 H   0  0  0  0  0  0  0  0  0  0  0  0
  132.7856  139.1300  163.4071 H   0  0  0  0  0  0  0  0  0  0  0  0
  131.4360  140.2873  163.2660 H   0  0  0  0  0  0  0  0  0  0  0  0
  128.1397  134.2217  162.3074 H   0  0  0  0  0  0  0  0  0  0  0  0
  125.6832  134.3326  162.4317 H   0  0  0  0  0  0  0  0  0  0  0  0
  125.5719  136.1305  158.5614 H   0  0  0  0  0  0  0  0  0  0  0  0
  128.0290  136.0275  158.4451 H   0  0  0  0  0  0  0  0  0  0  0  0
  129.1648  132.6126  154.3882 H   0  0  0  0  0  0  0  0  0  0  0  0
  129.6260  131.4635  152.2625 H   0  0  0  0  0  0  0  0  0  0  0  0
  1  2  1  0
  1 34  1  0
  1 35  1  0
  1 36  1  0
  2  3  1  0
  2 37  1  0
  2 38  1  0
  3 33  2  0
  3  4  1  0
  4  5  2  0
  4 39  1  0
  5  6  1  0
  5 40  1  0
  6  7  1  0
  6 32  2  0
  7 30  1  0
  7  8  2  0
  8  9  1  0
  8 41  1  0
  9 10  1  0
  9 11  1  0
 11 12  1  0
 11 30  2  0
 12 13  1  0
 12 42  1  0
 13 14  1  1
 13 15  1  0
 13 23  1  0
 15 16  2  0
 15 43  1  0
 16 17  1  0
 16 44  1  0
 17 22  1  0
 17 18  2  0
 18 19  1  0
 18 45  1  0
 19 20  1  0
 20 21  1  0
 20 46  1  0
 20 47  1  0
 21 22  1  0
 21 48  1  0
 21 49  1  0
 23 29  1  0
 23 24  2  0
 24 25  1  0
 24 50  1  0
 25 26  2  0
 25 51  1  0
 26 27  1  0
 26 28  1  0
 28 29  2  0
 28 52  1  0
 29 53  1  0
 30 31  1  0
 32 33  1  0
 32 54  1  0
 33 55  1  0
M  CHG  1  30   1
M  END
>  <DOCK_score>  (1) 
-58.175079

>  <SMILES>  (1) 
CCc1ccc(-c2c[nH]c(N[C@@H](C=CC3=COCCO3)c3ccc(F)cc3)[nH+]2)cc1

$$$$
