CC(c1ccccc1)[C@@]1(O)C=C(NC[C@H]2CCC[NH+]2C2c3cc(O)ccc3-c3ccc(O)cc32)CCC1
     RDKit          3D

 74 79  0  0  1  0  0  0  0  0999 V2000
  128.5705  138.9952  166.1729 C   0  0  0  0  0  0  0  0  0  0  0  0
  128.2510  140.0526  165.1142 C   0  0  1  0  0  0  0  0  0  0  0  0
  128.0151  141.3807  165.7862 C   0  0  0  0  0  0  0  0  0  0  0  0
  127.1563  142.3012  165.2154 C   0  0  0  0  0  0  0  0  0  0  0  0
  126.9365  143.5178  165.8339 C   0  0  0  0  0  0  0  0  0  0  0  0
  127.5826  143.8174  167.0187 C   0  0  0  0  0  0  0  0  0  0  0  0
  128.4455  142.8991  167.5869 C   0  0  0  0  0  0  0  0  0  0  0  0
  128.6620  141.6807  166.9705 C   0  0  0  0  0  0  0  0  0  0  0  0
  129.4273  140.1739  164.1434 C   0  0  1  0  0  0  0  0  0  0  0  0
  130.5977  140.5653  164.8638 O   0  0  0  0  0  0  0  0  0  0  0  0
  129.6685  138.8467  163.4857 C   0  0  0  0  0  0  0  0  0  0  0  0
  129.9232  138.6949  162.2178 C   0  0  0  0  0  0  0  0  0  0  0  0
  130.1357  137.4071  161.7423 N   0  0  0  0  0  0  0  0  0  0  0  0
  130.4254  137.1888  160.3230 C   0  0  0  0  0  0  0  0  0  0  0  0
  130.6163  135.6927  160.0656 C   0  0  1  0  0  0  0  0  0  0  0  0
  130.8329  135.5143  159.0123 H   0  0  0  0  0  0  0  0  0  0  0  0
  131.7547  135.1334  160.9550 C   0  0  0  0  0  0  0  0  0  0  0  0
  131.3793  133.6303  161.0359 C   0  0  0  0  0  0  0  0  0  0  0  0
  129.8366  133.6584  161.0663 C   0  0  0  0  0  0  0  0  0  0  0  0
  129.4115  134.9417  160.4778 N   0  0  2  0  0  0  0  0  0  0  0  0
  128.8964  135.4750  161.1622 H   0  0  0  0  0  0  0  0  0  0  0  0
  128.5622  134.6878  159.3063 C   0  0  0  0  0  0  0  0  0  0  0  0
  127.1719  134.2999  159.7467 C   0  0  0  0  0  0  0  0  0  0  0  0
  126.2161  134.9660  160.4827 C   0  0  0  0  0  0  0  0  0  0  0  0
  124.9954  134.3591  160.7462 C   0  0  0  0  0  0  0  0  0  0  0  0
  124.0528  135.0154  161.4724 O   0  0  0  0  0  0  0  0  0  0  0  0
  124.7383  133.0812  160.2681 C   0  0  0  0  0  0  0  0  0  0  0  0
  125.6938  132.4089  159.5304 C   0  0  0  0  0  0  0  0  0  0  0  0
  126.9227  133.0165  159.2629 C   0  0  0  0  0  0  0  0  0  0  0  0
  128.1065  132.5336  158.5096 C   0  0  0  0  0  0  0  0  0  0  0  0
  128.3427  131.3283  157.8442 C   0  0  0  0  0  0  0  0  0  0  0  0
  129.5465  131.1163  157.2077 C   0  0  0  0  0  0  0  0  0  0  0  0
  130.5283  132.0978  157.2252 C   0  0  0  0  0  0  0  0  0  0  0  0
  131.7139  131.8846  156.5963 O   0  0  0  0  0  0  0  0  0  0  0  0
  130.2982  133.2975  157.8852 C   0  0  0  0  0  0  0  0  0  0  0  0
  129.0957  133.5136  158.5226 C   0  0  0  0  0  0  0  0  0  0  0  0
  130.0022  139.8301  161.2391 C   0  0  0  0  0  0  0  0  0  0  0  0
  130.1685  141.1566  161.9834 C   0  0  0  0  0  0  0  0  0  0  0  0
  129.1050  141.2320  163.0860 C   0  0  0  0  0  0  0  0  0  0  0  0
  129.4656  139.2889  166.7213 H   0  0  0  0  0  0  0  0  0  0  0  0
  127.7326  138.9086  166.8645 H   0  0  0  0  0  0  0  0  0  0  0  0
  128.7412  138.0345  165.6869 H   0  0  0  0  0  0  0  0  0  0  0  0
  127.3560  139.7587  164.5659 H   0  0  0  0  0  0  0  0  0  0  0  0
  126.6544  142.0686  164.2878 H   0  0  0  0  0  0  0  0  0  0  0  0
  126.2620  144.2351  165.3902 H   0  0  0  0  0  0  0  0  0  0  0  0
  127.4129  144.7688  167.5006 H   0  0  0  0  0  0  0  0  0  0  0  0
  128.9503  143.1331  168.5125 H   0  0  0  0  0  0  0  0  0  0  0  0
  129.3360  140.9632  167.4144 H   0  0  0  0  0  0  0  0  0  0  0  0
  130.8603  139.9427  165.5555 H   0  0  0  0  0  0  0  0  0  0  0  0
  129.6287  137.9604  164.1015 H   0  0  0  0  0  0  0  0  0  0  0  0
  130.0923  136.6523  162.3501 H   0  0  0  0  0  0  0  0  0  0  0  0
  129.5945  137.5579  159.7216 H   0  0  0  0  0  0  0  0  0  0  0  0
  131.3358  137.7232  160.0515 H   0  0  0  0  0  0  0  0  0  0  0  0
  132.7253  135.2682  160.4775 H   0  0  0  0  0  0  0  0  0  0  0  0
  131.7400  135.5933  161.9430 H   0  0  0  0  0  0  0  0  0  0  0  0
  131.7746  133.1828  161.9478 H   0  0  0  0  0  0  0  0  0  0  0  0
  131.7377  133.0930  160.1579 H   0  0  0  0  0  0  0  0  0  0  0  0
  129.4847  133.5878  162.0956 H   0  0  0  0  0  0  0  0  0  0  0  0
  129.4366  132.8310  160.4802 H   0  0  0  0  0  0  0  0  0  0  0  0
  128.5218  135.5743  158.6734 H   0  0  0  0  0  0  0  0  0  0  0  0
  126.4163  135.9601  160.8542 H   0  0  0  0  0  0  0  0  0  0  0  0
  124.3229  135.8978  161.7616 H   0  0  0  0  0  0  0  0  0  0  0  0
  123.7885  132.6102  160.4742 H   0  0  0  0  0  0  0  0  0  0  0  0
  125.4909  131.4152  159.1591 H   0  0  0  0  0  0  0  0  0  0  0  0
  127.5818  130.5622  157.8288 H   0  0  0  0  0  0  0  0  0  0  0  0
  129.7268  130.1836  156.6938 H   0  0  0  0  0  0  0  0  0  0  0  0
  132.3332  132.6243  156.6634 H   0  0  0  0  0  0  0  0  0  0  0  0
  131.0614  134.0616  157.8984 H   0  0  0  0  0  0  0  0  0  0  0  0
  129.0880  139.8604  160.6464 H   0  0  0  0  0  0  0  0  0  0  0  0
  130.8547  139.6778  160.5772 H   0  0  0  0  0  0  0  0  0  0  0  0
  130.0349  141.9858  161.2884 H   0  0  0  0  0  0  0  0  0  0  0  0
  131.1621  141.2048  162.4288 H   0  0  0  0  0  0  0  0  0  0  0  0
  128.1210  141.0363  162.6600 H   0  0  0  0  0  0  0  0  0  0  0  0
  129.1161  142.2216  163.5428 H   0  0  0  0  0  0  0  0  0  0  0  0
  1  2  1  0
  1 40  1  0
  1 41  1  0
  1 42  1  0
  2  3  1  0
  2  9  1  0
  2 43  1  6
  3  8  1  0
  3  4  2  0
  4  5  1  0
  4 44  1  0
  5  6  2  0
  5 45  1  0
  6  7  1  0
  6 46  1  0
  7  8  2  0
  7 47  1  0
  8 48  1  0
  9 39  1  0
  9 10  1  1
  9 11  1  0
 10 49  1  0
 11 12  2  0
 11 50  1  0
 12 13  1  0
 12 37  1  0
 13 14  1  0
 13 51  1  0
 14 15  1  0
 14 52  1  0
 14 53  1  0
 15 16  1  6
 15 20  1  0
 15 17  1  0
 17 18  1  0
 17 54  1  0
 17 55  1  0
 18 19  1  0
 18 56  1  0
 18 57  1  0
 19 20  1  0
 19 58  1  0
 19 59  1  0
 20 21  1  1
 20 22  1  0
 22 36  1  0
 22 23  1  0
 22 60  1  0
 23 29  1  0
 23 24  2  0
 24 25  1  0
 24 61  1  0
 25 26  1  0
 25 27  2  0
 26 62  1  0
 27 28  1  0
 27 63  1  0
 28 29  2  0
 28 64  1  0
 29 30  1  0
 30 36  2  0
 30 31  1  0
 31 32  2  0
 31 65  1  0
 32 33  1  0
 32 66  1  0
 33 34  1  0
 33 35  2  0
 34 67  1  0
 35 36  1  0
 35 68  1  0
 37 38  1  0
 37 69  1  0
 37 70  1  0
 38 39  1  0
 38 71  1  0
 38 72  1  0
 39 73  1  0
 39 74  1  0
M  CHG  1  20   1
M  END
>  <DOCK_score>  (1) 
-45.718353

>  <SMILES>  (1) 
CC(c1ccccc1)[C@@]1(O)C=C(NC[C@H]2CCC[NH+]2C2c3cc(O)ccc3-c3ccc(O)cc32)CCC1

$$$$
