CC(C)(Oc1cccc(COc2cccc(C[N@H+]3CCC=C(c4cccc(O)c4)C3)c2)c1)C(F)(F)F
     RDKit          3D

 67 70  0  0  1  0  0  0  0  0999 V2000
  128.0240  135.8399  172.6697 C   0  0  0  0  0  0  0  0  0  0  0  0
  127.4284  136.1880  171.3040 C   0  0  0  0  0  0  0  0  0  0  0  0
  128.3776  137.1282  170.5582 C   0  0  0  0  0  0  0  0  0  0  0  0
  127.2486  134.9913  170.5438 O   0  0  0  0  0  0  0  0  0  0  0  0
  126.7248  135.1252  169.2970 C   0  0  0  0  0  0  0  0  0  0  0  0
  125.3508  135.0729  169.1111 C   0  0  0  0  0  0  0  0  0  0  0  0
  124.8210  135.2088  167.8428 C   0  0  0  0  0  0  0  0  0  0  0  0
  125.6586  135.3972  166.7587 C   0  0  0  0  0  0  0  0  0  0  0  0
  127.0280  135.4493  166.9413 C   0  0  0  0  0  0  0  0  0  0  0  0
  127.9380  135.6537  165.7576 C   0  0  0  0  0  0  0  0  0  0  0  0
  128.1519  137.0523  165.5572 O   0  0  0  0  0  0  0  0  0  0  0  0
  128.9556  137.4113  164.5219 C   0  0  0  0  0  0  0  0  0  0  0  0
  129.2024  138.7527  164.2665 C   0  0  0  0  0  0  0  0  0  0  0  0
  130.0193  139.1151  163.2133 C   0  0  0  0  0  0  0  0  0  0  0  0
  130.5910  138.1425  162.4137 C   0  0  0  0  0  0  0  0  0  0  0  0
  130.3472  136.8054  162.6664 C   0  0  0  0  0  0  0  0  0  0  0  0
  130.9718  135.7479  161.7930 C   0  0  0  0  0  0  0  0  0  0  0  0
  130.0732  135.4466  160.6705 N   0  0  1  0  0  0  0  0  0  0  0  0
  129.6588  136.3009  160.3293 H   0  0  0  0  0  0  0  0  0  0  0  0
  130.8352  134.8027  159.5889 C   0  0  0  0  0  0  0  0  0  0  0  0
  129.9501  134.7338  158.3418 C   0  0  0  0  0  0  0  0  0  0  0  0
  128.6139  134.1474  158.7061 C   0  0  0  0  0  0  0  0  0  0  0  0
  128.1963  134.0667  159.9510 C   0  0  0  0  0  0  0  0  0  0  0  0
  126.8625  133.4853  160.2118 C   0  0  0  0  0  0  0  0  0  0  0  0
  126.5827  132.1735  159.8254 C   0  0  0  0  0  0  0  0  0  0  0  0
  125.3365  131.6339  160.0699 C   0  0  0  0  0  0  0  0  0  0  0  0
  124.3626  132.3889  160.6972 C   0  0  0  0  0  0  0  0  0  0  0  0
  124.6301  133.6961  161.0799 C   0  0  0  0  0  0  0  0  0  0  0  0
  123.6674  134.4355  161.6912 O   0  0  0  0  0  0  0  0  0  0  0  0
  125.8795  134.2453  160.8443 C   0  0  0  0  0  0  0  0  0  0  0  0
  129.0162  134.5331  161.1193 C   0  0  0  0  0  0  0  0  0  0  0  0
  129.5268  136.4377  163.7156 C   0  0  0  0  0  0  0  0  0  0  0  0
  127.5632  135.3081  168.2072 C   0  0  0  0  0  0  0  0  0  0  0  0
  126.0763  136.8771  171.4980 C   0  0  0  0  0  0  0  0  0  0  0  0
  126.2522  138.0485  172.2422 F   0  0  0  0  0  0  0  0  0  0  0  0
  125.5315  137.1952  170.2493 F   0  0  0  0  0  0  0  0  0  0  0  0
  125.2083  136.0173  172.1799 F   0  0  0  0  0  0  0  0  0  0  0  0
  128.8774  135.1753  172.5351 H   0  0  0  0  0  0  0  0  0  0  0  0
  128.3497  136.7532  173.1674 H   0  0  0  0  0  0  0  0  0  0  0  0
  127.2692  135.3431  173.2792 H   0  0  0  0  0  0  0  0  0  0  0  0
  127.8330  137.6398  169.7646 H   0  0  0  0  0  0  0  0  0  0  0  0
  128.7816  137.8633  171.2540 H   0  0  0  0  0  0  0  0  0  0  0  0
  129.1943  136.5509  170.1247 H   0  0  0  0  0  0  0  0  0  0  0  0
  124.6962  134.9265  169.9575 H   0  0  0  0  0  0  0  0  0  0  0  0
  123.7515  135.1683  167.6977 H   0  0  0  0  0  0  0  0  0  0  0  0
  125.2424  135.5036  165.7679 H   0  0  0  0  0  0  0  0  0  0  0  0
  127.4778  135.2252  164.8672 H   0  0  0  0  0  0  0  0  0  0  0  0
  128.8933  135.1633  165.9446 H   0  0  0  0  0  0  0  0  0  0  0  0
  128.7561  139.5128  164.8906 H   0  0  0  0  0  0  0  0  0  0  0  0
  130.2117  140.1590  163.0141 H   0  0  0  0  0  0  0  0  0  0  0  0
  131.2292  138.4279  161.5905 H   0  0  0  0  0  0  0  0  0  0  0  0
  131.1370  134.8438  162.3789 H   0  0  0  0  0  0  0  0  0  0  0  0
  131.9248  136.1109  161.4082 H   0  0  0  0  0  0  0  0  0  0  0  0
  131.7286  135.3884  159.3717 H   0  0  0  0  0  0  0  0  0  0  0  0
  131.1200  133.7950  159.8916 H   0  0  0  0  0  0  0  0  0  0  0  0
  129.8125  135.7370  157.9384 H   0  0  0  0  0  0  0  0  0  0  0  0
  130.4280  134.1035  157.5918 H   0  0  0  0  0  0  0  0  0  0  0  0
  127.9726  133.7830  157.9171 H   0  0  0  0  0  0  0  0  0  0  0  0
  127.3413  131.5811  159.3355 H   0  0  0  0  0  0  0  0  0  0  0  0
  125.1210  130.6191  159.7700 H   0  0  0  0  0  0  0  0  0  0  0  0
  123.3889  131.9614  160.8861 H   0  0  0  0  0  0  0  0  0  0  0  0
  123.9465  135.3326  161.9200 H   0  0  0  0  0  0  0  0  0  0  0  0
  126.0903  135.2608  161.1456 H   0  0  0  0  0  0  0  0  0  0  0  0
  128.3705  135.0498  161.8294 H   0  0  0  0  0  0  0  0  0  0  0  0
  129.4715  133.6711  161.6071 H   0  0  0  0  0  0  0  0  0  0  0  0
  129.3334  135.3932  163.9101 H   0  0  0  0  0  0  0  0  0  0  0  0
  128.6333  135.3446  168.3487 H   0  0  0  0  0  0  0  0  0  0  0  0
  1  2  1  0
  1 38  1  0
  1 39  1  0
  1 40  1  0
  2  3  1  0
  2  4  1  0
  2 34  1  0
  3 41  1  0
  3 42  1  0
  3 43  1  0
  4  5  1  0
  5 33  2  0
  5  6  1  0
  6  7  2  0
  6 44  1  0
  7  8  1  0
  7 45  1  0
  8  9  2  0
  8 46  1  0
  9 10  1  0
  9 33  1  0
 10 11  1  0
 10 47  1  0
 10 48  1  0
 11 12  1  0
 12 32  1  0
 12 13  2  0
 13 14  1  0
 13 49  1  0
 14 15  2  0
 14 50  1  0
 15 16  1  0
 15 51  1  0
 16 17  1  0
 16 32  2  0
 17 18  1  0
 17 52  1  0
 17 53  1  0
 18 19  1  6
 18 31  1  0
 18 20  1  0
 20 21  1  0
 20 54  1  0
 20 55  1  0
 21 22  1  0
 21 56  1  0
 21 57  1  0
 22 23  2  0
 22 58  1  0
 23 24  1  0
 23 31  1  0
 24 30  1  0
 24 25  2  0
 25 26  1  0
 25 59  1  0
 26 27  2  0
 26 60  1  0
 27 28  1  0
 27 61  1  0
 28 29  1  0
 28 30  2  0
 29 62  1  0
 30 63  1  0
 31 64  1  0
 31 65  1  0
 32 66  1  0
 33 67  1  0
 34 35  1  0
 34 36  1  0
 34 37  1  0
M  CHG  1  18   1
M  END
>  <DOCK_score>  (1) 
-40.940384

>  <SMILES>  (1) 
CC(C)(Oc1cccc(COc2cccc(C[N@H+]3CCC=C(c4cccc(O)c4)C3)c2)c1)C(F)(F)F

$$$$
