Cc1cc(O)ccc1Nc1[nH]cc(-c2ccc(Br)cc2)[nH+]1
     RDKit          3D

 36 38  0  0  1  0  0  0  0  0999 V2000
  127.3526  135.4050  158.1557 C   0  0  0  0  0  0  0  0  0  0  0  0
  127.8571  135.8098  159.5169 C   0  0  0  0  0  0  0  0  0  0  0  0
  126.9666  136.2192  160.4901 C   0  0  0  0  0  0  0  0  0  0  0  0
  127.4308  136.5968  161.7409 C   0  0  0  0  0  0  0  0  0  0  0  0
  126.5537  137.0048  162.6966 O   0  0  0  0  0  0  0  0  0  0  0  0
  128.7901  136.5587  162.0179 C   0  0  0  0  0  0  0  0  0  0  0  0
  129.6812  136.1446  161.0480 C   0  0  0  0  0  0  0  0  0  0  0  0
  129.2168  135.7659  159.7949 C   0  0  0  0  0  0  0  0  0  0  0  0
  130.1197  135.3459  158.8108 N   0  0  0  0  0  0  0  0  0  0  0  0
  130.0129  134.0753  158.2699 C   0  0  0  0  0  0  0  0  0  0  0  0
  129.5326  132.9768  158.9145 N   0  0  0  0  0  0  0  0  0  0  0  0
  129.2067  132.9431  159.8275 H   0  0  0  0  0  0  0  0  0  0  0  0
  129.5951  131.9249  158.0337 C   0  0  0  0  0  0  0  0  0  0  0  0
  130.1061  132.4113  156.8752 C   0  0  0  0  0  0  0  0  0  0  0  0
  130.3496  131.6351  155.6348 C   0  0  0  0  0  0  0  0  0  0  0  0
  129.7045  131.9883  154.4508 C   0  0  0  0  0  0  0  0  0  0  0  0
  129.9386  131.2662  153.2984 C   0  0  0  0  0  0  0  0  0  0  0  0
  130.8033  130.1861  153.3193 C   0  0  0  0  0  0  0  0  0  0  0  0
  131.1132  129.1966  151.7380 Br  0  0  0  0  0  0  0  0  0  0  0  0
  131.4428  129.8277  154.4940 C   0  0  0  0  0  0  0  0  0  0  0  0
  131.2201  130.5466  155.6505 C   0  0  0  0  0  0  0  0  0  0  0  0
  130.3578  133.7322  157.0526 N   0  0  0  0  0  0  0  0  0  0  0  0
  130.7298  134.3286  156.3842 H   0  0  0  0  0  0  0  0  0  0  0  0
  127.1335  134.3375  158.1520 H   0  0  0  0  0  0  0  0  0  0  0  0
  126.4454  135.9631  157.9238 H   0  0  0  0  0  0  0  0  0  0  0  0
  128.1141  135.6223  157.4066 H   0  0  0  0  0  0  0  0  0  0  0  0
  125.9085  136.2494  160.2753 H   0  0  0  0  0  0  0  0  0  0  0  0
  125.6301  136.9979  162.4116 H   0  0  0  0  0  0  0  0  0  0  0  0
  129.1509  136.8534  162.9922 H   0  0  0  0  0  0  0  0  0  0  0  0
  130.7390  136.1154  161.2634 H   0  0  0  0  0  0  0  0  0  0  0  0
  130.8201  135.9448  158.5079 H   0  0  0  0  0  0  0  0  0  0  0  0
  129.2910  130.9064  158.2251 H   0  0  0  0  0  0  0  0  0  0  0  0
  129.0256  132.8282  154.4345 H   0  0  0  0  0  0  0  0  0  0  0  0
  129.4425  131.5418  152.3796 H   0  0  0  0  0  0  0  0  0  0  0  0
  132.1167  128.9838  154.5051 H   0  0  0  0  0  0  0  0  0  0  0  0
  131.7196  130.2666  156.5661 H   0  0  0  0  0  0  0  0  0  0  0  0
  1  2  1  0
  1 24  1  0
  1 25  1  0
  1 26  1  0
  2  8  2  0
  2  3  1  0
  3  4  2  0
  3 27  1  0
  4  5  1  0
  4  6  1  0
  5 28  1  0
  6  7  2  0
  6 29  1  0
  7  8  1  0
  7 30  1  0
  8  9  1  0
  9 31  1  0
 10  9  1  0
 10 22  2  0
 10 11  1  0
 11 12  1  0
 11 13  1  0
 13 14  2  0
 13 32  1  0
 14 15  1  0
 14 22  1  0
 15 21  1  0
 15 16  2  0
 16 17  1  0
 16 33  1  0
 17 18  2  0
 17 34  1  0
 18 19  1  0
 18 20  1  0
 20 21  2  0
 20 35  1  0
 21 36  1  0
 22 23  1  0
M  CHG  1  22   1
M  END
>  <DOCK_score>  (1) 
-51.602184

>  <SMILES>  (1) 
Cc1cc(O)ccc1Nc1[nH]cc(-c2ccc(Br)cc2)[nH+]1

$$$$
