Cc1nn(-c2ccc(F)cc2)cc1C[NH+]=C(NC=C1NCCN1)NC1CCC1
     RDKit          3D

 55 58  0  0  1  0  0  0  0  0999 V2000
  133.1638  134.5262  163.0612 C   0  0  0  0  0  0  0  0  0  0  0  0
  133.5383  135.6470  162.1261 C   0  0  0  0  0  0  0  0  0  0  0  0
  134.0820  136.7860  162.4729 N   0  0  0  0  0  0  0  0  0  0  0  0
  134.2764  137.5493  161.3143 N   0  0  0  0  0  0  0  0  0  0  0  0
  134.8397  138.8323  161.2560 C   0  0  0  0  0  0  0  0  0  0  0  0
  134.9791  139.4752  160.0335 C   0  0  0  0  0  0  0  0  0  0  0  0
  135.5302  140.7404  159.9787 C   0  0  0  0  0  0  0  0  0  0  0  0
  135.9523  141.3638  161.1409 C   0  0  0  0  0  0  0  0  0  0  0  0
  136.4955  142.5994  161.0847 F   0  0  0  0  0  0  0  0  0  0  0  0
  135.8190  140.7218  162.3608 C   0  0  0  0  0  0  0  0  0  0  0  0
  135.2640  139.4586  162.4202 C   0  0  0  0  0  0  0  0  0  0  0  0
  133.8227  136.8309  160.2626 C   0  0  0  0  0  0  0  0  0  0  0  0
  133.3642  135.6496  160.7379 C   0  0  0  0  0  0  0  0  0  0  0  0
  132.7701  134.5342  159.9169 C   0  0  0  0  0  0  0  0  0  0  0  0
  131.3216  134.7250  159.8094 N   0  0  0  0  0  0  0  0  0  0  0  0
  130.8996  135.4863  160.2374 H   0  0  0  0  0  0  0  0  0  0  0  0
  130.5992  133.8708  159.1378 C   0  0  0  0  0  0  0  0  0  0  0  0
  129.2935  133.6441  159.4969 N   0  0  0  0  0  0  0  0  0  0  0  0
  128.5375  134.6738  160.0956 C   0  0  0  0  0  0  0  0  0  0  0  0
  127.2708  134.4537  160.4441 C   0  0  0  0  0  0  0  0  0  0  0  0
  126.6082  133.2455  160.2517 N   0  0  0  0  0  0  0  0  0  0  0  0
  125.2350  133.3699  160.7567 C   0  0  0  0  0  0  0  0  0  0  0  0
  125.1279  134.8123  161.2784 C   0  0  0  0  0  0  0  0  0  0  0  0
  126.4492  135.4063  161.0387 N   0  0  0  0  0  0  0  0  0  0  0  0
  131.1457  133.1974  158.0696 N   0  0  0  0  0  0  0  0  0  0  0  0
  130.3345  132.2383  157.3156 C   0  0  0  0  0  0  0  0  0  0  0  0
  130.8487  131.9843  155.8887 C   0  0  0  0  0  0  0  0  0  0  0  0
  129.3747  131.9823  155.4443 C   0  0  0  0  0  0  0  0  0  0  0  0
  129.0839  132.8610  156.6725 C   0  0  0  0  0  0  0  0  0  0  0  0
  134.0082  133.8452  163.1686 H   0  0  0  0  0  0  0  0  0  0  0  0
  132.9029  134.9380  164.0360 H   0  0  0  0  0  0  0  0  0  0  0  0
  132.3095  133.9845  162.6552 H   0  0  0  0  0  0  0  0  0  0  0  0
  134.6536  138.9877  159.1265 H   0  0  0  0  0  0  0  0  0  0  0  0
  135.6356  141.2423  159.0282 H   0  0  0  0  0  0  0  0  0  0  0  0
  136.1494  141.2092  163.2661 H   0  0  0  0  0  0  0  0  0  0  0  0
  135.1598  138.9584  163.3716 H   0  0  0  0  0  0  0  0  0  0  0  0
  133.8293  137.1419  159.2284 H   0  0  0  0  0  0  0  0  0  0  0  0
  133.2125  134.5410  158.9208 H   0  0  0  0  0  0  0  0  0  0  0  0
  132.9759  133.5786  160.3993 H   0  0  0  0  0  0  0  0  0  0  0  0
  128.8909  132.7758  159.3392 H   0  0  0  0  0  0  0  0  0  0  0  0
  128.9858  135.6406  160.2715 H   0  0  0  0  0  0  0  0  0  0  0  0
  126.9918  132.4495  159.8513 H   0  0  0  0  0  0  0  0  0  0  0  0
  125.0605  132.6609  161.5660 H   0  0  0  0  0  0  0  0  0  0  0  0
  124.5220  133.2060  159.9488 H   0  0  0  0  0  0  0  0  0  0  0  0
  124.9007  134.8131  162.3444 H   0  0  0  0  0  0  0  0  0  0  0  0
  124.3619  135.3592  160.7286 H   0  0  0  0  0  0  0  0  0  0  0  0
  126.7074  136.3150  161.2589 H   0  0  0  0  0  0  0  0  0  0  0  0
  132.0683  133.3574  157.8159 H   0  0  0  0  0  0  0  0  0  0  0  0
  130.1295  131.3256  157.8748 H   0  0  0  0  0  0  0  0  0  0  0  0
  131.4271  132.8124  155.4790 H   0  0  0  0  0  0  0  0  0  0  0  0
  131.3434  131.0206  155.7681 H   0  0  0  0  0  0  0  0  0  0  0  0
  128.9073  130.9986  155.4907 H   0  0  0  0  0  0  0  0  0  0  0  0
  129.2032  132.4889  154.4945 H   0  0  0  0  0  0  0  0  0  0  0  0
  128.1563  132.6038  157.1836 H   0  0  0  0  0  0  0  0  0  0  0  0
  129.1785  133.9293  156.4788 H   0  0  0  0  0  0  0  0  0  0  0  0
  1  2  1  0
  1 30  1  0
  1 31  1  0
  1 32  1  0
  2 13  1  0
  2  3  2  0
  3  4  1  0
  4  5  1  0
  4 12  1  0
  5 11  1  0
  5  6  2  0
  6  7  1  0
  6 33  1  0
  7  8  2  0
  7 34  1  0
  8  9  1  0
  8 10  1  0
 10 11  2  0
 10 35  1  0
 11 36  1  0
 12 13  2  0
 12 37  1  0
 13 14  1  0
 14 15  1  0
 14 38  1  0
 14 39  1  0
 15 16  1  0
 17 15  2  0
 17 18  1  0
 17 25  1  0
 18 19  1  0
 18 40  1  0
 19 20  2  0
 19 41  1  0
 20 24  1  0
 20 21  1  0
 21 22  1  0
 21 42  1  0
 22 23  1  0
 22 43  1  0
 22 44  1  0
 23 24  1  0
 23 45  1  0
 23 46  1  0
 24 47  1  0
 25 26  1  0
 25 48  1  0
 26 29  1  0
 26 27  1  0
 26 49  1  0
 27 28  1  0
 27 50  1  0
 27 51  1  0
 28 29  1  0
 28 52  1  0
 28 53  1  0
 29 54  1  0
 29 55  1  0
M  CHG  1  15   1
M  END
>  <DOCK_score>  (1) 
-46.228268

>  <SMILES>  (1) 
Cc1nn(-c2ccc(F)cc2)cc1C[NH+]=C(NC=C1NCCN1)NC1CCC1

$$$$
