[NH3+][C@H](Cc1cn([C@H](c2ccccc2)c2cccc(F)c2)nn1)C(=O)Nc1cccc(O)c1
     RDKit          3D

 55 58  0  0  1  0  0  0  0  0999 V2000
  130.6506  133.8068  157.0469 N   0  0  0  0  0  0  0  0  0  0  0  0
  130.8215  132.8323  157.2446 H   0  0  0  0  0  0  0  0  0  0  0  0
  130.0036  133.8855  156.2768 H   0  0  0  0  0  0  0  0  0  0  0  0
  131.5197  134.2581  156.8034 H   0  0  0  0  0  0  0  0  0  0  0  0
  130.0788  134.4545  158.2350 C   0  0  2  0  0  0  0  0  0  0  0  0
  129.8941  135.5074  158.0215 H   0  0  0  0  0  0  0  0  0  0  0  0
  131.0600  134.3354  159.4027 C   0  0  0  0  0  0  0  0  0  0  0  0
  130.7340  135.3778  160.4410 C   0  0  0  0  0  0  0  0  0  0  0  0
  131.3760  135.5795  161.6155 C   0  0  0  0  0  0  0  0  0  0  0  0
  130.7457  136.6151  162.2166 N   0  0  0  0  0  0  0  0  0  0  0  0
  131.0940  137.1943  163.5164 C   0  0  2  0  0  0  0  0  0  0  0  0
  131.9477  136.6610  163.9347 H   0  0  0  0  0  0  0  0  0  0  0  0
  129.9185  137.0728  164.4516 C   0  0  0  0  0  0  0  0  0  0  0  0
  128.7151  137.6723  164.1306 C   0  0  0  0  0  0  0  0  0  0  0  0
  127.6355  137.5572  164.9863 C   0  0  0  0  0  0  0  0  0  0  0  0
  127.7623  136.8507  166.1677 C   0  0  0  0  0  0  0  0  0  0  0  0
  128.9672  136.2552  166.4911 C   0  0  0  0  0  0  0  0  0  0  0  0
  130.0455  136.3668  165.6332 C   0  0  0  0  0  0  0  0  0  0  0  0
  131.4473  138.6486  163.3399 C   0  0  0  0  0  0  0  0  0  0  0  0
  131.2118  139.5462  164.3647 C   0  0  0  0  0  0  0  0  0  0  0  0
  131.5357  140.8804  164.2045 C   0  0  0  0  0  0  0  0  0  0  0  0
  132.0956  141.3185  163.0192 C   0  0  0  0  0  0  0  0  0  0  0  0
  132.3315  140.4208  161.9921 C   0  0  0  0  0  0  0  0  0  0  0  0
  132.8783  140.8481  160.8331 F   0  0  0  0  0  0  0  0  0  0  0  0
  132.0117  139.0833  162.1559 C   0  0  0  0  0  0  0  0  0  0  0  0
  129.7836  136.9999  161.4529 N   0  0  0  0  0  0  0  0  0  0  0  0
  129.7498  136.2822  160.3859 N   0  0  0  0  0  0  0  0  0  0  0  0
  128.7808  133.7806  158.5986 C   0  0  0  0  0  0  0  0  0  0  0  0
  128.3724  132.8523  157.9335 O   0  0  0  0  0  0  0  0  0  0  0  0
  128.0740  134.2095  159.6629 N   0  0  0  0  0  0  0  0  0  0  0  0
  126.8688  133.5839  160.0005 C   0  0  0  0  0  0  0  0  0  0  0  0
  126.6812  132.2368  159.7171 C   0  0  0  0  0  0  0  0  0  0  0  0
  125.4915  131.6192  160.0503 C   0  0  0  0  0  0  0  0  0  0  0  0
  124.4876  132.3374  160.6721 C   0  0  0  0  0  0  0  0  0  0  0  0
  124.6671  133.6845  160.9524 C   0  0  0  0  0  0  0  0  0  0  0  0
  123.6769  134.3909  161.5583 O   0  0  0  0  0  0  0  0  0  0  0  0
  125.8597  134.3080  160.6191 C   0  0  0  0  0  0  0  0  0  0  0  0
  130.9785  133.3431  159.8461 H   0  0  0  0  0  0  0  0  0  0  0  0
  132.0764  134.4891  159.0403 H   0  0  0  0  0  0  0  0  0  0  0  0
  132.2224  135.0267  161.9953 H   0  0  0  0  0  0  0  0  0  0  0  0
  128.6171  138.2277  163.2094 H   0  0  0  0  0  0  0  0  0  0  0  0
  126.6940  138.0220  164.7335 H   0  0  0  0  0  0  0  0  0  0  0  0
  126.9198  136.7636  166.8379 H   0  0  0  0  0  0  0  0  0  0  0  0
  129.0663  135.7033  167.4140 H   0  0  0  0  0  0  0  0  0  0  0  0
  130.9869  135.9019  165.8860 H   0  0  0  0  0  0  0  0  0  0  0  0
  130.7746  139.2048  165.2914 H   0  0  0  0  0  0  0  0  0  0  0  0
  131.3516  141.5807  165.0059 H   0  0  0  0  0  0  0  0  0  0  0  0
  132.3493  142.3610  162.8944 H   0  0  0  0  0  0  0  0  0  0  0  0
  132.2001  138.3812  161.3574 H   0  0  0  0  0  0  0  0  0  0  0  0
  128.4006  134.9520  160.1949 H   0  0  0  0  0  0  0  0  0  0  0  0
  127.4659  131.6722  159.2356 H   0  0  0  0  0  0  0  0  0  0  0  0
  125.3473  130.5721  159.8289 H   0  0  0  0  0  0  0  0  0  0  0  0
  123.5603  131.8506  160.9361 H   0  0  0  0  0  0  0  0  0  0  0  0
  123.8943  135.3205  161.7121 H   0  0  0  0  0  0  0  0  0  0  0  0
  126.0030  135.3552  160.8408 H   0  0  0  0  0  0  0  0  0  0  0  0
  1  2  1  0
  1  3  1  0
  1  4  1  0
  1  5  1  0
  5  6  1  6
  5  7  1  0
  5 28  1  0
  7  8  1  0
  7 38  1  0
  7 39  1  0
  8 27  1  0
  8  9  2  0
  9 10  1  0
  9 40  1  0
 10 11  1  0
 10 26  1  0
 11 12  1  1
 11 13  1  0
 11 19  1  0
 13 18  1  0
 13 14  2  0
 14 15  1  0
 14 41  1  0
 15 16  2  0
 15 42  1  0
 16 17  1  0
 16 43  1  0
 17 18  2  0
 17 44  1  0
 18 45  1  0
 19 25  1  0
 19 20  2  0
 20 21  1  0
 20 46  1  0
 21 22  2  0
 21 47  1  0
 22 23  1  0
 22 48  1  0
 23 24  1  0
 23 25  2  0
 25 49  1  0
 26 27  2  0
 28 29  2  0
 28 30  1  0
 30 31  1  0
 30 50  1  0
 31 37  1  0
 31 32  2  0
 32 33  1  0
 32 51  1  0
 33 34  2  0
 33 52  1  0
 34 35  1  0
 34 53  1  0
 35 36  1  0
 35 37  2  0
 36 54  1  0
 37 55  1  0
M  CHG  1   1   1
M  END
>  <DOCK_score>  (1) 
-47.470085

>  <SMILES>  (1) 
[NH3+][C@H](Cc1cn([C@H](c2ccccc2)c2cccc(F)c2)nn1)C(=O)Nc1cccc(O)c1

$$$$
