OC[C@H](Cc1ccc(-c2ccccc2)cc1)Nc1[nH]cc(C2=CCC(Br)C2)[nH+]1
     RDKit          3D

 53 56  0  0  1  0  0  0  0  0999 V2000
  127.8083  133.8176  160.2112 O   0  0  0  0  0  0  0  0  0  0  0  0
  128.1556  135.2038  160.2213 C   0  0  0  0  0  0  0  0  0  0  0  0
  129.6759  135.3479  160.3147 C   0  0  2  0  0  0  0  0  0  0  0  0
  130.0695  134.6039  161.0072 H   0  0  0  0  0  0  0  0  0  0  0  0
  130.0253  136.7494  160.8191 C   0  0  0  0  0  0  0  0  0  0  0  0
  131.4265  136.7489  161.3737 C   0  0  0  0  0  0  0  0  0  0  0  0
  132.4962  137.0317  160.5434 C   0  0  0  0  0  0  0  0  0  0  0  0
  133.7816  137.0331  161.0459 C   0  0  0  0  0  0  0  0  0  0  0  0
  134.0008  136.7489  162.3923 C   0  0  0  0  0  0  0  0  0  0  0  0
  135.3806  136.7483  162.9383 C   0  0  0  0  0  0  0  0  0  0  0  0
  135.7095  135.9168  164.0070 C   0  0  0  0  0  0  0  0  0  0  0  0
  136.9942  135.9207  164.5112 C   0  0  0  0  0  0  0  0  0  0  0  0
  137.9547  136.7479  163.9574 C   0  0  0  0  0  0  0  0  0  0  0  0
  137.6324  137.5792  162.8998 C   0  0  0  0  0  0  0  0  0  0  0  0
  136.3521  137.5795  162.3844 C   0  0  0  0  0  0  0  0  0  0  0  0
  132.9200  136.4594  163.2229 C   0  0  0  0  0  0  0  0  0  0  0  0
  131.6385  136.4661  162.7108 C   0  0  0  0  0  0  0  0  0  0  0  0
  130.2681  135.1439  158.9903 N   0  0  0  0  0  0  0  0  0  0  0  0
  130.0862  133.9418  158.3285 C   0  0  0  0  0  0  0  0  0  0  0  0
  129.3766  132.8788  158.7971 N   0  0  0  0  0  0  0  0  0  0  0  0
  128.9122  132.8283  159.6471 H   0  0  0  0  0  0  0  0  0  0  0  0
  129.4393  131.8914  157.8451 C   0  0  0  0  0  0  0  0  0  0  0  0
  130.1861  132.3790  156.8205 C   0  0  0  0  0  0  0  0  0  0  0  0
  130.5226  131.6645  155.5721 C   0  0  0  0  0  0  0  0  0  0  0  0
  131.1883  130.5230  155.5164 C   0  0  0  0  0  0  0  0  0  0  0  0
  131.3582  130.0698  154.0849 C   0  0  0  0  0  0  0  0  0  0  0  0
  131.0598  131.3257  153.2343 C   0  0  1  0  0  0  0  0  0  0  0  0
  130.1027  130.8481  151.5848 Br  0  0  0  0  0  0  0  0  0  0  0  0
  130.1471  132.1354  154.1862 C   0  0  0  0  0  0  0  0  0  0  0  0
  130.5641  133.6423  157.1457 N   0  0  0  0  0  0  0  0  0  0  0  0
  131.1031  134.2285  156.5918 H   0  0  0  0  0  0  0  0  0  0  0  0
  126.8576  133.6506  160.1535 H   0  0  0  0  0  0  0  0  0  0  0  0
  127.6913  135.6884  161.0801 H   0  0  0  0  0  0  0  0  0  0  0  0
  127.8017  135.6735  159.3036 H   0  0  0  0  0  0  0  0  0  0  0  0
  129.3247  137.0387  161.6024 H   0  0  0  0  0  0  0  0  0  0  0  0
  129.9611  137.4590  159.9942 H   0  0  0  0  0  0  0  0  0  0  0  0
  132.3252  137.2523  159.5001 H   0  0  0  0  0  0  0  0  0  0  0  0
  134.6160  137.2543  160.3970 H   0  0  0  0  0  0  0  0  0  0  0  0
  134.9601  135.2709  164.4403 H   0  0  0  0  0  0  0  0  0  0  0  0
  137.2503  135.2765  165.3392 H   0  0  0  0  0  0  0  0  0  0  0  0
  138.9588  136.7481  164.3553 H   0  0  0  0  0  0  0  0  0  0  0  0
  138.3852  138.2261  162.4739 H   0  0  0  0  0  0  0  0  0  0  0  0
  136.1026  138.2261  161.5561 H   0  0  0  0  0  0  0  0  0  0  0  0
  133.0848  136.2344  164.2663 H   0  0  0  0  0  0  0  0  0  0  0  0
  130.7997  136.2459  163.3546 H   0  0  0  0  0  0  0  0  0  0  0  0
  130.7875  135.8511  158.5771 H   0  0  0  0  0  0  0  0  0  0  0  0
  128.9827  130.9141  157.9004 H   0  0  0  0  0  0  0  0  0  0  0  0
  131.5595  129.9872  156.3774 H   0  0  0  0  0  0  0  0  0  0  0  0
  132.3796  129.7295  153.9134 H   0  0  0  0  0  0  0  0  0  0  0  0
  130.6500  129.2747  153.8520 H   0  0  0  0  0  0  0  0  0  0  0  0
  131.9761  131.8711  153.0083 H   0  0  0  0  0  0  0  0  0  0  0  0
  129.0979  131.9204  153.9836 H   0  0  0  0  0  0  0  0  0  0  0  0
  130.3437  133.2025  154.0819 H   0  0  0  0  0  0  0  0  0  0  0  0
  1  2  1  0
  1 32  1  0
  2  3  1  0
  2 33  1  0
  2 34  1  0
  3  4  1  1
  3  5  1  0
  3 18  1  0
  5  6  1  0
  5 35  1  0
  5 36  1  0
  6 17  1  0
  6  7  2  0
  7  8  1  0
  7 37  1  0
  8  9  2  0
  8 38  1  0
  9 10  1  0
  9 16  1  0
 10 15  1  0
 10 11  2  0
 11 12  1  0
 11 39  1  0
 12 13  2  0
 12 40  1  0
 13 14  1  0
 13 41  1  0
 14 15  2  0
 14 42  1  0
 15 43  1  0
 16 17  2  0
 16 44  1  0
 17 45  1  0
 18 46  1  0
 19 18  1  0
 19 30  2  0
 19 20  1  0
 20 21  1  0
 20 22  1  0
 22 23  2  0
 22 47  1  0
 23 24  1  0
 23 30  1  0
 24 29  1  0
 24 25  2  0
 25 26  1  0
 25 48  1  0
 26 27  1  0
 26 49  1  0
 26 50  1  0
 27 28  1  0
 27 29  1  0
 27 51  1  6
 29 52  1  0
 29 53  1  0
 30 31  1  0
M  CHG  1  30   1
M  END
>  <DOCK_score>  (1) 
-58.855183

>  <SMILES>  (1) 
OC[C@H](Cc1ccc(-c2ccccc2)cc1)Nc1[nH]cc(C2=CCC(Br)C2)[nH+]1

$$$$
