CCc1ccc(-c2c[nH]c(N[C@@H](C=Cc3cc(Cl)ccc3C)c3cccc(Cl)c3C)[nH+]2)cc1
     RDKit          3D

 61 64  0  0  1  0  0  0  0  0999 V2000
  129.9370  129.1136  151.1735 C   0  0  0  0  0  0  0  0  0  0  0  0
  131.2592  129.6682  151.7076 C   0  0  0  0  0  0  0  0  0  0  0  0
  131.0195  130.3539  153.0279 C   0  0  0  0  0  0  0  0  0  0  0  0
  131.1120  129.6335  154.2053 C   0  0  0  0  0  0  0  0  0  0  0  0
  130.8982  130.2574  155.4175 C   0  0  0  0  0  0  0  0  0  0  0  0
  130.5782  131.6135  155.4536 C   0  0  0  0  0  0  0  0  0  0  0  0
  130.3424  132.2884  156.7531 C   0  0  0  0  0  0  0  0  0  0  0  0
  129.8526  131.7079  157.8766 C   0  0  0  0  0  0  0  0  0  0  0  0
  129.7965  132.6865  158.8390 N   0  0  0  0  0  0  0  0  0  0  0  0
  129.4875  132.5773  159.7520 H   0  0  0  0  0  0  0  0  0  0  0  0
  130.2541  133.8375  158.2750 C   0  0  0  0  0  0  0  0  0  0  0  0
  130.3582  135.0619  158.9125 N   0  0  0  0  0  0  0  0  0  0  0  0
  129.9568  135.1939  160.3153 C   0  0  1  0  0  0  0  0  0  0  0  0
  130.2787  134.3124  160.8698 H   0  0  0  0  0  0  0  0  0  0  0  0
  130.5982  136.4220  160.9079 C   0  0  0  0  0  0  0  0  0  0  0  0
  131.7875  136.3348  161.4871 C   0  0  0  0  0  0  0  0  0  0  0  0
  132.4166  137.5395  162.0683 C   0  0  0  0  0  0  0  0  0  0  0  0
  132.1781  137.8811  163.4000 C   0  0  0  0  0  0  0  0  0  0  0  0
  132.7731  139.0048  163.9382 C   0  0  0  0  0  0  0  0  0  0  0  0
  132.4833  139.4287  165.5966 Cl  0  0  0  0  0  0  0  0  0  0  0  0
  133.5967  139.7969  163.1562 C   0  0  0  0  0  0  0  0  0  0  0  0
  133.8317  139.4662  161.8339 C   0  0  0  0  0  0  0  0  0  0  0  0
  133.2469  138.3428  161.2860 C   0  0  0  0  0  0  0  0  0  0  0  0
  133.5043  137.9844  159.8450 C   0  0  0  0  0  0  0  0  0  0  0  0
  128.4574  135.3201  160.3991 C   0  0  0  0  0  0  0  0  0  0  0  0
  127.6965  135.2991  159.2448 C   0  0  0  0  0  0  0  0  0  0  0  0
  126.3212  135.4149  159.3209 C   0  0  0  0  0  0  0  0  0  0  0  0
  125.7058  135.5522  160.5511 C   0  0  0  0  0  0  0  0  0  0  0  0
  126.4665  135.5721  161.7063 C   0  0  0  0  0  0  0  0  0  0  0  0
  125.6943  135.7428  163.2517 Cl  0  0  0  0  0  0  0  0  0  0  0  0
  127.8429  135.4513  161.6298 C   0  0  0  0  0  0  0  0  0  0  0  0
  128.6720  135.4684  162.8882 C   0  0  0  0  0  0  0  0  0  0  0  0
  130.5840  133.5945  157.0301 N   0  0  0  0  0  0  0  0  0  0  0  0
  130.9421  134.2449  156.4058 H   0  0  0  0  0  0  0  0  0  0  0  0
  130.4813  132.3331  154.2638 C   0  0  0  0  0  0  0  0  0  0  0  0
  130.7022  131.7000  153.0577 C   0  0  0  0  0  0  0  0  0  0  0  0
  129.2295  129.9310  151.0352 H   0  0  0  0  0  0  0  0  0  0  0  0
  130.1105  128.6175  150.2186 H   0  0  0  0  0  0  0  0  0  0  0  0
  129.5293  128.3969  151.8864 H   0  0  0  0  0  0  0  0  0  0  0  0
  131.9668  128.8506  151.8459 H   0  0  0  0  0  0  0  0  0  0  0  0
  131.6670  130.3849  150.9947 H   0  0  0  0  0  0  0  0  0  0  0  0
  131.3557  128.5818  154.1758 H   0  0  0  0  0  0  0  0  0  0  0  0
  130.9751  129.6951  156.3363 H   0  0  0  0  0  0  0  0  0  0  0  0
  129.5620  130.6742  157.9924 H   0  0  0  0  0  0  0  0  0  0  0  0
  130.6967  135.8325  158.4305 H   0  0  0  0  0  0  0  0  0  0  0  0
  130.0891  137.3733  160.8608 H   0  0  0  0  0  0  0  0  0  0  0  0
  132.2966  135.3835  161.5342 H   0  0  0  0  0  0  0  0  0  0  0  0
  131.5325  137.2660  164.0093 H   0  0  0  0  0  0  0  0  0  0  0  0
  134.0555  140.6783  163.5796 H   0  0  0  0  0  0  0  0  0  0  0  0
  134.4744  140.0884  161.2289 H   0  0  0  0  0  0  0  0  0  0  0  0
  132.7544  138.4598  159.2128 H   0  0  0  0  0  0  0  0  0  0  0  0
  134.4962  138.3314  159.5558 H   0  0  0  0  0  0  0  0  0  0  0  0
  133.4484  136.9026  159.7240 H   0  0  0  0  0  0  0  0  0  0  0  0
  128.1770  135.1925  158.2834 H   0  0  0  0  0  0  0  0  0  0  0  0
  125.7274  135.3983  158.4190 H   0  0  0  0  0  0  0  0  0  0  0  0
  124.6313  135.6414  160.6104 H   0  0  0  0  0  0  0  0  0  0  0  0
  128.9538  136.4946  163.1236 H   0  0  0  0  0  0  0  0  0  0  0  0
  128.0911  135.0533  163.7117 H   0  0  0  0  0  0  0  0  0  0  0  0
  129.5706  134.8699  162.7393 H   0  0  0  0  0  0  0  0  0  0  0  0
  130.2334  133.3840  154.2859 H   0  0  0  0  0  0  0  0  0  0  0  0
  130.6271  132.2566  152.1352 H   0  0  0  0  0  0  0  0  0  0  0  0
  1  2  1  0
  1 37  1  0
  1 38  1  0
  1 39  1  0
  2  3  1  0
  2 40  1  0
  2 41  1  0
  3 36  2  0
  3  4  1  0
  4  5  2  0
  4 42  1  0
  5  6  1  0
  5 43  1  0
  6  7  1  0
  6 35  2  0
  7 33  1  0
  7  8  2  0
  8  9  1  0
  8 44  1  0
  9 10  1  0
  9 11  1  0
 11 12  1  0
 11 33  2  0
 12 13  1  0
 12 45  1  0
 13 14  1  1
 13 15  1  0
 13 25  1  0
 15 16  2  0
 15 46  1  0
 16 17  1  0
 16 47  1  0
 17 23  1  0
 17 18  2  0
 18 19  1  0
 18 48  1  0
 19 20  1  0
 19 21  2  0
 21 22  1  0
 21 49  1  0
 22 23  2  0
 22 50  1  0
 23 24  1  0
 24 51  1  0
 24 52  1  0
 24 53  1  0
 25 31  1  0
 25 26  2  0
 26 27  1  0
 26 54  1  0
 27 28  2  0
 27 55  1  0
 28 29  1  0
 28 56  1  0
 29 30  1  0
 29 31  2  0
 31 32  1  0
 32 57  1  0
 32 58  1  0
 32 59  1  0
 33 34  1  0
 35 36  1  0
 35 60  1  0
 36 61  1  0
M  CHG  1  33   1
M  END
>  <DOCK_score>  (1) 
-61.210346

>  <SMILES>  (1) 
CCc1ccc(-c2c[nH]c(N[C@@H](C=Cc3cc(Cl)ccc3C)c3cccc(Cl)c3C)[nH+]2)cc1

$$$$
