C(=CCc1ccc(Nc2ccc(-c3c[nH]c(NCCC4=CCCCC4)[nH+]3)cc2)cc1)Cc1ccccc1
     RDKit          3D

 74 78  0  0  1  0  0  0  0  0999 V2000
  135.7705  142.0635  169.2630 C   0  0  0  0  0  0  0  0  0  0  0  0
  136.3205  142.6297  168.2176 C   0  0  0  0  0  0  0  0  0  0  0  0
  137.4485  141.9407  167.4936 C   0  0  0  0  0  0  0  0  0  0  0  0
  137.0483  141.6911  166.0622 C   0  0  0  0  0  0  0  0  0  0  0  0
  137.3162  142.6427  165.0951 C   0  0  0  0  0  0  0  0  0  0  0  0
  136.9514  142.4171  163.7825 C   0  0  0  0  0  0  0  0  0  0  0  0
  136.3147  141.2324  163.4340 C   0  0  0  0  0  0  0  0  0  0  0  0
  135.9438  141.0011  162.1072 N   0  0  0  0  0  0  0  0  0  0  0  0
  134.8272  140.2110  161.8216 C   0  0  0  0  0  0  0  0  0  0  0  0
  134.9719  139.0513  161.0692 C   0  0  0  0  0  0  0  0  0  0  0  0
  133.8716  138.2698  160.7866 C   0  0  0  0  0  0  0  0  0  0  0  0
  132.6134  138.6438  161.2558 C   0  0  0  0  0  0  0  0  0  0  0  0
  131.4280  137.8049  160.9526 C   0  0  0  0  0  0  0  0  0  0  0  0
  130.3277  137.6667  161.7327 C   0  0  0  0  0  0  0  0  0  0  0  0
  129.4795  136.8062  161.0768 N   0  0  0  0  0  0  0  0  0  0  0  0
  128.6075  136.5131  161.3844 H   0  0  0  0  0  0  0  0  0  0  0  0
  130.0918  136.4371  159.9190 C   0  0  0  0  0  0  0  0  0  0  0  0
  129.5712  135.5721  158.9716 N   0  0  0  0  0  0  0  0  0  0  0  0
  128.2515  134.9699  159.1765 C   0  0  0  0  0  0  0  0  0  0  0  0
  127.9159  134.0620  157.9915 C   0  0  0  0  0  0  0  0  0  0  0  0
  128.9532  132.9742  157.8828 C   0  0  0  0  0  0  0  0  0  0  0  0
  129.6410  132.8985  156.7888 C   0  0  0  0  0  0  0  0  0  0  0  0
  130.7023  131.8691  156.5323 C   0  0  0  0  0  0  0  0  0  0  0  0
  131.1353  131.2176  157.8475 C   0  0  0  0  0  0  0  0  0  0  0  0
  129.8775  130.7858  158.6122 C   0  0  0  0  0  0  0  0  0  0  0  0
  129.1204  132.0424  159.0471 C   0  0  0  0  0  0  0  0  0  0  0  0
  131.2558  137.0358  159.8483 N   0  0  0  0  0  0  0  0  0  0  0  0
  131.8925  136.9433  159.1226 H   0  0  0  0  0  0  0  0  0  0  0  0
  132.4705  139.8074  162.0102 C   0  0  0  0  0  0  0  0  0  0  0  0
  133.5736  140.5858  162.2905 C   0  0  0  0  0  0  0  0  0  0  0  0
  136.0424  140.2809  164.4091 C   0  0  0  0  0  0  0  0  0  0  0  0
  136.4147  140.5108  165.7190 C   0  0  0  0  0  0  0  0  0  0  0  0
  134.6426  142.7525  169.9870 C   0  0  0  0  0  0  0  0  0  0  0  0
  133.4158  141.8780  169.9535 C   0  0  0  0  0  0  0  0  0  0  0  0
  132.5092  141.9986  168.9169 C   0  0  0  0  0  0  0  0  0  0  0  0
  131.3861  141.1931  168.8837 C   0  0  0  0  0  0  0  0  0  0  0  0
  131.1645  140.2744  169.8925 C   0  0  0  0  0  0  0  0  0  0  0  0
  132.0686  140.1574  170.9318 C   0  0  0  0  0  0  0  0  0  0  0  0
  133.1941  140.9592  170.9623 C   0  0  0  0  0  0  0  0  0  0  0  0
  136.1253  141.1029  169.6061 H   0  0  0  0  0  0  0  0  0  0  0  0
  135.9657  143.5904  167.8745 H   0  0  0  0  0  0  0  0  0  0  0  0
  137.6663  140.9904  167.9811 H   0  0  0  0  0  0  0  0  0  0  0  0
  138.3359  142.5732  167.5179 H   0  0  0  0  0  0  0  0  0  0  0  0
  137.8109  143.5635  165.3669 H   0  0  0  0  0  0  0  0  0  0  0  0
  137.1605  143.1608  163.0278 H   0  0  0  0  0  0  0  0  0  0  0  0
  136.4613  141.3888  161.3842 H   0  0  0  0  0  0  0  0  0  0  0  0
  135.9469  138.7621  160.7056 H   0  0  0  0  0  0  0  0  0  0  0  0
  133.9838  137.3712  160.1982 H   0  0  0  0  0  0  0  0  0  0  0  0
  130.1505  138.1430  162.6857 H   0  0  0  0  0  0  0  0  0  0  0  0
  130.0801  135.3650  158.1724 H   0  0  0  0  0  0  0  0  0  0  0  0
  128.2589  134.3818  160.0941 H   0  0  0  0  0  0  0  0  0  0  0  0
  127.5013  135.7567  159.2551 H   0  0  0  0  0  0  0  0  0  0  0  0
  126.9341  133.6138  158.1438 H   0  0  0  0  0  0  0  0  0  0  0  0
  127.9086  134.6501  157.0738 H   0  0  0  0  0  0  0  0  0  0  0  0
  129.4410  133.6235  156.0138 H   0  0  0  0  0  0  0  0  0  0  0  0
  131.5639  132.3442  156.0636 H   0  0  0  0  0  0  0  0  0  0  0  0
  130.3057  131.1048  155.8639 H   0  0  0  0  0  0  0  0  0  0  0  0
  131.6984  131.9354  158.4439 H   0  0  0  0  0  0  0  0  0  0  0  0
  131.7542  130.3452  157.6378 H   0  0  0  0  0  0  0  0  0  0  0  0
  130.1634  130.2077  159.4909 H   0  0  0  0  0  0  0  0  0  0  0  0
  129.2433  130.1821  157.9631 H   0  0  0  0  0  0  0  0  0  0  0  0
  129.6794  132.5462  159.8358 H   0  0  0  0  0  0  0  0  0  0  0  0
  128.1388  131.7574  159.4257 H   0  0  0  0  0  0  0  0  0  0  0  0
  131.4966  140.0992  162.3746 H   0  0  0  0  0  0  0  0  0  0  0  0
  133.4634  141.4872  162.8752 H   0  0  0  0  0  0  0  0  0  0  0  0
  135.5439  139.3608  164.1423 H   0  0  0  0  0  0  0  0  0  0  0  0
  136.2072  139.7699  166.4767 H   0  0  0  0  0  0  0  0  0  0  0  0
  134.9320  142.9330  171.0224 H   0  0  0  0  0  0  0  0  0  0  0  0
  134.4249  143.7028  169.4996 H   0  0  0  0  0  0  0  0  0  0  0  0
  132.6801  142.7196  168.1312 H   0  0  0  0  0  0  0  0  0  0  0  0
  130.6798  141.2848  168.0720 H   0  0  0  0  0  0  0  0  0  0  0  0
  130.2849  139.6482  169.8688 H   0  0  0  0  0  0  0  0  0  0  0  0
  131.8950  139.4398  171.7201 H   0  0  0  0  0  0  0  0  0  0  0  0
  133.9001  140.8681  171.7745 H   0  0  0  0  0  0  0  0  0  0  0  0
  1  2  2  0
  1 33  1  0
  1 40  1  0
  2  3  1  0
  2 41  1  0
  3  4  1  0
  3 42  1  0
  3 43  1  0
  4 32  1  0
  4  5  2  0
  5  6  1  0
  5 44  1  0
  6  7  2  0
  6 45  1  0
  7  8  1  0
  7 31  1  0
  8  9  1  0
  8 46  1  0
  9 30  1  0
  9 10  2  0
 10 11  1  0
 10 47  1  0
 11 12  2  0
 11 48  1  0
 12 13  1  0
 12 29  1  0
 13 27  1  0
 13 14  2  0
 14 15  1  0
 14 49  1  0
 15 16  1  0
 15 17  1  0
 17 18  1  0
 17 27  2  0
 18 19  1  0
 18 50  1  0
 19 20  1  0
 19 51  1  0
 19 52  1  0
 20 21  1  0
 20 53  1  0
 20 54  1  0
 21 26  1  0
 21 22  2  0
 22 23  1  0
 22 55  1  0
 23 24  1  0
 23 56  1  0
 23 57  1  0
 24 25  1  0
 24 58  1  0
 24 59  1  0
 25 26  1  0
 25 60  1  0
 25 61  1  0
 26 62  1  0
 26 63  1  0
 27 28  1  0
 29 30  2  0
 29 64  1  0
 30 65  1  0
 31 32  2  0
 31 66  1  0
 32 67  1  0
 33 34  1  0
 33 68  1  0
 33 69  1  0
 34 39  1  0
 34 35  2  0
 35 36  1  0
 35 70  1  0
 36 37  2  0
 36 71  1  0
 37 38  1  0
 37 72  1  0
 38 39  2  0
 38 73  1  0
 39 74  1  0
M  CHG  1  27   1
M  END
>  <DOCK_score>  (1) 
-56.97229

>  <SMILES>  (1) 
C(=CCc1ccc(Nc2ccc(-c3c[nH]c(NCCC4=CCCCC4)[nH+]3)cc2)cc1)Cc1ccccc1

$$$$
