Cc1nc(Nc2ccc(-c3n[nH]cc3C[NH2+]CCO)o2)[nH]c1C
     RDKit          3D

 44 46  0  0  0  0  0  0  0  0999 V2000
  130.1083  137.8052  164.9268 C   0  0  0  0  0  0  0  0  0  0  0  0
  128.7384  137.7012  164.3072 C   0  0  0  0  0  0  0  0  0  0  0  0
  128.3811  136.8563  163.3259 N   0  0  0  0  0  0  0  0  0  0  0  0
  127.1160  137.0433  163.0319 C   0  0  0  0  0  0  0  0  0  0  0  0
  126.3981  136.3554  162.0667 N   0  0  0  0  0  0  0  0  0  0  0  0
  127.0196  135.3676  161.3100 C   0  0  0  0  0  0  0  0  0  0  0  0
  126.4158  134.2693  160.7913 C   0  0  0  0  0  0  0  0  0  0  0  0
  127.4061  133.5428  160.1019 C   0  0  0  0  0  0  0  0  0  0  0  0
  128.5678  134.2362  160.2349 C   0  0  0  0  0  0  0  0  0  0  0  0
  129.8772  133.8475  159.6718 C   0  0  0  0  0  0  0  0  0  0  0  0
  130.1253  132.7672  158.9574 N   0  0  0  0  0  0  0  0  0  0  0  0
  131.4846  132.7724  158.6196 N   0  0  0  0  0  0  0  0  0  0  0  0
  131.9432  132.0966  158.0963 H   0  0  0  0  0  0  0  0  0  0  0  0
  132.0462  133.8814  159.1480 C   0  0  0  0  0  0  0  0  0  0  0  0
  131.0853  134.5635  159.8070 C   0  0  0  0  0  0  0  0  0  0  0  0
  131.2696  135.8606  160.5516 C   0  0  0  0  0  0  0  0  0  0  0  0
  131.0411  136.9871  159.6368 N   0  0  0  0  0  0  0  0  0  0  0  0
  131.7005  136.9403  158.8744 H   0  0  0  0  0  0  0  0  0  0  0  0
  130.1015  136.9391  159.2724 H   0  0  0  0  0  0  0  0  0  0  0  0
  131.2209  138.2516  160.3626 C   0  0  0  0  0  0  0  0  0  0  0  0
  130.9830  139.4248  159.4098 C   0  0  0  0  0  0  0  0  0  0  0  0
  131.9166  139.3585  158.3301 O   0  0  0  0  0  0  0  0  0  0  0  0
  128.3209  135.3376  160.9745 O   0  0  0  0  0  0  0  0  0  0  0  0
  126.6273  138.0233  163.8395 N   0  0  0  0  0  0  0  0  0  0  0  0
  125.7203  138.3671  163.8457 H   0  0  0  0  0  0  0  0  0  0  0  0
  127.6639  138.4347  164.6456 C   0  0  0  0  0  0  0  0  0  0  0  0
  127.6057  139.5043  165.7056 C   0  0  0  0  0  0  0  0  0  0  0  0
  130.1762  137.1239  165.7749 H   0  0  0  0  0  0  0  0  0  0  0  0
  130.8629  137.5401  164.1863 H   0  0  0  0  0  0  0  0  0  0  0  0
  130.2764  138.8270  165.2672 H   0  0  0  0  0  0  0  0  0  0  0  0
  125.4621  136.5628  161.9186 H   0  0  0  0  0  0  0  0  0  0  0  0
  125.3739  134.0023  160.8889 H   0  0  0  0  0  0  0  0  0  0  0  0
  127.2690  132.6129  159.5700 H   0  0  0  0  0  0  0  0  0  0  0  0
  133.0835  134.1696  159.0624 H   0  0  0  0  0  0  0  0  0  0  0  0
  130.5576  135.9111  161.3753 H   0  0  0  0  0  0  0  0  0  0  0  0
  132.2848  135.9124  160.9452 H   0  0  0  0  0  0  0  0  0  0  0  0
  130.5087  138.3021  161.1862 H   0  0  0  0  0  0  0  0  0  0  0  0
  132.2361  138.3033  160.7563 H   0  0  0  0  0  0  0  0  0  0  0  0
  129.9679  139.3730  159.0162 H   0  0  0  0  0  0  0  0  0  0  0  0
  131.1163  140.3630  159.9485 H   0  0  0  0  0  0  0  0  0  0  0  0
  131.8548  138.5482  157.8059 H   0  0  0  0  0  0  0  0  0  0  0  0
  127.2510  139.0702  166.6405 H   0  0  0  0  0  0  0  0  0  0  0  0
  128.6010  139.9231  165.8541 H   0  0  0  0  0  0  0  0  0  0  0  0
  126.9231  140.2929  165.3891 H   0  0  0  0  0  0  0  0  0  0  0  0
  1  2  1  0
  1 28  1  0
  1 29  1  0
  1 30  1  0
  2 26  2  0
  2  3  1  0
  3  4  2  0
  4  5  1  0
  4 24  1  0
  5  6  1  0
  5 31  1  0
  6 23  1  0
  6  7  2  0
  7  8  1  0
  7 32  1  0
  8  9  2  0
  8 33  1  0
  9 10  1  0
  9 23  1  0
 10 15  1  0
 10 11  2  0
 11 12  1  0
 12 13  1  0
 12 14  1  0
 14 15  2  0
 14 34  1  0
 15 16  1  0
 16 17  1  0
 16 35  1  0
 16 36  1  0
 17 18  1  0
 17 19  1  0
 17 20  1  0
 20 21  1  0
 20 37  1  0
 20 38  1  0
 21 22  1  0
 21 39  1  0
 21 40  1  0
 22 41  1  0
 24 25  1  0
 24 26  1  0
 26 27  1  0
 27 42  1  0
 27 43  1  0
 27 44  1  0
M  CHG  1  17   1
M  END
>  <DOCK_score>  (1) 
-42.539307

>  <SMILES>  (1) 
Cc1nc(Nc2ccc(-c3n[nH]cc3C[NH2+]CCO)o2)[nH]c1C

$$$$
