Cc1cocc1-c1ccc(C[NH+]2CCN([C@H](CO)Cc3ccccc3)CC2)cc1
     RDKit          3D

 60 63  0  0  1  0  0  0  0  0999 V2000
  136.5124  138.4308  163.1005 C   0  0  0  0  0  0  0  0  0  0  0  0
  136.7337  139.0664  161.7521 C   0  0  0  0  0  0  0  0  0  0  0  0
  137.8072  139.7713  161.3570 C   0  0  0  0  0  0  0  0  0  0  0  0
  137.6232  140.1738  160.0906 O   0  0  0  0  0  0  0  0  0  0  0  0
  136.4423  139.7446  159.6227 C   0  0  0  0  0  0  0  0  0  0  0  0
  135.8226  139.0376  160.6026 C   0  0  0  0  0  0  0  0  0  0  0  0
  134.4952  138.3779  160.5281 C   0  0  0  0  0  0  0  0  0  0  0  0
  133.5009  138.8983  159.7023 C   0  0  0  0  0  0  0  0  0  0  0  0
  132.2685  138.2804  159.6366 C   0  0  0  0  0  0  0  0  0  0  0  0
  132.0197  137.1463  160.3884 C   0  0  0  0  0  0  0  0  0  0  0  0
  130.6721  136.4761  160.3125 C   0  0  0  0  0  0  0  0  0  0  0  0
  130.6863  135.4676  159.2444 N   0  0  0  0  0  0  0  0  0  0  0  0
  131.1959  135.8257  158.4507 H   0  0  0  0  0  0  0  0  0  0  0  0
  131.3383  134.2458  159.7338 C   0  0  0  0  0  0  0  0  0  0  0  0
  131.3699  133.2013  158.6158 C   0  0  0  0  0  0  0  0  0  0  0  0
  129.9956  132.9056  158.1868 N   0  0  0  0  0  0  0  0  0  0  0  0
  129.9801  131.8634  157.1516 C   0  0  2  0  0  0  0  0  0  0  0  0
  129.0377  131.9074  156.6058 H   0  0  0  0  0  0  0  0  0  0  0  0
  130.1252  130.4895  157.8090 C   0  0  0  0  0  0  0  0  0  0  0  0
  129.0401  130.2777  158.7146 O   0  0  0  0  0  0  0  0  0  0  0  0
  131.1419  132.0902  156.1822 C   0  0  0  0  0  0  0  0  0  0  0  0
  130.8645  131.3691  154.8883 C   0  0  0  0  0  0  0  0  0  0  0  0
  131.2887  130.0643  154.7195 C   0  0  0  0  0  0  0  0  0  0  0  0
  131.0300  129.4013  153.5345 C   0  0  0  0  0  0  0  0  0  0  0  0
  130.3563  130.0464  152.5143 C   0  0  0  0  0  0  0  0  0  0  0  0
  129.9366  131.3529  152.6811 C   0  0  0  0  0  0  0  0  0  0  0  0
  130.1908  132.0143  153.8680 C   0  0  0  0  0  0  0  0  0  0  0  0
  129.3216  134.1244  157.7175 C   0  0  0  0  0  0  0  0  0  0  0  0
  129.3070  135.1613  158.8428 C   0  0  0  0  0  0  0  0  0  0  0  0
  133.0014  136.6284  161.2139 C   0  0  0  0  0  0  0  0  0  0  0  0
  134.2389  137.2355  161.2836 C   0  0  0  0  0  0  0  0  0  0  0  0
  136.9065  137.4146  163.0923 H   0  0  0  0  0  0  0  0  0  0  0  0
  137.0255  139.0135  163.8654 H   0  0  0  0  0  0  0  0  0  0  0  0
  135.4447  138.4045  163.3190 H   0  0  0  0  0  0  0  0  0  0  0  0
  138.6756  139.9839  161.9629 H   0  0  0  0  0  0  0  0  0  0  0  0
  136.0502  139.9297  158.6333 H   0  0  0  0  0  0  0  0  0  0  0  0
  133.6945  139.7833  159.1143 H   0  0  0  0  0  0  0  0  0  0  0  0
  131.4972  138.6829  158.9967 H   0  0  0  0  0  0  0  0  0  0  0  0
  129.9068  137.2220  160.0977 H   0  0  0  0  0  0  0  0  0  0  0  0
  130.4520  135.9937  161.2649 H   0  0  0  0  0  0  0  0  0  0  0  0
  130.7809  133.8518  160.5836 H   0  0  0  0  0  0  0  0  0  0  0  0
  132.3575  134.4771  160.0438 H   0  0  0  0  0  0  0  0  0  0  0  0
  131.8404  132.2893  158.9833 H   0  0  0  0  0  0  0  0  0  0  0  0
  131.9390  133.5897  157.7712 H   0  0  0  0  0  0  0  0  0  0  0  0
  130.1137  129.7162  157.0411 H   0  0  0  0  0  0  0  0  0  0  0  0
  131.0677  130.4457  158.3549 H   0  0  0  0  0  0  0  0  0  0  0  0
  128.1685  130.3035  158.2968 H   0  0  0  0  0  0  0  0  0  0  0  0
  131.2497  133.1573  155.9875 H   0  0  0  0  0  0  0  0  0  0  0  0
  132.0624  131.7063  156.6221 H   0  0  0  0  0  0  0  0  0  0  0  0
  131.8190  129.5618  155.5148 H   0  0  0  0  0  0  0  0  0  0  0  0
  131.3582  128.3806  153.4039 H   0  0  0  0  0  0  0  0  0  0  0  0
  130.1580  129.5299  151.5867 H   0  0  0  0  0  0  0  0  0  0  0  0
  129.4106  131.8571  151.8839 H   0  0  0  0  0  0  0  0  0  0  0  0
  129.8631  133.0351  153.9983 H   0  0  0  0  0  0  0  0  0  0  0  0
  129.8570  134.5280  156.8580 H   0  0  0  0  0  0  0  0  0  0  0  0
  128.2979  133.8859  157.4294 H   0  0  0  0  0  0  0  0  0  0  0  0
  128.7598  134.7625  159.6971 H   0  0  0  0  0  0  0  0  0  0  0  0
  128.8202  136.0712  158.4921 H   0  0  0  0  0  0  0  0  0  0  0  0
  132.8002  135.7452  161.8022 H   0  0  0  0  0  0  0  0  0  0  0  0
  135.0060  136.8280  161.9254 H   0  0  0  0  0  0  0  0  0  0  0  0
  1  2  1  0
  1 32  1  0
  1 33  1  0
  1 34  1  0
  2  6  1  0
  2  3  2  0
  3  4  1  0
  3 35  1  0
  4  5  1  0
  5  6  2  0
  5 36  1  0
  6  7  1  0
  7 31  1  0
  7  8  2  0
  8  9  1  0
  8 37  1  0
  9 10  2  0
  9 38  1  0
 10 11  1  0
 10 30  1  0
 11 12  1  0
 11 39  1  0
 11 40  1  0
 12 13  1  0
 12 29  1  0
 12 14  1  0
 14 15  1  0
 14 41  1  0
 14 42  1  0
 15 16  1  0
 15 43  1  0
 15 44  1  0
 16 17  1  0
 16 28  1  0
 17 18  1  6
 17 19  1  0
 17 21  1  0
 19 20  1  0
 19 45  1  0
 19 46  1  0
 20 47  1  0
 21 22  1  0
 21 48  1  0
 21 49  1  0
 22 27  1  0
 22 23  2  0
 23 24  1  0
 23 50  1  0
 24 25  2  0
 24 51  1  0
 25 26  1  0
 25 52  1  0
 26 27  2  0
 26 53  1  0
 27 54  1  0
 28 29  1  0
 28 55  1  0
 28 56  1  0
 29 57  1  0
 29 58  1  0
 30 31  2  0
 30 59  1  0
 31 60  1  0
M  CHG  1  12   1
M  END
>  <DOCK_score>  (1) 
-58.101177

>  <SMILES>  (1) 
Cc1cocc1-c1ccc(C[NH+]2CCN([C@H](CO)Cc3ccccc3)CC2)cc1

$$$$
