
     RDKit          2D

 36 40  0  0  0  0  0  0  0  0999 V2000
   -0.5604   -7.2317    0.0000 C   0  0  0  0  0  0  0  0  0  0  0  0
   -2.0276   -6.9199    0.0000 C   0  0  0  0  0  0  0  0  0  0  0  0
   -2.4911   -5.4933    0.0000 C   0  0  0  0  0  0  0  0  0  0  0  0
   -1.4874   -4.3786    0.0000 C   0  0  0  0  0  0  0  0  0  0  0  0
   -1.9509   -2.9520    0.0000 C   0  0  0  0  0  0  0  0  0  0  0  0
   -3.4182   -2.6401    0.0000 C   0  0  0  0  0  0  0  0  0  0  0  0
   -3.8817   -1.2135    0.0000 C   0  0  0  0  0  0  0  0  0  0  0  0
   -3.0000    0.0000    0.0000 C   0  0  0  0  0  0  0  0  0  0  0  0
   -3.8817    1.2135    0.0000 N   0  0  0  0  0  0  0  0  0  0  0  0
   -5.3083    0.7500    0.0000 C   0  0  0  0  0  0  0  0  0  0  0  0
   -6.5218    1.6317    0.0000 N   0  0  0  0  0  0  0  0  0  0  0  0
   -6.3650    3.1235    0.0000 C   0  0  0  0  0  0  0  0  0  0  0  0
   -7.5785    4.0051    0.0000 C   0  0  0  0  0  0  0  0  0  0  0  0
   -7.4217    5.4969    0.0000 C   0  0  0  0  0  0  0  0  0  0  0  0
   -8.6353    6.3786    0.0000 C   0  0  0  0  0  0  0  0  0  0  0  0
  -10.0618    5.9151    0.0000 C   0  0  0  0  0  0  0  0  0  0  0  0
  -10.9435    7.1286    0.0000 N   0  0  0  0  0  0  0  0  0  0  0  0
  -12.4435    7.1286    0.0000 C   0  0  0  0  0  0  0  0  0  0  0  0
  -13.1935    8.4276    0.0000 C   0  0  0  0  0  0  0  0  0  0  0  0
  -14.6935    8.4276    0.0000 C   0  0  0  0  0  0  0  0  0  0  0  0
  -15.4435    7.1286    0.0000 C   0  0  0  0  0  0  0  0  0  0  0  0
  -16.9435    7.1286    0.0000 C   0  0  0  0  0  0  0  0  0  0  0  0
  -14.6935    5.8296    0.0000 C   0  0  0  0  0  0  0  0  0  0  0  0
  -13.1935    5.8296    0.0000 C   0  0  0  0  0  0  0  0  0  0  0  0
  -10.0618    8.3421    0.0000 N   0  0  0  0  0  0  0  0  0  0  0  0
   -8.6353    7.8786    0.0000 C   0  0  0  0  0  0  0  0  0  0  0  0
   -7.4217    8.7603    0.0000 C   0  0  0  0  0  0  0  0  0  0  0  0
   -4.9947    3.7336    0.0000 C   0  0  0  0  0  0  0  0  0  0  0  0
   -3.6956    2.9836    0.0000 C   0  0  0  0  0  0  0  0  0  0  0  0
   -2.5809    3.9873    0.0000 C   0  0  0  0  0  0  0  0  0  0  0  0
   -3.1910    5.3576    0.0000 N   0  0  0  0  0  0  0  0  0  0  0  0
   -4.6828    5.2008    0.0000 N   0  0  0  0  0  0  0  0  0  0  0  0
   -5.6865    6.3155    0.0000 C   0  0  0  0  0  0  0  0  0  0  0  0
   -5.3083   -0.7500    0.0000 N   0  0  0  0  0  0  0  0  0  0  0  0
   -4.4218   -3.7548    0.0000 C   0  0  0  0  0  0  0  0  0  0  0  0
   -3.9583   -5.1814    0.0000 C   0  0  0  0  0  0  0  0  0  0  0  0
  1  2  1  0
  2  3  1  0
  3  4  2  0
  4  5  1  0
  5  6  2  0
  6  7  1  0
  7  8  2  0
  8  9  1  0
  9 10  1  0
 10 11  1  0
 11 12  1  0
 12 13  1  0
 13 14  2  3
 14 15  1  0
 15 16  2  0
 16 17  1  0
 17 18  1  0
 18 19  2  0
 19 20  1  0
 20 21  2  0
 21 22  1  0
 21 23  1  0
 23 24  2  0
 17 25  1  0
 25 26  2  0
 26 27  1  0
 12 28  1  0
 28 29  2  0
 29 30  1  0
 30 31  2  0
 31 32  1  0
 32 33  1  0
 10 34  2  0
  6 35  1  0
 35 36  2  0
 36  3  1  0
 34  7  1  0
 26 15  1  0
 32 28  1  0
 24 18  1  0
M  END
$$$$
