CCc1ccc2c(c1)C[C@H](NC(NC1CC=CC1)=[NH+][C@H]1CCC(=O)NC1)C2
     RDKit          3D

 58 61  0  0  1  0  0  0  0  0999 V2000
  136.3251  141.5684  161.2644 C   0  0  0  0  0  0  0  0  0  0  0  0
  135.6807  140.8753  162.4667 C   0  0  0  0  0  0  0  0  0  0  0  0
  134.4438  140.1398  162.0192 C   0  0  0  0  0  0  0  0  0  0  0  0
  133.2183  140.7798  162.0248 C   0  0  0  0  0  0  0  0  0  0  0  0
  132.0861  140.1040  161.6143 C   0  0  0  0  0  0  0  0  0  0  0  0
  132.1739  138.7865  161.1962 C   0  0  0  0  0  0  0  0  0  0  0  0
  133.3991  138.1468  161.1906 C   0  0  0  0  0  0  0  0  0  0  0  0
  134.5334  138.8262  161.6026 C   0  0  0  0  0  0  0  0  0  0  0  0
  133.2323  136.7261  160.6958 C   0  0  0  0  0  0  0  0  0  0  0  0
  131.7221  136.4310  160.8161 C   0  0  2  0  0  0  0  0  0  0  0  0
  131.4882  135.9785  161.7798 H   0  0  0  0  0  0  0  0  0  0  0  0
  131.2696  135.5743  159.7173 N   0  0  0  0  0  0  0  0  0  0  0  0
  129.9507  135.1938  159.6408 C   0  0  0  0  0  0  0  0  0  0  0  0
  129.5259  134.3898  158.6097 N   0  0  0  0  0  0  0  0  0  0  0  0
  130.4489  133.4271  158.0034 C   0  0  0  0  0  0  0  0  0  0  0  0
  129.7106  132.5006  157.0095 C   0  0  0  0  0  0  0  0  0  0  0  0
  130.3593  131.1481  157.1910 C   0  0  0  0  0  0  0  0  0  0  0  0
  131.0389  131.0983  158.3043 C   0  0  0  0  0  0  0  0  0  0  0  0
  130.9567  132.4093  159.0509 C   0  0  0  0  0  0  0  0  0  0  0  0
  129.1030  135.5954  160.5458 N   0  0  0  0  0  0  0  0  0  0  0  0
  129.4026  136.1627  161.2733 H   0  0  0  0  0  0  0  0  0  0  0  0
  127.6976  135.1898  160.4645 C   0  0  1  0  0  0  0  0  0  0  0  0
  127.2681  135.5449  159.5276 H   0  0  0  0  0  0  0  0  0  0  0  0
  127.5985  133.6612  160.5330 C   0  0  0  0  0  0  0  0  0  0  0  0
  126.1466  133.2579  160.2633 C   0  0  0  0  0  0  0  0  0  0  0  0
  125.2218  134.0775  161.1164 C   0  0  0  0  0  0  0  0  0  0  0  0
  124.0863  133.6822  161.2757 O   0  0  0  0  0  0  0  0  0  0  0  0
  125.5822  135.2169  161.7083 N   0  0  0  0  0  0  0  0  0  0  0  0
  126.9231  135.7840  161.6416 C   0  0  0  0  0  0  0  0  0  0  0  0
  131.0998  137.8392  160.7060 C   0  0  0  0  0  0  0  0  0  0  0  0
  135.6183  142.2762  160.8312 H   0  0  0  0  0  0  0  0  0  0  0  0
  137.2197  142.1002  161.5881 H   0  0  0  0  0  0  0  0  0  0  0  0
  136.5961  140.8224  160.5172 H   0  0  0  0  0  0  0  0  0  0  0  0
  135.4096  141.6213  163.2138 H   0  0  0  0  0  0  0  0  0  0  0  0
  136.3875  140.1675  162.8998 H   0  0  0  0  0  0  0  0  0  0  0  0
  133.1464  141.8072  162.3499 H   0  0  0  0  0  0  0  0  0  0  0  0
  131.1291  140.6047  161.6187 H   0  0  0  0  0  0  0  0  0  0  0  0
  135.4911  138.3271  161.5985 H   0  0  0  0  0  0  0  0  0  0  0  0
  133.8027  136.0387  161.3203 H   0  0  0  0  0  0  0  0  0  0  0  0
  133.5513  136.6476  159.6565 H   0  0  0  0  0  0  0  0  0  0  0  0
  131.9005  135.2756  159.0438 H   0  0  0  0  0  0  0  0  0  0  0  0
  128.6149  134.4598  158.2837 H   0  0  0  0  0  0  0  0  0  0  0  0
  131.2809  133.9379  157.5188 H   0  0  0  0  0  0  0  0  0  0  0  0
  128.6498  132.4489  157.2549 H   0  0  0  0  0  0  0  0  0  0  0  0
  129.8480  132.8536  155.9875 H   0  0  0  0  0  0  0  0  0  0  0  0
  130.2725  130.3301  156.4912 H   0  0  0  0  0  0  0  0  0  0  0  0
  131.5882  130.2337  158.6466 H   0  0  0  0  0  0  0  0  0  0  0  0
  131.9412  132.7002  159.4169 H   0  0  0  0  0  0  0  0  0  0  0  0
  130.2509  132.3316  159.8781 H   0  0  0  0  0  0  0  0  0  0  0  0
  128.2488  133.2171  159.7793 H   0  0  0  0  0  0  0  0  0  0  0  0
  127.8966  133.3181  161.5238 H   0  0  0  0  0  0  0  0  0  0  0  0
  125.9136  133.4259  159.2118 H   0  0  0  0  0  0  0  0  0  0  0  0
  126.0144  132.2019  160.4993 H   0  0  0  0  0  0  0  0  0  0  0  0
  124.9107  135.6964  162.2185 H   0  0  0  0  0  0  0  0  0  0  0  0
  126.8516  136.8645  161.5172 H   0  0  0  0  0  0  0  0  0  0  0  0
  127.4545  135.5624  162.5671 H   0  0  0  0  0  0  0  0  0  0  0  0
  130.8451  138.0601  159.6695 H   0  0  0  0  0  0  0  0  0  0  0  0
  130.2144  137.9119  161.3375 H   0  0  0  0  0  0  0  0  0  0  0  0
  1  2  1  0
  1 31  1  0
  1 32  1  0
  1 33  1  0
  2  3  1  0
  2 34  1  0
  2 35  1  0
  3  8  2  0
  3  4  1  0
  4  5  2  0
  4 36  1  0
  5  6  1  0
  5 37  1  0
  6 30  1  0
  6  7  2  0
  7  8  1  0
  7  9  1  0
  8 38  1  0
  9 10  1  0
  9 39  1  0
  9 40  1  0
 10 11  1  1
 10 12  1  0
 10 30  1  0
 12 41  1  0
 13 12  1  0
 13 14  1  0
 13 20  2  0
 14 15  1  0
 14 42  1  0
 15 19  1  0
 15 16  1  0
 15 43  1  0
 16 17  1  0
 16 44  1  0
 16 45  1  0
 17 18  2  0
 17 46  1  0
 18 19  1  0
 18 47  1  0
 19 48  1  0
 19 49  1  0
 20 21  1  0
 20 22  1  0
 22 23  1  6
 22 29  1  0
 22 24  1  0
 24 25  1  0
 24 50  1  0
 24 51  1  0
 25 26  1  0
 25 52  1  0
 25 53  1  0
 26 27  2  0
 26 28  1  0
 28 29  1  0
 28 54  1  0
 29 55  1  0
 29 56  1  0
 30 57  1  0
 30 58  1  0
M  CHG  1  20   1
M  END
>  <DOCK_score>  (1) 
-47.482197

>  <SMILES>  (1) 
CCc1ccc2c(c1)C[C@H](NC(NC1CC=CC1)=[NH+][C@H]1CCC(=O)NC1)C2

$$$$
