CCc1ccc(CCc2c[nH]c(N[C@@H](CCc3ccccc3)c3ccccc3)[nH+]2)cc1
     RDKit          3D

 63 66  0  0  1  0  0  0  0  0999 V2000
  128.9784  127.1487  150.9178 C   0  0  0  0  0  0  0  0  0  0  0  0
  130.1465  128.1133  150.7029 C   0  0  0  0  0  0  0  0  0  0  0  0
  130.2862  129.0092  151.9065 C   0  0  0  0  0  0  0  0  0  0  0  0
  131.0956  128.6294  152.9607 C   0  0  0  0  0  0  0  0  0  0  0  0
  131.2279  129.4537  154.0625 C   0  0  0  0  0  0  0  0  0  0  0  0
  130.5418  130.6525  154.1150 C   0  0  0  0  0  0  0  0  0  0  0  0
  130.6812  131.5484  155.3188 C   0  0  0  0  0  0  0  0  0  0  0  0
  129.6117  131.1857  156.3510 C   0  0  0  0  0  0  0  0  0  0  0  0
  129.7510  132.0815  157.5548 C   0  0  0  0  0  0  0  0  0  0  0  0
  129.4291  131.7570  158.8185 C   0  0  0  0  0  0  0  0  0  0  0  0
  129.7142  132.8542  159.5995 N   0  0  0  0  0  0  0  0  0  0  0  0
  129.5917  132.9269  160.5591 H   0  0  0  0  0  0  0  0  0  0  0  0
  130.1959  133.8187  158.7701 C   0  0  0  0  0  0  0  0  0  0  0  0
  130.5994  135.0875  159.1516 N   0  0  0  0  0  0  0  0  0  0  0  0
  129.9742  135.7390  160.3053 C   0  0  1  0  0  0  0  0  0  0  0  0
  130.1353  135.1324  161.1965 H   0  0  0  0  0  0  0  0  0  0  0  0
  130.5974  137.1214  160.5099 C   0  0  0  0  0  0  0  0  0  0  0  0
  130.3376  137.5909  161.9427 C   0  0  0  0  0  0  0  0  0  0  0  0
  130.9514  138.9524  162.1442 C   0  0  0  0  0  0  0  0  0  0  0  0
  132.2532  139.0639  162.5955 C   0  0  0  0  0  0  0  0  0  0  0  0
  132.8178  140.3128  162.7756 C   0  0  0  0  0  0  0  0  0  0  0  0
  132.0770  141.4503  162.5146 C   0  0  0  0  0  0  0  0  0  0  0  0
  130.7734  141.3389  162.0684 C   0  0  0  0  0  0  0  0  0  0  0  0
  130.2106  140.0901  161.8832 C   0  0  0  0  0  0  0  0  0  0  0  0
  128.4950  135.8864  160.0585 C   0  0  0  0  0  0  0  0  0  0  0  0
  127.6116  135.8663  161.1216 C   0  0  0  0  0  0  0  0  0  0  0  0
  126.2548  136.0052  160.8956 C   0  0  0  0  0  0  0  0  0  0  0  0
  125.7810  136.1561  159.6059 C   0  0  0  0  0  0  0  0  0  0  0  0
  126.6639  136.1711  158.5423 C   0  0  0  0  0  0  0  0  0  0  0  0
  128.0209  136.0359  158.7687 C   0  0  0  0  0  0  0  0  0  0  0  0
  130.2130  133.3434  157.5474 N   0  0  0  0  0  0  0  0  0  0  0  0
  130.5125  133.8267  156.7615 H   0  0  0  0  0  0  0  0  0  0  0  0
  129.7282  131.0300  153.0630 C   0  0  0  0  0  0  0  0  0  0  0  0
  129.6004  130.2083  151.9589 C   0  0  0  0  0  0  0  0  0  0  0  0
  128.0587  127.7171  151.0564 H   0  0  0  0  0  0  0  0  0  0  0  0
  129.1671  126.5412  151.8029 H   0  0  0  0  0  0  0  0  0  0  0  0
  128.8774  126.5007  150.0471 H   0  0  0  0  0  0  0  0  0  0  0  0
  131.0662  127.5450  150.5642 H   0  0  0  0  0  0  0  0  0  0  0  0
  129.9579  128.7207  149.8177 H   0  0  0  0  0  0  0  0  0  0  0  0
  131.6279  127.6904  152.9217 H   0  0  0  0  0  0  0  0  0  0  0  0
  131.8638  129.1590  154.8841 H   0  0  0  0  0  0  0  0  0  0  0  0
  131.6699  131.4156  155.7580 H   0  0  0  0  0  0  0  0  0  0  0  0
  130.5552  132.5877  155.0149 H   0  0  0  0  0  0  0  0  0  0  0  0
  128.6229  131.3185  155.9118 H   0  0  0  0  0  0  0  0  0  0  0  0
  129.7377  130.1464  156.6548 H   0  0  0  0  0  0  0  0  0  0  0  0
  129.0256  130.8142  159.1572 H   0  0  0  0  0  0  0  0  0  0  0  0
  131.2959  135.5448  158.6548 H   0  0  0  0  0  0  0  0  0  0  0  0
  131.6718  137.0652  160.3351 H   0  0  0  0  0  0  0  0  0  0  0  0
  130.1518  137.8279  159.8096 H   0  0  0  0  0  0  0  0  0  0  0  0
  129.2632  137.6472  162.1176 H   0  0  0  0  0  0  0  0  0  0  0  0
  130.7832  136.8843  162.6430 H   0  0  0  0  0  0  0  0  0  0  0  0
  132.8305  138.1752  162.8036 H   0  0  0  0  0  0  0  0  0  0  0  0
  133.8362  140.3998  163.1246 H   0  0  0  0  0  0  0  0  0  0  0  0
  132.5165  142.4260  162.6597 H   0  0  0  0  0  0  0  0  0  0  0  0
  130.1946  142.2277  161.8649 H   0  0  0  0  0  0  0  0  0  0  0  0
  129.1919  140.0029  161.5349 H   0  0  0  0  0  0  0  0  0  0  0  0
  127.9815  135.7449  162.1290 H   0  0  0  0  0  0  0  0  0  0  0  0
  125.5650  135.9933  161.7264 H   0  0  0  0  0  0  0  0  0  0  0  0
  124.7207  136.2621  159.4290 H   0  0  0  0  0  0  0  0  0  0  0  0
  126.2936  136.2885  157.5345 H   0  0  0  0  0  0  0  0  0  0  0  0
  128.7107  136.0475  157.9378 H   0  0  0  0  0  0  0  0  0  0  0  0
  129.1922  131.9667  153.1042 H   0  0  0  0  0  0  0  0  0  0  0  0
  128.9644  130.5030  151.1371 H   0  0  0  0  0  0  0  0  0  0  0  0
  1  2  1  0
  1 35  1  0
  1 36  1  0
  1 37  1  0
  2  3  1  0
  2 38  1  0
  2 39  1  0
  3 34  2  0
  3  4  1  0
  4  5  2  0
  4 40  1  0
  5  6  1  0
  5 41  1  0
  6  7  1  0
  6 33  2  0
  7  8  1  0
  7 42  1  0
  7 43  1  0
  8  9  1  0
  8 44  1  0
  8 45  1  0
  9 31  1  0
  9 10  2  0
 10 11  1  0
 10 46  1  0
 11 12  1  0
 11 13  1  0
 13 14  1  0
 13 31  2  0
 14 15  1  0
 14 47  1  0
 15 16  1  1
 15 17  1  0
 15 25  1  0
 17 18  1  0
 17 48  1  0
 17 49  1  0
 18 19  1  0
 18 50  1  0
 18 51  1  0
 19 24  1  0
 19 20  2  0
 20 21  1  0
 20 52  1  0
 21 22  2  0
 21 53  1  0
 22 23  1  0
 22 54  1  0
 23 24  2  0
 23 55  1  0
 24 56  1  0
 25 30  1  0
 25 26  2  0
 26 27  1  0
 26 57  1  0
 27 28  2  0
 27 58  1  0
 28 29  1  0
 28 59  1  0
 29 30  2  0
 29 60  1  0
 30 61  1  0
 31 32  1  0
 33 34  1  0
 33 62  1  0
 34 63  1  0
M  CHG  1  31   1
M  END
>  <DOCK_score>  (1) 
-61.158466

>  <SMILES>  (1) 
CCc1ccc(CCc2c[nH]c(N[C@@H](CCc3ccccc3)c3ccccc3)[nH+]2)cc1

$$$$
