CC(Cc1c[nH]c2ccc(O)cc12)[NH2+]C1C2C=C[C@@H]1CC2
     RDKit          3D

 44 47  0  0  1  0  0  0  0  0999 V2000
  128.8123  136.4840  161.0452 C   0  0  0  0  0  0  0  0  0  0  0  0
  129.6283  136.7457  159.7777 C   0  0  2  0  0  0  0  0  0  0  0  0
  128.7810  136.4129  158.5479 C   0  0  0  0  0  0  0  0  0  0  0  0
  128.3763  134.9620  158.5943 C   0  0  0  0  0  0  0  0  0  0  0  0
  129.0525  133.9276  158.0703 C   0  0  0  0  0  0  0  0  0  0  0  0
  128.3802  132.7607  158.3113 N   0  0  0  0  0  0  0  0  0  0  0  0
  128.6741  131.8799  158.0310 H   0  0  0  0  0  0  0  0  0  0  0  0
  127.2193  133.0244  159.0073 C   0  0  0  0  0  0  0  0  0  0  0  0
  126.1923  132.2206  159.4911 C   0  0  0  0  0  0  0  0  0  0  0  0
  125.1350  132.7869  160.1670 C   0  0  0  0  0  0  0  0  0  0  0  0
  125.0806  134.1631  160.3736 C   0  0  0  0  0  0  0  0  0  0  0  0
  124.0290  134.7064  161.0432 O   0  0  0  0  0  0  0  0  0  0  0  0
  126.0896  134.9780  159.9009 C   0  0  0  0  0  0  0  0  0  0  0  0
  127.1673  134.4143  159.2142 C   0  0  0  0  0  0  0  0  0  0  0  0
  130.8308  135.9019  159.7866 N   0  0  0  0  0  0  0  0  0  0  0  0
  131.1892  135.8173  158.8472 H   0  0  0  0  0  0  0  0  0  0  0  0
  130.5970  134.9868  160.1412 H   0  0  0  0  0  0  0  0  0  0  0  0
  131.8520  136.5141  160.6471 C   0  0  1  0  0  0  0  0  0  0  0  0
  131.8493  135.9185  162.1025 C   0  0  1  0  0  0  0  0  0  0  0  0
  132.3096  134.4875  161.7998 C   0  0  0  0  0  0  0  0  0  0  0  0
  133.1451  134.5252  160.7812 C   0  0  0  0  0  0  0  0  0  0  0  0
  133.3045  135.9849  160.3390 C   0  0  2  0  0  0  0  0  0  0  0  0
  133.6939  136.1458  159.3338 H   0  0  0  0  0  0  0  0  0  0  0  0
  134.1119  136.6500  161.5311 C   0  0  0  0  0  0  0  0  0  0  0  0
  133.1133  136.6030  162.7134 C   0  0  0  0  0  0  0  0  0  0  0  0
  127.9199  137.1100  161.0386 H   0  0  0  0  0  0  0  0  0  0  0  0
  128.5196  135.4345  161.0787 H   0  0  0  0  0  0  0  0  0  0  0  0
  129.4158  136.7210  161.9213 H   0  0  0  0  0  0  0  0  0  0  0  0
  129.9209  137.7950  159.7441 H   0  0  0  0  0  0  0  0  0  0  0  0
  127.8888  137.0390  158.5411 H   0  0  0  0  0  0  0  0  0  0  0  0
  129.3624  136.5993  157.6450 H   0  0  0  0  0  0  0  0  0  0  0  0
  129.9898  134.0047  157.5395 H   0  0  0  0  0  0  0  0  0  0  0  0
  126.2242  131.1522  159.3362 H   0  0  0  0  0  0  0  0  0  0  0  0
  124.3405  132.1581  160.5408 H   0  0  0  0  0  0  0  0  0  0  0  0
  124.0774  135.6675  161.1382 H   0  0  0  0  0  0  0  0  0  0  0  0
  126.0461  136.0452  160.0615 H   0  0  0  0  0  0  0  0  0  0  0  0
  131.7956  137.6027  160.6412 H   0  0  0  0  0  0  0  0  0  0  0  0
  130.9240  136.0191  162.6700 H   0  0  0  0  0  0  0  0  0  0  0  0
  132.0011  133.5991  162.3310 H   0  0  0  0  0  0  0  0  0  0  0  0
  133.6376  133.6732  160.3365 H   0  0  0  0  0  0  0  0  0  0  0  0
  134.3690  137.6808  161.2872 H   0  0  0  0  0  0  0  0  0  0  0  0
  135.0094  136.0772  161.7646 H   0  0  0  0  0  0  0  0  0  0  0  0
  132.8762  137.6107  163.0548 H   0  0  0  0  0  0  0  0  0  0  0  0
  133.5156  136.0050  163.5312 H   0  0  0  0  0  0  0  0  0  0  0  0
  1  2  1  0
  1 26  1  0
  1 27  1  0
  1 28  1  0
  2  3  1  0
  2 15  1  0
  2 29  1  6
  3  4  1  0
  3 30  1  0
  3 31  1  0
  4 14  1  0
  4  5  2  0
  5  6  1  0
  5 32  1  0
  6  7  1  0
  6  8  1  0
  8 14  2  0
  8  9  1  0
  9 10  2  0
  9 33  1  0
 10 11  1  0
 10 34  1  0
 11 12  1  0
 11 13  2  0
 12 35  1  0
 13 14  1  0
 13 36  1  0
 15 16  1  0
 15 17  1  0
 15 18  1  0
 18 22  1  0
 18 19  1  0
 18 37  1  1
 19 25  1  0
 19 20  1  0
 19 38  1  1
 20 21  2  0
 20 39  1  0
 21 22  1  0
 21 40  1  0
 22 23  1  6
 22 24  1  0
 24 25  1  0
 24 41  1  0
 24 42  1  0
 25 43  1  0
 25 44  1  0
M  CHG  1  15   1
M  END
>  <DOCK_score>  (1) 
-43.418198

>  <SMILES>  (1) 
CC(Cc1c[nH]c2ccc(O)cc12)[NH2+]C1C2C=C[C@@H]1CC2

$$$$
