CCc1ccc(-c2c[nH]c(N[C@@H](CC3=C[C@H]4C[C@@H]3[C@@H](O)[C@H]4O)c3ccc(C)cc3)[nH+]2)cc1
     RDKit          3D

 64 68  0  0  1  0  0  0  0  0999 V2000
  132.1417  129.8311  152.5043 C   0  0  0  0  0  0  0  0  0  0  0  0
  130.7309  129.7864  153.0952 C   0  0  0  0  0  0  0  0  0  0  0  0
  130.6959  130.5850  154.3727 C   0  0  0  0  0  0  0  0  0  0  0  0
  130.3878  131.9334  154.3336 C   0  0  0  0  0  0  0  0  0  0  0  0
  130.3532  132.6698  155.5002 C   0  0  0  0  0  0  0  0  0  0  0  0
  130.6299  132.0530  156.7191 C   0  0  0  0  0  0  0  0  0  0  0  0
  130.5948  132.8393  157.9764 C   0  0  0  0  0  0  0  0  0  0  0  0
  130.2697  132.3660  159.2049 C   0  0  0  0  0  0  0  0  0  0  0  0
  130.3672  133.4223  160.0777 N   0  0  0  0  0  0  0  0  0  0  0  0
  130.1975  133.3963  161.0324 H   0  0  0  0  0  0  0  0  0  0  0  0
  130.7416  134.5130  159.3549 C   0  0  0  0  0  0  0  0  0  0  0  0
  130.9461  135.7849  159.8620 N   0  0  0  0  0  0  0  0  0  0  0  0
  130.7593  136.0421  161.2920 C   0  0  1  0  0  0  0  0  0  0  0  0
  131.4429  135.4168  161.8661 H   0  0  0  0  0  0  0  0  0  0  0  0
  131.0463  137.5157  161.5869 C   0  0  0  0  0  0  0  0  0  0  0  0
  132.5354  137.7293  161.6762 C   0  0  0  0  0  0  0  0  0  0  0  0
  133.1410  138.6364  162.4164 C   0  0  0  0  0  0  0  0  0  0  0  0
  134.6542  138.5001  162.2083 C   0  0  1  0  0  0  0  0  0  0  0  0
  135.3006  138.9273  162.9751 H   0  0  0  0  0  0  0  0  0  0  0  0
  134.7581  136.9471  161.9834 C   0  0  0  0  0  0  0  0  0  0  0  0
  133.6030  136.9324  160.9165 C   0  0  2  0  0  0  0  0  0  0  0  0
  133.2995  135.9563  160.5379 H   0  0  0  0  0  0  0  0  0  0  0  0
  134.1678  137.9507  159.8754 C   0  0  1  0  0  0  0  0  0  0  0  0
  134.8798  137.4629  159.2095 H   0  0  0  0  0  0  0  0  0  0  0  0
  133.1056  138.5462  159.1276 O   0  0  0  0  0  0  0  0  0  0  0  0
  134.8794  139.0119  160.7499 C   0  0  1  0  0  0  0  0  0  0  0  0
  135.9436  139.0493  160.5169 H   0  0  0  0  0  0  0  0  0  0  0  0
  134.2820  140.2975  160.5708 O   0  0  0  0  0  0  0  0  0  0  0  0
  129.3389  135.7199  161.6790 C   0  0  0  0  0  0  0  0  0  0  0  0
  128.2898  136.3912  161.0791 C   0  0  0  0  0  0  0  0  0  0  0  0
  126.9868  136.0925  161.4309 C   0  0  0  0  0  0  0  0  0  0  0  0
  126.7329  135.1295  162.3891 C   0  0  0  0  0  0  0  0  0  0  0  0
  125.3126  134.8073  162.7761 C   0  0  0  0  0  0  0  0  0  0  0  0
  127.7822  134.4615  162.9928 C   0  0  0  0  0  0  0  0  0  0  0  0
  129.0852  134.7571  162.6379 C   0  0  0  0  0  0  0  0  0  0  0  0
  130.8767  134.1607  158.0998 N   0  0  0  0  0  0  0  0  0  0  0  0
  131.1361  134.7505  157.3748 H   0  0  0  0  0  0  0  0  0  0  0  0
  130.9402  130.6947  156.7521 C   0  0  0  0  0  0  0  0  0  0  0  0
  130.9719  129.9681  155.5793 C   0  0  0  0  0  0  0  0  0  0  0  0
  132.8482  129.4070  153.2178 H   0  0  0  0  0  0  0  0  0  0  0  0
  132.1671  129.2533  151.5805 H   0  0  0  0  0  0  0  0  0  0  0  0
  132.4148  130.8652  152.2937 H   0  0  0  0  0  0  0  0  0  0  0  0
  130.4581  128.7524  153.3058 H   0  0  0  0  0  0  0  0  0  0  0  0
  130.0247  130.2107  152.3817 H   0  0  0  0  0  0  0  0  0  0  0  0
  130.1733  132.4104  153.3887 H   0  0  0  0  0  0  0  0  0  0  0  0
  130.1078  133.7212  155.4694 H   0  0  0  0  0  0  0  0  0  0  0  0
  129.9895  131.3523  159.4505 H   0  0  0  0  0  0  0  0  0  0  0  0
  131.2131  136.5057  159.2704 H   0  0  0  0  0  0  0  0  0  0  0  0
  130.6383  138.1328  160.7865 H   0  0  0  0  0  0  0  0  0  0  0  0
  130.5821  137.7942  162.5330 H   0  0  0  0  0  0  0  0  0  0  0  0
  132.6541  139.3526  163.0615 H   0  0  0  0  0  0  0  0  0  0  0  0
  134.5070  136.3779  162.8784 H   0  0  0  0  0  0  0  0  0  0  0  0
  135.7184  136.6478  161.5634 H   0  0  0  0  0  0  0  0  0  0  0  0
  132.5711  137.9122  158.6303 H   0  0  0  0  0  0  0  0  0  0  0  0
  134.3923  140.6620  159.6818 H   0  0  0  0  0  0  0  0  0  0  0  0
  128.4881  137.1466  160.3332 H   0  0  0  0  0  0  0  0  0  0  0  0
  126.1671  136.6141  160.9592 H   0  0  0  0  0  0  0  0  0  0  0  0
  125.0067  135.4488  163.6026 H   0  0  0  0  0  0  0  0  0  0  0  0
  124.6563  134.9761  161.9227 H   0  0  0  0  0  0  0  0  0  0  0  0
  125.2477  133.7633  163.0836 H   0  0  0  0  0  0  0  0  0  0  0  0
  127.5841  133.7091  163.7417 H   0  0  0  0  0  0  0  0  0  0  0  0
  129.9049  134.2356  163.1095 H   0  0  0  0  0  0  0  0  0  0  0  0
  131.1551  130.2114  157.6938 H   0  0  0  0  0  0  0  0  0  0  0  0
  131.2122  128.9155  155.6035 H   0  0  0  0  0  0  0  0  0  0  0  0
  1  2  1  0
  1 40  1  0
  1 41  1  0
  1 42  1  0
  2  3  1  0
  2 43  1  0
  2 44  1  0
  3 39  2  0
  3  4  1  0
  4  5  2  0
  4 45  1  0
  5  6  1  0
  5 46  1  0
  6  7  1  0
  6 38  2  0
  7 36  1  0
  7  8  2  0
  8  9  1  0
  8 47  1  0
  9 10  1  0
  9 11  1  0
 11 12  1  0
 11 36  2  0
 12 13  1  0
 12 48  1  0
 13 14  1  1
 13 15  1  0
 13 29  1  0
 15 16  1  0
 15 49  1  0
 15 50  1  0
 16 21  1  0
 16 17  2  0
 17 18  1  0
 17 51  1  0
 18 19  1  1
 18 26  1  0
 18 20  1  0
 20 21  1  0
 20 52  1  0
 20 53  1  0
 21 22  1  6
 21 23  1  0
 23 24  1  6
 23 25  1  0
 23 26  1  0
 25 54  1  0
 26 27  1  6
 26 28  1  0
 28 55  1  0
 29 35  1  0
 29 30  2  0
 30 31  1  0
 30 56  1  0
 31 32  2  0
 31 57  1  0
 32 33  1  0
 32 34  1  0
 33 58  1  0
 33 59  1  0
 33 60  1  0
 34 35  2  0
 34 61  1  0
 35 62  1  0
 36 37  1  0
 38 39  1  0
 38 63  1  0
 39 64  1  0
M  CHG  1  36   1
M  END
>  <DOCK_score>  (1) 
-61.347996

>  <SMILES>  (1) 
CCc1ccc(-c2c[nH]c(N[C@@H](CC3=C[C@H]4C[C@@H]3[C@@H](O)[C@H]4O)c3ccc(C)cc3)[nH+]2)cc1

$$$$
