Nc1ccc(Nc2[nH]cc(-c3ccncc3)[nH+]2)c(-c2cccc(O)c2)c1
     RDKit          3D

 44 47  0  0  1  0  0  0  0  0999 V2000
  126.2802  136.6257  161.8818 N   0  0  0  0  0  0  0  0  0  0  0  0
  127.2285  136.2346  160.9297 C   0  0  0  0  0  0  0  0  0  0  0  0
  126.8146  135.8047  159.6743 C   0  0  0  0  0  0  0  0  0  0  0  0
  127.7450  135.4220  158.7283 C   0  0  0  0  0  0  0  0  0  0  0  0
  129.0988  135.4547  159.0301 C   0  0  0  0  0  0  0  0  0  0  0  0
  130.0396  135.0623  158.0729 N   0  0  0  0  0  0  0  0  0  0  0  0
  130.0090  133.7770  157.5583 C   0  0  0  0  0  0  0  0  0  0  0  0
  129.5684  132.6694  158.2165 N   0  0  0  0  0  0  0  0  0  0  0  0
  129.2230  132.6390  159.1224 H   0  0  0  0  0  0  0  0  0  0  0  0
  129.7032  131.6043  157.3626 C   0  0  0  0  0  0  0  0  0  0  0  0
  130.2222  132.0894  156.2063 C   0  0  0  0  0  0  0  0  0  0  0  0
  130.5398  131.2988  154.9935 C   0  0  0  0  0  0  0  0  0  0  0  0
  129.9195  131.5777  153.7713 C   0  0  0  0  0  0  0  0  0  0  0  0
  130.2480  130.8206  152.6664 C   0  0  0  0  0  0  0  0  0  0  0  0
  131.1257  129.8391  152.7542 N   0  0  0  0  0  0  0  0  0  0  0  0
  131.7293  129.5397  153.8891 C   0  0  0  0  0  0  0  0  0  0  0  0
  131.4637  130.2498  155.0411 C   0  0  0  0  0  0  0  0  0  0  0  0
  130.3941  133.4269  156.3555 N   0  0  0  0  0  0  0  0  0  0  0  0
  130.7470  134.0277  155.6805 H   0  0  0  0  0  0  0  0  0  0  0  0
  129.5210  135.8816  160.2941 C   0  0  0  0  0  0  0  0  0  0  0  0
  130.9666  135.9193  160.6226 C   0  0  0  0  0  0  0  0  0  0  0  0
  131.5872  134.8002  161.1763 C   0  0  0  0  0  0  0  0  0  0  0  0
  132.9329  134.8377  161.4805 C   0  0  0  0  0  0  0  0  0  0  0  0
  133.6688  135.9828  161.2380 C   0  0  0  0  0  0  0  0  0  0  0  0
  133.0587  137.1010  160.6867 C   0  0  0  0  0  0  0  0  0  0  0  0
  133.7864  138.2240  160.4492 O   0  0  0  0  0  0  0  0  0  0  0  0
  131.7098  137.0706  160.3737 C   0  0  0  0  0  0  0  0  0  0  0  0
  128.5784  136.2714  161.2424 C   0  0  0  0  0  0  0  0  0  0  0  0
  126.5676  136.9221  162.7596 H   0  0  0  0  0  0  0  0  0  0  0  0
  125.3352  136.6003  161.6640 H   0  0  0  0  0  0  0  0  0  0  0  0
  125.7616  135.7737  159.4365 H   0  0  0  0  0  0  0  0  0  0  0  0
  127.4179  135.0927  157.7531 H   0  0  0  0  0  0  0  0  0  0  0  0
  130.7137  135.6903  157.7694 H   0  0  0  0  0  0  0  0  0  0  0  0
  129.4455  130.5764  157.5708 H   0  0  0  0  0  0  0  0  0  0  0  0
  129.1969  132.3765  153.6931 H   0  0  0  0  0  0  0  0  0  0  0  0
  129.7776  131.0312  151.7173 H   0  0  0  0  0  0  0  0  0  0  0  0
  132.4411  128.7279  153.9160 H   0  0  0  0  0  0  0  0  0  0  0  0
  131.9618  129.9998  155.9661 H   0  0  0  0  0  0  0  0  0  0  0  0
  131.0151  133.9041  161.3665 H   0  0  0  0  0  0  0  0  0  0  0  0
  133.4124  133.9700  161.9090 H   0  0  0  0  0  0  0  0  0  0  0  0
  134.7215  136.0071  161.4780 H   0  0  0  0  0  0  0  0  0  0  0  0
  133.2758  138.9495  160.0645 H   0  0  0  0  0  0  0  0  0  0  0  0
  131.2346  137.9386  159.9408 H   0  0  0  0  0  0  0  0  0  0  0  0
  128.8985  136.6021  162.2193 H   0  0  0  0  0  0  0  0  0  0  0  0
  1  2  1  0
  1 29  1  0
  1 30  1  0
  2 28  2  0
  2  3  1  0
  3  4  2  0
  3 31  1  0
  4  5  1  0
  4 32  1  0
  5  6  1  0
  5 20  2  0
  6 33  1  0
  7  6  1  0
  7 18  2  0
  7  8  1  0
  8  9  1  0
  8 10  1  0
 10 11  2  0
 10 34  1  0
 11 12  1  0
 11 18  1  0
 12 17  1  0
 12 13  2  0
 13 14  1  0
 13 35  1  0
 14 15  2  0
 14 36  1  0
 15 16  1  0
 16 17  2  0
 16 37  1  0
 17 38  1  0
 18 19  1  0
 20 21  1  0
 20 28  1  0
 21 27  1  0
 21 22  2  0
 22 23  1  0
 22 39  1  0
 23 24  2  0
 23 40  1  0
 24 25  1  0
 24 41  1  0
 25 26  1  0
 25 27  2  0
 26 42  1  0
 27 43  1  0
 28 44  1  0
M  CHG  1  18   1
M  END
>  <DOCK_score>  (1) 
-52.398987

>  <SMILES>  (1) 
Nc1ccc(Nc2[nH]cc(-c3ccncc3)[nH+]2)c(-c2cccc(O)c2)c1

$$$$
