O=C(NC1CC=CC1)NC1C[NH+](C(c2ccccc2)c2ccccc2)C1
     RDKit          3D

 52 55  0  0  1  0  0  0  0  0999 V2000
  133.6948  137.7650  161.9097 O   0  0  0  0  0  0  0  0  0  0  0  0
  133.6299  137.7345  160.6958 C   0  0  0  0  0  0  0  0  0  0  0  0
  134.3821  138.5763  159.9595 N   0  0  0  0  0  0  0  0  0  0  0  0
  135.2776  139.5281  160.6216 C   0  0  0  0  0  0  0  0  0  0  0  0
  134.4781  140.5481  161.4653 C   0  0  0  0  0  0  0  0  0  0  0  0
  135.2182  141.8540  161.2917 C   0  0  0  0  0  0  0  0  0  0  0  0
  136.0281  141.8029  160.2692 C   0  0  0  0  0  0  0  0  0  0  0  0
  135.9633  140.4545  159.5906 C   0  0  0  0  0  0  0  0  0  0  0  0
  132.8060  136.8590  160.0868 N   0  0  0  0  0  0  0  0  0  0  0  0
  131.9886  135.9439  160.8872 C   0  0  1  0  0  0  0  0  0  0  0  0
  130.5174  135.8736  160.4547 C   0  0  0  0  0  0  0  0  0  0  0  0
  130.9030  134.8143  159.5038 N   0  0  2  0  0  0  0  0  0  0  0  0
  131.2030  135.1690  158.6080 H   0  0  0  0  0  0  0  0  0  0  0  0
  129.9072  133.7403  159.3902 C   0  0  0  0  0  0  0  0  0  0  0  0
  128.5978  134.3175  158.9173 C   0  0  0  0  0  0  0  0  0  0  0  0
  127.4058  133.7300  159.2982 C   0  0  0  0  0  0  0  0  0  0  0  0
  126.2048  134.2596  158.8647 C   0  0  0  0  0  0  0  0  0  0  0  0
  126.1956  135.3771  158.0511 C   0  0  0  0  0  0  0  0  0  0  0  0
  127.3876  135.9613  157.6659 C   0  0  0  0  0  0  0  0  0  0  0  0
  128.5887  135.4341  158.1025 C   0  0  0  0  0  0  0  0  0  0  0  0
  130.3891  132.7111  158.4005 C   0  0  0  0  0  0  0  0  0  0  0  0
  130.0627  132.8327  157.0627 C   0  0  0  0  0  0  0  0  0  0  0  0
  130.5081  131.8907  156.1544 C   0  0  0  0  0  0  0  0  0  0  0  0
  131.2727  130.8226  156.5849 C   0  0  0  0  0  0  0  0  0  0  0  0
  131.5947  130.6982  157.9235 C   0  0  0  0  0  0  0  0  0  0  0  0
  131.1526  131.6424  158.8313 C   0  0  0  0  0  0  0  0  0  0  0  0
  132.0196  134.4854  160.4095 C   0  0  0  0  0  0  0  0  0  0  0  0
  134.3303  138.5519  158.9912 H   0  0  0  0  0  0  0  0  0  0  0  0
  136.0159  139.0078  161.2318 H   0  0  0  0  0  0  0  0  0  0  0  0
  133.4591  140.6362  161.0888 H   0  0  0  0  0  0  0  0  0  0  0  0
  134.4722  140.2515  162.5140 H   0  0  0  0  0  0  0  0  0  0  0  0
  135.0936  142.7162  161.9299 H   0  0  0  0  0  0  0  0  0  0  0  0
  136.6617  142.6175  159.9507 H   0  0  0  0  0  0  0  0  0  0  0  0
  136.9670  140.0944  159.3649 H   0  0  0  0  0  0  0  0  0  0  0  0
  135.3683  140.5144  158.6792 H   0  0  0  0  0  0  0  0  0  0  0  0
  132.7543  136.8347  159.1185 H   0  0  0  0  0  0  0  0  0  0  0  0
  132.1329  136.0651  161.9608 H   0  0  0  0  0  0  0  0  0  0  0  0
  130.1631  136.7837  159.9706 H   0  0  0  0  0  0  0  0  0  0  0  0
  129.8491  135.5271  161.2430 H   0  0  0  0  0  0  0  0  0  0  0  0
  129.7668  133.2706  160.3637 H   0  0  0  0  0  0  0  0  0  0  0  0
  127.4130  132.8573  159.9345 H   0  0  0  0  0  0  0  0  0  0  0  0
  125.2736  133.8006  159.1623 H   0  0  0  0  0  0  0  0  0  0  0  0
  125.2572  135.7908  157.7125 H   0  0  0  0  0  0  0  0  0  0  0  0
  127.3807  136.8317  157.0266 H   0  0  0  0  0  0  0  0  0  0  0  0
  129.5199  135.8929  157.8047 H   0  0  0  0  0  0  0  0  0  0  0  0
  129.4625  133.6653  156.7268 H   0  0  0  0  0  0  0  0  0  0  0  0
  130.2562  131.9877  155.1086 H   0  0  0  0  0  0  0  0  0  0  0  0
  131.6185  130.0852  155.8756 H   0  0  0  0  0  0  0  0  0  0  0  0
  132.1918  129.8637  158.2600 H   0  0  0  0  0  0  0  0  0  0  0  0
  131.4042  131.5451  159.8771 H   0  0  0  0  0  0  0  0  0  0  0  0
  131.7521  133.7684  161.1857 H   0  0  0  0  0  0  0  0  0  0  0  0
  132.9384  134.2189  159.8871 H   0  0  0  0  0  0  0  0  0  0  0  0
  1  2  2  0
  2  3  1  0
  2  9  1  0
  3  4  1  0
  3 28  1  0
  4  8  1  0
  4  5  1  0
  4 29  1  0
  5  6  1  0
  5 30  1  0
  5 31  1  0
  6  7  2  0
  6 32  1  0
  7  8  1  0
  7 33  1  0
  8 34  1  0
  8 35  1  0
  9 10  1  0
  9 36  1  0
 10 27  1  0
 10 11  1  0
 10 37  1  1
 11 12  1  0
 11 38  1  0
 11 39  1  0
 12 13  1  6
 12 14  1  0
 12 27  1  0
 14 15  1  0
 14 21  1  0
 14 40  1  0
 15 20  1  0
 15 16  2  0
 16 17  1  0
 16 41  1  0
 17 18  2  0
 17 42  1  0
 18 19  1  0
 18 43  1  0
 19 20  2  0
 19 44  1  0
 20 45  1  0
 21 26  1  0
 21 22  2  0
 22 23  1  0
 22 46  1  0
 23 24  2  0
 23 47  1  0
 24 25  1  0
 24 48  1  0
 25 26  2  0
 25 49  1  0
 26 50  1  0
 27 51  1  0
 27 52  1  0
M  CHG  1  12   1
M  END
>  <DOCK_score>  (1) 
-56.28088

>  <SMILES>  (1) 
O=C(NC1CC=CC1)NC1C[NH+](C(c2ccccc2)c2ccccc2)C1

$$$$
