O=C1CC[C@@H](C[NH2+]Cc2c[nH]nc2-c2ccc(Nc3ccccc3F)o2)CN1
     RDKit          3D

 51 54  0  0  1  0  0  0  0  0999 V2000
  137.4669  140.0562  159.8545 O   0  0  0  0  0  0  0  0  0  0  0  0
  136.3932  139.5302  160.0584 C   0  0  0  0  0  0  0  0  0  0  0  0
  136.0401  139.1598  161.4702 C   0  0  0  0  0  0  0  0  0  0  0  0
  134.5312  138.9294  161.5862 C   0  0  0  0  0  0  0  0  0  0  0  0
  134.0980  137.9990  160.4529 C   0  0  1  0  0  0  0  0  0  0  0  0
  134.7224  137.1055  160.4541 H   0  0  0  0  0  0  0  0  0  0  0  0
  132.6329  137.6056  160.6519 C   0  0  0  0  0  0  0  0  0  0  0  0
  132.3464  136.3830  159.8896 N   0  0  0  0  0  0  0  0  0  0  0  0
  132.5199  136.5491  158.9097 H   0  0  0  0  0  0  0  0  0  0  0  0
  132.9421  135.6365  160.2149 H   0  0  0  0  0  0  0  0  0  0  0  0
  130.9396  136.0054  160.0805 C   0  0  0  0  0  0  0  0  0  0  0  0
  130.6456  134.7511  159.2986 C   0  0  0  0  0  0  0  0  0  0  0  0
  131.5220  134.0689  158.5308 C   0  0  0  0  0  0  0  0  0  0  0  0
  130.8770  133.0059  158.0033 N   0  0  0  0  0  0  0  0  0  0  0  0
  131.2646  132.3408  157.4129 H   0  0  0  0  0  0  0  0  0  0  0  0
  129.5502  133.0330  158.4513 N   0  0  0  0  0  0  0  0  0  0  0  0
  129.4041  134.0842  159.2338 C   0  0  0  0  0  0  0  0  0  0  0  0
  128.1607  134.4916  159.9202 C   0  0  0  0  0  0  0  0  0  0  0  0
  126.9652  133.8488  159.8499 C   0  0  0  0  0  0  0  0  0  0  0  0
  126.0640  134.5737  160.6541 C   0  0  0  0  0  0  0  0  0  0  0  0
  126.7498  135.6254  161.1677 C   0  0  0  0  0  0  0  0  0  0  0  0
  126.2306  136.5976  162.0150 N   0  0  0  0  0  0  0  0  0  0  0  0
  127.0597  137.2252  162.9500 C   0  0  0  0  0  0  0  0  0  0  0  0
  128.1392  136.5410  163.4930 C   0  0  0  0  0  0  0  0  0  0  0  0
  128.9595  137.1654  164.4125 C   0  0  0  0  0  0  0  0  0  0  0  0
  128.7007  138.4667  164.8019 C   0  0  0  0  0  0  0  0  0  0  0  0
  127.6238  139.1509  164.2682 C   0  0  0  0  0  0  0  0  0  0  0  0
  126.8016  138.5344  163.3429 C   0  0  0  0  0  0  0  0  0  0  0  0
  125.7498  139.2026  162.8211 F   0  0  0  0  0  0  0  0  0  0  0  0
  128.0158  135.5690  160.7198 O   0  0  0  0  0  0  0  0  0  0  0  0
  134.2558  138.7334  159.1210 C   0  0  0  0  0  0  0  0  0  0  0  0
  135.5893  139.3123  159.0169 N   0  0  0  0  0  0  0  0  0  0  0  0
  136.5680  138.2474  161.7480 H   0  0  0  0  0  0  0  0  0  0  0  0
  136.3345  139.9669  162.1408 H   0  0  0  0  0  0  0  0  0  0  0  0
  134.3030  138.4694  162.5476 H   0  0  0  0  0  0  0  0  0  0  0  0
  134.0070  139.8812  161.5006 H   0  0  0  0  0  0  0  0  0  0  0  0
  132.4455  137.4262  161.7104 H   0  0  0  0  0  0  0  0  0  0  0  0
  131.9893  138.4121  160.3004 H   0  0  0  0  0  0  0  0  0  0  0  0
  130.7519  135.8260  161.1391 H   0  0  0  0  0  0  0  0  0  0  0  0
  130.2960  136.8120  159.7290 H   0  0  0  0  0  0  0  0  0  0  0  0
  132.5583  134.3266  158.3688 H   0  0  0  0  0  0  0  0  0  0  0  0
  126.7483  132.9527  159.2874 H   0  0  0  0  0  0  0  0  0  0  0  0
  125.0238  134.3393  160.8253 H   0  0  0  0  0  0  0  0  0  0  0  0
  125.2933  136.8406  161.9576 H   0  0  0  0  0  0  0  0  0  0  0  0
  128.3399  135.5229  163.1936 H   0  0  0  0  0  0  0  0  0  0  0  0
  129.8015  136.6345  164.8317 H   0  0  0  0  0  0  0  0  0  0  0  0
  129.3415  138.9503  165.5245 H   0  0  0  0  0  0  0  0  0  0  0  0
  127.4245  140.1671  164.5745 H   0  0  0  0  0  0  0  0  0  0  0  0
  133.5122  139.5280  159.0574 H   0  0  0  0  0  0  0  0  0  0  0  0
  134.1031  138.0308  158.3017 H   0  0  0  0  0  0  0  0  0  0  0  0
  135.9127  139.5538  158.1347 H   0  0  0  0  0  0  0  0  0  0  0  0
  1  2  2  0
  2 32  1  0
  2  3  1  0
  3  4  1  0
  3 33  1  0
  3 34  1  0
  4  5  1  0
  4 35  1  0
  4 36  1  0
  5  6  1  6
  5  7  1  0
  5 31  1  0
  7  8  1  0
  7 37  1  0
  7 38  1  0
  8  9  1  0
  8 10  1  0
  8 11  1  0
 11 12  1  0
 11 39  1  0
 11 40  1  0
 12 17  1  0
 12 13  2  0
 13 14  1  0
 13 41  1  0
 14 15  1  0
 14 16  1  0
 16 17  2  0
 17 18  1  0
 18 30  1  0
 18 19  2  0
 19 20  1  0
 19 42  1  0
 20 21  2  0
 20 43  1  0
 21 22  1  0
 21 30  1  0
 22 23  1  0
 22 44  1  0
 23 28  1  0
 23 24  2  0
 24 25  1  0
 24 45  1  0
 25 26  2  0
 25 46  1  0
 26 27  1  0
 26 47  1  0
 27 28  2  0
 27 48  1  0
 28 29  1  0
 31 32  1  0
 31 49  1  0
 31 50  1  0
 32 51  1  0
M  CHG  1   8   1
M  END
>  <DOCK_score>  (1) 
-43.409462

>  <SMILES>  (1) 
O=C1CC[C@@H](C[NH2+]Cc2c[nH]nc2-c2ccc(Nc3ccccc3F)o2)CN1

$$$$
