CCc1ccc(-c2c[nH]c(N[C@@H](CC=C3C=C(Cl)CC3)CCCl)[nH+]2)cc1
     RDKit          3D

 52 54  0  0  1  0  0  0  0  0999 V2000
  129.9831  128.8022  151.1753 C   0  0  0  0  0  0  0  0  0  0  0  0
  131.1966  129.6546  151.5512 C   0  0  0  0  0  0  0  0  0  0  0  0
  130.9223  130.3759  152.8457 C   0  0  0  0  0  0  0  0  0  0  0  0
  131.2566  129.7826  154.0492 C   0  0  0  0  0  0  0  0  0  0  0  0
  131.0121  130.4405  155.2374 C   0  0  0  0  0  0  0  0  0  0  0  0
  130.4174  131.7009  155.2236 C   0  0  0  0  0  0  0  0  0  0  0  0
  130.1474  132.4108  156.4977 C   0  0  0  0  0  0  0  0  0  0  0  0
  129.3615  131.9647  157.5087 C   0  0  0  0  0  0  0  0  0  0  0  0
  129.3898  132.9261  158.4896 N   0  0  0  0  0  0  0  0  0  0  0  0
  128.9237  132.8935  159.3396 H   0  0  0  0  0  0  0  0  0  0  0  0
  130.1931  133.9324  158.0488 C   0  0  0  0  0  0  0  0  0  0  0  0
  130.4852  135.0939  158.7432 N   0  0  0  0  0  0  0  0  0  0  0  0
  129.9103  135.3170  160.0721 C   0  0  1  0  0  0  0  0  0  0  0  0
  129.9198  134.3828  160.6337 H   0  0  0  0  0  0  0  0  0  0  0  0
  130.7375  136.3676  160.8159 C   0  0  0  0  0  0  0  0  0  0  0  0
  132.1569  135.8810  160.9576 C   0  0  0  0  0  0  0  0  0  0  0  0
  132.6869  135.7211  162.1657 C   0  0  0  0  0  0  0  0  0  0  0  0
  132.0223  135.9813  163.4476 C   0  0  0  0  0  0  0  0  0  0  0  0
  132.8081  135.7247  164.4780 C   0  0  0  0  0  0  0  0  0  0  0  0
  132.3494  135.9155  166.1414 Cl  0  0  0  0  0  0  0  0  0  0  0  0
  134.1603  135.2491  164.0103 C   0  0  0  0  0  0  0  0  0  0  0  0
  134.0902  135.2430  162.4731 C   0  0  0  0  0  0  0  0  0  0  0  0
  128.4693  135.8109  159.9281 C   0  0  0  0  0  0  0  0  0  0  0  0
  127.8690  136.0439  161.3161 C   0  0  0  0  0  0  0  0  0  0  0  0
  127.8848  134.4985  162.2447 Cl  0  0  0  0  0  0  0  0  0  0  0  0
  130.6479  133.6186  156.8603 N   0  0  0  0  0  0  0  0  0  0  0  0
  131.2455  134.1636  156.3248 H   0  0  0  0  0  0  0  0  0  0  0  0
  130.0778  132.2920  154.0080 C   0  0  0  0  0  0  0  0  0  0  0  0
  130.3317  131.6272  152.8256 C   0  0  0  0  0  0  0  0  0  0  0  0
  129.7929  128.0739  151.9637 H   0  0  0  0  0  0  0  0  0  0  0  0
  129.1107  129.4443  151.0556 H   0  0  0  0  0  0  0  0  0  0  0  0
  130.1817  128.2805  150.2390 H   0  0  0  0  0  0  0  0  0  0  0  0
  132.0691  129.0130  151.6707 H   0  0  0  0  0  0  0  0  0  0  0  0
  131.3868  130.3835  150.7625 H   0  0  0  0  0  0  0  0  0  0  0  0
  131.7134  128.8039  154.0590 H   0  0  0  0  0  0  0  0  0  0  0  0
  131.2778  129.9779  156.1766 H   0  0  0  0  0  0  0  0  0  0  0  0
  128.8172  131.0323  157.5372 H   0  0  0  0  0  0  0  0  0  0  0  0
  131.0703  135.7599  158.3499 H   0  0  0  0  0  0  0  0  0  0  0  0
  130.7281  137.3017  160.2543 H   0  0  0  0  0  0  0  0  0  0  0  0
  130.3099  136.5335  161.8045 H   0  0  0  0  0  0  0  0  0  0  0  0
  132.7431  135.6622  160.0774 H   0  0  0  0  0  0  0  0  0  0  0  0
  131.0070  136.3387  163.5383 H   0  0  0  0  0  0  0  0  0  0  0  0
  134.3550  134.2431  164.3821 H   0  0  0  0  0  0  0  0  0  0  0  0
  134.9380  135.9335  164.3489 H   0  0  0  0  0  0  0  0  0  0  0  0
  134.2430  134.2350  162.0879 H   0  0  0  0  0  0  0  0  0  0  0  0
  134.8271  135.9273  162.0525 H   0  0  0  0  0  0  0  0  0  0  0  0
  128.4599  136.7452  159.3667 H   0  0  0  0  0  0  0  0  0  0  0  0
  127.8799  135.0625  159.3983 H   0  0  0  0  0  0  0  0  0  0  0  0
  128.4586  136.7922  161.8460 H   0  0  0  0  0  0  0  0  0  0  0  0
  126.8426  136.3958  161.2136 H   0  0  0  0  0  0  0  0  0  0  0  0
  129.6165  133.2684  153.9912 H   0  0  0  0  0  0  0  0  0  0  0  0
  130.0686  132.0841  151.8830 H   0  0  0  0  0  0  0  0  0  0  0  0
  1  2  1  0
  1 30  1  0
  1 31  1  0
  1 32  1  0
  2  3  1  0
  2 33  1  0
  2 34  1  0
  3 29  2  0
  3  4  1  0
  4  5  2  0
  4 35  1  0
  5  6  1  0
  5 36  1  0
  6  7  1  0
  6 28  2  0
  7 26  1  0
  7  8  2  0
  8  9  1  0
  8 37  1  0
  9 10  1  0
  9 11  1  0
 11 12  1  0
 11 26  2  0
 12 13  1  0
 12 38  1  0
 13 14  1  1
 13 15  1  0
 13 23  1  0
 15 16  1  0
 15 39  1  0
 15 40  1  0
 16 17  2  0
 16 41  1  0
 17 22  1  0
 17 18  1  0
 18 19  2  0
 18 42  1  0
 19 20  1  0
 19 21  1  0
 21 22  1  0
 21 43  1  0
 21 44  1  0
 22 45  1  0
 22 46  1  0
 23 24  1  0
 23 47  1  0
 23 48  1  0
 24 25  1  0
 24 49  1  0
 24 50  1  0
 26 27  1  0
 28 29  1  0
 28 51  1  0
 29 52  1  0
M  CHG  1  26   1
M  END
>  <DOCK_score>  (1) 
-56.917

>  <SMILES>  (1) 
CCc1ccc(-c2c[nH]c(N[C@@H](CC=C3C=C(Cl)CC3)CCCl)[nH+]2)cc1

$$$$
