CCn1cc(C[NH2+]Cc2c(C(=O)N[C@H]3C=CCC3)[nH]c(C)c2C)cn1
     RDKit          3D

 53 55  0  0  1  0  0  0  0  0999 V2000
  126.0896  141.6053  164.1232 C   0  0  0  0  0  0  0  0  0  0  0  0
  126.0161  140.6946  165.3505 C   0  0  0  0  0  0  0  0  0  0  0  0
  126.0506  139.2940  164.9220 N   0  0  0  0  0  0  0  0  0  0  0  0
  127.1581  138.5404  164.7596 C   0  0  0  0  0  0  0  0  0  0  0  0
  126.7646  137.3100  164.3571 C   0  0  0  0  0  0  0  0  0  0  0  0
  127.6702  136.1439  164.0554 C   0  0  0  0  0  0  0  0  0  0  0  0
  128.0468  136.1709  162.6358 N   0  0  0  0  0  0  0  0  0  0  0  0
  128.5296  137.0332  162.4322 H   0  0  0  0  0  0  0  0  0  0  0  0
  127.2163  136.1079  162.0663 H   0  0  0  0  0  0  0  0  0  0  0  0
  128.9297  135.0343  162.3416 C   0  0  0  0  0  0  0  0  0  0  0  0
  129.3160  135.0620  160.8853 C   0  0  0  0  0  0  0  0  0  0  0  0
  130.4103  135.6991  160.3399 C   0  0  0  0  0  0  0  0  0  0  0  0
  131.4142  136.4780  161.0727 C   0  0  0  0  0  0  0  0  0  0  0  0
  131.3223  136.6074  162.2792 O   0  0  0  0  0  0  0  0  0  0  0  0
  132.4388  137.0504  160.4097 N   0  0  0  0  0  0  0  0  0  0  0  0
  133.4414  137.8283  161.1415 C   0  0  1  0  0  0  0  0  0  0  0  0
  133.9390  137.2048  161.8844 H   0  0  0  0  0  0  0  0  0  0  0  0
  134.4529  138.4158  160.1849 C   0  0  0  0  0  0  0  0  0  0  0  0
  134.6986  139.6656  160.4700 C   0  0  0  0  0  0  0  0  0  0  0  0
  133.8965  140.1182  161.6680 C   0  0  0  0  0  0  0  0  0  0  0  0
  132.7838  139.0527  161.8193 C   0  0  0  0  0  0  0  0  0  0  0  0
  130.3858  135.4763  158.9818 N   0  0  0  0  0  0  0  0  0  0  0  0
  131.0340  135.8098  158.3419 H   0  0  0  0  0  0  0  0  0  0  0  0
  129.3064  134.7110  158.6877 C   0  0  0  0  0  0  0  0  0  0  0  0
  128.9160  134.2383  157.3111 C   0  0  0  0  0  0  0  0  0  0  0  0
  128.6326  134.4456  159.8325 C   0  0  0  0  0  0  0  0  0  0  0  0
  127.3703  133.6310  159.9503 C   0  0  0  0  0  0  0  0  0  0  0  0
  125.3689  137.3134  164.2648 C   0  0  0  0  0  0  0  0  0  0  0  0
  124.9395  138.5004  164.6090 N   0  0  0  0  0  0  0  0  0  0  0  0
  126.0640  142.6473  164.4420 H   0  0  0  0  0  0  0  0  0  0  0  0
  127.0167  141.4132  163.5831 H   0  0  0  0  0  0  0  0  0  0  0  0
  125.2404  141.4041  163.4702 H   0  0  0  0  0  0  0  0  0  0  0  0
  125.0891  140.8866  165.8905 H   0  0  0  0  0  0  0  0  0  0  0  0
  126.8653  140.8957  166.0035 H   0  0  0  0  0  0  0  0  0  0  0  0
  128.1764  138.8620  164.9215 H   0  0  0  0  0  0  0  0  0  0  0  0
  127.1487  135.2125  164.2753 H   0  0  0  0  0  0  0  0  0  0  0  0
  128.5674  136.2119  164.6706 H   0  0  0  0  0  0  0  0  0  0  0  0
  128.4082  134.1027  162.5616 H   0  0  0  0  0  0  0  0  0  0  0  0
  129.8269  135.1023  162.9569 H   0  0  0  0  0  0  0  0  0  0  0  0
  132.5120  136.9471  159.4480 H   0  0  0  0  0  0  0  0  0  0  0  0
  134.9123  137.8729  159.3722 H   0  0  0  0  0  0  0  0  0  0  0  0
  135.3882  140.2925  159.9243 H   0  0  0  0  0  0  0  0  0  0  0  0
  134.5250  140.1435  162.5582 H   0  0  0  0  0  0  0  0  0  0  0  0
  133.4588  141.0991  161.4832 H   0  0  0  0  0  0  0  0  0  0  0  0
  131.8770  139.3512  161.2930 H   0  0  0  0  0  0  0  0  0  0  0  0
  132.5759  138.8534  162.8704 H   0  0  0  0  0  0  0  0  0  0  0  0
  128.2608  134.9748  156.8462 H   0  0  0  0  0  0  0  0  0  0  0  0
  129.8115  134.1130  156.7025 H   0  0  0  0  0  0  0  0  0  0  0  0
  128.3934  133.2849  157.3890 H   0  0  0  0  0  0  0  0  0  0  0  0
  126.5047  134.2849  159.8452 H   0  0  0  0  0  0  0  0  0  0  0  0
  127.3515  132.8744  159.1658 H   0  0  0  0  0  0  0  0  0  0  0  0
  127.3418  133.1442  160.9253 H   0  0  0  0  0  0  0  0  0  0  0  0
  124.7520  136.4793  163.9643 H   0  0  0  0  0  0  0  0  0  0  0  0
  1  2  1  0
  1 30  1  0
  1 31  1  0
  1 32  1  0
  2  3  1  0
  2 33  1  0
  2 34  1  0
  3 29  1  0
  3  4  1  0
  4  5  2  0
  4 35  1  0
  5  6  1  0
  5 28  1  0
  6  7  1  0
  6 36  1  0
  6 37  1  0
  7  8  1  0
  7  9  1  0
  7 10  1  0
 10 11  1  0
 10 38  1  0
 10 39  1  0
 11 26  1  0
 11 12  2  0
 12 13  1  0
 12 22  1  0
 13 14  2  0
 13 15  1  0
 15 16  1  0
 15 40  1  0
 16 17  1  1
 16 21  1  0
 16 18  1  0
 18 19  2  0
 18 41  1  0
 19 20  1  0
 19 42  1  0
 20 21  1  0
 20 43  1  0
 20 44  1  0
 21 45  1  0
 21 46  1  0
 22 23  1  0
 22 24  1  0
 24 25  1  0
 24 26  2  0
 25 47  1  0
 25 48  1  0
 25 49  1  0
 26 27  1  0
 27 50  1  0
 27 51  1  0
 27 52  1  0
 28 29  2  0
 28 53  1  0
M  CHG  1   7   1
M  END
>  <DOCK_score>  (1) 
-44.093403

>  <SMILES>  (1) 
CCn1cc(C[NH2+]Cc2c(C(=O)N[C@H]3C=CCC3)[nH]c(C)c2C)cn1

$$$$
