OC1(c2cc3c(s2)CCC[C@H]3[NH2+]C2CCc3c(Cl)cc(Cl)cc32)C=C(c2ccccc2)CC1
     RDKit          3D

 61 66  0  0  1  0  0  0  0  0999 V2000
  125.2782  135.9709  160.3220 O   0  0  0  0  0  0  0  0  0  0  0  0
  126.3782  135.5389  161.1253 C   0  0  1  0  0  0  0  0  0  0  0  0
  127.3759  134.7846  160.2847 C   0  0  0  0  0  0  0  0  0  0  0  0
  128.6852  134.7363  160.5082 C   0  0  0  0  0  0  0  0  0  0  0  0
  129.4238  133.9744  159.6073 C   0  0  0  0  0  0  0  0  0  0  0  0
  128.6788  133.4119  158.6372 C   0  0  0  0  0  0  0  0  0  0  0  0
  126.9873  133.8402  158.8547 S   0  0  0  0  0  0  0  0  0  0  0  0
  129.2234  132.5404  157.5253 C   0  0  0  0  0  0  0  0  0  0  0  0
  130.6326  132.0788  157.9086 C   0  0  0  0  0  0  0  0  0  0  0  0
  131.4524  133.2954  158.3486 C   0  0  0  0  0  0  0  0  0  0  0  0
  130.9331  133.7938  159.6984 C   0  0  1  0  0  0  0  0  0  0  0  0
  131.1697  133.0642  160.4729 H   0  0  0  0  0  0  0  0  0  0  0  0
  131.5640  135.0798  160.0243 N   0  0  0  0  0  0  0  0  0  0  0  0
  131.6382  135.6395  159.1882 H   0  0  0  0  0  0  0  0  0  0  0  0
  131.0020  135.5667  160.7064 H   0  0  0  0  0  0  0  0  0  0  0  0
  132.9049  134.8417  160.5748 C   0  0  2  0  0  0  0  0  0  0  0  0
  132.8070  134.0774  161.9121 C   0  0  0  0  0  0  0  0  0  0  0  0
  133.9798  134.6724  162.7202 C   0  0  0  0  0  0  0  0  0  0  0  0
  134.1905  136.0587  162.1502 C   0  0  0  0  0  0  0  0  0  0  0  0
  134.8696  137.1497  162.6700 C   0  0  0  0  0  0  0  0  0  0  0  0
  135.6451  137.0287  164.2186 Cl  0  0  0  0  0  0  0  0  0  0  0  0
  134.9310  138.3336  161.9596 C   0  0  0  0  0  0  0  0  0  0  0  0
  134.3127  138.4305  160.7258 C   0  0  0  0  0  0  0  0  0  0  0  0
  134.3870  139.9160  159.8306 Cl  0  0  0  0  0  0  0  0  0  0  0  0
  133.6353  137.3429  160.2068 C   0  0  0  0  0  0  0  0  0  0  0  0
  133.5731  136.1561  160.9176 C   0  0  0  0  0  0  0  0  0  0  0  0
  127.0342  136.7256  161.7922 C   0  0  0  0  0  0  0  0  0  0  0  0
  126.6774  136.8076  163.0621 C   0  0  0  0  0  0  0  0  0  0  0  0
  127.1432  137.8521  163.9988 C   0  0  0  0  0  0  0  0  0  0  0  0
  126.3255  138.2643  165.0516 C   0  0  0  0  0  0  0  0  0  0  0  0
  126.7658  139.2399  165.9221 C   0  0  0  0  0  0  0  0  0  0  0  0
  128.0151  139.8095  165.7526 C   0  0  0  0  0  0  0  0  0  0  0  0
  128.8307  139.4053  164.7108 C   0  0  0  0  0  0  0  0  0  0  0  0
  128.4023  138.4302  163.8337 C   0  0  0  0  0  0  0  0  0  0  0  0
  125.7240  135.6931  163.4256 C   0  0  0  0  0  0  0  0  0  0  0  0
  125.8788  134.6547  162.2909 C   0  0  0  0  0  0  0  0  0  0  0  0
  124.6206  136.4916  160.8027 H   0  0  0  0  0  0  0  0  0  0  0  0
  129.1460  135.2523  161.3375 H   0  0  0  0  0  0  0  0  0  0  0  0
  128.5780  131.6723  157.3916 H   0  0  0  0  0  0  0  0  0  0  0  0
  129.2630  133.1126  156.5984 H   0  0  0  0  0  0  0  0  0  0  0  0
  130.5718  131.3638  158.7291 H   0  0  0  0  0  0  0  0  0  0  0  0
  131.1095  131.6093  157.0481 H   0  0  0  0  0  0  0  0  0  0  0  0
  132.5007  133.0126  158.4439 H   0  0  0  0  0  0  0  0  0  0  0  0
  131.3554  134.0874  157.6059 H   0  0  0  0  0  0  0  0  0  0  0  0
  133.5121  134.2835  159.8621 H   0  0  0  0  0  0  0  0  0  0  0  0
  131.8557  134.2787  162.4046 H   0  0  0  0  0  0  0  0  0  0  0  0
  132.9461  133.0074  161.7581 H   0  0  0  0  0  0  0  0  0  0  0  0
  134.8768  134.0679  162.5859 H   0  0  0  0  0  0  0  0  0  0  0  0
  133.7186  134.7334  163.7767 H   0  0  0  0  0  0  0  0  0  0  0  0
  135.4611  139.1817  162.3669 H   0  0  0  0  0  0  0  0  0  0  0  0
  133.1532  137.4192  159.2434 H   0  0  0  0  0  0  0  0  0  0  0  0
  127.7054  137.4127  161.2986 H   0  0  0  0  0  0  0  0  0  0  0  0
  125.3498  137.8208  165.1845 H   0  0  0  0  0  0  0  0  0  0  0  0
  126.1339  139.5599  166.7374 H   0  0  0  0  0  0  0  0  0  0  0  0
  128.3533  140.5764  166.4338 H   0  0  0  0  0  0  0  0  0  0  0  0
  129.8048  139.8540  164.5838 H   0  0  0  0  0  0  0  0  0  0  0  0
  129.0400  138.1152  163.0209 H   0  0  0  0  0  0  0  0  0  0  0  0
  126.0022  135.2529  164.3832 H   0  0  0  0  0  0  0  0  0  0  0  0
  124.7004  136.0660  163.4616 H   0  0  0  0  0  0  0  0  0  0  0  0
  126.6189  133.8983  162.5521 H   0  0  0  0  0  0  0  0  0  0  0  0
  124.9209  134.1940  162.0498 H   0  0  0  0  0  0  0  0  0  0  0  0
  1 37  1  0
  2  1  1  6
  2 36  1  0
  2  3  1  0
  2 27  1  0
  3  7  1  0
  3  4  2  0
  4  5  1  0
  4 38  1  0
  5 11  1  0
  5  6  2  0
  6  7  1  0
  6  8  1  0
  8  9  1  0
  8 39  1  0
  8 40  1  0
  9 10  1  0
  9 41  1  0
  9 42  1  0
 10 11  1  0
 10 43  1  0
 10 44  1  0
 11 12  1  1
 11 13  1  0
 13 14  1  0
 13 15  1  0
 13 16  1  0
 16 26  1  0
 16 17  1  0
 16 45  1  6
 17 18  1  0
 17 46  1  0
 17 47  1  0
 18 19  1  0
 18 48  1  0
 18 49  1  0
 19 26  2  0
 19 20  1  0
 20 21  1  0
 20 22  2  0
 22 23  1  0
 22 50  1  0
 23 24  1  0
 23 25  2  0
 25 26  1  0
 25 51  1  0
 27 28  2  0
 27 52  1  0
 28 29  1  0
 28 35  1  0
 29 34  1  0
 29 30  2  0
 30 31  1  0
 30 53  1  0
 31 32  2  0
 31 54  1  0
 32 33  1  0
 32 55  1  0
 33 34  2  0
 33 56  1  0
 34 57  1  0
 35 36  1  0
 35 58  1  0
 35 59  1  0
 36 60  1  0
 36 61  1  0
M  CHG  1  13   1
M  END
>  <DOCK_score>  (1) 
-44.93932

>  <SMILES>  (1) 
OC1(c2cc3c(s2)CCC[C@H]3[NH2+]C2CCc3c(Cl)cc(Cl)cc32)C=C(c2ccccc2)CC1

$$$$
