Nc1ccc(Nc2ccc(Nc3[nH]c(C(F)(F)F)c[nH+]3)cc2)cc1
     RDKit          3D

 39 41  0  0  1  0  0  0  0  0999 V2000
  126.5123  136.4067  167.7934 N   0  0  0  0  0  0  0  0  0  0  0  0
  126.3910  136.4720  166.4003 C   0  0  0  0  0  0  0  0  0  0  0  0
  126.4713  135.3119  165.6412 C   0  0  0  0  0  0  0  0  0  0  0  0
  126.3522  135.3765  164.2672 C   0  0  0  0  0  0  0  0  0  0  0  0
  126.1517  136.6015  163.6442 C   0  0  0  0  0  0  0  0  0  0  0  0
  126.0312  136.6671  162.2510 N   0  0  0  0  0  0  0  0  0  0  0  0
  127.0804  136.2263  161.4364 C   0  0  0  0  0  0  0  0  0  0  0  0
  126.8102  135.7009  160.1793 C   0  0  0  0  0  0  0  0  0  0  0  0
  127.8453  135.2666  159.3757 C   0  0  0  0  0  0  0  0  0  0  0  0
  129.1568  135.3546  159.8243 C   0  0  0  0  0  0  0  0  0  0  0  0
  130.2066  134.9132  159.0095 N   0  0  0  0  0  0  0  0  0  0  0  0
  129.9979  133.8813  158.1088 C   0  0  0  0  0  0  0  0  0  0  0  0
  130.6470  133.7152  156.9246 N   0  0  0  0  0  0  0  0  0  0  0  0
  131.3352  134.2921  156.5580 H   0  0  0  0  0  0  0  0  0  0  0  0
  130.1395  132.5752  156.3439 C   0  0  0  0  0  0  0  0  0  0  0  0
  130.5478  131.9860  155.0183 C   0  0  0  0  0  0  0  0  0  0  0  0
  131.5439  132.7812  154.4414 F   0  0  0  0  0  0  0  0  0  0  0  0
  131.0405  130.6915  155.2154 F   0  0  0  0  0  0  0  0  0  0  0  0
  129.4383  131.9381  154.1676 F   0  0  0  0  0  0  0  0  0  0  0  0
  129.2149  132.0844  157.1867 C   0  0  0  0  0  0  0  0  0  0  0  0
  129.1445  132.8954  158.2555 N   0  0  0  0  0  0  0  0  0  0  0  0
  128.5554  132.7716  159.0162 H   0  0  0  0  0  0  0  0  0  0  0  0
  129.4266  135.8752  161.0833 C   0  0  0  0  0  0  0  0  0  0  0  0
  128.3921  136.3148  161.8848 C   0  0  0  0  0  0  0  0  0  0  0  0
  126.0761  137.7622  164.4031 C   0  0  0  0  0  0  0  0  0  0  0  0
  126.1901  137.6970  165.7777 C   0  0  0  0  0  0  0  0  0  0  0  0
  126.6525  135.5511  168.2284 H   0  0  0  0  0  0  0  0  0  0  0  0
  126.4564  137.2169  168.3236 H   0  0  0  0  0  0  0  0  0  0  0  0
  126.6273  134.3593  166.1255 H   0  0  0  0  0  0  0  0  0  0  0  0
  126.4153  134.4742  163.6767 H   0  0  0  0  0  0  0  0  0  0  0  0
  125.2205  137.0179  161.8502 H   0  0  0  0  0  0  0  0  0  0  0  0
  125.7904  135.6323  159.8306 H   0  0  0  0  0  0  0  0  0  0  0  0
  127.6352  134.8579  158.3983 H   0  0  0  0  0  0  0  0  0  0  0  0
  131.0801  135.3299  159.0758 H   0  0  0  0  0  0  0  0  0  0  0  0
  128.6288  131.1906  157.0315 H   0  0  0  0  0  0  0  0  0  0  0  0
  130.4462  135.9399  161.4337 H   0  0  0  0  0  0  0  0  0  0  0  0
  128.6023  136.7237  162.8621 H   0  0  0  0  0  0  0  0  0  0  0  0
  125.9248  138.7154  163.9184 H   0  0  0  0  0  0  0  0  0  0  0  0
  126.1277  138.5991  166.3681 H   0  0  0  0  0  0  0  0  0  0  0  0
  1  2  1  0
  1 27  1  0
  1 28  1  0
  2 26  2  0
  2  3  1  0
  3  4  2  0
  3 29  1  0
  4  5  1  0
  4 30  1  0
  5  6  1  0
  5 25  2  0
  6  7  1  0
  6 31  1  0
  7 24  1  0
  7  8  2  0
  8  9  1  0
  8 32  1  0
  9 10  2  0
  9 33  1  0
 10 11  1  0
 10 23  1  0
 11 34  1  0
 12 11  1  0
 12 21  2  0
 12 13  1  0
 13 14  1  0
 13 15  1  0
 15 16  1  0
 15 20  2  0
 16 17  1  0
 16 18  1  0
 16 19  1  0
 20 21  1  0
 20 35  1  0
 21 22  1  0
 23 24  2  0
 23 36  1  0
 24 37  1  0
 25 26  1  0
 25 38  1  0
 26 39  1  0
M  CHG  1  21   1
M  END
>  <DOCK_score>  (1) 
-43.570076

>  <SMILES>  (1) 
Nc1ccc(Nc2ccc(Nc3[nH]c(C(F)(F)F)c[nH+]3)cc2)cc1

$$$$
