Clc1ccccc1[C@H](c1ccccc1)[NH+]1CCN(c2ccccc2-c2ccccc2)CC1
     RDKit          3D

 60 64  0  0  1  0  0  0  0  0999 V2000
  130.5582  132.6446  162.1890 Cl  0  0  0  0  0  0  0  0  0  0  0  0
  130.9422  132.4748  160.5046 C   0  0  0  0  0  0  0  0  0  0  0  0
  131.4389  131.2755  160.0254 C   0  0  0  0  0  0  0  0  0  0  0  0
  131.7498  131.1427  158.6854 C   0  0  0  0  0  0  0  0  0  0  0  0
  131.5596  132.2063  157.8227 C   0  0  0  0  0  0  0  0  0  0  0  0
  131.0581  133.4027  158.2997 C   0  0  0  0  0  0  0  0  0  0  0  0
  130.7464  133.5366  159.6398 C   0  0  0  0  0  0  0  0  0  0  0  0
  130.1991  134.8409  160.1596 C   0  0  2  0  0  0  0  0  0  0  0  0
  130.0195  134.7581  161.2315 H   0  0  0  0  0  0  0  0  0  0  0  0
  128.9045  135.1584  159.4565 C   0  0  0  0  0  0  0  0  0  0  0  0
  127.7062  134.7078  159.9779 C   0  0  0  0  0  0  0  0  0  0  0  0
  126.5184  135.0025  159.3350 C   0  0  0  0  0  0  0  0  0  0  0  0
  126.5297  135.7402  158.1661 C   0  0  0  0  0  0  0  0  0  0  0  0
  127.7284  136.1866  157.6420 C   0  0  0  0  0  0  0  0  0  0  0  0
  128.9158  135.8954  158.2870 C   0  0  0  0  0  0  0  0  0  0  0  0
  131.1694  135.9145  159.9071 N   0  0  0  0  0  0  0  0  0  0  0  0
  131.3353  135.9908  158.9147 H   0  0  0  0  0  0  0  0  0  0  0  0
  130.6353  137.1858  160.4132 C   0  0  0  0  0  0  0  0  0  0  0  0
  131.6376  138.3077  160.1335 C   0  0  0  0  0  0  0  0  0  0  0  0
  132.9140  137.9960  160.7921 N   0  0  0  0  0  0  0  0  0  0  0  0
  133.8377  139.0238  160.6040 C   0  0  0  0  0  0  0  0  0  0  0  0
  134.2294  139.3827  159.3219 C   0  0  0  0  0  0  0  0  0  0  0  0
  135.1487  140.3972  159.1382 C   0  0  0  0  0  0  0  0  0  0  0  0
  135.6798  141.0649  160.2281 C   0  0  0  0  0  0  0  0  0  0  0  0
  135.2954  140.7227  161.5087 C   0  0  0  0  0  0  0  0  0  0  0  0
  134.3693  139.7016  161.7074 C   0  0  0  0  0  0  0  0  0  0  0  0
  133.9529  139.3302  163.0814 C   0  0  0  0  0  0  0  0  0  0  0  0
  132.8560  139.9545  163.6728 C   0  0  0  0  0  0  0  0  0  0  0  0
  132.4730  139.6049  164.9518 C   0  0  0  0  0  0  0  0  0  0  0  0
  133.1759  138.6372  165.6468 C   0  0  0  0  0  0  0  0  0  0  0  0
  134.2654  138.0147  165.0651 C   0  0  0  0  0  0  0  0  0  0  0  0
  134.6573  138.3558  163.7865 C   0  0  0  0  0  0  0  0  0  0  0  0
  133.4487  136.7133  160.3136 C   0  0  0  0  0  0  0  0  0  0  0  0
  132.4314  135.6044  160.5918 C   0  0  0  0  0  0  0  0  0  0  0  0
  131.5879  130.4447  160.6993 H   0  0  0  0  0  0  0  0  0  0  0  0
  132.1410  130.2079  158.3120 H   0  0  0  0  0  0  0  0  0  0  0  0
  131.8027  132.1021  156.7756 H   0  0  0  0  0  0  0  0  0  0  0  0
  130.9095  134.2330  157.6252 H   0  0  0  0  0  0  0  0  0  0  0  0
  127.6976  134.1282  160.8893 H   0  0  0  0  0  0  0  0  0  0  0  0
  125.5819  134.6533  159.7442 H   0  0  0  0  0  0  0  0  0  0  0  0
  125.6019  135.9675  157.6620 H   0  0  0  0  0  0  0  0  0  0  0  0
  127.7373  136.7628  156.7286 H   0  0  0  0  0  0  0  0  0  0  0  0
  129.8524  136.2439  157.8775 H   0  0  0  0  0  0  0  0  0  0  0  0
  130.4678  137.1077  161.4873 H   0  0  0  0  0  0  0  0  0  0  0  0
  129.6923  137.4082  159.9136 H   0  0  0  0  0  0  0  0  0  0  0  0
  131.2482  139.2487  160.5222 H   0  0  0  0  0  0  0  0  0  0  0  0
  131.7950  138.3953  159.0585 H   0  0  0  0  0  0  0  0  0  0  0  0
  133.8188  138.8652  158.4675 H   0  0  0  0  0  0  0  0  0  0  0  0
  135.4548  140.6705  158.1393 H   0  0  0  0  0  0  0  0  0  0  0  0
  136.3977  141.8572  160.0758 H   0  0  0  0  0  0  0  0  0  0  0  0
  135.7127  141.2462  162.3562 H   0  0  0  0  0  0  0  0  0  0  0  0
  132.3040  140.7073  163.1295 H   0  0  0  0  0  0  0  0  0  0  0  0
  131.6232  140.0880  165.4109 H   0  0  0  0  0  0  0  0  0  0  0  0
  132.8729  138.3671  166.6476 H   0  0  0  0  0  0  0  0  0  0  0  0
  134.8110  137.2602  165.6126 H   0  0  0  0  0  0  0  0  0  0  0  0
  135.5083  137.8693  163.3335 H   0  0  0  0  0  0  0  0  0  0  0  0
  133.6359  136.7744  159.2416 H   0  0  0  0  0  0  0  0  0  0  0  0
  134.3805  136.4908  160.8337 H   0  0  0  0  0  0  0  0  0  0  0  0
  132.2547  135.5344  161.6651 H   0  0  0  0  0  0  0  0  0  0  0  0
  132.8200  134.6544  160.2247 H   0  0  0  0  0  0  0  0  0  0  0  0
  1  2  1  0
  2  7  2  0
  2  3  1  0
  3  4  2  0
  3 35  1  0
  4  5  1  0
  4 36  1  0
  5  6  2  0
  5 37  1  0
  6  7  1  0
  6 38  1  0
  7  8  1  0
  8  9  1  1
  8 10  1  0
  8 16  1  0
 10 15  1  0
 10 11  2  0
 11 12  1  0
 11 39  1  0
 12 13  2  0
 12 40  1  0
 13 14  1  0
 13 41  1  0
 14 15  2  0
 14 42  1  0
 15 43  1  0
 16 17  1  0
 16 34  1  0
 16 18  1  0
 18 19  1  0
 18 44  1  0
 18 45  1  0
 19 20  1  0
 19 46  1  0
 19 47  1  0
 20 21  1  0
 20 33  1  0
 21 26  1  0
 21 22  2  0
 22 23  1  0
 22 48  1  0
 23 24  2  0
 23 49  1  0
 24 25  1  0
 24 50  1  0
 25 26  2  0
 25 51  1  0
 26 27  1  0
 27 32  1  0
 27 28  2  0
 28 29  1  0
 28 52  1  0
 29 30  2  0
 29 53  1  0
 30 31  1  0
 30 54  1  0
 31 32  2  0
 31 55  1  0
 32 56  1  0
 33 34  1  0
 33 57  1  0
 33 58  1  0
 34 59  1  0
 34 60  1  0
M  CHG  1  16   1
M  END
>  <DOCK_score>  (1) 
-57.02132

>  <SMILES>  (1) 
Clc1ccccc1[C@H](c1ccccc1)[NH+]1CCN(c2ccccc2-c2ccccc2)CC1

$$$$
