Cc1ccc2c(c1)C[C@@H]([NH+]=C(NC1CCc3ccccc3C1)N[C@H]1CCC(=O)NC1)CO2
     RDKit          3D

 65 69  0  0  1  0  0  0  0  0999 V2000
  135.0542  138.7871  164.3605 C   0  0  0  0  0  0  0  0  0  0  0  0
  134.6766  137.5022  163.6694 C   0  0  0  0  0  0  0  0  0  0  0  0
  135.2367  136.3061  164.0793 C   0  0  0  0  0  0  0  0  0  0  0  0
  134.8893  135.1303  163.4465 C   0  0  0  0  0  0  0  0  0  0  0  0
  133.9765  135.1432  162.3965 C   0  0  0  0  0  0  0  0  0  0  0  0
  133.4201  136.3420  161.9866 C   0  0  0  0  0  0  0  0  0  0  0  0
  133.7717  137.5191  162.6264 C   0  0  0  0  0  0  0  0  0  0  0  0
  132.4314  136.4015  160.8500 C   0  0  0  0  0  0  0  0  0  0  0  0
  131.8611  135.0050  160.5891 C   0  0  1  0  0  0  0  0  0  0  0  0
  131.1888  134.7253  161.4002 H   0  0  0  0  0  0  0  0  0  0  0  0
  131.1315  134.9989  159.3187 N   0  0  0  0  0  0  0  0  0  0  0  0
  131.5920  135.2193  158.4939 H   0  0  0  0  0  0  0  0  0  0  0  0
  129.8636  134.6976  159.2969 C   0  0  0  0  0  0  0  0  0  0  0  0
  129.3187  134.0974  158.1865 N   0  0  0  0  0  0  0  0  0  0  0  0
  130.1426  133.2233  157.3478 C   0  0  1  0  0  0  0  0  0  0  0  0
  130.0255  131.7756  157.8394 C   0  0  0  0  0  0  0  0  0  0  0  0
  131.0690  130.9329  157.1089 C   0  0  0  0  0  0  0  0  0  0  0  0
  130.9766  131.1481  155.6210 C   0  0  0  0  0  0  0  0  0  0  0  0
  131.5732  130.2059  154.7927 C   0  0  0  0  0  0  0  0  0  0  0  0
  131.5277  130.3489  153.4216 C   0  0  0  0  0  0  0  0  0  0  0  0
  130.8838  131.4390  152.8660 C   0  0  0  0  0  0  0  0  0  0  0  0
  130.2893  132.3749  153.6866 C   0  0  0  0  0  0  0  0  0  0  0  0
  130.3316  132.2312  155.0676 C   0  0  0  0  0  0  0  0  0  0  0  0
  129.6501  133.2829  155.9034 C   0  0  0  0  0  0  0  0  0  0  0  0
  129.0711  134.9800  160.3842 N   0  0  0  0  0  0  0  0  0  0  0  0
  127.6460  134.6413  160.3597 C   0  0  1  0  0  0  0  0  0  0  0  0
  127.2764  134.6890  159.3353 H   0  0  0  0  0  0  0  0  0  0  0  0
  127.4440  133.2260  160.9142 C   0  0  0  0  0  0  0  0  0  0  0  0
  125.9807  132.8286  160.7047 C   0  0  0  0  0  0  0  0  0  0  0  0
  125.0785  133.9268  161.1899 C   0  0  0  0  0  0  0  0  0  0  0  0
  123.9142  133.6614  161.4019 O   0  0  0  0  0  0  0  0  0  0  0  0
  125.4892  135.1778  161.4006 N   0  0  0  0  0  0  0  0  0  0  0  0
  126.8662  135.6253  161.2328 C   0  0  0  0  0  0  0  0  0  0  0  0
  133.0293  134.0131  160.5192 C   0  0  0  0  0  0  0  0  0  0  0  0
  133.6559  133.9647  161.8019 O   0  0  0  0  0  0  0  0  0  0  0  0
  135.9158  139.2292  163.8601 H   0  0  0  0  0  0  0  0  0  0  0  0
  134.2150  139.4815  164.3202 H   0  0  0  0  0  0  0  0  0  0  0  0
  135.3050  138.5801  165.4008 H   0  0  0  0  0  0  0  0  0  0  0  0
  135.9451  136.2924  164.8942 H   0  0  0  0  0  0  0  0  0  0  0  0
  135.3277  134.1967  163.7673 H   0  0  0  0  0  0  0  0  0  0  0  0
  133.3360  138.4547  162.3079 H   0  0  0  0  0  0  0  0  0  0  0  0
  132.9325  136.7622  159.9518 H   0  0  0  0  0  0  0  0  0  0  0  0
  131.6202  137.0817  161.1100 H   0  0  0  0  0  0  0  0  0  0  0  0
  128.3888  134.2526  157.9584 H   0  0  0  0  0  0  0  0  0  0  0  0
  131.1833  133.5439  157.3950 H   0  0  0  0  0  0  0  0  0  0  0  0
  130.2082  131.7367  158.9132 H   0  0  0  0  0  0  0  0  0  0  0  0
  129.0278  131.3940  157.6223 H   0  0  0  0  0  0  0  0  0  0  0  0
  132.0639  131.2162  157.4520 H   0  0  0  0  0  0  0  0  0  0  0  0
  130.8990  129.8792  157.3304 H   0  0  0  0  0  0  0  0  0  0  0  0
  132.0772  129.3547  155.2261 H   0  0  0  0  0  0  0  0  0  0  0  0
  131.9937  129.6120  152.7842 H   0  0  0  0  0  0  0  0  0  0  0  0
  130.8461  131.5573  151.7930 H   0  0  0  0  0  0  0  0  0  0  0  0
  129.7869  133.2262  153.2518 H   0  0  0  0  0  0  0  0  0  0  0  0
  128.5732  133.1156  155.8836 H   0  0  0  0  0  0  0  0  0  0  0  0
  129.8680  134.2675  155.4897 H   0  0  0  0  0  0  0  0  0  0  0  0
  129.4555  135.4037  161.1676 H   0  0  0  0  0  0  0  0  0  0  0  0
  128.0931  132.5284  160.3849 H   0  0  0  0  0  0  0  0  0  0  0  0
  127.6800  133.2116  161.9783 H   0  0  0  0  0  0  0  0  0  0  0  0
  125.8011  132.6546  159.6437 H   0  0  0  0  0  0  0  0  0  0  0  0
  125.7704  131.9150  161.2607 H   0  0  0  0  0  0  0  0  0  0  0  0
  124.8302  135.8311  161.6832 H   0  0  0  0  0  0  0  0  0  0  0  0
  127.3436  135.6962  162.2101 H   0  0  0  0  0  0  0  0  0  0  0  0
  126.8708  136.6077  160.7608 H   0  0  0  0  0  0  0  0  0  0  0  0
  132.6555  133.0236  160.2557 H   0  0  0  0  0  0  0  0  0  0  0  0
  133.7490  134.3455  159.7711 H   0  0  0  0  0  0  0  0  0  0  0  0
  1  2  1  0
  1 36  1  0
  1 37  1  0
  1 38  1  0
  2  7  2  0
  2  3  1  0
  3  4  2  0
  3 39  1  0
  4  5  1  0
  4 40  1  0
  5 35  1  0
  5  6  2  0
  6  7  1  0
  6  8  1  0
  7 41  1  0
  8  9  1  0
  8 42  1  0
  8 43  1  0
  9 10  1  1
  9 11  1  0
  9 34  1  0
 11 12  1  0
 13 11  2  0
 13 14  1  0
 13 25  1  0
 14 15  1  0
 14 44  1  0
 15 24  1  0
 15 16  1  0
 15 45  1  6
 16 17  1  0
 16 46  1  0
 16 47  1  0
 17 18  1  0
 17 48  1  0
 17 49  1  0
 18 23  2  0
 18 19  1  0
 19 20  2  0
 19 50  1  0
 20 21  1  0
 20 51  1  0
 21 22  2  0
 21 52  1  0
 22 23  1  0
 22 53  1  0
 23 24  1  0
 24 54  1  0
 24 55  1  0
 25 26  1  0
 25 56  1  0
 26 27  1  6
 26 33  1  0
 26 28  1  0
 28 29  1  0
 28 57  1  0
 28 58  1  0
 29 30  1  0
 29 59  1  0
 29 60  1  0
 30 31  2  0
 30 32  1  0
 32 33  1  0
 32 61  1  0
 33 62  1  0
 33 63  1  0
 34 35  1  0
 34 64  1  0
 34 65  1  0
M  CHG  1  11   1
M  END
>  <DOCK_score>  (1) 
-55.215343

>  <SMILES>  (1) 
Cc1ccc2c(c1)C[C@@H]([NH+]=C(NC1CCc3ccccc3C1)N[C@H]1CCC(=O)NC1)CO2

$$$$
