Cc1ccc2c(c1)C[C@@H]([NH+]=C(NC1CCC(=O)NC1)NC1COc3cc(O)ccc3C1)CO2
     RDKit          3D

 64 68  0  0  1  0  0  0  0  0999 V2000
  133.1532  139.1877  165.5196 C   0  0  0  0  0  0  0  0  0  0  0  0
  133.3572  138.0660  164.5341 C   0  0  0  0  0  0  0  0  0  0  0  0
  134.4361  137.2119  164.6718 C   0  0  0  0  0  0  0  0  0  0  0  0
  134.6235  136.1872  163.7674 C   0  0  0  0  0  0  0  0  0  0  0  0
  133.7238  136.0025  162.7221 C   0  0  0  0  0  0  0  0  0  0  0  0
  132.6466  136.8602  162.5853 C   0  0  0  0  0  0  0  0  0  0  0  0
  132.4663  137.8902  163.4935 C   0  0  0  0  0  0  0  0  0  0  0  0
  131.6556  136.7037  161.4599 C   0  0  0  0  0  0  0  0  0  0  0  0
  131.7734  135.3000  160.8608 C   0  0  1  0  0  0  0  0  0  0  0  0
  131.3724  134.5669  161.5607 H   0  0  0  0  0  0  0  0  0  0  0  0
  131.0306  135.2375  159.5995 N   0  0  0  0  0  0  0  0  0  0  0  0
  131.4740  135.4529  158.7643 H   0  0  0  0  0  0  0  0  0  0  0  0
  129.7737  134.8923  159.6000 C   0  0  0  0  0  0  0  0  0  0  0  0
  128.9838  135.1741  160.6894 N   0  0  0  0  0  0  0  0  0  0  0  0
  127.5711  134.7862  160.6899 C   0  0  1  0  0  0  0  0  0  0  0  0
  127.4228  133.3839  161.2924 C   0  0  0  0  0  0  0  0  0  0  0  0
  125.9713  132.9317  161.1139 C   0  0  0  0  0  0  0  0  0  0  0  0
  125.0385  134.0147  161.5746 C   0  0  0  0  0  0  0  0  0  0  0  0
  123.8862  133.7181  161.8094 O   0  0  0  0  0  0  0  0  0  0  0  0
  125.4095  135.2849  161.7396 N   0  0  0  0  0  0  0  0  0  0  0  0
  126.7687  135.7719  161.5404 C   0  0  0  0  0  0  0  0  0  0  0  0
  129.2379  134.2461  158.5112 N   0  0  0  0  0  0  0  0  0  0  0  0
  130.0825  133.3803  157.6845 C   0  0  1  0  0  0  0  0  0  0  0  0
  130.0192  131.9409  158.2112 C   0  0  0  0  0  0  0  0  0  0  0  0
  130.9293  131.1433  157.4527 O   0  0  0  0  0  0  0  0  0  0  0  0
  130.8745  131.2312  156.0981 C   0  0  0  0  0  0  0  0  0  0  0  0
  131.4744  130.2284  155.3442 C   0  0  0  0  0  0  0  0  0  0  0  0
  131.4435  130.2847  153.9611 C   0  0  0  0  0  0  0  0  0  0  0  0
  132.0303  129.3036  153.2263 O   0  0  0  0  0  0  0  0  0  0  0  0
  130.8124  131.3458  153.3270 C   0  0  0  0  0  0  0  0  0  0  0  0
  130.2164  132.3397  154.0763 C   0  0  0  0  0  0  0  0  0  0  0  0
  130.2433  132.2854  155.4605 C   0  0  0  0  0  0  0  0  0  0  0  0
  129.5719  133.3868  156.2416 C   0  0  0  0  0  0  0  0  0  0  0  0
  133.2574  135.0099  160.6019 C   0  0  0  0  0  0  0  0  0  0  0  0
  133.9355  134.9756  161.8583 O   0  0  0  0  0  0  0  0  0  0  0  0
  133.6713  140.0797  165.1671 H   0  0  0  0  0  0  0  0  0  0  0  0
  132.0882  139.3996  165.6137 H   0  0  0  0  0  0  0  0  0  0  0  0
  133.5528  138.8954  166.4906 H   0  0  0  0  0  0  0  0  0  0  0  0
  135.1340  137.3499  165.4845 H   0  0  0  0  0  0  0  0  0  0  0  0
  135.4692  135.5238  163.8731 H   0  0  0  0  0  0  0  0  0  0  0  0
  131.6252  138.5593  163.3874 H   0  0  0  0  0  0  0  0  0  0  0  0
  130.6457  136.8509  161.8428 H   0  0  0  0  0  0  0  0  0  0  0  0
  131.8628  137.4452  160.6883 H   0  0  0  0  0  0  0  0  0  0  0  0
  129.3619  135.6298  161.4578 H   0  0  0  0  0  0  0  0  0  0  0  0
  127.1912  134.7874  159.6683 H   0  0  0  0  0  0  0  0  0  0  0  0
  128.0888  132.6911  160.7779 H   0  0  0  0  0  0  0  0  0  0  0  0
  127.6705  133.4122  162.3535 H   0  0  0  0  0  0  0  0  0  0  0  0
  125.7856  132.7173  160.0615 H   0  0  0  0  0  0  0  0  0  0  0  0
  125.7976  132.0312  161.7030 H   0  0  0  0  0  0  0  0  0  0  0  0
  124.7322  135.9250  162.0091 H   0  0  0  0  0  0  0  0  0  0  0  0
  127.2545  135.8905  162.5089 H   0  0  0  0  0  0  0  0  0  0  0  0
  126.7352  136.7380  161.0369 H   0  0  0  0  0  0  0  0  0  0  0  0
  128.3008  134.3636  158.2902 H   0  0  0  0  0  0  0  0  0  0  0  0
  131.1121  133.7367  157.7122 H   0  0  0  0  0  0  0  0  0  0  0  0
  130.3035  131.9220  159.2632 H   0  0  0  0  0  0  0  0  0  0  0  0
  129.0073  131.5523  158.0968 H   0  0  0  0  0  0  0  0  0  0  0  0
  131.9655  129.4037  155.8388 H   0  0  0  0  0  0  0  0  0  0  0  0
  131.9565  129.4305  152.2706 H   0  0  0  0  0  0  0  0  0  0  0  0
  130.7881  131.3938  152.2483 H   0  0  0  0  0  0  0  0  0  0  0  0
  129.7258  133.1644  153.5808 H   0  0  0  0  0  0  0  0  0  0  0  0
  128.4933  133.2286  156.2377 H   0  0  0  0  0  0  0  0  0  0  0  0
  129.7985  134.3482  155.7808 H   0  0  0  0  0  0  0  0  0  0  0  0
  133.3614  134.0467  160.1022 H   0  0  0  0  0  0  0  0  0  0  0  0
  133.6815  135.7958  159.9770 H   0  0  0  0  0  0  0  0  0  0  0  0
  1  2  1  0
  1 36  1  0
  1 37  1  0
  1 38  1  0
  2  7  2  0
  2  3  1  0
  3  4  2  0
  3 39  1  0
  4  5  1  0
  4 40  1  0
  5 35  1  0
  5  6  2  0
  6  7  1  0
  6  8  1  0
  7 41  1  0
  8  9  1  0
  8 42  1  0
  8 43  1  0
  9 10  1  1
  9 11  1  0
  9 34  1  0
 11 12  1  0
 13 11  2  0
 13 14  1  0
 13 22  1  0
 14 15  1  0
 14 44  1  0
 15 21  1  0
 15 16  1  0
 15 45  1  6
 16 17  1  0
 16 46  1  0
 16 47  1  0
 17 18  1  0
 17 48  1  0
 17 49  1  0
 18 19  2  0
 18 20  1  0
 20 21  1  0
 20 50  1  0
 21 51  1  0
 21 52  1  0
 22 23  1  0
 22 53  1  0
 23 33  1  0
 23 24  1  0
 23 54  1  6
 24 25  1  0
 24 55  1  0
 24 56  1  0
 25 26  1  0
 26 32  2  0
 26 27  1  0
 27 28  2  0
 27 57  1  0
 28 29  1  0
 28 30  1  0
 29 58  1  0
 30 31  2  0
 30 59  1  0
 31 32  1  0
 31 60  1  0
 32 33  1  0
 33 61  1  0
 33 62  1  0
 34 35  1  0
 34 63  1  0
 34 64  1  0
M  CHG  1  11   1
M  END
>  <DOCK_score>  (1) 
-50.109596

>  <SMILES>  (1) 
Cc1ccc2c(c1)C[C@@H]([NH+]=C(NC1CCC(=O)NC1)NC1COc3cc(O)ccc3C1)CO2

$$$$
