C1=C(CN(Cc2ccncc2)C2C[NH+](C(c3ccccc3)c3ccccc3)C2)COCC1
     RDKit          3D

 64 68  0  0  1  0  0  0  0  0999 V2000
  131.2017  133.1444  158.0296 C   0  0  0  0  0  0  0  0  0  0  0  0
  131.5796  132.4697  159.0745 C   0  0  0  0  0  0  0  0  0  0  0  0
  132.2122  133.2137  160.2223 C   0  0  0  0  0  0  0  0  0  0  0  0
  131.2650  134.2089  160.7421 N   0  0  0  0  0  0  0  0  0  0  0  0
  130.2762  133.5817  161.6291 C   0  0  0  0  0  0  0  0  0  0  0  0
  129.0693  134.4763  161.7483 C   0  0  0  0  0  0  0  0  0  0  0  0
  128.4849  134.7191  162.9820 C   0  0  0  0  0  0  0  0  0  0  0  0
  127.3816  135.5484  163.0529 C   0  0  0  0  0  0  0  0  0  0  0  0
  126.8796  136.0977  161.9643 N   0  0  0  0  0  0  0  0  0  0  0  0
  127.4064  135.8855  160.7742 C   0  0  0  0  0  0  0  0  0  0  0  0
  128.5134  135.0715  160.6262 C   0  0  0  0  0  0  0  0  0  0  0  0
  131.9709  135.2994  161.4283 C   0  0  2  0  0  0  0  0  0  0  0  0
  131.1664  136.6098  161.4997 C   0  0  0  0  0  0  0  0  0  0  0  0
  132.4409  137.2916  161.1729 N   0  0  2  0  0  0  0  0  0  0  0  0
  132.9656  137.5531  161.9942 H   0  0  0  0  0  0  0  0  0  0  0  0
  132.2712  138.4076  160.2328 C   0  0  0  0  0  0  0  0  0  0  0  0
  131.3447  139.4334  160.8329 C   0  0  0  0  0  0  0  0  0  0  0  0
  130.5535  140.2148  160.0116 C   0  0  0  0  0  0  0  0  0  0  0  0
  129.7007  141.1530  160.5621 C   0  0  0  0  0  0  0  0  0  0  0  0
  129.6451  141.3158  161.9338 C   0  0  0  0  0  0  0  0  0  0  0  0
  130.4401  140.5382  162.7548 C   0  0  0  0  0  0  0  0  0  0  0  0
  131.2901  139.5972  162.2045 C   0  0  0  0  0  0  0  0  0  0  0  0
  133.6109  139.0405  159.9574 C   0  0  0  0  0  0  0  0  0  0  0  0
  134.0577  140.0836  160.7467 C   0  0  0  0  0  0  0  0  0  0  0  0
  135.2883  140.6617  160.4964 C   0  0  0  0  0  0  0  0  0  0  0  0
  136.0683  140.2018  159.4519 C   0  0  0  0  0  0  0  0  0  0  0  0
  135.6190  139.1622  158.6594 C   0  0  0  0  0  0  0  0  0  0  0  0
  134.3902  138.5816  158.9120 C   0  0  0  0  0  0  0  0  0  0  0  0
  132.9553  136.0646  160.5256 C   0  0  0  0  0  0  0  0  0  0  0  0
  131.4131  130.9811  159.1877 C   0  0  0  0  0  0  0  0  0  0  0  0
  130.4931  130.5124  158.1998 O   0  0  0  0  0  0  0  0  0  0  0  0
  130.7988  130.9834  156.8812 C   0  0  0  0  0  0  0  0  0  0  0  0
  130.5524  132.4941  156.8382 C   0  0  0  0  0  0  0  0  0  0  0  0
  131.3596  134.2126  158.0160 H   0  0  0  0  0  0  0  0  0  0  0  0
  132.4700  132.5096  161.0135 H   0  0  0  0  0  0  0  0  0  0  0  0
  133.1146  133.7172  159.8758 H   0  0  0  0  0  0  0  0  0  0  0  0
  129.9756  132.6192  161.2151 H   0  0  0  0  0  0  0  0  0  0  0  0
  130.7160  133.4316  162.6152 H   0  0  0  0  0  0  0  0  0  0  0  0
  128.8887  134.2685  163.8765 H   0  0  0  0  0  0  0  0  0  0  0  0
  126.9230  135.7459  164.0105 H   0  0  0  0  0  0  0  0  0  0  0  0
  126.9674  136.3528  159.9051 H   0  0  0  0  0  0  0  0  0  0  0  0
  128.9404  134.9015  159.6488 H   0  0  0  0  0  0  0  0  0  0  0  0
  132.3979  134.9942  162.3835 H   0  0  0  0  0  0  0  0  0  0  0  0
  130.4073  136.7021  160.7228 H   0  0  0  0  0  0  0  0  0  0  0  0
  130.7873  136.8388  162.4957 H   0  0  0  0  0  0  0  0  0  0  0  0
  131.8466  138.0358  159.3003 H   0  0  0  0  0  0  0  0  0  0  0  0
  130.5995  140.0898  158.9397 H   0  0  0  0  0  0  0  0  0  0  0  0
  129.0799  141.7609  159.9206 H   0  0  0  0  0  0  0  0  0  0  0  0
  128.9809  142.0508  162.3637 H   0  0  0  0  0  0  0  0  0  0  0  0
  130.3970  140.6656  163.8264 H   0  0  0  0  0  0  0  0  0  0  0  0
  131.9112  138.9897  162.8459 H   0  0  0  0  0  0  0  0  0  0  0  0
  133.4468  140.4452  161.5605 H   0  0  0  0  0  0  0  0  0  0  0  0
  135.6391  141.4743  161.1154 H   0  0  0  0  0  0  0  0  0  0  0  0
  137.0286  140.6553  159.2547 H   0  0  0  0  0  0  0  0  0  0  0  0
  136.2283  138.8031  157.8430 H   0  0  0  0  0  0  0  0  0  0  0  0
  134.0393  137.7693  158.2928 H   0  0  0  0  0  0  0  0  0  0  0  0
  134.0030  135.8587  160.7448 H   0  0  0  0  0  0  0  0  0  0  0  0
  132.7205  135.9970  159.4634 H   0  0  0  0  0  0  0  0  0  0  0  0
  131.0347  130.7343  160.1798 H   0  0  0  0  0  0  0  0  0  0  0  0
  132.3787  130.4971  159.0408 H   0  0  0  0  0  0  0  0  0  0  0  0
  131.8433  130.7749  156.6500 H   0  0  0  0  0  0  0  0  0  0  0  0
  130.1558  130.4857  156.1554 H   0  0  0  0  0  0  0  0  0  0  0  0
  130.9778  132.9052  155.9225 H   0  0  0  0  0  0  0  0  0  0  0  0
  129.4800  132.6878  156.8584 H   0  0  0  0  0  0  0  0  0  0  0  0
  1 33  1  0
  1  2  2  0
  1 34  1  0
  2  3  1  0
  2 30  1  0
  3  4  1  0
  3 35  1  0
  3 36  1  0
  4  5  1  0
  4 12  1  0
  5  6  1  0
  5 37  1  0
  5 38  1  0
  6 11  1  0
  6  7  2  0
  7  8  1  0
  7 39  1  0
  8  9  2  0
  8 40  1  0
  9 10  1  0
 10 11  2  0
 10 41  1  0
 11 42  1  0
 12 29  1  0
 12 13  1  0
 12 43  1  1
 13 14  1  0
 13 44  1  0
 13 45  1  0
 14 15  1  1
 14 16  1  0
 14 29  1  0
 16 17  1  0
 16 23  1  0
 16 46  1  0
 17 22  1  0
 17 18  2  0
 18 19  1  0
 18 47  1  0
 19 20  2  0
 19 48  1  0
 20 21  1  0
 20 49  1  0
 21 22  2  0
 21 50  1  0
 22 51  1  0
 23 28  1  0
 23 24  2  0
 24 25  1  0
 24 52  1  0
 25 26  2  0
 25 53  1  0
 26 27  1  0
 26 54  1  0
 27 28  2  0
 27 55  1  0
 28 56  1  0
 29 57  1  0
 29 58  1  0
 30 31  1  0
 30 59  1  0
 30 60  1  0
 31 32  1  0
 32 33  1  0
 32 61  1  0
 32 62  1  0
 33 63  1  0
 33 64  1  0
M  CHG  1  14   1
M  END
>  <DOCK_score>  (1) 
-46.835735

>  <SMILES>  (1) 
C1=C(CN(Cc2ccncc2)C2C[NH+](C(c3ccccc3)c3ccccc3)C2)COCC1

$$$$
