Fc1cccc(C2=CC[N@@H+](C(c3ccccc3)c3ccccc3)CC2)c1
     RDKit          3D

 49 52  0  0  1  0  0  0  0  0999 V2000
  136.8478  139.9115  158.8036 F   0  0  0  0  0  0  0  0  0  0  0  0
  135.7863  139.8632  159.6377 C   0  0  0  0  0  0  0  0  0  0  0  0
  135.6279  140.8347  160.6133 C   0  0  0  0  0  0  0  0  0  0  0  0
  134.5438  140.7912  161.4707 C   0  0  0  0  0  0  0  0  0  0  0  0
  133.6122  139.7791  161.3598 C   0  0  0  0  0  0  0  0  0  0  0  0
  133.7645  138.7977  160.3799 C   0  0  0  0  0  0  0  0  0  0  0  0
  132.7694  137.7114  160.2569 C   0  0  0  0  0  0  0  0  0  0  0  0
  133.1682  136.4664  160.4025 C   0  0  0  0  0  0  0  0  0  0  0  0
  132.2367  135.2932  160.3012 C   0  0  0  0  0  0  0  0  0  0  0  0
  130.9983  135.6807  159.6158 N   0  0  1  0  0  0  0  0  0  0  0  0
  131.1990  135.8928  158.6499 H   0  0  0  0  0  0  0  0  0  0  0  0
  130.0314  134.5770  159.6861 C   0  0  0  0  0  0  0  0  0  0  0  0
  128.7606  134.9769  158.9818 C   0  0  0  0  0  0  0  0  0  0  0  0
  127.5488  134.4536  159.3922 C   0  0  0  0  0  0  0  0  0  0  0  0
  126.3825  134.8239  158.7489 C   0  0  0  0  0  0  0  0  0  0  0  0
  126.4292  135.7102  157.6892 C   0  0  0  0  0  0  0  0  0  0  0  0
  127.6416  136.2299  157.2758 C   0  0  0  0  0  0  0  0  0  0  0  0
  128.8074  135.8629  157.9216 C   0  0  0  0  0  0  0  0  0  0  0  0
  130.6127  133.3568  159.0195 C   0  0  0  0  0  0  0  0  0  0  0  0
  130.4032  133.1404  157.6703 C   0  0  0  0  0  0  0  0  0  0  0  0
  130.9400  132.0234  157.0581 C   0  0  0  0  0  0  0  0  0  0  0  0
  131.6782  131.1178  157.7970 C   0  0  0  0  0  0  0  0  0  0  0  0
  131.8836  131.3317  159.1471 C   0  0  0  0  0  0  0  0  0  0  0  0
  131.3504  132.4510  159.7585 C   0  0  0  0  0  0  0  0  0  0  0  0
  130.4373  136.8698  160.2767 C   0  0  0  0  0  0  0  0  0  0  0  0
  131.3372  138.0694  159.9691 C   0  0  0  0  0  0  0  0  0  0  0  0
  134.8625  138.8423  159.5203 C   0  0  0  0  0  0  0  0  0  0  0  0
  136.3542  141.6287  160.7045 H   0  0  0  0  0  0  0  0  0  0  0  0
  134.4261  141.5509  162.2292 H   0  0  0  0  0  0  0  0  0  0  0  0
  132.7662  139.7469  162.0306 H   0  0  0  0  0  0  0  0  0  0  0  0
  134.2128  136.2796  160.6035 H   0  0  0  0  0  0  0  0  0  0  0  0
  132.7231  134.4938  159.7421 H   0  0  0  0  0  0  0  0  0  0  0  0
  131.9978  134.9351  161.3025 H   0  0  0  0  0  0  0  0  0  0  0  0
  129.8128  134.3514  160.7298 H   0  0  0  0  0  0  0  0  0  0  0  0
  127.5128  133.7580  160.2176 H   0  0  0  0  0  0  0  0  0  0  0  0
  125.4353  134.4181  159.0722 H   0  0  0  0  0  0  0  0  0  0  0  0
  125.5185  135.9969  157.1845 H   0  0  0  0  0  0  0  0  0  0  0  0
  127.6781  136.9224  156.4477 H   0  0  0  0  0  0  0  0  0  0  0  0
  129.7546  136.2686  157.5984 H   0  0  0  0  0  0  0  0  0  0  0  0
  129.8231  133.8458  157.0940 H   0  0  0  0  0  0  0  0  0  0  0  0
  130.7799  131.8564  156.0031 H   0  0  0  0  0  0  0  0  0  0  0  0
  132.0947  130.2433  157.3192 H   0  0  0  0  0  0  0  0  0  0  0  0
  132.4603  130.6242  159.7244 H   0  0  0  0  0  0  0  0  0  0  0  0
  131.5105  132.6179  160.8135 H   0  0  0  0  0  0  0  0  0  0  0  0
  130.4002  136.7069  161.3538 H   0  0  0  0  0  0  0  0  0  0  0  0
  129.4330  137.0594  159.8979 H   0  0  0  0  0  0  0  0  0  0  0  0
  131.0419  138.9140  160.5918 H   0  0  0  0  0  0  0  0  0  0  0  0
  131.2348  138.3402  158.9183 H   0  0  0  0  0  0  0  0  0  0  0  0
  134.9883  138.0827  158.7629 H   0  0  0  0  0  0  0  0  0  0  0  0
  1  2  1  0
  2 27  2  0
  2  3  1  0
  3  4  2  0
  3 28  1  0
  4  5  1  0
  4 29  1  0
  5  6  2  0
  5 30  1  0
  6  7  1  0
  6 27  1  0
  7 26  1  0
  7  8  2  0
  8  9  1  0
  8 31  1  0
  9 10  1  0
  9 32  1  0
  9 33  1  0
 10 11  1  6
 10 12  1  0
 10 25  1  0
 12 13  1  0
 12 19  1  0
 12 34  1  0
 13 18  1  0
 13 14  2  0
 14 15  1  0
 14 35  1  0
 15 16  2  0
 15 36  1  0
 16 17  1  0
 16 37  1  0
 17 18  2  0
 17 38  1  0
 18 39  1  0
 19 24  1  0
 19 20  2  0
 20 21  1  0
 20 40  1  0
 21 22  2  0
 21 41  1  0
 22 23  1  0
 22 42  1  0
 23 24  2  0
 23 43  1  0
 24 44  1  0
 25 26  1  0
 25 45  1  0
 25 46  1  0
 26 47  1  0
 26 48  1  0
 27 49  1  0
M  CHG  1  10   1
M  END
>  <DOCK_score>  (1) 
-56.425507

>  <SMILES>  (1) 
Fc1cccc(C2=CC[N@@H+](C(c3ccccc3)c3ccccc3)CC2)c1

$$$$
