C=C(C)[C@@](C)(OC1CC(C)=CCC1(C)C)c1ccc(C2CC(Nc3[nH]cc(C)[nH+]3)C2)cc1
     RDKit          3D

 72 75  0  0  1  0  0  0  0  0999 V2000
  136.1896  136.5930  162.8889 C   0  0  0  0  0  0  0  0  0  0  0  0
  135.7728  137.3187  163.8968 C   0  0  0  0  0  0  0  0  0  0  0  0
  136.7069  137.6313  165.0374 C   0  0  0  0  0  0  0  0  0  0  0  0
  134.3594  137.8410  163.9156 C   0  0  1  0  0  0  0  0  0  0  0  0
  133.8822  137.9692  165.3636 C   0  0  0  0  0  0  0  0  0  0  0  0
  134.3166  139.1226  163.2848 O   0  0  0  0  0  0  0  0  0  0  0  0
  135.1373  139.2245  162.1194 C   0  0  1  0  0  0  0  0  0  0  0  0
  134.3214  138.8478  160.8810 C   0  0  0  0  0  0  0  0  0  0  0  0
  135.0799  139.2010  159.6351 C   0  0  0  0  0  0  0  0  0  0  0  0
  134.6431  138.5686  158.3388 C   0  0  0  0  0  0  0  0  0  0  0  0
  136.0857  140.0152  159.6048 C   0  0  0  0  0  0  0  0  0  0  0  0
  136.6404  140.7117  160.8127 C   0  0  0  0  0  0  0  0  0  0  0  0
  135.6259  140.6695  161.9576 C   0  0  0  0  0  0  0  0  0  0  0  0
  134.4406  141.5794  161.6290 C   0  0  0  0  0  0  0  0  0  0  0  0
  136.2932  141.1348  163.2534 C   0  0  0  0  0  0  0  0  0  0  0  0
  133.4608  136.8856  163.1733 C   0  0  0  0  0  0  0  0  0  0  0  0
  133.7584  135.5358  163.1474 C   0  0  0  0  0  0  0  0  0  0  0  0
  132.9344  134.6595  162.4660 C   0  0  0  0  0  0  0  0  0  0  0  0
  131.8126  135.1328  161.8116 C   0  0  0  0  0  0  0  0  0  0  0  0
  130.9144  134.1774  161.0690 C   0  0  2  0  0  0  0  0  0  0  0  0
  131.6613  133.2853  160.0633 C   0  0  0  0  0  0  0  0  0  0  0  0
  130.4688  133.4915  159.1145 C   0  0  2  0  0  0  0  0  0  0  0  0
  130.8581  133.6773  157.7144 N   0  0  0  0  0  0  0  0  0  0  0  0
  130.9769  132.5804  156.8774 C   0  0  0  0  0  0  0  0  0  0  0  0
  130.7553  131.2847  157.2275 N   0  0  0  0  0  0  0  0  0  0  0  0
  130.4876  130.9612  158.1018 H   0  0  0  0  0  0  0  0  0  0  0  0
  130.9834  130.5198  156.1058 C   0  0  0  0  0  0  0  0  0  0  0  0
  131.3326  131.3640  155.1203 C   0  0  0  0  0  0  0  0  0  0  0  0
  131.6766  130.9749  153.7057 C   0  0  0  0  0  0  0  0  0  0  0  0
  131.3166  132.6152  155.6106 N   0  0  0  0  0  0  0  0  0  0  0  0
  131.5262  133.4177  155.1076 H   0  0  0  0  0  0  0  0  0  0  0  0
  130.2041  134.8100  159.8605 C   0  0  0  0  0  0  0  0  0  0  0  0
  131.5177  136.4831  161.8337 C   0  0  0  0  0  0  0  0  0  0  0  0
  132.3395  137.3589  162.5181 C   0  0  0  0  0  0  0  0  0  0  0  0
  137.1738  136.1492  162.9135 H   0  0  0  0  0  0  0  0  0  0  0  0
  135.5489  136.4386  162.0334 H   0  0  0  0  0  0  0  0  0  0  0  0
  136.6240  136.8551  165.7980 H   0  0  0  0  0  0  0  0  0  0  0  0
  137.7316  137.6698  164.6677 H   0  0  0  0  0  0  0  0  0  0  0  0
  136.4408  138.5951  165.4712 H   0  0  0  0  0  0  0  0  0  0  0  0
  134.1736  137.0796  165.9222 H   0  0  0  0  0  0  0  0  0  0  0  0
  134.3363  138.8492  165.8193 H   0  0  0  0  0  0  0  0  0  0  0  0
  132.7970  138.0700  165.3810 H   0  0  0  0  0  0  0  0  0  0  0  0
  135.9916  138.5540  162.2132 H   0  0  0  0  0  0  0  0  0  0  0  0
  134.1226  137.7762  160.8914 H   0  0  0  0  0  0  0  0  0  0  0  0
  133.3762  139.3907  160.8922 H   0  0  0  0  0  0  0  0  0  0  0  0
  133.8971  139.2020  157.8588 H   0  0  0  0  0  0  0  0  0  0  0  0
  135.5044  138.4586  157.6800 H   0  0  0  0  0  0  0  0  0  0  0  0
  134.2120  137.5879  158.5401 H   0  0  0  0  0  0  0  0  0  0  0  0
  136.5550  140.2049  158.6507 H   0  0  0  0  0  0  0  0  0  0  0  0
  137.5594  140.2159  161.1253 H   0  0  0  0  0  0  0  0  0  0  0  0
  136.8573  141.7504  160.5630 H   0  0  0  0  0  0  0  0  0  0  0  0
  133.7113  141.5324  162.4376 H   0  0  0  0  0  0  0  0  0  0  0  0
  134.7907  142.6051  161.5145 H   0  0  0  0  0  0  0  0  0  0  0  0
  133.9753  141.2486  160.7004 H   0  0  0  0  0  0  0  0  0  0  0  0
  137.2678  140.6570  163.3521 H   0  0  0  0  0  0  0  0  0  0  0  0
  136.4201  142.2172  163.2283 H   0  0  0  0  0  0  0  0  0  0  0  0
  135.6670  140.8622  164.1029 H   0  0  0  0  0  0  0  0  0  0  0  0
  134.6347  135.1661  163.6590 H   0  0  0  0  0  0  0  0  0  0  0  0
  133.1671  133.6050  162.4454 H   0  0  0  0  0  0  0  0  0  0  0  0
  130.2452  133.6256  161.7292 H   0  0  0  0  0  0  0  0  0  0  0  0
  131.7799  132.2548  160.3980 H   0  0  0  0  0  0  0  0  0  0  0  0
  132.5909  133.7212  159.6974 H   0  0  0  0  0  0  0  0  0  0  0  0
  129.6784  132.7514  159.2393 H   0  0  0  0  0  0  0  0  0  0  0  0
  131.0367  134.5682  157.3748 H   0  0  0  0  0  0  0  0  0  0  0  0
  130.8981  129.4457  156.0321 H   0  0  0  0  0  0  0  0  0  0  0  0
  130.7720  130.9782  153.0976 H   0  0  0  0  0  0  0  0  0  0  0  0
  132.3921  131.6880  153.2965 H   0  0  0  0  0  0  0  0  0  0  0  0
  132.1147  129.9767  153.6998 H   0  0  0  0  0  0  0  0  0  0  0  0
  130.7351  135.6639  159.4398 H   0  0  0  0  0  0  0  0  0  0  0  0
  129.1463  135.0102  160.0314 H   0  0  0  0  0  0  0  0  0  0  0  0
  130.6437  136.8535  161.3186 H   0  0  0  0  0  0  0  0  0  0  0  0
  132.1073  138.4135  162.5382 H   0  0  0  0  0  0  0  0  0  0  0  0
  1  2  2  0
  1 35  1  0
  1 36  1  0
  2  3  1  0
  3 37  1  0
  3 38  1  0
  3 39  1  0
  4  2  1  0
  4  5  1  0
  4  6  1  6
  4 16  1  0
  5 40  1  0
  5 41  1  0
  5 42  1  0
  6  7  1  0
  7 13  1  0
  7  8  1  0
  7 43  1  1
  8  9  1  0
  8 44  1  0
  8 45  1  0
  9 10  1  0
  9 11  2  0
 10 46  1  0
 10 47  1  0
 10 48  1  0
 11 12  1  0
 11 49  1  0
 12 13  1  0
 12 50  1  0
 12 51  1  0
 13 14  1  0
 13 15  1  0
 14 52  1  0
 14 53  1  0
 14 54  1  0
 15 55  1  0
 15 56  1  0
 15 57  1  0
 16 34  1  0
 16 17  2  0
 17 18  1  0
 17 58  1  0
 18 19  2  0
 18 59  1  0
 19 20  1  0
 19 33  1  0
 20 32  1  0
 20 21  1  0
 20 60  1  1
 21 22  1  0
 21 61  1  0
 21 62  1  0
 22 23  1  0
 22 32  1  0
 22 63  1  6
 23 64  1  0
 24 23  1  0
 24 30  2  0
 24 25  1  0
 25 26  1  0
 25 27  1  0
 27 28  2  0
 27 65  1  0
 28 29  1  0
 28 30  1  0
 29 66  1  0
 29 67  1  0
 29 68  1  0
 30 31  1  0
 32 69  1  0
 32 70  1  0
 33 34  2  0
 33 71  1  0
 34 72  1  0
M  CHG  1  30   1
M  END
>  <DOCK_score>  (1) 
-57.466206

>  <SMILES>  (1) 
C=C(C)[C@@](C)(OC1CC(C)=CCC1(C)C)c1ccc(C2CC(Nc3[nH]cc(C)[nH+]3)C2)cc1

$$$$
