COc1ccncc1Nc1c(Cl)cc(Cl)c(Nc2[nH]c(C)c(C)[nH+]2)c1N
     RDKit          3D

 45 47  0  0  1  0  0  0  0  0999 V2000
  129.4436  141.9677  164.4845 C   0  0  0  0  0  0  0  0  0  0  0  0
  129.8367  140.6682  164.0392 O   0  0  0  0  0  0  0  0  0  0  0  0
  128.8501  139.8381  163.6114 C   0  0  0  0  0  0  0  0  0  0  0  0
  127.5224  140.2508  163.6075 C   0  0  0  0  0  0  0  0  0  0  0  0
  126.5468  139.3761  163.1709 C   0  0  0  0  0  0  0  0  0  0  0  0
  126.8591  138.1638  162.7546 N   0  0  0  0  0  0  0  0  0  0  0  0
  128.1059  137.7324  162.7355 C   0  0  0  0  0  0  0  0  0  0  0  0
  129.1439  138.5482  163.1581 C   0  0  0  0  0  0  0  0  0  0  0  0
  130.4649  138.0860  163.1370 N   0  0  0  0  0  0  0  0  0  0  0  0
  130.7471  136.7914  162.6806 C   0  0  0  0  0  0  0  0  0  0  0  0
  130.7638  135.7271  163.5734 C   0  0  0  0  0  0  0  0  0  0  0  0
  130.4346  136.0019  165.2556 Cl  0  0  0  0  0  0  0  0  0  0  0  0
  131.0416  134.4490  163.1239 C   0  0  0  0  0  0  0  0  0  0  0  0
  131.3052  134.2238  161.7846 C   0  0  0  0  0  0  0  0  0  0  0  0
  131.6537  132.6167  161.2282 Cl  0  0  0  0  0  0  0  0  0  0  0  0
  131.2918  135.2811  160.8846 C   0  0  0  0  0  0  0  0  0  0  0  0
  131.5594  135.0517  159.5273 N   0  0  0  0  0  0  0  0  0  0  0  0
  130.7542  134.1958  158.7991 C   0  0  0  0  0  0  0  0  0  0  0  0
  130.9005  133.9020  157.5099 N   0  0  0  0  0  0  0  0  0  0  0  0
  131.5905  134.2480  156.9224 H   0  0  0  0  0  0  0  0  0  0  0  0
  129.9152  133.0327  157.1579 C   0  0  0  0  0  0  0  0  0  0  0  0
  129.6998  132.4355  155.7911 C   0  0  0  0  0  0  0  0  0  0  0  0
  129.1691  132.8036  158.2523 C   0  0  0  0  0  0  0  0  0  0  0  0
  127.9638  131.9028  158.3368 C   0  0  0  0  0  0  0  0  0  0  0  0
  129.7008  133.5335  159.2697 N   0  0  0  0  0  0  0  0  0  0  0  0
  129.3694  133.5653  160.1806 H   0  0  0  0  0  0  0  0  0  0  0  0
  131.0177  136.5707  161.3329 C   0  0  0  0  0  0  0  0  0  0  0  0
  131.0091  137.6432  160.4284 N   0  0  0  0  0  0  0  0  0  0  0  0
  128.7569  141.8713  165.3255 H   0  0  0  0  0  0  0  0  0  0  0  0
  130.3254  142.5268  164.7978 H   0  0  0  0  0  0  0  0  0  0  0  0
  128.9485  142.4967  163.6701 H   0  0  0  0  0  0  0  0  0  0  0  0
  127.2568  141.2414  163.9462 H   0  0  0  0  0  0  0  0  0  0  0  0
  125.5133  139.6892  163.1702 H   0  0  0  0  0  0  0  0  0  0  0  0
  128.3200  136.7328  162.3873 H   0  0  0  0  0  0  0  0  0  0  0  0
  131.1850  138.6618  163.4382 H   0  0  0  0  0  0  0  0  0  0  0  0
  131.0534  133.6241  163.8209 H   0  0  0  0  0  0  0  0  0  0  0  0
  132.3096  135.4934  159.0993 H   0  0  0  0  0  0  0  0  0  0  0  0
  129.0396  133.0815  155.2124 H   0  0  0  0  0  0  0  0  0  0  0  0
  130.6579  132.3435  155.2798 H   0  0  0  0  0  0  0  0  0  0  0  0
  129.2460  131.4497  155.8928 H   0  0  0  0  0  0  0  0  0  0  0  0
  127.0652  132.4757  158.1077 H   0  0  0  0  0  0  0  0  0  0  0  0
  128.0680  131.0883  157.6200 H   0  0  0  0  0  0  0  0  0  0  0  0
  127.8864  131.4929  159.3438 H   0  0  0  0  0  0  0  0  0  0  0  0
  131.1943  137.4870  159.4892 H   0  0  0  0  0  0  0  0  0  0  0  0
  130.8180  138.5409  160.7425 H   0  0  0  0  0  0  0  0  0  0  0  0
  1  2  1  0
  1 29  1  0
  1 30  1  0
  1 31  1  0
  2  3  1  0
  3  8  2  0
  3  4  1  0
  4  5  2  0
  4 32  1  0
  5  6  1  0
  5 33  1  0
  6  7  2  0
  7  8  1  0
  7 34  1  0
  8  9  1  0
  9 10  1  0
  9 35  1  0
 10 27  1  0
 10 11  2  0
 11 12  1  0
 11 13  1  0
 13 14  2  0
 13 36  1  0
 14 15  1  0
 14 16  1  0
 16 17  1  0
 16 27  2  0
 17 37  1  0
 18 17  1  0
 18 25  1  0
 18 19  2  0
 19 20  1  0
 19 21  1  0
 21 22  1  0
 21 23  2  0
 22 38  1  0
 22 39  1  0
 22 40  1  0
 23 24  1  0
 23 25  1  0
 24 41  1  0
 24 42  1  0
 24 43  1  0
 25 26  1  0
 27 28  1  0
 28 44  1  0
 28 45  1  0
M  CHG  1  19   1
M  END
>  <DOCK_score>  (1) 
-47.540752

>  <SMILES>  (1) 
COc1ccncc1Nc1c(Cl)cc(Cl)c(Nc2[nH]c(C)c(C)[nH+]2)c1N

$$$$
