CCc1ccc(C[NH+]=C(NCC2C[C@H](O)C2(C)C)NC2CCCCC2)cc1
     RDKit          3D

 65 67  0  0  1  0  0  0  0  0999 V2000
  138.2299  137.0491  163.7230 C   0  0  0  0  0  0  0  0  0  0  0  0
  136.8529  137.0879  164.3888 C   0  0  0  0  0  0  0  0  0  0  0  0
  135.7832  136.9241  163.3400 C   0  0  0  0  0  0  0  0  0  0  0  0
  135.3302  135.6614  163.0060 C   0  0  0  0  0  0  0  0  0  0  0  0
  134.3493  135.5111  162.0437 C   0  0  0  0  0  0  0  0  0  0  0  0
  133.8212  136.6234  161.4155 C   0  0  0  0  0  0  0  0  0  0  0  0
  132.7521  136.4595  160.3661 C   0  0  0  0  0  0  0  0  0  0  0  0
  131.4332  136.4964  161.0027 N   0  0  0  0  0  0  0  0  0  0  0  0
  131.2991  137.0156  161.8111 H   0  0  0  0  0  0  0  0  0  0  0  0
  130.4398  135.8314  160.4831 C   0  0  0  0  0  0  0  0  0  0  0  0
  129.2021  135.8660  161.0805 N   0  0  0  0  0  0  0  0  0  0  0  0
  128.9995  136.6502  162.3013 C   0  0  0  0  0  0  0  0  0  0  0  0
  127.5445  136.5192  162.7559 C   0  0  1  0  0  0  0  0  0  0  0  0
  127.2631  135.2434  163.5670 C   0  0  0  0  0  0  0  0  0  0  0  0
  126.3674  136.1090  164.4691 C   0  0  2  0  0  0  0  0  0  0  0  0
  126.4540  135.8698  165.5290 H   0  0  0  0  0  0  0  0  0  0  0  0
  125.0108  136.1862  164.0267 O   0  0  0  0  0  0  0  0  0  0  0  0
  127.2258  137.3092  164.0362 C   0  0  0  0  0  0  0  0  0  0  0  0
  126.4160  138.5829  163.7850 C   0  0  0  0  0  0  0  0  0  0  0  0
  128.4447  137.5451  164.9304 C   0  0  0  0  0  0  0  0  0  0  0  0
  130.6299  135.0954  159.3375 N   0  0  0  0  0  0  0  0  0  0  0  0
  129.8315  133.8902  159.1004 C   0  0  0  0  0  0  0  0  0  0  0  0
  130.0754  132.8866  160.2292 C   0  0  0  0  0  0  0  0  0  0  0  0
  129.2417  131.6279  159.9816 C   0  0  0  0  0  0  0  0  0  0  0  0
  129.6478  131.0017  158.6459 C   0  0  0  0  0  0  0  0  0  0  0  0
  129.4038  132.0053  157.5171 C   0  0  0  0  0  0  0  0  0  0  0  0
  130.2375  133.2640  157.7648 C   0  0  0  0  0  0  0  0  0  0  0  0
  134.2778  137.8857  161.7457 C   0  0  0  0  0  0  0  0  0  0  0  0
  135.2550  138.0364  162.7117 C   0  0  0  0  0  0  0  0  0  0  0  0
  138.3056  137.8588  162.9972 H   0  0  0  0  0  0  0  0  0  0  0  0
  139.0037  137.1676  164.4815 H   0  0  0  0  0  0  0  0  0  0  0  0
  138.3616  136.0933  163.2160 H   0  0  0  0  0  0  0  0  0  0  0  0
  136.7213  138.0437  164.8958 H   0  0  0  0  0  0  0  0  0  0  0  0
  136.7773  136.2782  165.1144 H   0  0  0  0  0  0  0  0  0  0  0  0
  135.7431  134.7924  163.4966 H   0  0  0  0  0  0  0  0  0  0  0  0
  133.9958  134.5246  161.7825 H   0  0  0  0  0  0  0  0  0  0  0  0
  132.8841  135.5038  159.8590 H   0  0  0  0  0  0  0  0  0  0  0  0
  132.8280  137.2694  159.6405 H   0  0  0  0  0  0  0  0  0  0  0  0
  128.4630  135.3712  160.6937 H   0  0  0  0  0  0  0  0  0  0  0  0
  129.2250  137.6978  162.1017 H   0  0  0  0  0  0  0  0  0  0  0  0
  129.6598  136.2793  163.0851 H   0  0  0  0  0  0  0  0  0  0  0  0
  126.8319  136.6898  161.9490 H   0  0  0  0  0  0  0  0  0  0  0  0
  128.1417  134.8467  164.0757 H   0  0  0  0  0  0  0  0  0  0  0  0
  126.7163  134.4832  163.0093 H   0  0  0  0  0  0  0  0  0  0  0  0
  124.9131  136.2503  163.0669 H   0  0  0  0  0  0  0  0  0  0  0  0
  126.1835  139.0593  164.7374 H   0  0  0  0  0  0  0  0  0  0  0  0
  126.9984  139.2679  163.1688 H   0  0  0  0  0  0  0  0  0  0  0  0
  125.4896  138.3288  163.2701 H   0  0  0  0  0  0  0  0  0  0  0  0
  129.0237  136.6246  165.0054 H   0  0  0  0  0  0  0  0  0  0  0  0
  129.0652  138.3305  164.4989 H   0  0  0  0  0  0  0  0  0  0  0  0
  128.1137  137.8481  165.9237 H   0  0  0  0  0  0  0  0  0  0  0  0
  131.2924  135.3742  158.6863 H   0  0  0  0  0  0  0  0  0  0  0  0
  128.7744  134.1544  159.0713 H   0  0  0  0  0  0  0  0  0  0  0  0
  131.1325  132.6223  160.2583 H   0  0  0  0  0  0  0  0  0  0  0  0
  129.7862  133.3326  161.1807 H   0  0  0  0  0  0  0  0  0  0  0  0
  128.1846  131.8921  159.9525 H   0  0  0  0  0  0  0  0  0  0  0  0
  129.4155  130.9128  160.7858 H   0  0  0  0  0  0  0  0  0  0  0  0
  129.0537  130.1050  158.4695 H   0  0  0  0  0  0  0  0  0  0  0  0
  130.7048  130.7375  158.6750 H   0  0  0  0  0  0  0  0  0  0  0  0
  128.3467  132.2695  157.4880 H   0  0  0  0  0  0  0  0  0  0  0  0
  129.6931  131.5592  156.5656 H   0  0  0  0  0  0  0  0  0  0  0  0
  130.0637  133.9790  156.9606 H   0  0  0  0  0  0  0  0  0  0  0  0
  131.2946  132.9997  157.7938 H   0  0  0  0  0  0  0  0  0  0  0  0
  133.8682  138.7544  161.2518 H   0  0  0  0  0  0  0  0  0  0  0  0
  135.6091  139.0228  162.9724 H   0  0  0  0  0  0  0  0  0  0  0  0
  1  2  1  0
  1 30  1  0
  1 31  1  0
  1 32  1  0
  2  3  1  0
  2 33  1  0
  2 34  1  0
  3 29  2  0
  3  4  1  0
  4  5  2  0
  4 35  1  0
  5  6  1  0
  5 36  1  0
  6  7  1  0
  6 28  2  0
  7  8  1  0
  7 37  1  0
  7 38  1  0
  8  9  1  0
 10  8  2  0
 10 11  1  0
 10 21  1  0
 11 12  1  0
 11 39  1  0
 12 13  1  0
 12 40  1  0
 12 41  1  0
 13 18  1  0
 13 14  1  0
 13 42  1  6
 14 15  1  0
 14 43  1  0
 14 44  1  0
 15 16  1  1
 15 17  1  0
 15 18  1  0
 17 45  1  0
 18 19  1  0
 18 20  1  0
 19 46  1  0
 19 47  1  0
 19 48  1  0
 20 49  1  0
 20 50  1  0
 20 51  1  0
 21 22  1  0
 21 52  1  0
 22 27  1  0
 22 23  1  0
 22 53  1  0
 23 24  1  0
 23 54  1  0
 23 55  1  0
 24 25  1  0
 24 56  1  0
 24 57  1  0
 25 26  1  0
 25 58  1  0
 25 59  1  0
 26 27  1  0
 26 60  1  0
 26 61  1  0
 27 62  1  0
 27 63  1  0
 28 29  1  0
 28 64  1  0
 29 65  1  0
M  CHG  1   8   1
M  END
>  <DOCK_score>  (1) 
-44.535107

>  <SMILES>  (1) 
CCc1ccc(C[NH+]=C(NCC2C[C@H](O)C2(C)C)NC2CCCCC2)cc1

$$$$
