CCC[NH+]1CCN(C2C[C@@](NCc3ccccc3-n3ccc(C)n3)(OCC)C2C)CC1
     RDKit          3D

 71 74  0  0  1  0  0  0  0  0999 V2000
  131.1230  131.6736  154.2580 C   0  0  0  0  0  0  0  0  0  0  0  0
  130.1199  132.3335  155.2063 C   0  0  0  0  0  0  0  0  0  0  0  0
  130.6881  132.3382  156.6269 C   0  0  0  0  0  0  0  0  0  0  0  0
  129.7249  132.9718  157.5373 N   0  0  0  0  0  0  0  0  0  0  0  0
  128.7901  132.6813  157.2928 H   0  0  0  0  0  0  0  0  0  0  0  0
  129.8296  134.4323  157.4212 C   0  0  0  0  0  0  0  0  0  0  0  0
  128.8132  135.0926  158.3553 C   0  0  0  0  0  0  0  0  0  0  0  0
  129.0797  134.6738  159.7388 N   0  0  0  0  0  0  0  0  0  0  0  0
  128.1587  135.3322  160.6747 C   0  0  2  0  0  0  0  0  0  0  0  0
  128.2973  136.8635  160.7009 C   0  0  0  0  0  0  0  0  0  0  0  0
  128.1148  136.7755  162.2252 C   0  0  1  0  0  0  0  0  0  0  0  0
  128.9872  137.6869  162.9778 N   0  0  0  0  0  0  0  0  0  0  0  0
  128.7317  139.0855  162.6078 C   0  0  0  0  0  0  0  0  0  0  0  0
  129.6431  139.9886  163.3983 C   0  0  0  0  0  0  0  0  0  0  0  0
  129.2339  140.4850  164.6208 C   0  0  0  0  0  0  0  0  0  0  0  0
  130.0715  141.3095  165.3489 C   0  0  0  0  0  0  0  0  0  0  0  0
  131.3163  141.6490  164.8511 C   0  0  0  0  0  0  0  0  0  0  0  0
  131.7287  141.1602  163.6272 C   0  0  0  0  0  0  0  0  0  0  0  0
  130.8921  140.3272  162.8960 C   0  0  0  0  0  0  0  0  0  0  0  0
  131.3080  139.8289  161.6535 N   0  0  0  0  0  0  0  0  0  0  0  0
  132.3926  139.0527  161.4301 C   0  0  0  0  0  0  0  0  0  0  0  0
  132.4434  138.7882  160.1040 C   0  0  0  0  0  0  0  0  0  0  0  0
  131.3547  139.4232  159.4962 C   0  0  0  0  0  0  0  0  0  0  0  0
  131.0229  139.3934  158.0264 C   0  0  0  0  0  0  0  0  0  0  0  0
  130.6705  140.0418  160.4245 N   0  0  0  0  0  0  0  0  0  0  0  0
  126.7499  136.8424  162.6432 O   0  0  0  0  0  0  0  0  0  0  0  0
  126.5175  136.3233  163.9542 C   0  0  0  0  0  0  0  0  0  0  0  0
  125.0308  136.4453  164.2947 C   0  0  0  0  0  0  0  0  0  0  0  0
  128.6598  135.3407  162.1286 C   0  0  2  0  0  0  0  0  0  0  0  0
  130.1822  135.2518  162.2527 C   0  0  0  0  0  0  0  0  0  0  0  0
  129.0032  133.2116  159.8653 C   0  0  0  0  0  0  0  0  0  0  0  0
  130.0178  132.5668  158.9185 C   0  0  0  0  0  0  0  0  0  0  0  0
  130.7183  131.6702  153.2459 H   0  0  0  0  0  0  0  0  0  0  0  0
  132.0589  132.2322  154.2732 H   0  0  0  0  0  0  0  0  0  0  0  0
  131.3065  130.6484  154.5794 H   0  0  0  0  0  0  0  0  0  0  0  0
  129.9363  133.3587  154.8849 H   0  0  0  0  0  0  0  0  0  0  0  0
  129.1840  131.7749  155.1912 H   0  0  0  0  0  0  0  0  0  0  0  0
  130.8716  131.3129  156.9482 H   0  0  0  0  0  0  0  0  0  0  0  0
  131.6240  132.8967  156.6420 H   0  0  0  0  0  0  0  0  0  0  0  0
  130.8358  134.7475  157.6976 H   0  0  0  0  0  0  0  0  0  0  0  0
  129.6250  134.7306  156.3930 H   0  0  0  0  0  0  0  0  0  0  0  0
  127.8059  134.7881  158.0708 H   0  0  0  0  0  0  0  0  0  0  0  0
  128.9007  136.1765  158.2802 H   0  0  0  0  0  0  0  0  0  0  0  0
  127.1301  134.9873  160.5694 H   0  0  0  0  0  0  0  0  0  0  0  0
  129.2828  137.2179  160.3989 H   0  0  0  0  0  0  0  0  0  0  0  0
  127.4853  137.3842  160.1932 H   0  0  0  0  0  0  0  0  0  0  0  0
  128.8810  137.5506  163.9718 H   0  0  0  0  0  0  0  0  0  0  0  0
  128.9211  139.2201  161.5429 H   0  0  0  0  0  0  0  0  0  0  0  0
  127.6935  139.3353  162.8266 H   0  0  0  0  0  0  0  0  0  0  0  0
  128.2605  140.2256  165.0100 H   0  0  0  0  0  0  0  0  0  0  0  0
  129.7513  141.6929  166.3065 H   0  0  0  0  0  0  0  0  0  0  0  0
  131.9666  142.2968  165.4201 H   0  0  0  0  0  0  0  0  0  0  0  0
  132.7012  141.4249  163.2391 H   0  0  0  0  0  0  0  0  0  0  0  0
  133.0922  138.7057  162.1761 H   0  0  0  0  0  0  0  0  0  0  0  0
  133.1921  138.1926  159.6032 H   0  0  0  0  0  0  0  0  0  0  0  0
  130.3022  138.5990  157.8327 H   0  0  0  0  0  0  0  0  0  0  0  0
  130.5955  140.3515  157.7309 H   0  0  0  0  0  0  0  0  0  0  0  0
  131.9309  139.2081  157.4526 H   0  0  0  0  0  0  0  0  0  0  0  0
  126.8130  135.2747  163.9875 H   0  0  0  0  0  0  0  0  0  0  0  0
  127.1036  136.8893  164.6782 H   0  0  0  0  0  0  0  0  0  0  0  0
  124.8535  136.0494  165.2947 H   0  0  0  0  0  0  0  0  0  0  0  0
  124.7353  137.4939  164.2614 H   0  0  0  0  0  0  0  0  0  0  0  0
  124.4446  135.8794  163.5706 H   0  0  0  0  0  0  0  0  0  0  0  0
  128.1405  134.6321  162.7736 H   0  0  0  0  0  0  0  0  0  0  0  0
  130.6353  136.1385  161.8096 H   0  0  0  0  0  0  0  0  0  0  0  0
  130.4579  135.1902  163.3054 H   0  0  0  0  0  0  0  0  0  0  0  0
  130.5378  134.3630  161.7313 H   0  0  0  0  0  0  0  0  0  0  0  0
  127.9992  132.8760  159.6057 H   0  0  0  0  0  0  0  0  0  0  0  0
  129.2294  132.9231  160.8919 H   0  0  0  0  0  0  0  0  0  0  0  0
  129.9527  131.4818  159.0005 H   0  0  0  0  0  0  0  0  0  0  0  0
  131.0229  132.8918  159.1871 H   0  0  0  0  0  0  0  0  0  0  0  0
  1  2  1  0
  1 33  1  0
  1 34  1  0
  1 35  1  0
  2  3  1  0
  2 36  1  0
  2 37  1  0
  3  4  1  0
  3 38  1  0
  3 39  1  0
  4  5  1  0
  4 32  1  0
  4  6  1  0
  6  7  1  0
  6 40  1  0
  6 41  1  0
  7 42  1  0
  7 43  1  0
  8  7  1  0
  8  9  1  0
  8 31  1  0
  9 29  1  0
  9 10  1  0
  9 44  1  1
 10 11  1  0
 10 45  1  0
 10 46  1  0
 11 12  1  0
 11 26  1  6
 11 29  1  0
 12 13  1  0
 12 47  1  0
 13 14  1  0
 13 48  1  0
 13 49  1  0
 14 19  1  0
 14 15  2  0
 15 16  1  0
 15 50  1  0
 16 17  2  0
 16 51  1  0
 17 18  1  0
 17 52  1  0
 18 19  2  0
 18 53  1  0
 19 20  1  0
 20 25  1  0
 20 21  1  0
 21 22  2  0
 21 54  1  0
 22 23  1  0
 22 55  1  0
 23 24  1  0
 23 25  2  0
 24 56  1  0
 24 57  1  0
 24 58  1  0
 26 27  1  0
 27 28  1  0
 27 59  1  0
 27 60  1  0
 28 61  1  0
 28 62  1  0
 28 63  1  0
 29 30  1  0
 29 64  1  1
 30 65  1  0
 30 66  1  0
 30 67  1  0
 31 32  1  0
 31 68  1  0
 31 69  1  0
 32 70  1  0
 32 71  1  0
M  CHG  1   4   1
M  END
>  <DOCK_score>  (1) 
-42.293354

>  <SMILES>  (1) 
CCC[NH+]1CCN(C2C[C@@](NCc3ccccc3-n3ccc(C)n3)(OCC)C2C)CC1

$$$$
