Nc1ccc(C2=CCN[NH2+]C2)c(Nc2cccc3ccccc23)c1
     RDKit          3D

 45 48  0  0  0  0  0  0  0  0999 V2000
  126.2495  137.6086  162.5333 N   0  0  0  0  0  0  0  0  0  0  0  0
  126.9013  136.7894  161.6110 C   0  0  0  0  0  0  0  0  0  0  0  0
  126.2173  135.7307  161.0197 C   0  0  0  0  0  0  0  0  0  0  0  0
  126.8523  134.9196  160.1045 C   0  0  0  0  0  0  0  0  0  0  0  0
  128.1889  135.1511  159.7760 C   0  0  0  0  0  0  0  0  0  0  0  0
  128.8730  134.2804  158.7997 C   0  0  0  0  0  0  0  0  0  0  0  0
  128.9716  132.9909  159.0571 C   0  0  0  0  0  0  0  0  0  0  0  0
  129.6574  132.0385  158.1164 C   0  0  0  0  0  0  0  0  0  0  0  0
  129.8102  132.6695  156.7983 N   0  0  0  0  0  0  0  0  0  0  0  0
  130.4122  133.9874  156.9363 N   0  0  0  0  0  0  0  0  0  0  0  0
  130.6745  134.3364  156.0267 H   0  0  0  0  0  0  0  0  0  0  0  0
  131.2294  133.9257  157.5248 H   0  0  0  0  0  0  0  0  0  0  0  0
  129.4333  134.8952  157.5477 C   0  0  0  0  0  0  0  0  0  0  0  0
  128.8783  136.2176  160.3721 C   0  0  0  0  0  0  0  0  0  0  0  0
  130.2121  136.4582  160.0452 N   0  0  0  0  0  0  0  0  0  0  0  0
  131.2295  135.8506  160.7782 C   0  0  0  0  0  0  0  0  0  0  0  0
  131.0273  134.6159  161.3583 C   0  0  0  0  0  0  0  0  0  0  0  0
  132.0368  134.0006  162.0917 C   0  0  0  0  0  0  0  0  0  0  0  0
  133.2496  134.5978  162.2573 C   0  0  0  0  0  0  0  0  0  0  0  0
  133.4967  135.8561  161.6824 C   0  0  0  0  0  0  0  0  0  0  0  0
  134.7386  136.4962  161.8373 C   0  0  0  0  0  0  0  0  0  0  0  0
  134.9439  137.7150  161.2674 C   0  0  0  0  0  0  0  0  0  0  0  0
  133.9400  138.3404  160.5307 C   0  0  0  0  0  0  0  0  0  0  0  0
  132.7248  137.7500  160.3606 C   0  0  0  0  0  0  0  0  0  0  0  0
  132.4787  136.4906  160.9288 C   0  0  0  0  0  0  0  0  0  0  0  0
  128.2290  137.0310  161.2874 C   0  0  0  0  0  0  0  0  0  0  0  0
  126.7246  138.3463  162.9468 H   0  0  0  0  0  0  0  0  0  0  0  0
  125.3216  137.4409  162.7608 H   0  0  0  0  0  0  0  0  0  0  0  0
  125.1844  135.5472  161.2756 H   0  0  0  0  0  0  0  0  0  0  0  0
  126.3171  134.1021  159.6447 H   0  0  0  0  0  0  0  0  0  0  0  0
  128.5460  132.6064  159.9721 H   0  0  0  0  0  0  0  0  0  0  0  0
  130.6402  131.7827  158.5121 H   0  0  0  0  0  0  0  0  0  0  0  0
  129.0592  131.1326  158.0177 H   0  0  0  0  0  0  0  0  0  0  0  0
  130.3547  132.0873  156.1796 H   0  0  0  0  0  0  0  0  0  0  0  0
  128.6232  135.0817  156.8427 H   0  0  0  0  0  0  0  0  0  0  0  0
  129.9217  135.8378  157.7950 H   0  0  0  0  0  0  0  0  0  0  0  0
  130.4318  137.0486  159.3075 H   0  0  0  0  0  0  0  0  0  0  0  0
  130.0745  134.1208  161.2417 H   0  0  0  0  0  0  0  0  0  0  0  0
  131.8559  133.0337  162.5373 H   0  0  0  0  0  0  0  0  0  0  0  0
  134.0209  134.1048  162.8302 H   0  0  0  0  0  0  0  0  0  0  0  0
  135.5258  136.0234  162.4060 H   0  0  0  0  0  0  0  0  0  0  0  0
  135.8988  138.2048  161.3882 H   0  0  0  0  0  0  0  0  0  0  0  0
  134.1284  139.3076  160.0885 H   0  0  0  0  0  0  0  0  0  0  0  0
  131.9558  138.2464  159.7874 H   0  0  0  0  0  0  0  0  0  0  0  0
  128.7562  137.8529  161.7488 H   0  0  0  0  0  0  0  0  0  0  0  0
  1  2  1  0
  1 27  1  0
  1 28  1  0
  2 26  2  0
  2  3  1  0
  3  4  2  0
  3 29  1  0
  4  5  1  0
  4 30  1  0
  5  6  1  0
  5 14  2  0
  6 13  1  0
  6  7  2  0
  7  8  1  0
  7 31  1  0
  8  9  1  0
  8 32  1  0
  8 33  1  0
  9 10  1  0
  9 34  1  0
 10 11  1  0
 10 12  1  0
 10 13  1  0
 13 35  1  0
 13 36  1  0
 14 15  1  0
 14 26  1  0
 15 16  1  0
 15 37  1  0
 16 25  1  0
 16 17  2  0
 17 18  1  0
 17 38  1  0
 18 19  2  0
 18 39  1  0
 19 20  1  0
 19 40  1  0
 20 25  2  0
 20 21  1  0
 21 22  2  0
 21 41  1  0
 22 23  1  0
 22 42  1  0
 23 24  2  0
 23 43  1  0
 24 25  1  0
 24 44  1  0
 26 45  1  0
M  CHG  1  10   1
M  END
>  <DOCK_score>  (1) 
-44.999352

>  <SMILES>  (1) 
Nc1ccc(C2=CCN[NH2+]C2)c(Nc2cccc3ccccc23)c1

$$$$
