CCc1ccc2c(c1)C[C@@H]([NH+]=C(NC1CC1)NC1CNC(=O)NC1)CO2
     RDKit          3D

 54 57  0  0  1  0  0  0  0  0999 V2000
  133.0428  137.9846  165.7094 C   0  0  0  0  0  0  0  0  0  0  0  0
  133.8844  138.2905  164.4688 C   0  0  0  0  0  0  0  0  0  0  0  0
  133.9001  137.0863  163.5629 C   0  0  0  0  0  0  0  0  0  0  0  0
  134.8830  136.1243  163.7081 C   0  0  0  0  0  0  0  0  0  0  0  0
  134.8951  135.0211  162.8796 C   0  0  0  0  0  0  0  0  0  0  0  0
  133.9210  134.8725  161.8972 C   0  0  0  0  0  0  0  0  0  0  0  0
  132.9409  135.8384  161.7519 C   0  0  0  0  0  0  0  0  0  0  0  0
  132.9326  136.9426  162.5879 C   0  0  0  0  0  0  0  0  0  0  0  0
  131.8744  135.7221  160.6927 C   0  0  0  0  0  0  0  0  0  0  0  0
  131.7939  134.2751  160.1993 C   0  0  1  0  0  0  0  0  0  0  0  0
  131.3538  133.6457  160.9729 H   0  0  0  0  0  0  0  0  0  0  0  0
  130.9747  134.2119  158.9865 N   0  0  0  0  0  0  0  0  0  0  0  0
  131.3893  134.3129  158.1154 H   0  0  0  0  0  0  0  0  0  0  0  0
  129.6886  134.0201  159.0777 C   0  0  0  0  0  0  0  0  0  0  0  0
  129.0179  133.3668  158.0710 N   0  0  0  0  0  0  0  0  0  0  0  0
  129.7489  132.8863  156.8956 C   0  0  0  0  0  0  0  0  0  0  0  0
  129.1060  131.7682  156.0724 C   0  0  0  0  0  0  0  0  0  0  0  0
  130.3223  131.4689  156.9511 C   0  0  0  0  0  0  0  0  0  0  0  0
  129.0029  134.4709  160.1807 N   0  0  0  0  0  0  0  0  0  0  0  0
  127.5575  134.2553  160.2832 C   0  0  0  0  0  0  0  0  0  0  0  0
  126.9274  135.3772  161.1155 C   0  0  0  0  0  0  0  0  0  0  0  0
  125.5049  135.0915  161.3080 N   0  0  0  0  0  0  0  0  0  0  0  0
  125.0437  133.8322  161.3365 C   0  0  0  0  0  0  0  0  0  0  0  0
  123.8542  133.6498  161.5103 O   0  0  0  0  0  0  0  0  0  0  0  0
  125.8428  132.7661  161.1805 N   0  0  0  0  0  0  0  0  0  0  0  0
  127.2848  132.9184  160.9807 C   0  0  0  0  0  0  0  0  0  0  0  0
  133.2166  133.7928  159.8880 C   0  0  0  0  0  0  0  0  0  0  0  0
  133.9608  133.7684  161.1068 O   0  0  0  0  0  0  0  0  0  0  0  0
  133.0314  138.8556  166.3645 H   0  0  0  0  0  0  0  0  0  0  0  0
  132.0236  137.7442  165.4068 H   0  0  0  0  0  0  0  0  0  0  0  0
  133.4738  137.1360  166.2406 H   0  0  0  0  0  0  0  0  0  0  0  0
  134.9037  138.5308  164.7714 H   0  0  0  0  0  0  0  0  0  0  0  0
  133.4534  139.1391  163.9376 H   0  0  0  0  0  0  0  0  0  0  0  0
  135.6405  136.2365  164.4698 H   0  0  0  0  0  0  0  0  0  0  0  0
  135.6635  134.2708  162.9937 H   0  0  0  0  0  0  0  0  0  0  0  0
  132.1661  137.6953  162.4765 H   0  0  0  0  0  0  0  0  0  0  0  0
  130.9125  136.0158  161.1128 H   0  0  0  0  0  0  0  0  0  0  0  0
  132.1200  136.3777  159.8571 H   0  0  0  0  0  0  0  0  0  0  0  0
  128.0610  133.2239  158.1388 H   0  0  0  0  0  0  0  0  0  0  0  0
  130.3231  133.6410  156.3582 H   0  0  0  0  0  0  0  0  0  0  0  0
  128.1395  131.3901  156.4054 H   0  0  0  0  0  0  0  0  0  0  0  0
  129.2573  131.7872  154.9931 H   0  0  0  0  0  0  0  0  0  0  0  0
  131.2737  131.2911  156.4498 H   0  0  0  0  0  0  0  0  0  0  0  0
  130.1559  130.8940  157.8620 H   0  0  0  0  0  0  0  0  0  0  0  0
  129.4760  134.9318  160.8911 H   0  0  0  0  0  0  0  0  0  0  0  0
  127.1175  134.2443  159.2860 H   0  0  0  0  0  0  0  0  0  0  0  0
  127.4222  135.4332  162.0851 H   0  0  0  0  0  0  0  0  0  0  0  0
  127.0408  136.3266  160.5922 H   0  0  0  0  0  0  0  0  0  0  0  0
  124.8829  135.8279  161.4172 H   0  0  0  0  0  0  0  0  0  0  0  0
  125.4571  131.8763  161.2009 H   0  0  0  0  0  0  0  0  0  0  0  0
  127.6548  132.1019  160.3607 H   0  0  0  0  0  0  0  0  0  0  0  0
  127.7901  132.9016  161.9464 H   0  0  0  0  0  0  0  0  0  0  0  0
  133.6896  134.4763  159.1828 H   0  0  0  0  0  0  0  0  0  0  0  0
  133.1793  132.7910  159.4604 H   0  0  0  0  0  0  0  0  0  0  0  0
  1  2  1  0
  1 29  1  0
  1 30  1  0
  1 31  1  0
  2  3  1  0
  2 32  1  0
  2 33  1  0
  3  8  2  0
  3  4  1  0
  4  5  2  0
  4 34  1  0
  5  6  1  0
  5 35  1  0
  6 28  1  0
  6  7  2  0
  7  8  1  0
  7  9  1  0
  8 36  1  0
  9 10  1  0
  9 37  1  0
  9 38  1  0
 10 11  1  1
 10 12  1  0
 10 27  1  0
 12 13  1  0
 14 12  2  0
 14 15  1  0
 14 19  1  0
 15 16  1  0
 15 39  1  0
 16 18  1  0
 16 17  1  0
 16 40  1  0
 17 18  1  0
 17 41  1  0
 17 42  1  0
 18 43  1  0
 18 44  1  0
 19 20  1  0
 19 45  1  0
 20 26  1  0
 20 21  1  0
 20 46  1  0
 21 22  1  0
 21 47  1  0
 21 48  1  0
 22 23  1  0
 22 49  1  0
 23 24  2  0
 23 25  1  0
 25 26  1  0
 25 50  1  0
 26 51  1  0
 26 52  1  0
 27 28  1  0
 27 53  1  0
 27 54  1  0
M  CHG  1  12   1
M  END
>  <DOCK_score>  (1) 
-45.225971

>  <SMILES>  (1) 
CCc1ccc2c(c1)C[C@@H]([NH+]=C(NC1CC1)NC1CNC(=O)NC1)CO2

$$$$
