O=C1CC[C@H](NC(N[C@H]2C=CCCC2)=[NH+]C2COc3ccccc3C2)CN1
     RDKit          3D

 56 59  0  0  1  0  0  0  0  0999 V2000
  124.7351  136.3728  164.4480 O   0  0  0  0  0  0  0  0  0  0  0  0
  125.8659  136.2634  164.0231 C   0  0  0  0  0  0  0  0  0  0  0  0
  126.9741  136.0190  165.0068 C   0  0  0  0  0  0  0  0  0  0  0  0
  128.3239  136.3419  164.3613 C   0  0  0  0  0  0  0  0  0  0  0  0
  128.3870  135.6464  162.9960 C   0  0  2  0  0  0  0  0  0  0  0  0
  128.1504  134.5889  163.1133 H   0  0  0  0  0  0  0  0  0  0  0  0
  129.7320  135.7897  162.4332 N   0  0  0  0  0  0  0  0  0  0  0  0
  130.0258  135.2423  161.2068 C   0  0  0  0  0  0  0  0  0  0  0  0
  130.9733  135.8285  160.4015 N   0  0  0  0  0  0  0  0  0  0  0  0
  131.6699  137.0367  160.8502 C   0  0  1  0  0  0  0  0  0  0  0  0
  131.7419  137.0294  161.9378 H   0  0  0  0  0  0  0  0  0  0  0  0
  133.0497  137.0632  160.2606 C   0  0  0  0  0  0  0  0  0  0  0  0
  133.6054  138.1209  159.7626 C   0  0  0  0  0  0  0  0  0  0  0  0
  132.9440  139.4662  159.6966 C   0  0  0  0  0  0  0  0  0  0  0  0
  131.7486  139.5133  160.6507 C   0  0  0  0  0  0  0  0  0  0  0  0
  130.8827  138.2710  160.4049 C   0  0  0  0  0  0  0  0  0  0  0  0
  129.4060  134.1674  160.8075 N   0  0  0  0  0  0  0  0  0  0  0  0
  128.4984  133.9931  161.1024 H   0  0  0  0  0  0  0  0  0  0  0  0
  130.0799  133.2225  159.9135 C   0  0  1  0  0  0  0  0  0  0  0  0
  129.5336  131.8085  160.1488 C   0  0  0  0  0  0  0  0  0  0  0  0
  130.2793  130.8973  159.3402 O   0  0  0  0  0  0  0  0  0  0  0  0
  130.4480  131.2049  158.0278 C   0  0  0  0  0  0  0  0  0  0  0  0
  130.8396  130.1952  157.1542 C   0  0  0  0  0  0  0  0  0  0  0  0
  131.0253  130.4692  155.8148 C   0  0  0  0  0  0  0  0  0  0  0  0
  130.8219  131.7511  155.3375 C   0  0  0  0  0  0  0  0  0  0  0  0
  130.4316  132.7554  156.2014 C   0  0  0  0  0  0  0  0  0  0  0  0
  130.2423  132.4859  157.5468 C   0  0  0  0  0  0  0  0  0  0  0  0
  129.8086  133.6072  158.4569 C   0  0  0  0  0  0  0  0  0  0  0  0
  127.3652  136.3008  162.0654 C   0  0  0  0  0  0  0  0  0  0  0  0
  126.0584  136.3658  162.7076 N   0  0  0  0  0  0  0  0  0  0  0  0
  126.9609  134.9736  165.3148 H   0  0  0  0  0  0  0  0  0  0  0  0
  126.8286  136.6556  165.8797 H   0  0  0  0  0  0  0  0  0  0  0  0
  129.1311  135.9774  164.9966 H   0  0  0  0  0  0  0  0  0  0  0  0
  128.4194  137.4197  164.2288 H   0  0  0  0  0  0  0  0  0  0  0  0
  130.4151  136.2709  162.9258 H   0  0  0  0  0  0  0  0  0  0  0  0
  131.1807  135.4423  159.5361 H   0  0  0  0  0  0  0  0  0  0  0  0
  133.6141  136.1423  160.2510 H   0  0  0  0  0  0  0  0  0  0  0  0
  134.6073  138.0293  159.3700 H   0  0  0  0  0  0  0  0  0  0  0  0
  133.6621  140.2362  159.9787 H   0  0  0  0  0  0  0  0  0  0  0  0
  132.5988  139.6496  158.6789 H   0  0  0  0  0  0  0  0  0  0  0  0
  132.1025  139.5155  161.6815 H   0  0  0  0  0  0  0  0  0  0  0  0
  131.1643  140.4140  160.4620 H   0  0  0  0  0  0  0  0  0  0  0  0
  130.6477  138.1924  159.3434 H   0  0  0  0  0  0  0  0  0  0  0  0
  129.9616  138.3461  160.9827 H   0  0  0  0  0  0  0  0  0  0  0  0
  131.1530  133.2383  160.1038 H   0  0  0  0  0  0  0  0  0  0  0  0
  129.6448  131.5421  161.1999 H   0  0  0  0  0  0  0  0  0  0  0  0
  128.4807  131.7704  159.8693 H   0  0  0  0  0  0  0  0  0  0  0  0
  130.9992  129.1938  157.5259 H   0  0  0  0  0  0  0  0  0  0  0  0
  131.3290  129.6831  155.1395 H   0  0  0  0  0  0  0  0  0  0  0  0
  130.9679  131.9667  154.2894 H   0  0  0  0  0  0  0  0  0  0  0  0
  130.2736  133.7557  155.8263 H   0  0  0  0  0  0  0  0  0  0  0  0
  128.7426  133.7908  158.3228 H   0  0  0  0  0  0  0  0  0  0  0  0
  130.3655  134.5112  158.2107 H   0  0  0  0  0  0  0  0  0  0  0  0
  127.6962  137.3098  161.8194 H   0  0  0  0  0  0  0  0  0  0  0  0
  127.2873  135.7169  161.1484 H   0  0  0  0  0  0  0  0  0  0  0  0
  125.2800  136.4914  162.1426 H   0  0  0  0  0  0  0  0  0  0  0  0
  1  2  2  0
  2 30  1  0
  2  3  1  0
  3  4  1  0
  3 31  1  0
  3 32  1  0
  4  5  1  0
  4 33  1  0
  4 34  1  0
  5  6  1  1
  5  7  1  0
  5 29  1  0
  7 35  1  0
  8  7  1  0
  8  9  1  0
  8 17  2  0
  9 10  1  0
  9 36  1  0
 10 11  1  1
 10 16  1  0
 10 12  1  0
 12 13  2  0
 12 37  1  0
 13 14  1  0
 13 38  1  0
 14 15  1  0
 14 39  1  0
 14 40  1  0
 15 16  1  0
 15 41  1  0
 15 42  1  0
 16 43  1  0
 16 44  1  0
 17 18  1  0
 17 19  1  0
 19 28  1  0
 19 20  1  0
 19 45  1  1
 20 21  1  0
 20 46  1  0
 20 47  1  0
 21 22  1  0
 22 27  2  0
 22 23  1  0
 23 24  2  0
 23 48  1  0
 24 25  1  0
 24 49  1  0
 25 26  2  0
 25 50  1  0
 26 27  1  0
 26 51  1  0
 27 28  1  0
 28 52  1  0
 28 53  1  0
 29 30  1  0
 29 54  1  0
 29 55  1  0
 30 56  1  0
M  CHG  1  17   1
M  END
>  <DOCK_score>  (1) 
-45.198029

>  <SMILES>  (1) 
O=C1CC[C@H](NC(N[C@H]2C=CCCC2)=[NH+]C2COc3ccccc3C2)CN1

$$$$
