Cn1ccc(CC[NH+]=C(NCC2C[C@H](O)C2(C)C)NC2CCCCCC2)n1
     RDKit          3D

 65 67  0  0  1  0  0  0  0  0999 V2000
  131.5375  141.2210  164.2024 C   0  0  0  0  0  0  0  0  0  0  0  0
  131.8194  140.9044  162.8000 N   0  0  0  0  0  0  0  0  0  0  0  0
  133.0223  140.9868  162.1938 C   0  0  0  0  0  0  0  0  0  0  0  0
  132.8618  140.6049  160.9057 C   0  0  0  0  0  0  0  0  0  0  0  0
  131.5131  140.2867  160.7158 C   0  0  0  0  0  0  0  0  0  0  0  0
  130.8891  139.8163  159.4274 C   0  0  0  0  0  0  0  0  0  0  0  0
  130.9558  138.2894  159.3560 C   0  0  0  0  0  0  0  0  0  0  0  0
  130.2270  137.7151  160.4897 N   0  0  0  0  0  0  0  0  0  0  0  0
  129.7991  138.2979  161.1365 H   0  0  0  0  0  0  0  0  0  0  0  0
  130.1539  136.4214  160.6294 C   0  0  0  0  0  0  0  0  0  0  0  0
  129.4698  135.8825  161.6935 N   0  0  0  0  0  0  0  0  0  0  0  0
  128.8233  136.7625  162.6700 C   0  0  0  0  0  0  0  0  0  0  0  0
  128.1371  135.9157  163.7439 C   0  0  2  0  0  0  0  0  0  0  0  0
  127.0144  135.0186  163.1968 C   0  0  0  0  0  0  0  0  0  0  0  0
  126.2179  135.3780  164.4621 C   0  0  2  0  0  0  0  0  0  0  0  0
  126.4002  134.7041  165.2991 H   0  0  0  0  0  0  0  0  0  0  0  0
  124.8269  135.6001  164.2213 O   0  0  0  0  0  0  0  0  0  0  0  0
  127.0470  136.6719  164.5213 C   0  0  0  0  0  0  0  0  0  0  0  0
  127.4668  137.0665  165.9387 C   0  0  0  0  0  0  0  0  0  0  0  0
  126.4291  137.8322  163.7385 C   0  0  0  0  0  0  0  0  0  0  0  0
  130.7604  135.5955  159.7127 N   0  0  0  0  0  0  0  0  0  0  0  0
  130.2005  134.2701  159.4379 C   0  0  0  0  0  0  0  0  0  0  0  0
  131.2318  133.1978  159.8450 C   0  0  0  0  0  0  0  0  0  0  0  0
  130.5082  131.8941  160.0528 C   0  0  0  0  0  0  0  0  0  0  0  0
  130.5162  131.0101  158.7909 C   0  0  0  0  0  0  0  0  0  0  0  0
  130.2666  131.8112  157.4988 C   0  0  0  0  0  0  0  0  0  0  0  0
  129.1864  132.8459  157.6624 C   0  0  0  0  0  0  0  0  0  0  0  0
  129.8475  134.1906  158.0281 C   0  0  0  0  0  0  0  0  0  0  0  0
  130.8879  140.4626  161.8516 N   0  0  0  0  0  0  0  0  0  0  0  0
  131.6648  140.3250  164.8100 H   0  0  0  0  0  0  0  0  0  0  0  0
  132.2255  141.9935  164.5459 H   0  0  0  0  0  0  0  0  0  0  0  0
  130.5125  141.5800  164.2949 H   0  0  0  0  0  0  0  0  0  0  0  0
  133.9480  141.2975  162.6554 H   0  0  0  0  0  0  0  0  0  0  0  0
  133.6378  140.5565  160.1559 H   0  0  0  0  0  0  0  0  0  0  0  0
  131.4314  140.2435  158.5838 H   0  0  0  0  0  0  0  0  0  0  0  0
  129.8478  140.1366  159.3896 H   0  0  0  0  0  0  0  0  0  0  0  0
  131.9969  137.9691  159.3934 H   0  0  0  0  0  0  0  0  0  0  0  0
  130.5043  137.9492  158.4240 H   0  0  0  0  0  0  0  0  0  0  0  0
  129.4119  134.9196  161.7952 H   0  0  0  0  0  0  0  0  0  0  0  0
  129.5735  137.4017  163.1357 H   0  0  0  0  0  0  0  0  0  0  0  0
  128.0809  137.3813  162.1661 H   0  0  0  0  0  0  0  0  0  0  0  0
  128.8451  135.3898  164.3846 H   0  0  0  0  0  0  0  0  0  0  0  0
  126.5653  135.3932  162.2771 H   0  0  0  0  0  0  0  0  0  0  0  0
  127.2873  133.9650  163.1373 H   0  0  0  0  0  0  0  0  0  0  0  0
  124.6394  136.0521  163.3873 H   0  0  0  0  0  0  0  0  0  0  0  0
  128.3416  137.7150  165.8913 H   0  0  0  0  0  0  0  0  0  0  0  0
  126.6481  137.5959  166.4261 H   0  0  0  0  0  0  0  0  0  0  0  0
  127.7100  136.1697  166.5086 H   0  0  0  0  0  0  0  0  0  0  0  0
  125.9725  137.4516  162.8249 H   0  0  0  0  0  0  0  0  0  0  0  0
  125.6686  138.3185  164.3495 H   0  0  0  0  0  0  0  0  0  0  0  0
  127.2059  138.5529  163.4836 H   0  0  0  0  0  0  0  0  0  0  0  0
  131.5591  135.8906  159.2480 H   0  0  0  0  0  0  0  0  0  0  0  0
  129.2986  134.1373  160.0356 H   0  0  0  0  0  0  0  0  0  0  0  0
  131.9738  133.0847  159.0545 H   0  0  0  0  0  0  0  0  0  0  0  0
  131.7225  133.4950  160.7718 H   0  0  0  0  0  0  0  0  0  0  0  0
  129.4752  132.1034  160.3301 H   0  0  0  0  0  0  0  0  0  0  0  0
  130.9884  131.3510  160.8668 H   0  0  0  0  0  0  0  0  0  0  0  0
  129.7407  130.2505  158.8890 H   0  0  0  0  0  0  0  0  0  0  0  0
  131.4847  130.5154  158.7163 H   0  0  0  0  0  0  0  0  0  0  0  0
  129.9767  131.1209  156.7064 H   0  0  0  0  0  0  0  0  0  0  0  0
  131.1920  132.3099  157.2104 H   0  0  0  0  0  0  0  0  0  0  0  0
  128.5071  132.5431  158.4592 H   0  0  0  0  0  0  0  0  0  0  0  0
  128.6354  132.9509  156.7278 H   0  0  0  0  0  0  0  0  0  0  0  0
  129.1565  134.9995  157.7911 H   0  0  0  0  0  0  0  0  0  0  0  0
  130.7509  134.3122  157.4306 H   0  0  0  0  0  0  0  0  0  0  0  0
  1  2  1  0
  1 30  1  0
  1 31  1  0
  1 32  1  0
  2 29  1  0
  2  3  1  0
  3  4  2  0
  3 33  1  0
  4  5  1  0
  4 34  1  0
  5  6  1  0
  5 29  2  0
  6  7  1  0
  6 35  1  0
  6 36  1  0
  7  8  1  0
  7 37  1  0
  7 38  1  0
  8  9  1  0
 10  8  2  0
 10 11  1  0
 10 21  1  0
 11 12  1  0
 11 39  1  0
 12 13  1  0
 12 40  1  0
 12 41  1  0
 13 18  1  0
 13 14  1  0
 13 42  1  1
 14 15  1  0
 14 43  1  0
 14 44  1  0
 15 16  1  1
 15 17  1  0
 15 18  1  0
 17 45  1  0
 18 19  1  0
 18 20  1  0
 19 46  1  0
 19 47  1  0
 19 48  1  0
 20 49  1  0
 20 50  1  0
 20 51  1  0
 21 22  1  0
 21 52  1  0
 22 28  1  0
 22 23  1  0
 22 53  1  0
 23 24  1  0
 23 54  1  0
 23 55  1  0
 24 25  1  0
 24 56  1  0
 24 57  1  0
 25 26  1  0
 25 58  1  0
 25 59  1  0
 26 27  1  0
 26 60  1  0
 26 61  1  0
 27 28  1  0
 27 62  1  0
 27 63  1  0
 28 64  1  0
 28 65  1  0
M  CHG  1   8   1
M  END
>  <DOCK_score>  (1) 
-42.247101

>  <SMILES>  (1) 
Cn1ccc(CC[NH+]=C(NCC2C[C@H](O)C2(C)C)NC2CCCCCC2)n1

$$$$
