F[C@@H]1C[C@@H]1[NH2+]Cc1c[nH]nc1-c1ccc(Nc2cccc3c2CCCC3)o1
     RDKit          3D

 51 55  0  0  1  0  0  0  0  0999 V2000
  131.8933  139.3805  158.8280 F   0  0  0  0  0  0  0  0  0  0  0  0
  131.9367  139.1076  160.1993 C   0  0  2  0  0  0  0  0  0  0  0  0
  131.7863  139.9656  160.8547 H   0  0  0  0  0  0  0  0  0  0  0  0
  132.9008  138.0178  160.6727 C   0  0  0  0  0  0  0  0  0  0  0  0
  131.3934  137.7556  160.6687 C   0  0  2  0  0  0  0  0  0  0  0  0
  130.8854  137.7239  161.6325 H   0  0  0  0  0  0  0  0  0  0  0  0
  130.8662  136.8442  159.6443 N   0  0  0  0  0  0  0  0  0  0  0  0
  129.9294  137.1243  159.3950 H   0  0  0  0  0  0  0  0  0  0  0  0
  131.4566  136.8792  158.8269 H   0  0  0  0  0  0  0  0  0  0  0  0
  130.8430  135.4739  160.1732 C   0  0  0  0  0  0  0  0  0  0  0  0
  130.3021  134.5388  159.1224 C   0  0  0  0  0  0  0  0  0  0  0  0
  131.0274  133.8879  158.1881 C   0  0  0  0  0  0  0  0  0  0  0  0
  130.1794  133.1488  157.4403 N   0  0  0  0  0  0  0  0  0  0  0  0
  130.4271  132.5773  156.6966 H   0  0  0  0  0  0  0  0  0  0  0  0
  128.8799  133.3547  157.9207 N   0  0  0  0  0  0  0  0  0  0  0  0
  128.9471  134.1930  158.9361 C   0  0  0  0  0  0  0  0  0  0  0  0
  127.8059  134.6836  159.7362 C   0  0  0  0  0  0  0  0  0  0  0  0
  126.5011  134.3518  159.5491 C   0  0  0  0  0  0  0  0  0  0  0  0
  125.7603  135.0395  160.5300 C   0  0  0  0  0  0  0  0  0  0  0  0
  126.6458  135.7627  161.2602 C   0  0  0  0  0  0  0  0  0  0  0  0
  126.3303  136.5923  162.3303 N   0  0  0  0  0  0  0  0  0  0  0  0
  127.3423  137.2840  162.9998 C   0  0  0  0  0  0  0  0  0  0  0  0
  128.1405  138.1807  162.3053 C   0  0  0  0  0  0  0  0  0  0  0  0
  129.1349  138.8691  162.9713 C   0  0  0  0  0  0  0  0  0  0  0  0
  129.3376  138.6504  164.3191 C   0  0  0  0  0  0  0  0  0  0  0  0
  128.5468  137.7469  165.0182 C   0  0  0  0  0  0  0  0  0  0  0  0
  127.5484  137.0646  164.3625 C   0  0  0  0  0  0  0  0  0  0  0  0
  126.6475  136.0782  165.0583 C   0  0  0  0  0  0  0  0  0  0  0  0
  127.2578  135.6380  166.3875 C   0  0  0  0  0  0  0  0  0  0  0  0
  127.6444  136.8921  167.1806 C   0  0  0  0  0  0  0  0  0  0  0  0
  128.8317  137.5547  166.4850 C   0  0  0  0  0  0  0  0  0  0  0  0
  127.8797  135.5424  160.7746 O   0  0  0  0  0  0  0  0  0  0  0  0
  133.3845  138.1590  161.6393 H   0  0  0  0  0  0  0  0  0  0  0  0
  133.5013  137.5137  159.9156 H   0  0  0  0  0  0  0  0  0  0  0  0
  131.8550  135.1713  160.4427 H   0  0  0  0  0  0  0  0  0  0  0  0
  130.2051  135.4361  161.0563 H   0  0  0  0  0  0  0  0  0  0  0  0
  132.0984  133.9460  158.0620 H   0  0  0  0  0  0  0  0  0  0  0  0
  126.1081  133.6863  158.7946 H   0  0  0  0  0  0  0  0  0  0  0  0
  124.6902  135.0017  160.6712 H   0  0  0  0  0  0  0  0  0  0  0  0
  125.4073  136.6907  162.6118 H   0  0  0  0  0  0  0  0  0  0  0  0
  127.9818  138.3434  161.2494 H   0  0  0  0  0  0  0  0  0  0  0  0
  129.7561  139.5737  162.4380 H   0  0  0  0  0  0  0  0  0  0  0  0
  130.1192  139.1877  164.8358 H   0  0  0  0  0  0  0  0  0  0  0  0
  125.6798  136.5441  165.2441 H   0  0  0  0  0  0  0  0  0  0  0  0
  126.5090  135.2056  164.4201 H   0  0  0  0  0  0  0  0  0  0  0  0
  126.5284  135.0570  166.9519 H   0  0  0  0  0  0  0  0  0  0  0  0
  128.1453  135.0332  166.2016 H   0  0  0  0  0  0  0  0  0  0  0  0
  126.8020  137.5835  167.2077 H   0  0  0  0  0  0  0  0  0  0  0  0
  127.9233  136.6125  168.1965 H   0  0  0  0  0  0  0  0  0  0  0  0
  129.0218  138.5248  166.9443 H   0  0  0  0  0  0  0  0  0  0  0  0
  129.7135  136.9242  166.6004 H   0  0  0  0  0  0  0  0  0  0  0  0
  1  2  1  0
  2  3  1  1
  2  5  1  0
  2  4  1  0
  4  5  1  0
  4 33  1  0
  4 34  1  0
  5  6  1  1
  5  7  1  0
  7  8  1  0
  7  9  1  0
  7 10  1  0
 10 11  1  0
 10 35  1  0
 10 36  1  0
 11 16  1  0
 11 12  2  0
 12 13  1  0
 12 37  1  0
 13 14  1  0
 13 15  1  0
 15 16  2  0
 16 17  1  0
 17 32  1  0
 17 18  2  0
 18 19  1  0
 18 38  1  0
 19 20  2  0
 19 39  1  0
 20 21  1  0
 20 32  1  0
 21 22  1  0
 21 40  1  0
 22 27  1  0
 22 23  2  0
 23 24  1  0
 23 41  1  0
 24 25  2  0
 24 42  1  0
 25 26  1  0
 25 43  1  0
 26 31  1  0
 26 27  2  0
 27 28  1  0
 28 29  1  0
 28 44  1  0
 28 45  1  0
 29 30  1  0
 29 46  1  0
 29 47  1  0
 30 31  1  0
 30 48  1  0
 30 49  1  0
 31 50  1  0
 31 51  1  0
M  CHG  1   7   1
M  END
>  <DOCK_score>  (1) 
-42.749454

>  <SMILES>  (1) 
F[C@@H]1C[C@@H]1[NH2+]Cc1c[nH]nc1-c1ccc(Nc2cccc3c2CCCC3)o1

$$$$
