C1=C(C[NH2+]Cc2c[nH]nc2-c2ccc(Nc3c[nH]c4ccccc34)o2)CCCC1
     RDKit          3D

 55 59  0  0  0  0  0  0  0  0999 V2000
  132.6364  138.1311  162.3671 C   0  0  0  0  0  0  0  0  0  0  0  0
  132.4875  138.2160  161.0841 C   0  0  0  0  0  0  0  0  0  0  0  0
  131.0851  138.3065  160.5401 C   0  0  0  0  0  0  0  0  0  0  0  0
  130.8326  137.1692  159.6454 N   0  0  0  0  0  0  0  0  0  0  0  0
  131.4915  137.1893  158.8816 H   0  0  0  0  0  0  0  0  0  0  0  0
  129.8936  137.2297  159.2811 H   0  0  0  0  0  0  0  0  0  0  0  0
  130.9877  135.9142  160.3929 C   0  0  0  0  0  0  0  0  0  0  0  0
  130.7286  134.7473  159.4750 C   0  0  0  0  0  0  0  0  0  0  0  0
  131.6505  134.1044  158.7268 C   0  0  0  0  0  0  0  0  0  0  0  0
  131.0242  133.1199  158.0463 N   0  0  0  0  0  0  0  0  0  0  0  0
  131.4433  132.4984  157.4307 H   0  0  0  0  0  0  0  0  0  0  0  0
  129.6650  133.1517  158.3831 N   0  0  0  0  0  0  0  0  0  0  0  0
  129.4800  134.1320  159.2454 C   0  0  0  0  0  0  0  0  0  0  0  0
  128.1937  134.5176  159.8615 C   0  0  0  0  0  0  0  0  0  0  0  0
  126.9940  133.9174  159.6414 C   0  0  0  0  0  0  0  0  0  0  0  0
  126.0456  134.6007  160.4271 C   0  0  0  0  0  0  0  0  0  0  0  0
  126.7110  135.5821  161.0870 C   0  0  0  0  0  0  0  0  0  0  0  0
  126.1468  136.4920  161.9719 N   0  0  0  0  0  0  0  0  0  0  0  0
  126.9134  137.0124  163.0294 C   0  0  0  0  0  0  0  0  0  0  0  0
  127.9209  136.3903  163.6709 C   0  0  0  0  0  0  0  0  0  0  0  0
  128.4311  137.2155  164.6454 N   0  0  0  0  0  0  0  0  0  0  0  0
  129.1646  136.9901  165.2388 H   0  0  0  0  0  0  0  0  0  0  0  0
  127.7423  138.4074  164.6566 C   0  0  0  0  0  0  0  0  0  0  0  0
  127.8437  139.5627  165.4259 C   0  0  0  0  0  0  0  0  0  0  0  0
  126.9885  140.6169  165.1929 C   0  0  0  0  0  0  0  0  0  0  0  0
  126.0243  140.5397  164.1970 C   0  0  0  0  0  0  0  0  0  0  0  0
  125.9077  139.4152  163.4297 C   0  0  0  0  0  0  0  0  0  0  0  0
  126.7640  138.3348  163.6486 C   0  0  0  0  0  0  0  0  0  0  0  0
  128.0094  135.5222  160.7437 O   0  0  0  0  0  0  0  0  0  0  0  0
  133.6247  138.2361  160.1051 C   0  0  0  0  0  0  0  0  0  0  0  0
  134.9347  138.5625  160.8256 C   0  0  0  0  0  0  0  0  0  0  0  0
  135.0546  137.6488  162.0519 C   0  0  0  0  0  0  0  0  0  0  0  0
  133.9671  138.0398  163.0549 C   0  0  0  0  0  0  0  0  0  0  0  0
  131.7476  138.1217  162.9806 H   0  0  0  0  0  0  0  0  0  0  0  0
  130.9698  139.2377  159.9853 H   0  0  0  0  0  0  0  0  0  0  0  0
  130.3732  138.2847  161.3652 H   0  0  0  0  0  0  0  0  0  0  0  0
  130.2757  135.8924  161.2180 H   0  0  0  0  0  0  0  0  0  0  0  0
  132.0021  135.8486  160.7864 H   0  0  0  0  0  0  0  0  0  0  0  0
  132.7042  134.3364  158.6806 H   0  0  0  0  0  0  0  0  0  0  0  0
  126.8044  133.0781  158.9888 H   0  0  0  0  0  0  0  0  0  0  0  0
  124.9894  134.3843  160.4924 H   0  0  0  0  0  0  0  0  0  0  0  0
  125.2237  136.7685  161.8602 H   0  0  0  0  0  0  0  0  0  0  0  0
  128.2762  135.3942  163.4514 H   0  0  0  0  0  0  0  0  0  0  0  0
  128.5901  139.6323  166.2033 H   0  0  0  0  0  0  0  0  0  0  0  0
  127.0689  141.5128  165.7908 H   0  0  0  0  0  0  0  0  0  0  0  0
  125.3614  141.3752  164.0269 H   0  0  0  0  0  0  0  0  0  0  0  0
  125.1554  139.3622  162.6567 H   0  0  0  0  0  0  0  0  0  0  0  0
  133.7082  137.2595  159.6284 H   0  0  0  0  0  0  0  0  0  0  0  0
  133.4340  138.9939  159.3453 H   0  0  0  0  0  0  0  0  0  0  0  0
  135.7755  138.3871  160.1544 H   0  0  0  0  0  0  0  0  0  0  0  0
  134.9276  139.6048  161.1444 H   0  0  0  0  0  0  0  0  0  0  0  0
  134.9183  136.6104  161.7499 H   0  0  0  0  0  0  0  0  0  0  0  0
  136.0378  137.7724  162.5060 H   0  0  0  0  0  0  0  0  0  0  0  0
  133.9175  137.2901  163.8446 H   0  0  0  0  0  0  0  0  0  0  0  0
  134.2108  139.0076  163.4931 H   0  0  0  0  0  0  0  0  0  0  0  0
  1 33  1  0
  1  2  2  0
  1 34  1  0
  2  3  1  0
  2 30  1  0
  3  4  1  0
  3 35  1  0
  3 36  1  0
  4  5  1  0
  4  6  1  0
  4  7  1  0
  7  8  1  0
  7 37  1  0
  7 38  1  0
  8 13  1  0
  8  9  2  0
  9 10  1  0
  9 39  1  0
 10 11  1  0
 10 12  1  0
 12 13  2  0
 13 14  1  0
 14 29  1  0
 14 15  2  0
 15 16  1  0
 15 40  1  0
 16 17  2  0
 16 41  1  0
 17 18  1  0
 17 29  1  0
 18 19  1  0
 18 42  1  0
 19 28  1  0
 19 20  2  0
 20 21  1  0
 20 43  1  0
 21 22  1  0
 21 23  1  0
 23 28  2  0
 23 24  1  0
 24 25  2  0
 24 44  1  0
 25 26  1  0
 25 45  1  0
 26 27  2  0
 26 46  1  0
 27 28  1  0
 27 47  1  0
 30 31  1  0
 30 48  1  0
 30 49  1  0
 31 32  1  0
 31 50  1  0
 31 51  1  0
 32 33  1  0
 32 52  1  0
 32 53  1  0
 33 54  1  0
 33 55  1  0
M  CHG  1   4   1
M  END
>  <DOCK_score>  (1) 
-47.469784

>  <SMILES>  (1) 
C1=C(C[NH2+]Cc2c[nH]nc2-c2ccc(Nc3c[nH]c4ccccc34)o2)CCCC1

$$$$
