
     RDKit          2D

 30 32  0  0  0  0  0  0  0  0999 V2000
    3.0000    0.0000    0.0000 C   0  0  0  0  0  0  0  0  0  0  0  0
    1.5000    0.0000    0.0000 C   0  0  0  0  0  0  0  0  0  0  0  0
    0.7500   -1.2990    0.0000 C   0  0  0  0  0  0  0  0  0  0  0  0
   -0.7500   -1.2990    0.0000 C   0  0  0  0  0  0  0  0  0  0  0  0
   -1.5000    0.0000    0.0000 C   0  0  0  0  0  0  0  0  0  0  0  0
   -0.7500    1.2990    0.0000 C   0  0  0  0  0  0  0  0  0  0  0  0
    0.7500    1.2990    0.0000 C   0  0  0  0  0  0  0  0  0  0  0  0
    1.5000    2.5981    0.0000 C   0  0  0  0  0  0  0  0  0  0  0  0
    0.7500    3.8971    0.0000 C   0  0  0  0  0  0  0  0  0  0  0  0
    1.5000    5.1962    0.0000 C   0  0  0  0  0  0  0  0  0  0  0  0
    0.7500    6.4952    0.0000 Cl  0  0  0  0  0  0  0  0  0  0  0  0
    3.0000    2.5981    0.0000 N   0  0  0  0  0  0  0  0  0  0  0  0
    3.7500    3.8971    0.0000 C   0  0  0  0  0  0  0  0  0  0  0  0
    3.1399    5.2674    0.0000 C   0  0  0  0  0  0  0  0  0  0  0  0
    4.2546    6.2711    0.0000 N   0  0  0  0  0  0  0  0  0  0  0  0
    5.5537    5.5211    0.0000 N   0  0  0  0  0  0  0  0  0  0  0  0
    6.9240    6.1312    0.0000 C   0  0  0  0  0  0  0  0  0  0  0  0
    8.1375    5.2496    0.0000 C   0  0  0  0  0  0  0  0  0  0  0  0
    7.9807    3.7578    0.0000 N   0  0  0  0  0  0  0  0  0  0  0  0
    9.5078    5.8597    0.0000 C   0  0  0  0  0  0  0  0  0  0  0  0
    9.6646    7.3514    0.0000 O   0  0  0  0  0  0  0  0  0  0  0  0
   10.7213    4.9780    0.0000 N   0  0  0  0  0  0  0  0  0  0  0  0
   12.0917    5.5881    0.0000 C   0  0  0  0  0  0  0  0  0  0  0  0
   13.3052    4.7064    0.0000 C   0  0  0  0  0  0  0  0  0  0  0  0
   14.6755    5.3165    0.0000 C   0  0  0  0  0  0  0  0  0  0  0  0
   14.8323    6.8083    0.0000 C   0  0  0  0  0  0  0  0  0  0  0  0
   13.6188    7.6900    0.0000 C   0  0  0  0  0  0  0  0  0  0  0  0
   13.7756    9.1818    0.0000 O   0  0  0  0  0  0  0  0  0  0  0  0
   12.2484    7.0799    0.0000 C   0  0  0  0  0  0  0  0  0  0  0  0
    5.2418    4.0539    0.0000 C   0  0  0  0  0  0  0  0  0  0  0  0
  1  2  1  0
  2  3  2  0
  3  4  1  0
  4  5  2  0
  5  6  1  0
  6  7  2  0
  7  8  1  0
  8  9  1  0
  9 10  1  0
 10 11  1  0
  8 12  1  0
 12 13  1  0
 13 14  1  0
 14 15  2  0
 15 16  1  0
 16 17  1  0
 17 18  1  0
 18 19  1  0
 18 20  1  0
 20 21  2  0
 20 22  1  0
 22 23  1  0
 23 24  2  0
 24 25  1  0
 25 26  2  0
 26 27  1  0
 27 28  1  0
 27 29  2  0
 16 30  1  0
  7  2  1  0
 30 13  2  0
 29 23  1  0
M  END
$$$$
