Fc1ccc(Nc2ccc(-c3n[nH]cc3CNc3[nH]c4ccccc4[nH+]3)o2)cc1
     RDKit          3D

 47 51  0  0  0  0  0  0  0  0999 V2000
  137.0571  142.5736  161.4496 F   0  0  0  0  0  0  0  0  0  0  0  0
  136.1202  141.6962  161.0279 C   0  0  0  0  0  0  0  0  0  0  0  0
  135.1360  141.2631  161.9006 C   0  0  0  0  0  0  0  0  0  0  0  0
  134.1771  140.3667  161.4718 C   0  0  0  0  0  0  0  0  0  0  0  0
  134.2003  139.8993  160.1639 C   0  0  0  0  0  0  0  0  0  0  0  0
  133.2307  138.9913  159.7275 N   0  0  0  0  0  0  0  0  0  0  0  0
  131.9581  139.0112  160.2865 C   0  0  0  0  0  0  0  0  0  0  0  0
  131.3312  140.1031  160.7914 C   0  0  0  0  0  0  0  0  0  0  0  0
  130.0682  139.6778  161.2478 C   0  0  0  0  0  0  0  0  0  0  0  0
  129.9916  138.3423  161.0063 C   0  0  0  0  0  0  0  0  0  0  0  0
  128.8437  137.4693  161.3275 C   0  0  0  0  0  0  0  0  0  0  0  0
  127.7186  137.8461  161.9027 N   0  0  0  0  0  0  0  0  0  0  0  0
  126.8947  136.7200  162.0254 N   0  0  0  0  0  0  0  0  0  0  0  0
  126.0050  136.7055  162.4114 H   0  0  0  0  0  0  0  0  0  0  0  0
  127.5553  135.6570  161.5176 C   0  0  0  0  0  0  0  0  0  0  0  0
  128.7591  136.0831  161.0790 C   0  0  0  0  0  0  0  0  0  0  0  0
  129.8228  135.2299  160.4373 C   0  0  0  0  0  0  0  0  0  0  0  0
  129.6228  135.2095  158.9862 N   0  0  0  0  0  0  0  0  0  0  0  0
  130.0003  134.1077  158.2556 C   0  0  0  0  0  0  0  0  0  0  0  0
  130.5598  133.0115  158.7630 N   0  0  0  0  0  0  0  0  0  0  0  0
  130.7661  132.8615  159.6989 H   0  0  0  0  0  0  0  0  0  0  0  0
  130.7923  132.1301  157.7401 C   0  0  0  0  0  0  0  0  0  0  0  0
  131.3429  130.8535  157.6754 C   0  0  0  0  0  0  0  0  0  0  0  0
  131.4488  130.2139  156.4594 C   0  0  0  0  0  0  0  0  0  0  0  0
  131.0103  130.8336  155.2983 C   0  0  0  0  0  0  0  0  0  0  0  0
  130.4627  132.0973  155.3446 C   0  0  0  0  0  0  0  0  0  0  0  0
  130.3483  132.7575  156.5646 C   0  0  0  0  0  0  0  0  0  0  0  0
  129.8646  133.9840  156.9371 N   0  0  0  0  0  0  0  0  0  0  0  0
  129.4877  134.6499  156.3409 H   0  0  0  0  0  0  0  0  0  0  0  0
  131.1438  137.9505  160.4231 O   0  0  0  0  0  0  0  0  0  0  0  0
  135.1884  140.3350  159.2903 C   0  0  0  0  0  0  0  0  0  0  0  0
  136.1454  141.2316  159.7237 C   0  0  0  0  0  0  0  0  0  0  0  0
  135.1186  141.6268  162.9174 H   0  0  0  0  0  0  0  0  0  0  0  0
  133.4071  140.0327  162.1515 H   0  0  0  0  0  0  0  0  0  0  0  0
  133.4461  138.3476  159.0346 H   0  0  0  0  0  0  0  0  0  0  0  0
  131.7244  141.1082  160.8328 H   0  0  0  0  0  0  0  0  0  0  0  0
  129.3084  140.2937  161.7056 H   0  0  0  0  0  0  0  0  0  0  0  0
  127.1852  134.6435  161.4707 H   0  0  0  0  0  0  0  0  0  0  0  0
  130.8056  135.6437  160.6628 H   0  0  0  0  0  0  0  0  0  0  0  0
  129.7580  134.2141  160.8273 H   0  0  0  0  0  0  0  0  0  0  0  0
  129.2240  135.9734  158.5407 H   0  0  0  0  0  0  0  0  0  0  0  0
  131.6860  130.3653  158.5757 H   0  0  0  0  0  0  0  0  0  0  0  0
  131.8758  129.2232  156.4100 H   0  0  0  0  0  0  0  0  0  0  0  0
  131.0984  130.3218  154.3513 H   0  0  0  0  0  0  0  0  0  0  0  0
  130.1228  132.5739  154.4369 H   0  0  0  0  0  0  0  0  0  0  0  0
  135.2082  139.9733  158.2729 H   0  0  0  0  0  0  0  0  0  0  0  0
  136.9136  141.5710  159.0448 H   0  0  0  0  0  0  0  0  0  0  0  0
  1  2  1  0
  2 32  2  0
  2  3  1  0
  3  4  2  0
  3 33  1  0
  4  5  1  0
  4 34  1  0
  5  6  1  0
  5 31  2  0
  6  7  1  0
  6 35  1  0
  7 30  1  0
  7  8  2  0
  8  9  1  0
  8 36  1  0
  9 10  2  0
  9 37  1  0
 10 11  1  0
 10 30  1  0
 11 16  1  0
 11 12  2  0
 12 13  1  0
 13 14  1  0
 13 15  1  0
 15 16  2  0
 15 38  1  0
 16 17  1  0
 17 18  1  0
 17 39  1  0
 17 40  1  0
 18 19  1  0
 18 41  1  0
 19 28  1  0
 19 20  2  0
 20 21  1  0
 20 22  1  0
 22 27  2  0
 22 23  1  0
 23 24  2  0
 23 42  1  0
 24 25  1  0
 24 43  1  0
 25 26  2  0
 25 44  1  0
 26 27  1  0
 26 45  1  0
 27 28  1  0
 28 29  1  0
 31 32  1  0
 31 46  1  0
 32 47  1  0
M  CHG  1  20   1
M  END
>  <DOCK_score>  (1) 
-53.124466

>  <SMILES>  (1) 
Fc1ccc(Nc2ccc(-c3n[nH]cc3CNc3[nH]c4ccccc4[nH+]3)o2)cc1

$$$$
