Cc1ccc(-c2ccc(Nc3ccc(NC4=[NH+]CCN4)cc3)cc2)cc1
     RDKit          3D

 49 52  0  0  0  0  0  0  0  0999 V2000
  128.0537  139.1546  171.7815 C   0  0  0  0  0  0  0  0  0  0  0  0
  127.7449  138.7303  170.3688 C   0  0  0  0  0  0  0  0  0  0  0  0
  127.6618  139.6801  169.3666 C   0  0  0  0  0  0  0  0  0  0  0  0
  127.3793  139.2973  168.0711 C   0  0  0  0  0  0  0  0  0  0  0  0
  127.1782  137.9507  167.7735 C   0  0  0  0  0  0  0  0  0  0  0  0
  126.8738  137.5331  166.3829 C   0  0  0  0  0  0  0  0  0  0  0  0
  127.2701  136.2758  165.9292 C   0  0  0  0  0  0  0  0  0  0  0  0
  126.9858  135.8894  164.6369 C   0  0  0  0  0  0  0  0  0  0  0  0
  126.3044  136.7527  163.7862 C   0  0  0  0  0  0  0  0  0  0  0  0
  126.0175  136.3595  162.4780 N   0  0  0  0  0  0  0  0  0  0  0  0
  127.0583  136.0340  161.6011 C   0  0  0  0  0  0  0  0  0  0  0  0
  126.8534  135.0956  160.5976 C   0  0  0  0  0  0  0  0  0  0  0  0
  127.8790  134.7782  159.7297 C   0  0  0  0  0  0  0  0  0  0  0  0
  129.1185  135.3890  159.8664 C   0  0  0  0  0  0  0  0  0  0  0  0
  130.1610  135.0629  158.9882 N   0  0  0  0  0  0  0  0  0  0  0  0
  130.2257  133.8111  158.4372 C   0  0  0  0  0  0  0  0  0  0  0  0
  129.7705  132.7335  159.0556 N   0  0  0  0  0  0  0  0  0  0  0  0
  129.3584  132.7218  159.9335 H   0  0  0  0  0  0  0  0  0  0  0  0
  129.9850  131.5563  158.1994 C   0  0  0  0  0  0  0  0  0  0  0  0
  130.6689  132.1425  156.9477 C   0  0  0  0  0  0  0  0  0  0  0  0
  130.7533  133.5809  157.2457 N   0  0  0  0  0  0  0  0  0  0  0  0
  129.3251  136.3233  160.8728 C   0  0  0  0  0  0  0  0  0  0  0  0
  128.2983  136.6449  161.7377 C   0  0  0  0  0  0  0  0  0  0  0  0
  125.9083  138.0069  164.2368 C   0  0  0  0  0  0  0  0  0  0  0  0
  126.1906  138.3971  165.5284 C   0  0  0  0  0  0  0  0  0  0  0  0
  127.2586  136.9985  168.7879 C   0  0  0  0  0  0  0  0  0  0  0  0
  127.5463  137.3923  170.0790 C   0  0  0  0  0  0  0  0  0  0  0  0
  127.1236  139.3659  172.3088 H   0  0  0  0  0  0  0  0  0  0  0  0
  128.5875  138.3536  172.2929 H   0  0  0  0  0  0  0  0  0  0  0  0
  128.6734  140.0511  171.7643 H   0  0  0  0  0  0  0  0  0  0  0  0
  127.8177  140.7233  169.5985 H   0  0  0  0  0  0  0  0  0  0  0  0
  127.3145  140.0397  167.2894 H   0  0  0  0  0  0  0  0  0  0  0  0
  127.8033  135.6068  166.5883 H   0  0  0  0  0  0  0  0  0  0  0  0
  127.2930  134.9157  164.2849 H   0  0  0  0  0  0  0  0  0  0  0  0
  125.0968  136.3120  162.1767 H   0  0  0  0  0  0  0  0  0  0  0  0
  125.8907  134.6172  160.4942 H   0  0  0  0  0  0  0  0  0  0  0  0
  127.7186  134.0514  158.9471 H   0  0  0  0  0  0  0  0  0  0  0  0
  130.8366  135.7241  158.7708 H   0  0  0  0  0  0  0  0  0  0  0  0
  129.0352  131.0911  157.9355 H   0  0  0  0  0  0  0  0  0  0  0  0
  130.6401  130.8397  158.6948 H   0  0  0  0  0  0  0  0  0  0  0  0
  130.0597  131.9693  156.0606 H   0  0  0  0  0  0  0  0  0  0  0  0
  131.6645  131.7185  156.8172 H   0  0  0  0  0  0  0  0  0  0  0  0
  131.1353  134.2540  156.6611 H   0  0  0  0  0  0  0  0  0  0  0  0
  130.2892  136.7984  160.9786 H   0  0  0  0  0  0  0  0  0  0  0  0
  128.4590  137.3717  162.5201 H   0  0  0  0  0  0  0  0  0  0  0  0
  125.3788  138.6758  163.5746 H   0  0  0  0  0  0  0  0  0  0  0  0
  125.8831  139.3717  165.8779 H   0  0  0  0  0  0  0  0  0  0  0  0
  127.0996  135.9541  168.5636 H   0  0  0  0  0  0  0  0  0  0  0  0
  127.6124  136.6549  170.8653 H   0  0  0  0  0  0  0  0  0  0  0  0
  1  2  1  0
  1 28  1  0
  1 29  1  0
  1 30  1  0
  2 27  2  0
  2  3  1  0
  3  4  2  0
  3 31  1  0
  4  5  1  0
  4 32  1  0
  5  6  1  0
  5 26  2  0
  6 25  1  0
  6  7  2  0
  7  8  1  0
  7 33  1  0
  8  9  2  0
  8 34  1  0
  9 10  1  0
  9 24  1  0
 10 11  1  0
 10 35  1  0
 11 23  1  0
 11 12  2  0
 12 13  1  0
 12 36  1  0
 13 14  2  0
 13 37  1  0
 14 15  1  0
 14 22  1  0
 15 16  1  0
 15 38  1  0
 16 21  2  0
 16 17  1  0
 17 18  1  0
 17 19  1  0
 19 20  1  0
 19 39  1  0
 19 40  1  0
 20 21  1  0
 20 41  1  0
 20 42  1  0
 21 43  1  0
 22 23  2  0
 22 44  1  0
 23 45  1  0
 24 25  2  0
 24 46  1  0
 25 47  1  0
 26 27  1  0
 26 48  1  0
 27 49  1  0
M  CHG  1  21   1
M  END
>  <DOCK_score>  (1) 
-42.749142

>  <SMILES>  (1) 
Cc1ccc(-c2ccc(Nc3ccc(NC4=[NH+]CCN4)cc3)cc2)cc1

$$$$
