NC(=O)[C@@H](c1ccccc1)[NH+]1CCN(c2cccc(NC3CCc4cc(N)ccc4C3)c2N)CC1
     RDKit          3D

 70 74  0  0  1  0  0  0  0  0999 V2000
  129.2625  136.3228  157.4667 N   0  0  0  0  0  0  0  0  0  0  0  0
  128.7496  135.1865  157.9788 C   0  0  0  0  0  0  0  0  0  0  0  0
  127.5564  134.9781  157.9176 O   0  0  0  0  0  0  0  0  0  0  0  0
  129.6588  134.1748  158.6275 C   0  0  1  0  0  0  0  0  0  0  0  0
  129.1130  133.6426  159.4066 H   0  0  0  0  0  0  0  0  0  0  0  0
  130.1388  133.1926  157.5902 C   0  0  0  0  0  0  0  0  0  0  0  0
  130.4335  131.8920  157.9540 C   0  0  0  0  0  0  0  0  0  0  0  0
  130.8737  130.9911  157.0023 C   0  0  0  0  0  0  0  0  0  0  0  0
  131.0183  131.3905  155.6869 C   0  0  0  0  0  0  0  0  0  0  0  0
  130.7226  132.6909  155.3230 C   0  0  0  0  0  0  0  0  0  0  0  0
  130.2837  133.5921  156.2748 C   0  0  0  0  0  0  0  0  0  0  0  0
  130.8129  134.8631  159.2212 N   0  0  0  0  0  0  0  0  0  0  0  0
  131.3180  135.3557  158.4998 H   0  0  0  0  0  0  0  0  0  0  0  0
  131.6994  133.8766  159.8523 C   0  0  0  0  0  0  0  0  0  0  0  0
  132.9113  134.5913  160.4545 C   0  0  0  0  0  0  0  0  0  0  0  0
  132.4538  135.5717  161.4492 N   0  0  0  0  0  0  0  0  0  0  0  0
  133.5400  136.2089  162.0621 C   0  0  0  0  0  0  0  0  0  0  0  0
  134.4406  136.9379  161.2972 C   0  0  0  0  0  0  0  0  0  0  0  0
  135.5127  137.5677  161.9009 C   0  0  0  0  0  0  0  0  0  0  0  0
  135.6942  137.4756  163.2684 C   0  0  0  0  0  0  0  0  0  0  0  0
  134.7997  136.7494  164.0425 C   0  0  0  0  0  0  0  0  0  0  0  0
  134.9847  136.6568  165.4275 N   0  0  0  0  0  0  0  0  0  0  0  0
  136.3363  136.7039  165.9907 C   0  0  1  0  0  0  0  0  0  0  0  0
  136.7072  138.1541  166.3228 C   0  0  0  0  0  0  0  0  0  0  0  0
  138.1919  138.2023  166.6773 C   0  0  0  0  0  0  0  0  0  0  0  0
  138.5215  137.1674  167.7213 C   0  0  0  0  0  0  0  0  0  0  0  0
  139.7095  137.3152  168.4235 C   0  0  0  0  0  0  0  0  0  0  0  0
  140.0726  136.3937  169.3931 C   0  0  0  0  0  0  0  0  0  0  0  0
  141.2694  136.5489  170.0964 N   0  0  0  0  0  0  0  0  0  0  0  0
  139.2391  135.3151  169.6615 C   0  0  0  0  0  0  0  0  0  0  0  0
  138.0596  135.1736  168.9635 C   0  0  0  0  0  0  0  0  0  0  0  0
  137.6951  136.0995  167.9931 C   0  0  0  0  0  0  0  0  0  0  0  0
  136.3850  135.8869  167.2802 C   0  0  0  0  0  0  0  0  0  0  0  0
  133.7150  136.1174  163.4400 C   0  0  0  0  0  0  0  0  0  0  0  0
  132.8042  135.3859  164.2189 N   0  0  0  0  0  0  0  0  0  0  0  0
  131.5453  136.5515  160.8371 C   0  0  0  0  0  0  0  0  0  0  0  0
  130.3447  135.8207  160.2318 C   0  0  0  0  0  0  0  0  0  0  0  0
  130.2167  136.4893  157.5156 H   0  0  0  0  0  0  0  0  0  0  0  0
  128.6772  136.9740  157.0492 H   0  0  0  0  0  0  0  0  0  0  0  0
  130.3202  131.5798  158.9815 H   0  0  0  0  0  0  0  0  0  0  0  0
  131.1043  129.9749  157.2866 H   0  0  0  0  0  0  0  0  0  0  0  0
  131.3664  130.6879  154.9443 H   0  0  0  0  0  0  0  0  0  0  0  0
  130.8358  133.0032  154.2953 H   0  0  0  0  0  0  0  0  0  0  0  0
  130.0532  134.6083  155.9906 H   0  0  0  0  0  0  0  0  0  0  0  0
  131.1580  133.3531  160.6402 H   0  0  0  0  0  0  0  0  0  0  0  0
  132.0358  133.1590  159.1040 H   0  0  0  0  0  0  0  0  0  0  0  0
  133.4607  135.1037  159.6647 H   0  0  0  0  0  0  0  0  0  0  0  0
  133.5619  133.8611  160.9359 H   0  0  0  0  0  0  0  0  0  0  0  0
  134.3034  137.0126  160.2286 H   0  0  0  0  0  0  0  0  0  0  0  0
  136.2112  138.1334  161.3023 H   0  0  0  0  0  0  0  0  0  0  0  0
  136.5334  137.9699  163.7353 H   0  0  0  0  0  0  0  0  0  0  0  0
  134.2180  136.5616  166.0139 H   0  0  0  0  0  0  0  0  0  0  0  0
  137.0480  136.2984  165.2715 H   0  0  0  0  0  0  0  0  0  0  0  0
  136.5153  138.7893  165.4581 H   0  0  0  0  0  0  0  0  0  0  0  0
  136.1154  138.4994  167.1705 H   0  0  0  0  0  0  0  0  0  0  0  0
  138.7818  138.0094  165.7813 H   0  0  0  0  0  0  0  0  0  0  0  0
  138.4375  139.1920  167.0623 H   0  0  0  0  0  0  0  0  0  0  0  0
  140.3561  138.1541  168.2124 H   0  0  0  0  0  0  0  0  0  0  0  0
  141.8490  137.3031  169.9069 H   0  0  0  0  0  0  0  0  0  0  0  0
  141.5208  135.9024  170.7744 H   0  0  0  0  0  0  0  0  0  0  0  0
  139.5145  134.5906  170.4137 H   0  0  0  0  0  0  0  0  0  0  0  0
  137.4121  134.3348  169.1721 H   0  0  0  0  0  0  0  0  0  0  0  0
  135.5672  136.1947  167.9317 H   0  0  0  0  0  0  0  0  0  0  0  0
  136.2739  134.8295  167.0401 H   0  0  0  0  0  0  0  0  0  0  0  0
  132.0513  134.9433  163.7970 H   0  0  0  0  0  0  0  0  0  0  0  0
  132.9280  135.3232  165.1790 H   0  0  0  0  0  0  0  0  0  0  0  0
  132.0723  137.0962  160.0537 H   0  0  0  0  0  0  0  0  0  0  0  0
  131.1993  137.2518  161.5973 H   0  0  0  0  0  0  0  0  0  0  0  0
  129.6766  136.5443  159.7648 H   0  0  0  0  0  0  0  0  0  0  0  0
  129.8102  135.2872  161.0177 H   0  0  0  0  0  0  0  0  0  0  0  0
  1  2  1  0
  1 38  1  0
  1 39  1  0
  2  3  2  0
  2  4  1  0
  4  5  1  1
  4  6  1  0
  4 12  1  0
  6 11  1  0
  6  7  2  0
  7  8  1  0
  7 40  1  0
  8  9  2  0
  8 41  1  0
  9 10  1  0
  9 42  1  0
 10 11  2  0
 10 43  1  0
 11 44  1  0
 12 13  1  0
 12 37  1  0
 12 14  1  0
 14 15  1  0
 14 45  1  0
 14 46  1  0
 15 16  1  0
 15 47  1  0
 15 48  1  0
 16 17  1  0
 16 36  1  0
 17 34  1  0
 17 18  2  0
 18 19  1  0
 18 49  1  0
 19 20  2  0
 19 50  1  0
 20 21  1  0
 20 51  1  0
 21 22  1  0
 21 34  2  0
 22 23  1  0
 22 52  1  0
 23 33  1  0
 23 24  1  0
 23 53  1  6
 24 25  1  0
 24 54  1  0
 24 55  1  0
 25 26  1  0
 25 56  1  0
 25 57  1  0
 26 32  2  0
 26 27  1  0
 27 28  2  0
 27 58  1  0
 28 29  1  0
 28 30  1  0
 29 59  1  0
 29 60  1  0
 30 31  2  0
 30 61  1  0
 31 32  1  0
 31 62  1  0
 32 33  1  0
 33 63  1  0
 33 64  1  0
 34 35  1  0
 35 65  1  0
 35 66  1  0
 36 37  1  0
 36 67  1  0
 36 68  1  0
 37 69  1  0
 37 70  1  0
M  CHG  1  12   1
M  END
>  <DOCK_score>  (1) 
-57.63237

>  <SMILES>  (1) 
NC(=O)[C@@H](c1ccccc1)[NH+]1CCN(c2cccc(NC3CCc4cc(N)ccc4C3)c2N)CC1

$$$$
