O=C1CC[C@H]([NH+]=C(NC2CC=CC2)N[C@H]2CCc3ccccc3C2)CN1
     RDKit          3D

 55 58  0  0  1  0  0  0  0  0999 V2000
  123.8733  133.6558  161.2494 O   0  0  0  0  0  0  0  0  0  0  0  0
  125.0014  134.0610  161.0649 C   0  0  0  0  0  0  0  0  0  0  0  0
  125.9367  133.2136  160.2510 C   0  0  0  0  0  0  0  0  0  0  0  0
  127.3825  133.6536  160.4933 C   0  0  0  0  0  0  0  0  0  0  0  0
  127.4566  135.1782  160.3462 C   0  0  2  0  0  0  0  0  0  0  0  0
  127.0183  135.4778  159.3942 H   0  0  0  0  0  0  0  0  0  0  0  0
  128.8555  135.6099  160.4008 N   0  0  0  0  0  0  0  0  0  0  0  0
  129.1468  136.2242  161.0928 H   0  0  0  0  0  0  0  0  0  0  0  0
  129.7086  135.1685  159.5199 C   0  0  0  0  0  0  0  0  0  0  0  0
  129.2958  134.2978  158.5392 N   0  0  0  0  0  0  0  0  0  0  0  0
  130.2334  133.3153  157.9899 C   0  0  0  0  0  0  0  0  0  0  0  0
  129.5092  132.3197  157.0544 C   0  0  0  0  0  0  0  0  0  0  0  0
  130.1794  130.9907  157.3150 C   0  0  0  0  0  0  0  0  0  0  0  0
  130.8606  131.0181  158.4282 C   0  0  0  0  0  0  0  0  0  0  0  0
  130.7581  132.3700  159.0954 C   0  0  0  0  0  0  0  0  0  0  0  0
  131.0214  135.5738  159.5712 N   0  0  0  0  0  0  0  0  0  0  0  0
  131.6327  135.9157  160.8578 C   0  0  1  0  0  0  0  0  0  0  0  0
  131.1687  135.3312  161.6521 H   0  0  0  0  0  0  0  0  0  0  0  0
  133.1364  135.6201  160.8100 C   0  0  0  0  0  0  0  0  0  0  0  0
  133.7001  135.7560  162.2229 C   0  0  0  0  0  0  0  0  0  0  0  0
  133.2914  137.0720  162.8315 C   0  0  0  0  0  0  0  0  0  0  0  0
  134.0013  137.5208  163.9382 C   0  0  0  0  0  0  0  0  0  0  0  0
  133.6688  138.7122  164.5482 C   0  0  0  0  0  0  0  0  0  0  0  0
  132.6206  139.4671  164.0549 C   0  0  0  0  0  0  0  0  0  0  0  0
  131.9163  139.0246  162.9546 C   0  0  0  0  0  0  0  0  0  0  0  0
  132.2508  137.8257  162.3378 C   0  0  0  0  0  0  0  0  0  0  0  0
  131.4435  137.4053  161.1375 C   0  0  0  0  0  0  0  0  0  0  0  0
  126.6765  135.8194  161.4946 C   0  0  0  0  0  0  0  0  0  0  0  0
  125.3451  135.2350  161.5957 N   0  0  0  0  0  0  0  0  0  0  0  0
  125.8229  132.1687  160.5400 H   0  0  0  0  0  0  0  0  0  0  0  0
  125.6973  133.3234  159.1932 H   0  0  0  0  0  0  0  0  0  0  0  0
  128.0374  133.1820  159.7606 H   0  0  0  0  0  0  0  0  0  0  0  0
  127.6894  133.3667  161.4990 H   0  0  0  0  0  0  0  0  0  0  0  0
  128.3836  134.3339  158.2113 H   0  0  0  0  0  0  0  0  0  0  0  0
  131.0569  133.8094  157.4742 H   0  0  0  0  0  0  0  0  0  0  0  0
  128.4496  132.2659  157.3042 H   0  0  0  0  0  0  0  0  0  0  0  0
  129.6402  132.6131  156.0129 H   0  0  0  0  0  0  0  0  0  0  0  0
  130.1051  130.1311  156.6656 H   0  0  0  0  0  0  0  0  0  0  0  0
  131.4237  130.1843  158.8206 H   0  0  0  0  0  0  0  0  0  0  0  0
  131.7383  132.6979  159.4416 H   0  0  0  0  0  0  0  0  0  0  0  0
  130.0553  132.3323  159.9278 H   0  0  0  0  0  0  0  0  0  0  0  0
  131.5428  135.6333  158.7553 H   0  0  0  0  0  0  0  0  0  0  0  0
  133.2996  134.6058  160.4456 H   0  0  0  0  0  0  0  0  0  0  0  0
  133.6296  136.3317  160.1477 H   0  0  0  0  0  0  0  0  0  0  0  0
  133.3218  134.9415  162.8408 H   0  0  0  0  0  0  0  0  0  0  0  0
  134.7880  135.7003  162.1828 H   0  0  0  0  0  0  0  0  0  0  0  0
  134.8203  136.9319  164.3238 H   0  0  0  0  0  0  0  0  0  0  0  0
  134.2251  139.0542  165.4085 H   0  0  0  0  0  0  0  0  0  0  0  0
  132.3545  140.4002  164.5292 H   0  0  0  0  0  0  0  0  0  0  0  0
  131.0979  139.6148  162.5698 H   0  0  0  0  0  0  0  0  0  0  0  0
  131.7667  137.9782  160.2684 H   0  0  0  0  0  0  0  0  0  0  0  0
  130.3885  137.6043  161.3263 H   0  0  0  0  0  0  0  0  0  0  0  0
  127.2131  135.6572  162.4294 H   0  0  0  0  0  0  0  0  0  0  0  0
  126.5870  136.8908  161.3154 H   0  0  0  0  0  0  0  0  0  0  0  0
  124.6666  135.7310  162.0799 H   0  0  0  0  0  0  0  0  0  0  0  0
  1  2  2  0
  2 29  1  0
  2  3  1  0
  3  4  1  0
  3 30  1  0
  3 31  1  0
  4  5  1  0
  4 32  1  0
  4 33  1  0
  5  6  1  6
  5  7  1  0
  5 28  1  0
  7  8  1  0
  9  7  2  0
  9 10  1  0
  9 16  1  0
 10 11  1  0
 10 34  1  0
 11 15  1  0
 11 12  1  0
 11 35  1  0
 12 13  1  0
 12 36  1  0
 12 37  1  0
 13 14  2  0
 13 38  1  0
 14 15  1  0
 14 39  1  0
 15 40  1  0
 15 41  1  0
 16 17  1  0
 16 42  1  0
 17 18  1  1
 17 27  1  0
 17 19  1  0
 19 20  1  0
 19 43  1  0
 19 44  1  0
 20 21  1  0
 20 45  1  0
 20 46  1  0
 21 26  2  0
 21 22  1  0
 22 23  2  0
 22 47  1  0
 23 24  1  0
 23 48  1  0
 24 25  2  0
 24 49  1  0
 25 26  1  0
 25 50  1  0
 26 27  1  0
 27 51  1  0
 27 52  1  0
 28 29  1  0
 28 53  1  0
 28 54  1  0
 29 55  1  0
M  CHG  1   7   1
M  END
>  <DOCK_score>  (1) 
-41.654648

>  <SMILES>  (1) 
O=C1CC[C@H]([NH+]=C(NC2CC=CC2)N[C@H]2CCc3ccccc3C2)CN1

$$$$
