CC=CSc1ccc(-c2c[nH]c(NC3c4cc(O)ccc4-c4ccc(O)cc43)[nH+]2)cc1
     RDKit          3D

 53 57  0  0  1  0  0  0  0  0999 V2000
  128.5798  127.4587  150.5498 C   0  0  0  0  0  0  0  0  0  0  0  0
  129.9270  128.0360  150.8997 C   0  0  0  0  0  0  0  0  0  0  0  0
  130.0562  128.8178  151.9569 C   0  0  0  0  0  0  0  0  0  0  0  0
  131.6312  129.4929  152.3661 S   0  0  0  0  0  0  0  0  0  0  0  0
  131.2934  130.4381  153.8142 C   0  0  0  0  0  0  0  0  0  0  0  0
  131.3959  129.8470  155.0687 C   0  0  0  0  0  0  0  0  0  0  0  0
  131.1319  130.5847  156.2029 C   0  0  0  0  0  0  0  0  0  0  0  0
  130.7623  131.9245  156.0915 C   0  0  0  0  0  0  0  0  0  0  0  0
  130.4779  132.7203  157.3106 C   0  0  0  0  0  0  0  0  0  0  0  0
  129.9836  132.2413  158.4790 C   0  0  0  0  0  0  0  0  0  0  0  0
  129.8806  133.3107  159.3366 N   0  0  0  0  0  0  0  0  0  0  0  0
  129.5607  133.2845  160.2520 H   0  0  0  0  0  0  0  0  0  0  0  0
  130.3078  134.4133  158.6632 C   0  0  0  0  0  0  0  0  0  0  0  0
  130.3606  135.6993  159.1730 N   0  0  0  0  0  0  0  0  0  0  0  0
  129.4024  136.1209  160.1980 C   0  0  0  0  0  0  0  0  0  0  0  0
  129.7894  135.5486  161.5398 C   0  0  0  0  0  0  0  0  0  0  0  0
  130.9138  135.7036  162.3211 C   0  0  0  0  0  0  0  0  0  0  0  0
  131.0105  135.0413  163.5376 C   0  0  0  0  0  0  0  0  0  0  0  0
  132.1214  135.1899  164.3060 O   0  0  0  0  0  0  0  0  0  0  0  0
  129.9692  134.2317  163.9714 C   0  0  0  0  0  0  0  0  0  0  0  0
  128.8406  134.0787  163.1955 C   0  0  0  0  0  0  0  0  0  0  0  0
  128.7411  134.7384  161.9683 C   0  0  0  0  0  0  0  0  0  0  0  0
  127.6601  134.7500  160.9519 C   0  0  0  0  0  0  0  0  0  0  0  0
  126.4216  134.1049  160.9207 C   0  0  0  0  0  0  0  0  0  0  0  0
  125.5799  134.2793  159.8437 C   0  0  0  0  0  0  0  0  0  0  0  0
  125.9582  135.0961  158.7865 C   0  0  0  0  0  0  0  0  0  0  0  0
  125.1250  135.2657  157.7267 O   0  0  0  0  0  0  0  0  0  0  0  0
  127.1882  135.7398  158.8130 C   0  0  0  0  0  0  0  0  0  0  0  0
  128.0329  135.5677  159.8880 C   0  0  0  0  0  0  0  0  0  0  0  0
  130.6668  134.0560  157.4542 N   0  0  0  0  0  0  0  0  0  0  0  0
  131.0120  134.6517  156.7710 H   0  0  0  0  0  0  0  0  0  0  0  0
  130.6550  132.5137  154.8325 C   0  0  0  0  0  0  0  0  0  0  0  0
  130.9257  131.7742  153.7010 C   0  0  0  0  0  0  0  0  0  0  0  0
  128.2214  126.8451  151.3764 H   0  0  0  0  0  0  0  0  0  0  0  0
  127.8739  128.2687  150.3661 H   0  0  0  0  0  0  0  0  0  0  0  0
  128.6691  126.8445  149.6537 H   0  0  0  0  0  0  0  0  0  0  0  0
  130.7869  127.8106  150.2863 H   0  0  0  0  0  0  0  0  0  0  0  0
  129.1964  129.0432  152.5702 H   0  0  0  0  0  0  0  0  0  0  0  0
  131.6818  128.8090  155.1544 H   0  0  0  0  0  0  0  0  0  0  0  0
  131.2118  130.1252  157.1771 H   0  0  0  0  0  0  0  0  0  0  0  0
  129.7243  131.2154  158.6955 H   0  0  0  0  0  0  0  0  0  0  0  0
  131.0318  136.3214  158.8516 H   0  0  0  0  0  0  0  0  0  0  0  0
  129.3645  137.2089  160.2508 H   0  0  0  0  0  0  0  0  0  0  0  0
  131.7217  136.3369  161.9854 H   0  0  0  0  0  0  0  0  0  0  0  0
  132.7890  135.7753  163.9231 H   0  0  0  0  0  0  0  0  0  0  0  0
  130.0439  133.7207  164.9199 H   0  0  0  0  0  0  0  0  0  0  0  0
  128.0328  133.4481  163.5364 H   0  0  0  0  0  0  0  0  0  0  0  0
  126.1237  133.4688  161.7412 H   0  0  0  0  0  0  0  0  0  0  0  0
  124.6228  133.7795  159.8219 H   0  0  0  0  0  0  0  0  0  0  0  0
  125.4746  135.8512  157.0412 H   0  0  0  0  0  0  0  0  0  0  0  0
  127.4829  136.3749  157.9908 H   0  0  0  0  0  0  0  0  0  0  0  0
  130.3641  133.5500  154.7438 H   0  0  0  0  0  0  0  0  0  0  0  0
  130.8476  132.2316  152.7258 H   0  0  0  0  0  0  0  0  0  0  0  0
  1  2  1  0
  1 34  1  0
  1 35  1  0
  1 36  1  0
  2  3  2  0
  2 37  1  0
  3  4  1  0
  3 38  1  0
  4  5  1  0
  5 33  2  0
  5  6  1  0
  6  7  2  0
  6 39  1  0
  7  8  1  0
  7 40  1  0
  8  9  1  0
  8 32  2  0
  9 30  1  0
  9 10  2  0
 10 11  1  0
 10 41  1  0
 11 12  1  0
 11 13  1  0
 13 14  1  0
 13 30  2  0
 14 15  1  0
 14 42  1  0
 15 29  1  0
 15 16  1  0
 15 43  1  0
 16 22  1  0
 16 17  2  0
 17 18  1  0
 17 44  1  0
 18 19  1  0
 18 20  2  0
 19 45  1  0
 20 21  1  0
 20 46  1  0
 21 22  2  0
 21 47  1  0
 22 23  1  0
 23 29  2  0
 23 24  1  0
 24 25  2  0
 24 48  1  0
 25 26  1  0
 25 49  1  0
 26 27  1  0
 26 28  2  0
 27 50  1  0
 28 29  1  0
 28 51  1  0
 30 31  1  0
 32 33  1  0
 32 52  1  0
 33 53  1  0
M  CHG  1  30   1
M  END
>  <DOCK_score>  (1) 
-56.329777

>  <SMILES>  (1) 
CC=CSc1ccc(-c2c[nH]c(NC3c4cc(O)ccc4-c4ccc(O)cc43)[nH+]2)cc1

$$$$
