O=C(Nc1ccc(F)c(-c2ccccc2)c1)c1c[nH]nc1C1=CC[NH2+]C1
     RDKit          3D

 44 47  0  0  0  0  0  0  0  0999 V2000
  128.7674  134.1282  157.9989 O   0  0  0  0  0  0  0  0  0  0  0  0
  128.2658  133.6823  159.0134 C   0  0  0  0  0  0  0  0  0  0  0  0
  128.5536  132.4274  159.4119 N   0  0  0  0  0  0  0  0  0  0  0  0
  129.4251  131.6352  158.6554 C   0  0  0  0  0  0  0  0  0  0  0  0
  130.2017  130.6662  159.2792 C   0  0  0  0  0  0  0  0  0  0  0  0
  131.0634  129.8820  158.5368 C   0  0  0  0  0  0  0  0  0  0  0  0
  131.1574  130.0565  157.1681 C   0  0  0  0  0  0  0  0  0  0  0  0
  132.0006  129.2875  156.4451 F   0  0  0  0  0  0  0  0  0  0  0  0
  130.3806  131.0271  156.5342 C   0  0  0  0  0  0  0  0  0  0  0  0
  130.4791  131.2169  155.0660 C   0  0  0  0  0  0  0  0  0  0  0  0
  130.2470  132.4716  154.5060 C   0  0  0  0  0  0  0  0  0  0  0  0
  130.3452  132.6436  153.1400 C   0  0  0  0  0  0  0  0  0  0  0  0
  130.6627  131.5712  152.3264 C   0  0  0  0  0  0  0  0  0  0  0  0
  130.8888  130.3221  152.8765 C   0  0  0  0  0  0  0  0  0  0  0  0
  130.7985  130.1399  154.2416 C   0  0  0  0  0  0  0  0  0  0  0  0
  129.5089  131.8136  157.2831 C   0  0  0  0  0  0  0  0  0  0  0  0
  127.3443  134.5133  159.8059 C   0  0  0  0  0  0  0  0  0  0  0  0
  126.0275  134.2319  160.1056 C   0  0  0  0  0  0  0  0  0  0  0  0
  125.5474  135.2426  160.8461 N   0  0  0  0  0  0  0  0  0  0  0  0
  124.6438  135.2997  161.1939 H   0  0  0  0  0  0  0  0  0  0  0  0
  126.5466  136.2004  161.0407 N   0  0  0  0  0  0  0  0  0  0  0  0
  127.6463  135.8020  160.4391 C   0  0  0  0  0  0  0  0  0  0  0  0
  128.9376  136.5178  160.4036 C   0  0  0  0  0  0  0  0  0  0  0  0
  129.3954  137.3251  161.3518 C   0  0  0  0  0  0  0  0  0  0  0  0
  130.7495  137.8559  160.9409 C   0  0  0  0  0  0  0  0  0  0  0  0
  131.2120  136.9617  159.8534 N   0  0  0  0  0  0  0  0  0  0  0  0
  131.7648  136.2041  160.2255 H   0  0  0  0  0  0  0  0  0  0  0  0
  131.7336  137.4804  159.1628 H   0  0  0  0  0  0  0  0  0  0  0  0
  129.9448  136.4522  159.2786 C   0  0  0  0  0  0  0  0  0  0  0  0
  128.1536  132.0716  160.2209 H   0  0  0  0  0  0  0  0  0  0  0  0
  130.1317  130.5262  160.3479 H   0  0  0  0  0  0  0  0  0  0  0  0
  131.6647  129.1303  159.0265 H   0  0  0  0  0  0  0  0  0  0  0  0
  129.9948  133.3087  155.1400 H   0  0  0  0  0  0  0  0  0  0  0  0
  130.1693  133.6164  152.7053 H   0  0  0  0  0  0  0  0  0  0  0  0
  130.7344  131.7094  151.2577 H   0  0  0  0  0  0  0  0  0  0  0  0
  131.1363  129.4881  152.2366 H   0  0  0  0  0  0  0  0  0  0  0  0
  130.9754  129.1644  154.6701 H   0  0  0  0  0  0  0  0  0  0  0  0
  128.9028  132.5636  156.7968 H   0  0  0  0  0  0  0  0  0  0  0  0
  125.4798  133.3533  159.7981 H   0  0  0  0  0  0  0  0  0  0  0  0
  128.8829  137.5634  162.2721 H   0  0  0  0  0  0  0  0  0  0  0  0
  131.4433  137.8184  161.7807 H   0  0  0  0  0  0  0  0  0  0  0  0
  130.6561  138.8783  160.5745 H   0  0  0  0  0  0  0  0  0  0  0  0
  130.0696  135.4225  158.9435 H   0  0  0  0  0  0  0  0  0  0  0  0
  129.6257  137.0836  158.4494 H   0  0  0  0  0  0  0  0  0  0  0  0
  1  2  2  0
  2  3  1  0
  2 17  1  0
  3  4  1  0
  3 30  1  0
  4 16  1  0
  4  5  2  0
  5  6  1  0
  5 31  1  0
  6  7  2  0
  6 32  1  0
  7  8  1  0
  7  9  1  0
  9 10  1  0
  9 16  2  0
 10 15  1  0
 10 11  2  0
 11 12  1  0
 11 33  1  0
 12 13  2  0
 12 34  1  0
 13 14  1  0
 13 35  1  0
 14 15  2  0
 14 36  1  0
 15 37  1  0
 16 38  1  0
 17 22  1  0
 17 18  2  0
 18 19  1  0
 18 39  1  0
 19 20  1  0
 19 21  1  0
 21 22  2  0
 22 23  1  0
 23 29  1  0
 23 24  2  0
 24 25  1  0
 24 40  1  0
 25 26  1  0
 25 41  1  0
 25 42  1  0
 26 27  1  0
 26 28  1  0
 26 29  1  0
 29 43  1  0
 29 44  1  0
M  CHG  1  26   1
M  END
>  <DOCK_score>  (1) 
-41.745499

>  <SMILES>  (1) 
O=C(Nc1ccc(F)c(-c2ccccc2)c1)c1c[nH]nc1C1=CC[NH2+]C1

$$$$
