OCC(CC[C@@H]1CC2C=CC1CC2)Nc1[nH]cc(-c2ccc(F)cc2)[nH+]1
     RDKit          3D

 53 56  0  0  1  0  0  0  0  0999 V2000
  131.5944  133.2389  159.0668 O   0  0  0  0  0  0  0  0  0  0  0  0
  131.0997  131.9965  158.5631 C   0  0  0  0  0  0  0  0  0  0  0  0
  130.0162  132.2657  157.5168 C   0  0  1  0  0  0  0  0  0  0  0  0
  128.8694  133.0482  158.1598 C   0  0  0  0  0  0  0  0  0  0  0  0
  127.9705  132.0871  158.9401 C   0  0  0  0  0  0  0  0  0  0  0  0
  126.8238  132.8696  159.5831 C   0  0  2  0  0  0  0  0  0  0  0  0
  126.4658  133.6275  158.8863 H   0  0  0  0  0  0  0  0  0  0  0  0
  127.3229  133.5476  160.8610 C   0  0  0  0  0  0  0  0  0  0  0  0
  126.5116  133.0408  162.0614 C   0  0  2  0  0  0  0  0  0  0  0  0
  126.6244  131.5238  162.0881 C   0  0  0  0  0  0  0  0  0  0  0  0
  126.1903  130.9341  160.9767 C   0  0  0  0  0  0  0  0  0  0  0  0
  125.6776  131.9081  159.9261 C   0  0  1  0  0  0  0  0  0  0  0  0
  124.5384  132.7208  160.5546 C   0  0  0  0  0  0  0  0  0  0  0  0
  125.0379  133.3988  161.8324 C   0  0  0  0  0  0  0  0  0  0  0  0
  130.5840  133.0477  156.4158 N   0  0  0  0  0  0  0  0  0  0  0  0
  130.5762  132.5379  155.1286 C   0  0  0  0  0  0  0  0  0  0  0  0
  131.0651  133.1655  154.0246 N   0  0  0  0  0  0  0  0  0  0  0  0
  131.4780  134.0428  153.9978 H   0  0  0  0  0  0  0  0  0  0  0  0
  130.8682  132.3257  152.9548 C   0  0  0  0  0  0  0  0  0  0  0  0
  130.2578  131.2140  153.4346 C   0  0  0  0  0  0  0  0  0  0  0  0
  129.8448  130.0324  152.6385 C   0  0  0  0  0  0  0  0  0  0  0  0
  128.5715  129.9803  152.0739 C   0  0  0  0  0  0  0  0  0  0  0  0
  128.1934  128.8814  151.3302 C   0  0  0  0  0  0  0  0  0  0  0  0
  129.0739  127.8259  151.1531 C   0  0  0  0  0  0  0  0  0  0  0  0
  128.6969  126.7495  150.4289 F   0  0  0  0  0  0  0  0  0  0  0  0
  130.3381  127.8711  151.7169 C   0  0  0  0  0  0  0  0  0  0  0  0
  130.7266  128.9684  152.4578 C   0  0  0  0  0  0  0  0  0  0  0  0
  130.0918  131.3735  154.7717 N   0  0  0  0  0  0  0  0  0  0  0  0
  129.6800  130.7288  155.3680 H   0  0  0  0  0  0  0  0  0  0  0  0
  131.9856  133.8093  158.3909 H   0  0  0  0  0  0  0  0  0  0  0  0
  130.6771  131.4147  159.3821 H   0  0  0  0  0  0  0  0  0  0  0  0
  131.9166  131.4390  158.1049 H   0  0  0  0  0  0  0  0  0  0  0  0
  129.6388  131.3181  157.1325 H   0  0  0  0  0  0  0  0  0  0  0  0
  128.2857  133.5416  157.3827 H   0  0  0  0  0  0  0  0  0  0  0  0
  129.2766  133.7972  158.8389 H   0  0  0  0  0  0  0  0  0  0  0  0
  128.5543  131.5936  159.7172 H   0  0  0  0  0  0  0  0  0  0  0  0
  127.5634  131.3381  158.2609 H   0  0  0  0  0  0  0  0  0  0  0  0
  128.3767  133.3118  161.0094 H   0  0  0  0  0  0  0  0  0  0  0  0
  127.2015  134.6270  160.7705 H   0  0  0  0  0  0  0  0  0  0  0  0
  126.8769  133.4822  162.9887 H   0  0  0  0  0  0  0  0  0  0  0  0
  127.0199  130.9762  162.9308 H   0  0  0  0  0  0  0  0  0  0  0  0
  126.2009  129.8637  160.8337 H   0  0  0  0  0  0  0  0  0  0  0  0
  125.3326  131.3845  159.0346 H   0  0  0  0  0  0  0  0  0  0  0  0
  124.2015  133.4799  159.8486 H   0  0  0  0  0  0  0  0  0  0  0  0
  123.7089  132.0562  160.7966 H   0  0  0  0  0  0  0  0  0  0  0  0
  124.9380  134.4796  161.7328 H   0  0  0  0  0  0  0  0  0  0  0  0
  124.4452  133.0562  162.6807 H   0  0  0  0  0  0  0  0  0  0  0  0
  130.9654  133.9226  156.5886 H   0  0  0  0  0  0  0  0  0  0  0  0
  131.1429  132.5166  151.9280 H   0  0  0  0  0  0  0  0  0  0  0  0
  127.8835  130.8007  152.2148 H   0  0  0  0  0  0  0  0  0  0  0  0
  127.2083  128.8417  150.8891 H   0  0  0  0  0  0  0  0  0  0  0  0
  131.0210  127.0464  151.5759 H   0  0  0  0  0  0  0  0  0  0  0  0
  131.7126  129.0026  152.8972 H   0  0  0  0  0  0  0  0  0  0  0  0
  1  2  1  0
  1 30  1  0
  2  3  1  0
  2 31  1  0
  2 32  1  0
  3  4  1  0
  3 15  1  0
  3 33  1  6
  4  5  1  0
  4 34  1  0
  4 35  1  0
  5  6  1  0
  5 36  1  0
  5 37  1  0
  6  7  1  6
  6 12  1  0
  6  8  1  0
  8  9  1  0
  8 38  1  0
  8 39  1  0
  9 14  1  0
  9 10  1  0
  9 40  1  1
 10 11  2  0
 10 41  1  0
 11 12  1  0
 11 42  1  0
 12 13  1  0
 12 43  1  6
 13 14  1  0
 13 44  1  0
 13 45  1  0
 14 46  1  0
 14 47  1  0
 15 48  1  0
 16 15  1  0
 16 28  2  0
 16 17  1  0
 17 18  1  0
 17 19  1  0
 19 20  2  0
 19 49  1  0
 20 21  1  0
 20 28  1  0
 21 27  1  0
 21 22  2  0
 22 23  1  0
 22 50  1  0
 23 24  2  0
 23 51  1  0
 24 25  1  0
 24 26  1  0
 26 27  2  0
 26 52  1  0
 27 53  1  0
 28 29  1  0
M  CHG  1  28   1
M  END
>  <DOCK_score>  (1) 
-55.944134

>  <SMILES>  (1) 
OCC(CC[C@@H]1CC2C=CC1CC2)Nc1[nH]cc(-c2ccc(F)cc2)[nH+]1

$$$$
