O=C1CC[C@H](NC(NC2CC2)=[NH+]C2C[C@H](O)C2n2cccn2)CN1
     RDKit          3D

 49 52  0  0  1  0  0  0  0  0999 V2000
  123.6570  133.6659  161.4458 O   0  0  0  0  0  0  0  0  0  0  0  0
  124.8221  133.9116  161.2154 C   0  0  0  0  0  0  0  0  0  0  0  0
  125.6968  132.7996  160.7120 C   0  0  0  0  0  0  0  0  0  0  0  0
  127.1701  133.1708  160.8985 C   0  0  0  0  0  0  0  0  0  0  0  0
  127.3876  134.5842  160.3452 C   0  0  2  0  0  0  0  0  0  0  0  0
  127.0047  134.6410  159.3262 H   0  0  0  0  0  0  0  0  0  0  0  0
  128.8183  134.8996  160.3509 N   0  0  0  0  0  0  0  0  0  0  0  0
  129.5924  134.6014  159.2545 C   0  0  0  0  0  0  0  0  0  0  0  0
  129.0238  134.0074  158.1526 N   0  0  0  0  0  0  0  0  0  0  0  0
  129.8226  133.1178  157.3061 C   0  0  0  0  0  0  0  0  0  0  0  0
  129.2465  131.7356  156.9926 C   0  0  0  0  0  0  0  0  0  0  0  0
  130.4239  131.8720  157.9601 C   0  0  0  0  0  0  0  0  0  0  0  0
  130.8651  134.8822  159.2596 N   0  0  0  0  0  0  0  0  0  0  0  0
  131.4114  134.6718  158.4860 H   0  0  0  0  0  0  0  0  0  0  0  0
  131.4710  135.5151  160.4336 C   0  0  1  0  0  0  0  0  0  0  0  0
  131.8382  134.5217  161.5485 C   0  0  0  0  0  0  0  0  0  0  0  0
  133.2040  134.3725  160.8578 C   0  0  2  0  0  0  0  0  0  0  0  0
  133.2285  133.5893  160.1002 H   0  0  0  0  0  0  0  0  0  0  0  0
  134.3015  134.2967  161.7700 O   0  0  0  0  0  0  0  0  0  0  0  0
  132.9782  135.7803  160.2817 C   0  0  2  0  0  0  0  0  0  0  0  0
  133.4747  136.8558  161.1435 N   0  0  0  0  0  0  0  0  0  0  0  0
  134.5110  137.6763  160.8718 C   0  0  0  0  0  0  0  0  0  0  0  0
  134.6477  138.5274  161.9149 C   0  0  0  0  0  0  0  0  0  0  0  0
  133.6611  138.2164  162.8562 C   0  0  0  0  0  0  0  0  0  0  0  0
  132.9539  137.2181  162.3925 N   0  0  0  0  0  0  0  0  0  0  0  0
  126.6396  135.5786  161.2341 C   0  0  0  0  0  0  0  0  0  0  0  0
  125.2580  135.1547  161.4231 N   0  0  0  0  0  0  0  0  0  0  0  0
  125.4969  132.6324  159.6536 H   0  0  0  0  0  0  0  0  0  0  0  0
  125.4799  131.8879  161.2686 H   0  0  0  0  0  0  0  0  0  0  0  0
  127.7981  132.4638  160.3565 H   0  0  0  0  0  0  0  0  0  0  0  0
  127.4227  133.1489  161.9586 H   0  0  0  0  0  0  0  0  0  0  0  0
  129.2195  135.3186  161.1283 H   0  0  0  0  0  0  0  0  0  0  0  0
  128.0937  134.1773  157.9358 H   0  0  0  0  0  0  0  0  0  0  0  0
  130.4061  133.6087  156.5273 H   0  0  0  0  0  0  0  0  0  0  0  0
  128.2731  131.4881  157.4162 H   0  0  0  0  0  0  0  0  0  0  0  0
  129.4509  131.3168  156.0072 H   0  0  0  0  0  0  0  0  0  0  0  0
  131.4028  131.5432  157.6111 H   0  0  0  0  0  0  0  0  0  0  0  0
  130.2255  131.7147  159.0202 H   0  0  0  0  0  0  0  0  0  0  0  0
  130.9091  136.3798  160.7868 H   0  0  0  0  0  0  0  0  0  0  0  0
  131.8961  134.9769  162.5373 H   0  0  0  0  0  0  0  0  0  0  0  0
  131.2404  133.6103  161.5355 H   0  0  0  0  0  0  0  0  0  0  0  0
  135.1523  134.5448  161.3832 H   0  0  0  0  0  0  0  0  0  0  0  0
  133.3008  135.8848  159.2457 H   0  0  0  0  0  0  0  0  0  0  0  0
  135.1222  137.6570  159.9814 H   0  0  0  0  0  0  0  0  0  0  0  0
  135.3878  139.3089  162.0046 H   0  0  0  0  0  0  0  0  0  0  0  0
  133.5069  138.7168  163.8007 H   0  0  0  0  0  0  0  0  0  0  0  0
  127.1342  135.6379  162.2036 H   0  0  0  0  0  0  0  0  0  0  0  0
  126.6536  136.5624  160.7651 H   0  0  0  0  0  0  0  0  0  0  0  0
  124.6152  135.8183  161.7187 H   0  0  0  0  0  0  0  0  0  0  0  0
  1  2  2  0
  2 27  1  0
  2  3  1  0
  3  4  1  0
  3 28  1  0
  3 29  1  0
  4  5  1  0
  4 30  1  0
  4 31  1  0
  5  6  1  6
  5  7  1  0
  5 26  1  0
  7 32  1  0
  8  7  1  0
  8  9  1  0
  8 13  2  0
  9 10  1  0
  9 33  1  0
 10 12  1  0
 10 11  1  0
 10 34  1  0
 11 12  1  0
 11 35  1  0
 11 36  1  0
 12 37  1  0
 12 38  1  0
 13 14  1  0
 13 15  1  0
 15 20  1  0
 15 16  1  0
 15 39  1  1
 16 17  1  0
 16 40  1  0
 16 41  1  0
 17 18  1  6
 17 19  1  0
 17 20  1  0
 19 42  1  0
 20 21  1  0
 20 43  1  6
 21 25  1  0
 21 22  1  0
 22 23  2  0
 22 44  1  0
 23 24  1  0
 23 45  1  0
 24 25  2  0
 24 46  1  0
 26 27  1  0
 26 47  1  0
 26 48  1  0
 27 49  1  0
M  CHG  1  13   1
M  END
>  <DOCK_score>  (1) 
-46.57029

>  <SMILES>  (1) 
O=C1CC[C@H](NC(NC2CC2)=[NH+]C2C[C@H](O)C2n2cccn2)CN1

$$$$
