Nc1ccc(-c2c[nH]c(N[C@H](c3ccccc3)c3ccc(O[C@@H]4CC[C@H]4Br)cc3)[nH+]2)cc1
     RDKit          3D

 58 62  0  0  1  0  0  0  0  0999 V2000
  131.6392  129.7388  151.5442 N   0  0  0  0  0  0  0  0  0  0  0  0
  131.2574  130.3789  152.7258 C   0  0  0  0  0  0  0  0  0  0  0  0
  130.4449  131.5057  152.6729 C   0  0  0  0  0  0  0  0  0  0  0  0
  130.0674  132.1400  153.8375 C   0  0  0  0  0  0  0  0  0  0  0  0
  130.5014  131.6506  155.0686 C   0  0  0  0  0  0  0  0  0  0  0  0
  130.0967  132.3311  156.3231 C   0  0  0  0  0  0  0  0  0  0  0  0
  129.3927  131.7763  157.3406 C   0  0  0  0  0  0  0  0  0  0  0  0
  129.2441  132.7499  158.2999 N   0  0  0  0  0  0  0  0  0  0  0  0
  128.7866  132.6540  159.1498 H   0  0  0  0  0  0  0  0  0  0  0  0
  129.8543  133.8737  157.8352 C   0  0  0  0  0  0  0  0  0  0  0  0
  129.9282  135.0853  158.5011 N   0  0  0  0  0  0  0  0  0  0  0  0
  128.8597  135.4813  159.4218 C   0  0  2  0  0  0  0  0  0  0  0  0
  128.7783  134.7456  160.2219 H   0  0  0  0  0  0  0  0  0  0  0  0
  127.5538  135.5561  158.6735 C   0  0  0  0  0  0  0  0  0  0  0  0
  126.3659  135.2882  159.3277 C   0  0  0  0  0  0  0  0  0  0  0  0
  125.1675  135.3615  158.6425 C   0  0  0  0  0  0  0  0  0  0  0  0
  125.1580  135.6926  157.3005 C   0  0  0  0  0  0  0  0  0  0  0  0
  126.3463  135.9553  156.6449 C   0  0  0  0  0  0  0  0  0  0  0  0
  127.5442  135.8871  157.3314 C   0  0  0  0  0  0  0  0  0  0  0  0
  129.1790  136.8310  160.0112 C   0  0  0  0  0  0  0  0  0  0  0  0
  129.9151  137.7461  159.2814 C   0  0  0  0  0  0  0  0  0  0  0  0
  130.2094  138.9839  159.8197 C   0  0  0  0  0  0  0  0  0  0  0  0
  129.7704  139.3064  161.0956 C   0  0  0  0  0  0  0  0  0  0  0  0
  130.0630  140.5215  161.6292 O   0  0  0  0  0  0  0  0  0  0  0  0
  130.8218  140.5325  162.8401 C   0  0  2  0  0  0  0  0  0  0  0  0
  130.3245  140.0083  163.6561 H   0  0  0  0  0  0  0  0  0  0  0  0
  131.3406  141.9270  163.2292 C   0  0  0  0  0  0  0  0  0  0  0  0
  132.6484  141.2365  163.6508 C   0  0  0  0  0  0  0  0  0  0  0  0
  132.2917  140.1226  162.6497 C   0  0  1  0  0  0  0  0  0  0  0  0
  132.6685  140.3032  161.6430 H   0  0  0  0  0  0  0  0  0  0  0  0
  132.6958  138.3135  163.3048 Br  0  0  0  0  0  0  0  0  0  0  0  0
  129.0271  138.3885  161.8235 C   0  0  0  0  0  0  0  0  0  0  0  0
  128.7357  137.1520  161.2809 C   0  0  0  0  0  0  0  0  0  0  0  0
  130.3655  133.6186  156.6554 N   0  0  0  0  0  0  0  0  0  0  0  0
  130.8576  134.2498  156.1073 H   0  0  0  0  0  0  0  0  0  0  0  0
  131.3210  130.5240  155.1188 C   0  0  0  0  0  0  0  0  0  0  0  0
  131.6912  129.8896  153.9518 C   0  0  0  0  0  0  0  0  0  0  0  0
  131.3369  130.0800  150.6880 H   0  0  0  0  0  0  0  0  0  0  0  0
  132.2065  128.9528  151.5802 H   0  0  0  0  0  0  0  0  0  0  0  0
  130.1089  131.8845  151.7188 H   0  0  0  0  0  0  0  0  0  0  0  0
  129.4358  133.0150  153.7961 H   0  0  0  0  0  0  0  0  0  0  0  0
  129.0235  130.7626  157.3898 H   0  0  0  0  0  0  0  0  0  0  0  0
  130.6873  135.6719  158.3581 H   0  0  0  0  0  0  0  0  0  0  0  0
  126.3738  135.0253  160.3752 H   0  0  0  0  0  0  0  0  0  0  0  0
  124.2393  135.1558  159.1546 H   0  0  0  0  0  0  0  0  0  0  0  0
  124.2221  135.7455  156.7640 H   0  0  0  0  0  0  0  0  0  0  0  0
  126.3389  136.2135  155.5962 H   0  0  0  0  0  0  0  0  0  0  0  0
  128.4726  136.0921  156.8192 H   0  0  0  0  0  0  0  0  0  0  0  0
  130.2599  137.4932  158.2897 H   0  0  0  0  0  0  0  0  0  0  0  0
  130.7847  139.6981  159.2495 H   0  0  0  0  0  0  0  0  0  0  0  0
  131.4569  142.6019  162.3813 H   0  0  0  0  0  0  0  0  0  0  0  0
  130.7980  142.3786  164.0597 H   0  0  0  0  0  0  0  0  0  0  0  0
  133.5441  141.7962  163.3817 H   0  0  0  0  0  0  0  0  0  0  0  0
  132.6522  140.9053  164.6893 H   0  0  0  0  0  0  0  0  0  0  0  0
  128.6805  138.6389  162.8153 H   0  0  0  0  0  0  0  0  0  0  0  0
  128.1610  136.4354  161.8489 H   0  0  0  0  0  0  0  0  0  0  0  0
  131.6623  130.1460  156.0711 H   0  0  0  0  0  0  0  0  0  0  0  0
  132.3225  129.0141  153.9904 H   0  0  0  0  0  0  0  0  0  0  0  0
  1  2  1  0
  1 38  1  0
  1 39  1  0
  2 37  2  0
  2  3  1  0
  3  4  2  0
  3 40  1  0
  4  5  1  0
  4 41  1  0
  5  6  1  0
  5 36  2  0
  6 34  1  0
  6  7  2  0
  7  8  1  0
  7 42  1  0
  8  9  1  0
  8 10  1  0
 10 11  1  0
 10 34  2  0
 11 12  1  0
 11 43  1  0
 12 13  1  1
 12 14  1  0
 12 20  1  0
 14 19  1  0
 14 15  2  0
 15 16  1  0
 15 44  1  0
 16 17  2  0
 16 45  1  0
 17 18  1  0
 17 46  1  0
 18 19  2  0
 18 47  1  0
 19 48  1  0
 20 33  1  0
 20 21  2  0
 21 22  1  0
 21 49  1  0
 22 23  2  0
 22 50  1  0
 23 24  1  0
 23 32  1  0
 24 25  1  0
 25 26  1  1
 25 29  1  0
 25 27  1  0
 27 28  1  0
 27 51  1  0
 27 52  1  0
 28 29  1  0
 28 53  1  0
 28 54  1  0
 29 30  1  6
 29 31  1  0
 32 33  2  0
 32 55  1  0
 33 56  1  0
 34 35  1  0
 36 37  1  0
 36 57  1  0
 37 58  1  0
M  CHG  1  34   1
M  END
>  <DOCK_score>  (1) 
-64.465248

>  <SMILES>  (1) 
Nc1ccc(-c2c[nH]c(N[C@H](c3ccccc3)c3ccc(O[C@@H]4CC[C@H]4Br)cc3)[nH+]2)cc1

$$$$
