O[C@H](c1ccccc1)[C@H](Nc1[nH]cc(-c2ccc(-c3cccnc3)cc2)[nH+]1)c1ccccc1
     RDKit          3D

 58 62  0  0  1  0  0  0  0  0999 V2000
  130.5423  138.8857  160.9481 O   0  0  0  0  0  0  0  0  0  0  0  0
  131.3582  138.0105  161.7294 C   0  0  2  0  0  0  0  0  0  0  0  0
  131.2304  138.2420  162.7868 H   0  0  0  0  0  0  0  0  0  0  0  0
  132.8038  138.1957  161.3459 C   0  0  0  0  0  0  0  0  0  0  0  0
  133.7992  137.9929  162.2835 C   0  0  0  0  0  0  0  0  0  0  0  0
  135.1254  138.1585  161.9307 C   0  0  0  0  0  0  0  0  0  0  0  0
  135.4561  138.5356  160.6428 C   0  0  0  0  0  0  0  0  0  0  0  0
  134.4603  138.7440  159.7063 C   0  0  0  0  0  0  0  0  0  0  0  0
  133.1344  138.5740  160.0580 C   0  0  0  0  0  0  0  0  0  0  0  0
  130.9438  136.5606  161.4708 C   0  0  2  0  0  0  0  0  0  0  0  0
  131.5661  135.8930  162.0668 H   0  0  0  0  0  0  0  0  0  0  0  0
  131.1157  136.2496  160.0496 N   0  0  0  0  0  0  0  0  0  0  0  0
  130.8027  134.9876  159.5745 C   0  0  0  0  0  0  0  0  0  0  0  0
  130.3332  133.9526  160.3233 N   0  0  0  0  0  0  0  0  0  0  0  0
  130.1599  133.9663  161.2776 H   0  0  0  0  0  0  0  0  0  0  0  0
  130.1504  132.8851  159.4787 C   0  0  0  0  0  0  0  0  0  0  0  0
  130.5131  133.2980  158.2382 C   0  0  0  0  0  0  0  0  0  0  0  0
  130.4832  132.4796  157.0027 C   0  0  0  0  0  0  0  0  0  0  0  0
  129.6957  132.8766  155.9218 C   0  0  0  0  0  0  0  0  0  0  0  0
  129.6677  132.1158  154.7741 C   0  0  0  0  0  0  0  0  0  0  0  0
  130.4265  130.9484  154.6924 C   0  0  0  0  0  0  0  0  0  0  0  0
  130.3958  130.1300  153.4561 C   0  0  0  0  0  0  0  0  0  0  0  0
  129.2520  130.0967  152.6537 C   0  0  0  0  0  0  0  0  0  0  0  0
  129.2743  129.3172  151.5103 C   0  0  0  0  0  0  0  0  0  0  0  0
  130.4173  128.6020  151.2013 C   0  0  0  0  0  0  0  0  0  0  0  0
  131.4820  128.6526  151.9780 N   0  0  0  0  0  0  0  0  0  0  0  0
  131.5078  129.3801  153.0760 C   0  0  0  0  0  0  0  0  0  0  0  0
  131.2093  130.5483  155.7750 C   0  0  0  0  0  0  0  0  0  0  0  0
  131.2420  131.3120  156.9208 C   0  0  0  0  0  0  0  0  0  0  0  0
  130.9136  134.5914  158.3301 N   0  0  0  0  0  0  0  0  0  0  0  0
  131.2294  135.1362  157.5923 H   0  0  0  0  0  0  0  0  0  0  0  0
  129.4982  136.3754  161.8544 C   0  0  0  0  0  0  0  0  0  0  0  0
  129.1682  135.9916  163.1407 C   0  0  0  0  0  0  0  0  0  0  0  0
  127.8420  135.8259  163.4939 C   0  0  0  0  0  0  0  0  0  0  0  0
  126.8464  136.0352  162.5580 C   0  0  0  0  0  0  0  0  0  0  0  0
  127.1766  136.4139  161.2703 C   0  0  0  0  0  0  0  0  0  0  0  0
  128.5025  136.5838  160.9184 C   0  0  0  0  0  0  0  0  0  0  0  0
  130.6060  138.7363  159.9949 H   0  0  0  0  0  0  0  0  0  0  0  0
  133.5407  137.7016  163.2910 H   0  0  0  0  0  0  0  0  0  0  0  0
  135.9032  137.9957  162.6620 H   0  0  0  0  0  0  0  0  0  0  0  0
  136.4918  138.6682  160.3673 H   0  0  0  0  0  0  0  0  0  0  0  0
  134.7185  139.0388  158.6999 H   0  0  0  0  0  0  0  0  0  0  0  0
  132.3565  138.7365  159.3266 H   0  0  0  0  0  0  0  0  0  0  0  0
  131.4487  136.9279  159.4414 H   0  0  0  0  0  0  0  0  0  0  0  0
  129.7868  131.9049  159.7498 H   0  0  0  0  0  0  0  0  0  0  0  0
  129.1079  133.7804  155.9850 H   0  0  0  0  0  0  0  0  0  0  0  0
  129.0578  132.4229  153.9373 H   0  0  0  0  0  0  0  0  0  0  0  0
  128.3728  130.6650  152.9191 H   0  0  0  0  0  0  0  0  0  0  0  0
  128.4088  129.2674  150.8665 H   0  0  0  0  0  0  0  0  0  0  0  0
  130.4385  127.9930  150.3096 H   0  0  0  0  0  0  0  0  0  0  0  0
  132.3984  129.3961  153.6868 H   0  0  0  0  0  0  0  0  0  0  0  0
  131.7934  129.6420  155.7133 H   0  0  0  0  0  0  0  0  0  0  0  0
  131.8517  131.0044  157.7574 H   0  0  0  0  0  0  0  0  0  0  0  0
  129.9463  135.8245  163.8708 H   0  0  0  0  0  0  0  0  0  0  0  0
  127.5841  135.5303  164.5001 H   0  0  0  0  0  0  0  0  0  0  0  0
  125.8103  135.9032  162.8332 H   0  0  0  0  0  0  0  0  0  0  0  0
  126.3986  136.5774  160.5392 H   0  0  0  0  0  0  0  0  0  0  0  0
  128.7606  136.8797  159.9122 H   0  0  0  0  0  0  0  0  0  0  0  0
  1  2  1  0
  1 38  1  0
  2  3  1  1
  2  4  1  0
  2 10  1  0
  4  9  1  0
  4  5  2  0
  5  6  1  0
  5 39  1  0
  6  7  2  0
  6 40  1  0
  7  8  1  0
  7 41  1  0
  8  9  2  0
  8 42  1  0
  9 43  1  0
 10 11  1  1
 10 12  1  0
 10 32  1  0
 12 44  1  0
 13 12  1  0
 13 30  2  0
 13 14  1  0
 14 15  1  0
 14 16  1  0
 16 17  2  0
 16 45  1  0
 17 18  1  0
 17 30  1  0
 18 29  1  0
 18 19  2  0
 19 20  1  0
 19 46  1  0
 20 21  2  0
 20 47  1  0
 21 22  1  0
 21 28  1  0
 22 27  1  0
 22 23  2  0
 23 24  1  0
 23 48  1  0
 24 25  2  0
 24 49  1  0
 25 26  1  0
 25 50  1  0
 26 27  2  0
 27 51  1  0
 28 29  2  0
 28 52  1  0
 29 53  1  0
 30 31  1  0
 32 37  1  0
 32 33  2  0
 33 34  1  0
 33 54  1  0
 34 35  2  0
 34 55  1  0
 35 36  1  0
 35 56  1  0
 36 37  2  0
 36 57  1  0
 37 58  1  0
M  CHG  1  30   1
M  END
>  <DOCK_score>  (1) 
-58.253109

>  <SMILES>  (1) 
O[C@H](c1ccccc1)[C@H](Nc1[nH]cc(-c2ccc(-c3cccnc3)cc2)[nH+]1)c1ccccc1

$$$$
