C=CC1CC(Nc2ccc(-c3n[nH]cc3C[NH2+]CC3CC(C4CC4)C3)o2)C1
     RDKit          3D

 58 62  0  0  1  0  0  0  0  0999 V2000
  127.2702  137.8069  167.0307 C   0  0  0  0  0  0  0  0  0  0  0  0
  127.1262  138.4315  165.8882 C   0  0  0  0  0  0  0  0  0  0  0  0
  126.8084  137.6519  164.6382 C   0  0  1  0  0  0  0  0  0  0  0  0
  126.4908  138.5392  163.4230 C   0  0  0  0  0  0  0  0  0  0  0  0
  127.2970  137.5372  162.5798 C   0  0  2  0  0  0  0  0  0  0  0  0
  126.4911  136.4347  162.0494 N   0  0  0  0  0  0  0  0  0  0  0  0
  127.0870  135.4516  161.2678 C   0  0  0  0  0  0  0  0  0  0  0  0
  126.4550  134.3841  160.7195 C   0  0  0  0  0  0  0  0  0  0  0  0
  127.4272  133.6496  160.0123 C   0  0  0  0  0  0  0  0  0  0  0  0
  128.6064  134.3077  160.1653 C   0  0  0  0  0  0  0  0  0  0  0  0
  129.9063  133.8988  159.5943 C   0  0  0  0  0  0  0  0  0  0  0  0
  130.1262  132.8338  158.8488 N   0  0  0  0  0  0  0  0  0  0  0  0
  131.4864  132.8101  158.5153 N   0  0  0  0  0  0  0  0  0  0  0  0
  131.9277  132.1368  157.9739 H   0  0  0  0  0  0  0  0  0  0  0  0
  132.0775  133.8862  159.0782 C   0  0  0  0  0  0  0  0  0  0  0  0
  131.1328  134.5784  159.7502 C   0  0  0  0  0  0  0  0  0  0  0  0
  131.3500  135.8506  160.5283 C   0  0  0  0  0  0  0  0  0  0  0  0
  131.1542  137.0059  159.6423 N   0  0  0  0  0  0  0  0  0  0  0  0
  131.8140  136.9609  158.8802 H   0  0  0  0  0  0  0  0  0  0  0  0
  130.2147  136.9926  159.2749 H   0  0  0  0  0  0  0  0  0  0  0  0
  131.3660  138.2461  160.4007 C   0  0  0  0  0  0  0  0  0  0  0  0
  132.7908  138.2663  160.9577 C   0  0  2  0  0  0  0  0  0  0  0  0
  133.3067  139.6791  161.2786 C   0  0  0  0  0  0  0  0  0  0  0  0
  134.6609  139.2295  160.7049 C   0  0  2  0  0  0  0  0  0  0  0  0
  135.3569  140.2995  159.8614 C   0  0  0  0  0  0  0  0  0  0  0  0
  136.8868  140.3117  159.8581 C   0  0  0  0  0  0  0  0  0  0  0  0
  136.1147  141.4019  160.6039 C   0  0  0  0  0  0  0  0  0  0  0  0
  133.8777  138.2012  159.8719 C   0  0  0  0  0  0  0  0  0  0  0  0
  128.3874  135.3960  160.9332 O   0  0  0  0  0  0  0  0  0  0  0  0
  128.0546  137.1813  163.8698 C   0  0  0  0  0  0  0  0  0  0  0  0
  127.4982  138.3654  167.9265 H   0  0  0  0  0  0  0  0  0  0  0  0
  127.1611  136.7334  167.0768 H   0  0  0  0  0  0  0  0  0  0  0  0
  127.2355  139.5049  165.8421 H   0  0  0  0  0  0  0  0  0  0  0  0
  126.0753  136.8630  164.8064 H   0  0  0  0  0  0  0  0  0  0  0  0
  126.9434  139.5294  163.4752 H   0  0  0  0  0  0  0  0  0  0  0  0
  125.4310  138.5699  163.1698 H   0  0  0  0  0  0  0  0  0  0  0  0
  127.9216  138.0083  161.8208 H   0  0  0  0  0  0  0  0  0  0  0  0
  125.5418  136.3906  162.2437 H   0  0  0  0  0  0  0  0  0  0  0  0
  125.4060  134.1428  160.8084 H   0  0  0  0  0  0  0  0  0  0  0  0
  127.2662  132.7384  159.4552 H   0  0  0  0  0  0  0  0  0  0  0  0
  133.1228  134.1474  159.0038 H   0  0  0  0  0  0  0  0  0  0  0  0
  130.6373  135.8993  161.3515 H   0  0  0  0  0  0  0  0  0  0  0  0
  132.3652  135.8650  160.9251 H   0  0  0  0  0  0  0  0  0  0  0  0
  131.2206  139.1033  159.7431 H   0  0  0  0  0  0  0  0  0  0  0  0
  130.6532  138.2947  161.2240 H   0  0  0  0  0  0  0  0  0  0  0  0
  132.9390  137.5516  161.7671 H   0  0  0  0  0  0  0  0  0  0  0  0
  132.8241  140.4631  160.6951 H   0  0  0  0  0  0  0  0  0  0  0  0
  133.3365  139.9012  162.3452 H   0  0  0  0  0  0  0  0  0  0  0  0
  135.3212  138.7791  161.4461 H   0  0  0  0  0  0  0  0  0  0  0  0
  134.8490  140.5728  158.9365 H   0  0  0  0  0  0  0  0  0  0  0  0
  137.3975  139.5575  160.4568 H   0  0  0  0  0  0  0  0  0  0  0  0
  137.3859  140.5932  158.9307 H   0  0  0  0  0  0  0  0  0  0  0  0
  136.1058  142.4006  160.1671 H   0  0  0  0  0  0  0  0  0  0  0  0
  136.1174  141.3650  161.6933 H   0  0  0  0  0  0  0  0  0  0  0  0
  134.3684  137.2304  159.8028 H   0  0  0  0  0  0  0  0  0  0  0  0
  133.5506  138.5800  158.9034 H   0  0  0  0  0  0  0  0  0  0  0  0
  128.2573  136.1157  163.9773 H   0  0  0  0  0  0  0  0  0  0  0  0
  128.9347  137.8004  164.0442 H   0  0  0  0  0  0  0  0  0  0  0  0
  1  2  2  0
  1 31  1  0
  1 32  1  0
  2  3  1  0
  2 33  1  0
  3 30  1  0
  3  4  1  0
  3 34  1  1
  4  5  1  0
  4 35  1  0
  4 36  1  0
  5  6  1  0
  5 30  1  0
  5 37  1  6
  6  7  1  0
  6 38  1  0
  7 29  1  0
  7  8  2  0
  8  9  1  0
  8 39  1  0
  9 10  2  0
  9 40  1  0
 10 11  1  0
 10 29  1  0
 11 16  1  0
 11 12  2  0
 12 13  1  0
 13 14  1  0
 13 15  1  0
 15 16  2  0
 15 41  1  0
 16 17  1  0
 17 18  1  0
 17 42  1  0
 17 43  1  0
 18 19  1  0
 18 20  1  0
 18 21  1  0
 21 22  1  0
 21 44  1  0
 21 45  1  0
 22 28  1  0
 22 23  1  0
 22 46  1  1
 23 24  1  0
 23 47  1  0
 23 48  1  0
 24 25  1  0
 24 28  1  0
 24 49  1  1
 25 27  1  0
 25 26  1  0
 25 50  1  0
 26 27  1  0
 26 51  1  0
 26 52  1  0
 27 53  1  0
 27 54  1  0
 28 55  1  0
 28 56  1  0
 30 57  1  0
 30 58  1  0
M  CHG  1  18   1
M  END
>  <DOCK_score>  (1) 
-45.841007

>  <SMILES>  (1) 
C=CC1CC(Nc2ccc(-c3n[nH]cc3C[NH2+]CC3CC(C4CC4)C3)o2)C1

$$$$
