CC1C[NH+]=C(N[C@@H]2C[C@@H](O)C[C@H]2[C@@H](O)c2cccc(C3=CCC=CC3)c2)N1
     RDKit          3D

 57 60  0  0  1  0  0  0  0  0999 V2000
  130.8604  130.2996  158.6752 C   0  0  0  0  0  0  0  0  0  0  0  0
  129.8699  131.3320  158.1328 C   0  0  2  0  0  0  0  0  0  0  0  0
  130.4108  131.9787  156.8420 C   0  0  0  0  0  0  0  0  0  0  0  0
  130.5296  133.4036  157.1810 N   0  0  0  0  0  0  0  0  0  0  0  0
  130.8462  134.0939  156.5776 H   0  0  0  0  0  0  0  0  0  0  0  0
  130.1509  133.6030  158.4013 C   0  0  0  0  0  0  0  0  0  0  0  0
  130.1555  134.8452  158.9905 N   0  0  0  0  0  0  0  0  0  0  0  0
  129.7128  134.9990  160.3785 C   0  0  2  0  0  0  0  0  0  0  0  0
  130.3388  134.3995  161.0392 H   0  0  0  0  0  0  0  0  0  0  0  0
  128.2377  134.5682  160.5135 C   0  0  0  0  0  0  0  0  0  0  0  0
  127.4430  135.8927  160.3977 C   0  0  1  0  0  0  0  0  0  0  0  0
  127.3320  136.1867  159.3540 H   0  0  0  0  0  0  0  0  0  0  0  0
  126.1655  135.7734  161.0268 O   0  0  0  0  0  0  0  0  0  0  0  0
  128.3399  136.8974  161.1627 C   0  0  0  0  0  0  0  0  0  0  0  0
  129.7777  136.4799  160.7914 C   0  0  1  0  0  0  0  0  0  0  0  0
  130.1395  137.0840  159.9592 H   0  0  0  0  0  0  0  0  0  0  0  0
  130.7008  136.6471  161.9999 C   0  0  1  0  0  0  0  0  0  0  0  0
  130.1639  136.3726  162.9080 H   0  0  0  0  0  0  0  0  0  0  0  0
  131.8427  135.8016  161.8478 O   0  0  0  0  0  0  0  0  0  0  0  0
  131.1481  138.0831  162.0956 C   0  0  0  0  0  0  0  0  0  0  0  0
  130.4044  138.9903  162.8294 C   0  0  0  0  0  0  0  0  0  0  0  0
  130.8079  140.3102  162.9218 C   0  0  0  0  0  0  0  0  0  0  0  0
  131.9558  140.7304  162.2814 C   0  0  0  0  0  0  0  0  0  0  0  0
  132.7101  139.8206  161.5401 C   0  0  0  0  0  0  0  0  0  0  0  0
  133.9404  140.2640  160.8512 C   0  0  0  0  0  0  0  0  0  0  0  0
  134.0124  140.1376  159.5444 C   0  0  0  0  0  0  0  0  0  0  0  0
  135.2170  140.5575  158.7567 C   0  0  0  0  0  0  0  0  0  0  0  0
  136.0585  141.5264  159.5316 C   0  0  0  0  0  0  0  0  0  0  0  0
  135.9911  141.6474  160.8216 C   0  0  0  0  0  0  0  0  0  0  0  0
  135.0564  140.8397  161.6704 C   0  0  0  0  0  0  0  0  0  0  0  0
  132.2950  138.4915  161.4468 C   0  0  0  0  0  0  0  0  0  0  0  0
  129.7508  132.4715  159.0576 N   0  0  0  0  0  0  0  0  0  0  0  0
  131.8094  130.7878  158.8964 H   0  0  0  0  0  0  0  0  0  0  0  0
  130.4594  129.8551  159.5862 H   0  0  0  0  0  0  0  0  0  0  0  0
  131.0178  129.5203  157.9295 H   0  0  0  0  0  0  0  0  0  0  0  0
  128.8973  130.8733  157.9547 H   0  0  0  0  0  0  0  0  0  0  0  0
  129.7078  131.8386  156.0209 H   0  0  0  0  0  0  0  0  0  0  0  0
  131.3859  131.5641  156.5865 H   0  0  0  0  0  0  0  0  0  0  0  0
  130.4518  135.6196  158.4872 H   0  0  0  0  0  0  0  0  0  0  0  0
  127.9639  133.8874  159.7076 H   0  0  0  0  0  0  0  0  0  0  0  0
  128.0641  134.1003  161.4825 H   0  0  0  0  0  0  0  0  0  0  0  0
  125.6374  136.5831  161.0013 H   0  0  0  0  0  0  0  0  0  0  0  0
  128.1822  136.8077  162.2376 H   0  0  0  0  0  0  0  0  0  0  0  0
  128.1405  137.9163  160.8307 H   0  0  0  0  0  0  0  0  0  0  0  0
  132.3690  135.9897  161.0587 H   0  0  0  0  0  0  0  0  0  0  0  0
  129.5049  138.6666  163.3318 H   0  0  0  0  0  0  0  0  0  0  0  0
  130.2230  141.0134  163.4961 H   0  0  0  0  0  0  0  0  0  0  0  0
  132.2693  141.7613  162.3538 H   0  0  0  0  0  0  0  0  0  0  0  0
  133.1703  139.7138  159.0175 H   0  0  0  0  0  0  0  0  0  0  0  0
  135.8111  139.6761  158.5154 H   0  0  0  0  0  0  0  0  0  0  0  0
  134.8909  141.0325  157.8315 H   0  0  0  0  0  0  0  0  0  0  0  0
  136.7564  142.1493  158.9915 H   0  0  0  0  0  0  0  0  0  0  0  0
  136.6350  142.3667  161.3058 H   0  0  0  0  0  0  0  0  0  0  0  0
  135.6114  140.0270  162.1391 H   0  0  0  0  0  0  0  0  0  0  0  0
  134.6365  141.4786  162.4471 H   0  0  0  0  0  0  0  0  0  0  0  0
  132.8721  137.7834  160.8705 H   0  0  0  0  0  0  0  0  0  0  0  0
  129.4393  132.4277  159.9751 H   0  0  0  0  0  0  0  0  0  0  0  0
  1  2  1  0
  1 33  1  0
  1 34  1  0
  1 35  1  0
  2 32  1  0
  2  3  1  0
  2 36  1  6
  3  4  1  0
  3 37  1  0
  3 38  1  0
  4  5  1  0
  4  6  2  0
  6  7  1  0
  6 32  1  0
  7  8  1  0
  7 39  1  0
  8  9  1  1
  8 15  1  0
  8 10  1  0
 10 11  1  0
 10 40  1  0
 10 41  1  0
 11 12  1  6
 11 13  1  0
 11 14  1  0
 13 42  1  0
 14 15  1  0
 14 43  1  0
 14 44  1  0
 15 16  1  6
 15 17  1  0
 17 18  1  1
 17 19  1  0
 17 20  1  0
 19 45  1  0
 20 31  1  0
 20 21  2  0
 21 22  1  0
 21 46  1  0
 22 23  2  0
 22 47  1  0
 23 24  1  0
 23 48  1  0
 24 25  1  0
 24 31  2  0
 25 30  1  0
 25 26  2  0
 26 27  1  0
 26 49  1  0
 27 28  1  0
 27 50  1  0
 27 51  1  0
 28 29  2  0
 28 52  1  0
 29 30  1  0
 29 53  1  0
 30 54  1  0
 30 55  1  0
 31 56  1  0
 32 57  1  0
M  CHG  1   4   1
M  END
>  <DOCK_score>  (1) 
-48.875332

>  <SMILES>  (1) 
CC1C[NH+]=C(N[C@@H]2C[C@@H](O)C[C@H]2[C@@H](O)c2cccc(C3=CCC=CC3)c2)N1

$$$$
