Cc1cccc([C@H](C)Nc2cc(Nc3[nH]cc(-c4cccnc4)[nH+]3)ccn2)c1
     RDKit          3D

 51 54  0  0  1  0  0  0  0  0999 V2000
  130.1193  141.3826  166.0250 C   0  0  0  0  0  0  0  0  0  0  0  0
  128.8843  141.0187  165.2416 C   0  0  0  0  0  0  0  0  0  0  0  0
  127.9240  141.9782  164.9801 C   0  0  0  0  0  0  0  0  0  0  0  0
  126.7912  141.6444  164.2620 C   0  0  0  0  0  0  0  0  0  0  0  0
  126.6184  140.3509  163.8051 C   0  0  0  0  0  0  0  0  0  0  0  0
  127.5791  139.3919  164.0658 C   0  0  0  0  0  0  0  0  0  0  0  0
  127.3909  137.9820  163.5678 C   0  0  2  0  0  0  0  0  0  0  0  0
  126.4468  137.9104  163.0280 H   0  0  0  0  0  0  0  0  0  0  0  0
  127.3727  137.0194  164.7570 C   0  0  0  0  0  0  0  0  0  0  0  0
  128.4943  137.6295  162.6710 N   0  0  0  0  0  0  0  0  0  0  0  0
  128.2871  136.7240  161.6366 C   0  0  0  0  0  0  0  0  0  0  0  0
  129.3377  136.3948  160.7906 C   0  0  0  0  0  0  0  0  0  0  0  0
  129.1149  135.4872  159.7600 C   0  0  0  0  0  0  0  0  0  0  0  0
  130.1422  135.1296  158.8892 N   0  0  0  0  0  0  0  0  0  0  0  0
  130.1542  133.8698  158.3119 C   0  0  0  0  0  0  0  0  0  0  0  0
  129.6500  132.7363  158.8719 N   0  0  0  0  0  0  0  0  0  0  0  0
  129.2214  132.6656  159.7393 H   0  0  0  0  0  0  0  0  0  0  0  0
  129.8568  131.7122  157.9810 C   0  0  0  0  0  0  0  0  0  0  0  0
  130.4892  132.2467  156.9067 C   0  0  0  0  0  0  0  0  0  0  0  0
  130.9198  131.5116  155.6924 C   0  0  0  0  0  0  0  0  0  0  0  0
  130.9693  132.1554  154.4525 C   0  0  0  0  0  0  0  0  0  0  0  0
  131.3822  131.4267  153.3505 C   0  0  0  0  0  0  0  0  0  0  0  0
  131.7197  130.0945  153.5081 C   0  0  0  0  0  0  0  0  0  0  0  0
  131.6586  129.5127  154.6901 N   0  0  0  0  0  0  0  0  0  0  0  0
  131.2764  130.1667  155.7681 C   0  0  0  0  0  0  0  0  0  0  0  0
  130.6578  133.5721  157.1391 N   0  0  0  0  0  0  0  0  0  0  0  0
  131.0833  134.1996  156.5340 H   0  0  0  0  0  0  0  0  0  0  0  0
  127.8362  134.9430  159.6202 C   0  0  0  0  0  0  0  0  0  0  0  0
  126.8449  135.3192  160.4997 C   0  0  0  0  0  0  0  0  0  0  0  0
  127.0903  136.1797  161.4713 N   0  0  0  0  0  0  0  0  0  0  0  0
  128.7100  139.7247  164.7882 C   0  0  0  0  0  0  0  0  0  0  0  0
  129.9347  141.2258  167.0878 H   0  0  0  0  0  0  0  0  0  0  0  0
  130.9509  140.7554  165.7042 H   0  0  0  0  0  0  0  0  0  0  0  0
  130.3652  142.4299  165.8496 H   0  0  0  0  0  0  0  0  0  0  0  0
  128.0586  142.9885  165.3372 H   0  0  0  0  0  0  0  0  0  0  0  0
  126.0407  142.3937  164.0579 H   0  0  0  0  0  0  0  0  0  0  0  0
  125.7332  140.0899  163.2443 H   0  0  0  0  0  0  0  0  0  0  0  0
  127.2366  135.9998  164.3969 H   0  0  0  0  0  0  0  0  0  0  0  0
  128.3169  137.0911  165.2969 H   0  0  0  0  0  0  0  0  0  0  0  0
  126.5518  137.2817  165.4243 H   0  0  0  0  0  0  0  0  0  0  0  0
  129.3685  138.0310  162.7964 H   0  0  0  0  0  0  0  0  0  0  0  0
  130.3131  136.8366  160.9306 H   0  0  0  0  0  0  0  0  0  0  0  0
  130.8490  135.7624  158.6871 H   0  0  0  0  0  0  0  0  0  0  0  0
  129.5746  130.6780  158.1127 H   0  0  0  0  0  0  0  0  0  0  0  0
  130.6958  133.1958  154.3573 H   0  0  0  0  0  0  0  0  0  0  0  0
  131.4363  131.8920  152.3775 H   0  0  0  0  0  0  0  0  0  0  0  0
  132.0388  129.5220  152.6497 H   0  0  0  0  0  0  0  0  0  0  0  0
  131.2393  129.6559  156.7188 H   0  0  0  0  0  0  0  0  0  0  0  0
  127.6268  134.2356  158.8315 H   0  0  0  0  0  0  0  0  0  0  0  0
  125.8545  134.9013  160.3959 H   0  0  0  0  0  0  0  0  0  0  0  0
  129.4585  138.9743  164.9958 H   0  0  0  0  0  0  0  0  0  0  0  0
  1  2  1  0
  1 32  1  0
  1 33  1  0
  1 34  1  0
  2 31  2  0
  2  3  1  0
  3  4  2  0
  3 35  1  0
  4  5  1  0
  4 36  1  0
  5  6  2  0
  5 37  1  0
  6  7  1  0
  6 31  1  0
  7  8  1  6
  7  9  1  0
  7 10  1  0
  9 38  1  0
  9 39  1  0
  9 40  1  0
 10 11  1  0
 10 41  1  0
 11 30  1  0
 11 12  2  0
 12 13  1  0
 12 42  1  0
 13 14  1  0
 13 28  2  0
 14 43  1  0
 15 14  1  0
 15 26  2  0
 15 16  1  0
 16 17  1  0
 16 18  1  0
 18 19  2  0
 18 44  1  0
 19 20  1  0
 19 26  1  0
 20 25  1  0
 20 21  2  0
 21 22  1  0
 21 45  1  0
 22 23  2  0
 22 46  1  0
 23 24  1  0
 23 47  1  0
 24 25  2  0
 25 48  1  0
 26 27  1  0
 28 29  1  0
 28 49  1  0
 29 30  2  0
 29 50  1  0
 31 51  1  0
M  CHG  1  26   1
M  END
>  <DOCK_score>  (1) 
-52.019733

>  <SMILES>  (1) 
Cc1cccc([C@H](C)Nc2cc(Nc3[nH]cc(-c4cccnc4)[nH+]3)ccn2)c1

$$$$
