C[C@@H]([NH2+]Cc1c[nH]nc1-c1ccc(N[C@H]2[C@@H]3CC=CC[C@@H]32)o1)c1cc2ccccc2[nH]1
     RDKit          3D

 59 64  0  0  1  0  0  0  0  0999 V2000
  130.5023  139.3902  159.8983 C   0  0  0  0  0  0  0  0  0  0  0  0
  131.2156  138.2357  160.6049 C   0  0  1  0  0  0  0  0  0  0  0  0
  130.7827  138.0928  161.5949 H   0  0  0  0  0  0  0  0  0  0  0  0
  131.0547  137.0057  159.8180 N   0  0  0  0  0  0  0  0  0  0  0  0
  130.1163  136.9624  159.4496 H   0  0  0  0  0  0  0  0  0  0  0  0
  131.7156  137.0053  159.0556 H   0  0  0  0  0  0  0  0  0  0  0  0
  131.2975  135.8393  160.6773 C   0  0  0  0  0  0  0  0  0  0  0  0
  131.1325  134.5775  159.8701 C   0  0  0  0  0  0  0  0  0  0  0  0
  132.1057  133.9369  159.1879 C   0  0  0  0  0  0  0  0  0  0  0  0
  131.5587  132.8517  158.5985 N   0  0  0  0  0  0  0  0  0  0  0  0
  132.0277  132.2082  158.0445 H   0  0  0  0  0  0  0  0  0  0  0  0
  130.1972  132.8161  158.9254 N   0  0  0  0  0  0  0  0  0  0  0  0
  129.9348  133.8522  159.6975 C   0  0  0  0  0  0  0  0  0  0  0  0
  128.6190  134.1951  160.2759 C   0  0  0  0  0  0  0  0  0  0  0  0
  127.4689  133.4897  160.1116 C   0  0  0  0  0  0  0  0  0  0  0  0
  126.4669  134.1694  160.8319 C   0  0  0  0  0  0  0  0  0  0  0  0
  127.0532  135.2532  161.3988 C   0  0  0  0  0  0  0  0  0  0  0  0
  126.4165  136.1962  162.1974 N   0  0  0  0  0  0  0  0  0  0  0  0
  127.1749  137.3227  162.7470 C   0  0  1  0  0  0  0  0  0  0  0  0
  127.9051  137.7707  162.0730 H   0  0  0  0  0  0  0  0  0  0  0  0
  126.4490  138.2541  163.7200 C   0  0  2  0  0  0  0  0  0  0  0  0
  125.4055  138.0434  163.9532 H   0  0  0  0  0  0  0  0  0  0  0  0
  126.9050  139.7422  163.7040 C   0  0  0  0  0  0  0  0  0  0  0  0
  127.6598  140.0286  164.9789 C   0  0  0  0  0  0  0  0  0  0  0  0
  128.5598  139.1858  165.4209 C   0  0  0  0  0  0  0  0  0  0  0  0
  128.8558  137.9156  164.6618 C   0  0  0  0  0  0  0  0  0  0  0  0
  127.5230  137.2791  164.2363 C   0  0  2  0  0  0  0  0  0  0  0  0
  127.1997  136.4144  164.8157 H   0  0  0  0  0  0  0  0  0  0  0  0
  128.3544  135.2591  161.0629 O   0  0  0  0  0  0  0  0  0  0  0  0
  132.6815  138.5580  160.7392 C   0  0  0  0  0  0  0  0  0  0  0  0
  133.3464  138.6530  161.9015 C   0  0  0  0  0  0  0  0  0  0  0  0
  134.7349  138.9860  161.5745 C   0  0  0  0  0  0  0  0  0  0  0  0
  135.8829  139.2153  162.3356 C   0  0  0  0  0  0  0  0  0  0  0  0
  137.0616  139.5134  161.7122 C   0  0  0  0  0  0  0  0  0  0  0  0
  137.1273  139.5900  160.3276 C   0  0  0  0  0  0  0  0  0  0  0  0
  136.0072  139.3671  159.5576 C   0  0  0  0  0  0  0  0  0  0  0  0
  134.7963  139.0622  160.1713 C   0  0  0  0  0  0  0  0  0  0  0  0
  133.5330  138.7934  159.6942 N   0  0  0  0  0  0  0  0  0  0  0  0
  133.2829  138.7775  158.7572 H   0  0  0  0  0  0  0  0  0  0  0  0
  130.6216  140.3029  160.4822 H   0  0  0  0  0  0  0  0  0  0  0  0
  130.9352  139.5331  158.9081 H   0  0  0  0  0  0  0  0  0  0  0  0
  129.4419  139.1572  159.8011 H   0  0  0  0  0  0  0  0  0  0  0  0
  132.3112  135.8860  161.0754 H   0  0  0  0  0  0  0  0  0  0  0  0
  130.5834  135.8398  161.5008 H   0  0  0  0  0  0  0  0  0  0  0  0
  133.1406  134.2392  159.1247 H   0  0  0  0  0  0  0  0  0  0  0  0
  127.3466  132.5826  159.5384 H   0  0  0  0  0  0  0  0  0  0  0  0
  125.4293  133.8822  160.9166 H   0  0  0  0  0  0  0  0  0  0  0  0
  125.4700  136.1084  162.3906 H   0  0  0  0  0  0  0  0  0  0  0  0
  126.0272  140.3860  163.6458 H   0  0  0  0  0  0  0  0  0  0  0  0
  127.5517  139.9267  162.8462 H   0  0  0  0  0  0  0  0  0  0  0  0
  127.4565  140.9344  165.5308 H   0  0  0  0  0  0  0  0  0  0  0  0
  129.0937  139.4014  166.3347 H   0  0  0  0  0  0  0  0  0  0  0  0
  129.4031  137.2248  165.3032 H   0  0  0  0  0  0  0  0  0  0  0  0
  129.4497  138.1474  163.7777 H   0  0  0  0  0  0  0  0  0  0  0  0
  132.9345  138.5150  162.8903 H   0  0  0  0  0  0  0  0  0  0  0  0
  135.8395  139.1569  163.4131 H   0  0  0  0  0  0  0  0  0  0  0  0
  137.9494  139.6903  162.3012 H   0  0  0  0  0  0  0  0  0  0  0  0
  138.0663  139.8268  159.8492 H   0  0  0  0  0  0  0  0  0  0  0  0
  136.0686  139.4285  158.4812 H   0  0  0  0  0  0  0  0  0  0  0  0
  1  2  1  0
  1 40  1  0
  1 41  1  0
  1 42  1  0
  2  3  1  1
  2  4  1  0
  2 30  1  0
  4  5  1  0
  4  6  1  0
  4  7  1  0
  7  8  1  0
  7 43  1  0
  7 44  1  0
  8 13  1  0
  8  9  2  0
  9 10  1  0
  9 45  1  0
 10 11  1  0
 10 12  1  0
 12 13  2  0
 13 14  1  0
 14 29  1  0
 14 15  2  0
 15 16  1  0
 15 46  1  0
 16 17  2  0
 16 47  1  0
 17 18  1  0
 17 29  1  0
 18 19  1  0
 18 48  1  0
 19 20  1  6
 19 27  1  0
 19 21  1  0
 21 22  1  1
 21 27  1  0
 21 23  1  0
 23 24  1  0
 23 49  1  0
 23 50  1  0
 24 25  2  0
 24 51  1  0
 25 26  1  0
 25 52  1  0
 26 27  1  0
 26 53  1  0
 26 54  1  0
 27 28  1  1
 30 38  1  0
 30 31  2  0
 31 32  1  0
 31 55  1  0
 32 37  2  0
 32 33  1  0
 33 34  2  0
 33 56  1  0
 34 35  1  0
 34 57  1  0
 35 36  2  0
 35 58  1  0
 36 37  1  0
 36 59  1  0
 37 38  1  0
 38 39  1  0
M  CHG  1   4   1
M  END
>  <DOCK_score>  (1) 
-51.980633

>  <SMILES>  (1) 
C[C@@H]([NH2+]Cc1c[nH]nc1-c1ccc(N[C@H]2[C@@H]3CC=CC[C@@H]32)o1)c1cc2ccccc2[nH]1

$$$$
