BrC1(Br)CC1CNc1ccc(-c2n[nH]cc2C[NH2+]C[C@H]2CC23CC3)o1
     RDKit          3D

 48 52  0  0  1  0  0  0  0  0999 V2000
  129.5416  139.0383  163.3547 Br  0  0  0  0  0  0  0  0  0  0  0  0
  128.9650  137.5145  164.4550 C   0  0  0  0  0  0  0  0  0  0  0  0
  129.2184  137.7238  166.3933 Br  0  0  0  0  0  0  0  0  0  0  0  0
  129.1389  136.1127  163.8671 C   0  0  0  0  0  0  0  0  0  0  0  0
  127.7419  136.7254  163.9837 C   0  0  2  0  0  0  0  0  0  0  0  0
  127.0611  137.1828  162.6920 C   0  0  0  0  0  0  0  0  0  0  0  0
  126.2555  136.0858  162.1498 N   0  0  0  0  0  0  0  0  0  0  0  0
  126.8217  135.1830  161.2573 C   0  0  0  0  0  0  0  0  0  0  0  0
  126.1882  134.1259  160.6907 C   0  0  0  0  0  0  0  0  0  0  0  0
  127.1245  133.4850  159.8554 C   0  0  0  0  0  0  0  0  0  0  0  0
  128.2876  134.1801  159.9620 C   0  0  0  0  0  0  0  0  0  0  0  0
  129.5509  133.8654  159.2634 C   0  0  0  0  0  0  0  0  0  0  0  0
  129.7496  132.8604  158.4334 N   0  0  0  0  0  0  0  0  0  0  0  0
  131.0765  132.9197  157.9887 N   0  0  0  0  0  0  0  0  0  0  0  0
  131.4965  132.3040  157.3679 H   0  0  0  0  0  0  0  0  0  0  0  0
  131.6720  133.9787  158.5788 C   0  0  0  0  0  0  0  0  0  0  0  0
  130.7606  134.5834  159.3706 C   0  0  0  0  0  0  0  0  0  0  0  0
  130.9940  135.8078  160.2177 C   0  0  0  0  0  0  0  0  0  0  0  0
  132.3830  136.2578  160.0557 N   0  0  0  0  0  0  0  0  0  0  0  0
  133.0106  135.5230  160.3464 H   0  0  0  0  0  0  0  0  0  0  0  0
  132.5531  136.4818  159.0868 H   0  0  0  0  0  0  0  0  0  0  0  0
  132.6105  137.4512  160.8815 C   0  0  0  0  0  0  0  0  0  0  0  0
  134.0571  137.9199  160.7129 C   0  0  1  0  0  0  0  0  0  0  0  0
  134.8217  137.1979  160.9998 H   0  0  0  0  0  0  0  0  0  0  0  0
  134.3668  138.8464  159.5353 C   0  0  0  0  0  0  0  0  0  0  0  0
  134.3537  139.4001  160.9615 C   0  0  0  0  0  0  0  0  0  0  0  0
  135.2401  140.2561  161.8682 C   0  0  0  0  0  0  0  0  0  0  0  0
  133.7508  140.5778  161.7297 C   0  0  0  0  0  0  0  0  0  0  0  0
  128.0905  135.2071  160.8151 O   0  0  0  0  0  0  0  0  0  0  0  0
  129.5731  136.0353  162.8703 H   0  0  0  0  0  0  0  0  0  0  0  0
  129.3938  135.3065  164.5550 H   0  0  0  0  0  0  0  0  0  0  0  0
  127.0775  136.3228  164.7482 H   0  0  0  0  0  0  0  0  0  0  0  0
  126.4171  138.0364  162.9032 H   0  0  0  0  0  0  0  0  0  0  0  0
  127.8194  137.4708  161.9640 H   0  0  0  0  0  0  0  0  0  0  0  0
  125.3270  135.9894  162.4136 H   0  0  0  0  0  0  0  0  0  0  0  0
  125.1608  133.8324  160.8483 H   0  0  0  0  0  0  0  0  0  0  0  0
  126.9523  132.6073  159.2501 H   0  0  0  0  0  0  0  0  0  0  0  0
  132.6976  134.2879  158.4413 H   0  0  0  0  0  0  0  0  0  0  0  0
  130.3160  136.6015  159.9037 H   0  0  0  0  0  0  0  0  0  0  0  0
  130.8100  135.5658  161.2644 H   0  0  0  0  0  0  0  0  0  0  0  0
  131.9325  138.2448  160.5677 H   0  0  0  0  0  0  0  0  0  0  0  0
  132.4267  137.2092  161.9283 H   0  0  0  0  0  0  0  0  0  0  0  0
  135.3353  138.7344  159.0478 H   0  0  0  0  0  0  0  0  0  0  0  0
  133.5400  139.1218  158.8806 H   0  0  0  0  0  0  0  0  0  0  0  0
  135.5745  139.8148  162.8072 H   0  0  0  0  0  0  0  0  0  0  0  0
  135.9477  140.9318  161.3877 H   0  0  0  0  0  0  0  0  0  0  0  0
  133.4786  141.4651  161.1581 H   0  0  0  0  0  0  0  0  0  0  0  0
  133.1049  140.3483  162.5772 H   0  0  0  0  0  0  0  0  0  0  0  0
  1  2  1  0
  2  5  1  0
  2  3  1  0
  2  4  1  0
  4  5  1  0
  4 30  1  0
  4 31  1  0
  5  6  1  0
  5 32  1  1
  6  7  1  0
  6 33  1  0
  6 34  1  0
  7  8  1  0
  7 35  1  0
  8 29  1  0
  8  9  2  0
  9 10  1  0
  9 36  1  0
 10 11  2  0
 10 37  1  0
 11 12  1  0
 11 29  1  0
 12 17  1  0
 12 13  2  0
 13 14  1  0
 14 15  1  0
 14 16  1  0
 16 17  2  0
 16 38  1  0
 17 18  1  0
 18 19  1  0
 18 39  1  0
 18 40  1  0
 19 20  1  0
 19 21  1  0
 19 22  1  0
 22 23  1  0
 22 41  1  0
 22 42  1  0
 23 24  1  1
 23 26  1  0
 23 25  1  0
 25 26  1  0
 25 43  1  0
 25 44  1  0
 26 28  1  0
 26 27  1  0
 27 28  1  0
 27 45  1  0
 27 46  1  0
 28 47  1  0
 28 48  1  0
M  CHG  1  19   1
M  END
>  <DOCK_score>  (1) 
-42.662521

>  <SMILES>  (1) 
BrC1(Br)CC1CNc1ccc(-c2n[nH]cc2C[NH2+]C[C@H]2CC23CC3)o1

$$$$
