Cc1cccc(N2CCN(C(=O)C=COC(=O)c3c[nH]nc3[C@H]3CCC[NH2+]C3)CC2)c1CCl
     RDKit          3D

 64 67  0  0  1  0  0  0  0  0999 V2000
  138.8916  143.0311  168.3212 C   0  0  0  0  0  0  0  0  0  0  0  0
  137.9794  142.4725  167.2594 C   0  0  0  0  0  0  0  0  0  0  0  0
  138.0742  142.9292  165.9574 C   0  0  0  0  0  0  0  0  0  0  0  0
  137.2391  142.4197  164.9803 C   0  0  0  0  0  0  0  0  0  0  0  0
  136.3071  141.4522  165.3019 C   0  0  0  0  0  0  0  0  0  0  0  0
  136.2094  140.9914  166.6084 C   0  0  0  0  0  0  0  0  0  0  0  0
  135.2679  140.0135  166.9371 N   0  0  0  0  0  0  0  0  0  0  0  0
  134.0444  140.1713  166.1396 C   0  0  0  0  0  0  0  0  0  0  0  0
  132.9753  139.2009  166.6528 C   0  0  0  0  0  0  0  0  0  0  0  0
  133.5416  137.8435  166.6608 N   0  0  0  0  0  0  0  0  0  0  0  0
  132.8902  136.8187  166.0758 C   0  0  0  0  0  0  0  0  0  0  0  0
  133.3738  135.7018  166.0918 O   0  0  0  0  0  0  0  0  0  0  0  0
  131.6030  137.0487  165.4221 C   0  0  0  0  0  0  0  0  0  0  0  0
  131.2357  136.2900  164.3765 C   0  0  0  0  0  0  0  0  0  0  0  0
  130.0471  136.5024  163.7729 O   0  0  0  0  0  0  0  0  0  0  0  0
  129.7395  135.7056  162.7290 C   0  0  0  0  0  0  0  0  0  0  0  0
  130.5187  134.8442  162.3717 O   0  0  0  0  0  0  0  0  0  0  0  0
  128.4597  135.8796  162.0220 C   0  0  0  0  0  0  0  0  0  0  0  0
  127.2747  136.3317  162.5698 C   0  0  0  0  0  0  0  0  0  0  0  0
  126.3582  136.3446  161.5893 N   0  0  0  0  0  0  0  0  0  0  0  0
  125.4328  136.6201  161.6823 H   0  0  0  0  0  0  0  0  0  0  0  0
  126.9610  135.8892  160.4115 N   0  0  0  0  0  0  0  0  0  0  0  0
  128.2111  135.6097  160.6569 C   0  0  0  0  0  0  0  0  0  0  0  0
  129.2144  135.0896  159.6600 C   0  0  1  0  0  0  0  0  0  0  0  0
  130.2119  135.4330  159.9344 H   0  0  0  0  0  0  0  0  0  0  0  0
  129.1841  133.5585  159.6552 C   0  0  0  0  0  0  0  0  0  0  0  0
  130.1497  133.0419  158.5846 C   0  0  0  0  0  0  0  0  0  0  0  0
  129.7623  133.6339  157.2278 C   0  0  0  0  0  0  0  0  0  0  0  0
  129.8362  135.0985  157.2898 N   0  0  0  0  0  0  0  0  0  0  0  0
  130.7652  135.3758  157.5696 H   0  0  0  0  0  0  0  0  0  0  0  0
  129.6312  135.4834  156.3799 H   0  0  0  0  0  0  0  0  0  0  0  0
  128.8624  135.6066  158.2635 C   0  0  0  0  0  0  0  0  0  0  0  0
  134.8375  137.6339  167.3243 C   0  0  0  0  0  0  0  0  0  0  0  0
  135.8332  138.6661  166.7846 C   0  0  0  0  0  0  0  0  0  0  0  0
  137.0462  141.5096  167.5889 C   0  0  0  0  0  0  0  0  0  0  0  0
  136.9397  141.0171  169.0092 C   0  0  0  0  0  0  0  0  0  0  0  0
  138.0345  139.6031  169.2389 Cl  0  0  0  0  0  0  0  0  0  0  0  0
  138.4216  143.8989  168.7840 H   0  0  0  0  0  0  0  0  0  0  0  0
  139.0755  142.2699  169.0793 H   0  0  0  0  0  0  0  0  0  0  0  0
  139.8372  143.3285  167.8680 H   0  0  0  0  0  0  0  0  0  0  0  0
  138.8020  143.6856  165.7033 H   0  0  0  0  0  0  0  0  0  0  0  0
  137.3156  142.7784  163.9645 H   0  0  0  0  0  0  0  0  0  0  0  0
  135.6551  141.0547  164.5382 H   0  0  0  0  0  0  0  0  0  0  0  0
  134.2614  139.9536  165.0938 H   0  0  0  0  0  0  0  0  0  0  0  0
  133.6804  141.1947  166.2306 H   0  0  0  0  0  0  0  0  0  0  0  0
  132.1069  139.2314  165.9948 H   0  0  0  0  0  0  0  0  0  0  0  0
  132.6818  139.4809  167.6644 H   0  0  0  0  0  0  0  0  0  0  0  0
  130.9473  137.8287  165.7801 H   0  0  0  0  0  0  0  0  0  0  0  0
  131.8914  135.5101  164.0185 H   0  0  0  0  0  0  0  0  0  0  0  0
  127.1156  136.6237  163.5975 H   0  0  0  0  0  0  0  0  0  0  0  0
  129.4896  133.1848  160.6325 H   0  0  0  0  0  0  0  0  0  0  0  0
  128.1742  133.2146  159.4317 H   0  0  0  0  0  0  0  0  0  0  0  0
  131.1667  133.3428  158.8360 H   0  0  0  0  0  0  0  0  0  0  0  0
  130.0929  131.9544  158.5376 H   0  0  0  0  0  0  0  0  0  0  0  0
  130.4476  133.2680  156.4633 H   0  0  0  0  0  0  0  0  0  0  0  0
  128.7451  133.3326  156.9775 H   0  0  0  0  0  0  0  0  0  0  0  0
  127.8645  135.2635  157.9904 H   0  0  0  0  0  0  0  0  0  0  0  0
  128.8835  136.6964  158.2639 H   0  0  0  0  0  0  0  0  0  0  0  0
  134.7228  137.7635  168.4006 H   0  0  0  0  0  0  0  0  0  0  0  0
  135.2000  136.6285  167.1104 H   0  0  0  0  0  0  0  0  0  0  0  0
  136.7664  138.5979  167.3436 H   0  0  0  0  0  0  0  0  0  0  0  0
  136.0255  138.4691  165.7301 H   0  0  0  0  0  0  0  0  0  0  0  0
  137.2285  141.8151  169.6931 H   0  0  0  0  0  0  0  0  0  0  0  0
  135.9117  140.7177  169.2136 H   0  0  0  0  0  0  0  0  0  0  0  0
  1  2  1  0
  1 38  1  0
  1 39  1  0
  1 40  1  0
  2 35  2  0
  2  3  1  0
  3  4  2  0
  3 41  1  0
  4  5  1  0
  4 42  1  0
  5  6  2  0
  5 43  1  0
  6  7  1  0
  6 35  1  0
  7 34  1  0
  7  8  1  0
  8  9  1  0
  8 44  1  0
  8 45  1  0
  9 10  1  0
  9 46  1  0
  9 47  1  0
 10 11  1  0
 10 33  1  0
 11 12  2  0
 11 13  1  0
 13 14  2  0
 13 48  1  0
 14 15  1  0
 14 49  1  0
 15 16  1  0
 16 17  2  0
 16 18  1  0
 18 23  1  0
 18 19  2  0
 19 20  1  0
 19 50  1  0
 20 21  1  0
 20 22  1  0
 22 23  2  0
 23 24  1  0
 24 25  1  1
 24 32  1  0
 24 26  1  0
 26 27  1  0
 26 51  1  0
 26 52  1  0
 27 28  1  0
 27 53  1  0
 27 54  1  0
 28 29  1  0
 28 55  1  0
 28 56  1  0
 29 30  1  0
 29 31  1  0
 29 32  1  0
 32 57  1  0
 32 58  1  0
 33 34  1  0
 33 59  1  0
 33 60  1  0
 34 61  1  0
 34 62  1  0
 35 36  1  0
 36 37  1  0
 36 63  1  0
 36 64  1  0
M  CHG  1  29   1
M  END
>  <DOCK_score>  (1) 
-40.469788

>  <SMILES>  (1) 
Cc1cccc(N2CCN(C(=O)C=COC(=O)c3c[nH]nc3[C@H]3CCC[NH2+]C3)CC2)c1CCl

$$$$
