OCCN1CC[NH+]=C1NCc1ccc(NC2C3CCC2CC3)cc1
     RDKit          3D

 53 56  0  0  1  0  0  0  0  0999 V2000
  131.7599  131.7725  159.0737 O   0  0  0  0  0  0  0  0  0  0  0  0
  131.5836  130.4022  158.7085 C   0  0  0  0  0  0  0  0  0  0  0  0
  130.3315  130.2628  157.8403 C   0  0  0  0  0  0  0  0  0  0  0  0
  130.4833  131.0749  156.6305 N   0  0  0  0  0  0  0  0  0  0  0  0
  131.0662  130.6223  155.3563 C   0  0  0  0  0  0  0  0  0  0  0  0
  130.9755  131.8742  154.4612 C   0  0  0  0  0  0  0  0  0  0  0  0
  130.3548  132.8864  155.3270 N   0  0  0  0  0  0  0  0  0  0  0  0
  130.1552  133.7977  155.0617 H   0  0  0  0  0  0  0  0  0  0  0  0
  130.1129  132.3847  156.4940 C   0  0  0  0  0  0  0  0  0  0  0  0
  129.5333  133.1060  157.5108 N   0  0  0  0  0  0  0  0  0  0  0  0
  129.1610  134.5065  157.2955 C   0  0  0  0  0  0  0  0  0  0  0  0
  128.5502  135.0633  158.5556 C   0  0  0  0  0  0  0  0  0  0  0  0
  128.9351  136.3089  159.0168 C   0  0  0  0  0  0  0  0  0  0  0  0
  128.3732  136.8247  160.1681 C   0  0  0  0  0  0  0  0  0  0  0  0
  127.4285  136.0858  160.8692 C   0  0  0  0  0  0  0  0  0  0  0  0
  126.8623  136.6022  162.0369 N   0  0  0  0  0  0  0  0  0  0  0  0
  127.0182  135.8845  163.3053 C   0  0  2  0  0  0  0  0  0  0  0  0
  125.9917  136.3730  164.3875 C   0  0  1  0  0  0  0  0  0  0  0  0
  126.5446  135.6523  165.6549 C   0  0  0  0  0  0  0  0  0  0  0  0
  128.0769  135.6268  165.4528 C   0  0  0  0  0  0  0  0  0  0  0  0
  128.3057  136.3343  164.0821 C   0  0  2  0  0  0  0  0  0  0  0  0
  127.9689  137.8320  164.3551 C   0  0  0  0  0  0  0  0  0  0  0  0
  126.4367  137.8576  164.5573 C   0  0  0  0  0  0  0  0  0  0  0  0
  127.0486  134.8325  160.4063 C   0  0  0  0  0  0  0  0  0  0  0  0
  127.6102  134.3252  159.2511 C   0  0  0  0  0  0  0  0  0  0  0  0
  131.8670  132.3696  158.3207 H   0  0  0  0  0  0  0  0  0  0  0  0
  131.4707  129.7980  159.6086 H   0  0  0  0  0  0  0  0  0  0  0  0
  132.4541  130.0606  158.1484 H   0  0  0  0  0  0  0  0  0  0  0  0
  129.4611  130.6044  158.4005 H   0  0  0  0  0  0  0  0  0  0  0  0
  130.1972  129.2176  157.5619 H   0  0  0  0  0  0  0  0  0  0  0  0
  132.1051  130.3223  155.4939 H   0  0  0  0  0  0  0  0  0  0  0  0
  130.4814  129.8049  154.9347 H   0  0  0  0  0  0  0  0  0  0  0  0
  130.3477  131.6778  153.5921 H   0  0  0  0  0  0  0  0  0  0  0  0
  131.9689  132.1960  154.1488 H   0  0  0  0  0  0  0  0  0  0  0  0
  129.3708  132.6877  158.3708 H   0  0  0  0  0  0  0  0  0  0  0  0
  130.0493  135.0829  157.0368 H   0  0  0  0  0  0  0  0  0  0  0  0
  128.4376  134.5692  156.4825 H   0  0  0  0  0  0  0  0  0  0  0  0
  129.6729  136.8808  158.4736 H   0  0  0  0  0  0  0  0  0  0  0  0
  128.6711  137.7994  160.5252 H   0  0  0  0  0  0  0  0  0  0  0  0
  126.3669  137.4355  162.0085 H   0  0  0  0  0  0  0  0  0  0  0  0
  126.9823  134.8042  163.1642 H   0  0  0  0  0  0  0  0  0  0  0  0
  124.9386  136.2027  164.1639 H   0  0  0  0  0  0  0  0  0  0  0  0
  126.1524  134.6372  165.7165 H   0  0  0  0  0  0  0  0  0  0  0  0
  126.2892  136.2144  166.5533 H   0  0  0  0  0  0  0  0  0  0  0  0
  128.4381  134.5991  165.4149 H   0  0  0  0  0  0  0  0  0  0  0  0
  128.5766  136.1750  166.2515 H   0  0  0  0  0  0  0  0  0  0  0  0
  129.2581  136.1313  163.5939 H   0  0  0  0  0  0  0  0  0  0  0  0
  128.4769  138.1777  165.2555 H   0  0  0  0  0  0  0  0  0  0  0  0
  128.2497  138.4465  163.4997 H   0  0  0  0  0  0  0  0  0  0  0  0
  125.9640  138.4847  163.8012 H   0  0  0  0  0  0  0  0  0  0  0  0
  126.1894  138.2165  165.5563 H   0  0  0  0  0  0  0  0  0  0  0  0
  126.3147  134.2554  160.9493 H   0  0  0  0  0  0  0  0  0  0  0  0
  127.3154  133.3507  158.8909 H   0  0  0  0  0  0  0  0  0  0  0  0
  1  2  1  0
  1 26  1  0
  2  3  1  0
  2 27  1  0
  2 28  1  0
  3  4  1  0
  3 29  1  0
  3 30  1  0
  4  9  1  0
  4  5  1  0
  5  6  1  0
  5 31  1  0
  5 32  1  0
  6  7  1  0
  6 33  1  0
  6 34  1  0
  7  8  1  0
  7  9  2  0
  9 10  1  0
 10 11  1  0
 10 35  1  0
 11 12  1  0
 11 36  1  0
 11 37  1  0
 12 25  1  0
 12 13  2  0
 13 14  1  0
 13 38  1  0
 14 15  2  0
 14 39  1  0
 15 16  1  0
 15 24  1  0
 16 17  1  0
 16 40  1  0
 17 21  1  0
 17 18  1  0
 17 41  1  6
 18 23  1  0
 18 19  1  0
 18 42  1  6
 19 20  1  0
 19 43  1  0
 19 44  1  0
 20 21  1  0
 20 45  1  0
 20 46  1  0
 21 22  1  0
 21 47  1  6
 22 23  1  0
 22 48  1  0
 22 49  1  0
 23 50  1  0
 23 51  1  0
 24 25  2  0
 24 52  1  0
 25 53  1  0
M  CHG  1   7   1
M  END
>  <DOCK_score>  (1) 
-42.24015

>  <SMILES>  (1) 
OCCN1CC[NH+]=C1NCc1ccc(NC2C3CCC2CC3)cc1

$$$$
