CC(C#Cc1cccc([C@@H]2CCC[NH2+]2)c1)Cn1cnc2c(N[C@H]3C[C@H](C)C3)ncnc21
     RDKit          3D

 62 66  0  0  1  0  0  0  0  0999 V2000
  126.5191  132.7700  162.1287 C   0  0  0  0  0  0  0  0  0  0  0  0
  125.9001  132.4563  160.7651 C   0  0  2  0  0  0  0  0  0  0  0  0
  126.9548  132.0178  159.8366 C   0  0  0  0  0  0  0  0  0  0  0  0
  127.7960  131.6680  159.0962 C   0  0  0  0  0  0  0  0  0  0  0  0
  128.8221  131.2413  158.1929 C   0  0  0  0  0  0  0  0  0  0  0  0
  129.5850  130.1095  158.4833 C   0  0  0  0  0  0  0  0  0  0  0  0
  130.5716  129.7034  157.6088 C   0  0  0  0  0  0  0  0  0  0  0  0
  130.8058  130.4161  156.4461 C   0  0  0  0  0  0  0  0  0  0  0  0
  130.0528  131.5386  156.1522 C   0  0  0  0  0  0  0  0  0  0  0  0
  130.3145  132.3085  154.8834 C   0  0  2  0  0  0  0  0  0  0  0  0
  129.6364  133.1586  154.8089 H   0  0  0  0  0  0  0  0  0  0  0  0
  130.1610  131.3878  153.6537 C   0  0  0  0  0  0  0  0  0  0  0  0
  131.2611  131.8427  152.6727 C   0  0  0  0  0  0  0  0  0  0  0  0
  131.9867  132.9999  153.3922 C   0  0  0  0  0  0  0  0  0  0  0  0
  131.7277  132.7642  154.8358 N   0  0  0  0  0  0  0  0  0  0  0  0
  131.8405  133.6195  155.3590 H   0  0  0  0  0  0  0  0  0  0  0  0
  132.3417  132.0471  155.1922 H   0  0  0  0  0  0  0  0  0  0  0  0
  129.0594  131.9522  157.0161 C   0  0  0  0  0  0  0  0  0  0  0  0
  125.2230  133.7117  160.2115 C   0  0  0  0  0  0  0  0  0  0  0  0
  126.2170  134.7777  160.0631 N   0  0  0  0  0  0  0  0  0  0  0  0
  126.9735  135.0266  158.9568 C   0  0  0  0  0  0  0  0  0  0  0  0
  127.7510  136.0483  159.1708 N   0  0  0  0  0  0  0  0  0  0  0  0
  127.5431  136.5183  160.4241 C   0  0  0  0  0  0  0  0  0  0  0  0
  128.0783  137.5707  161.1865 C   0  0  0  0  0  0  0  0  0  0  0  0
  129.0527  138.4013  160.6611 N   0  0  0  0  0  0  0  0  0  0  0  0
  129.6034  139.4894  161.4729 C   0  0  1  0  0  0  0  0  0  0  0  0
  128.8456  139.9978  162.0692 H   0  0  0  0  0  0  0  0  0  0  0  0
  130.8519  139.0881  162.2757 C   0  0  0  0  0  0  0  0  0  0  0  0
  131.6796  139.5139  161.0517 C   0  0  2  0  0  0  0  0  0  0  0  0
  131.8397  138.7110  160.3319 H   0  0  0  0  0  0  0  0  0  0  0  0
  132.9687  140.2553  161.4112 C   0  0  0  0  0  0  0  0  0  0  0  0
  130.5134  140.4476  160.6864 C   0  0  0  0  0  0  0  0  0  0  0  0
  127.6312  137.7462  162.4254 N   0  0  0  0  0  0  0  0  0  0  0  0
  126.6971  136.9625  162.9329 C   0  0  0  0  0  0  0  0  0  0  0  0
  126.1677  135.9650  162.2566 N   0  0  0  0  0  0  0  0  0  0  0  0
  126.5565  135.7088  161.0117 C   0  0  0  0  0  0  0  0  0  0  0  0
  127.0015  131.8757  162.5232 H   0  0  0  0  0  0  0  0  0  0  0  0
  127.2587  133.5630  162.0182 H   0  0  0  0  0  0  0  0  0  0  0  0
  125.7382  133.0948  162.8162 H   0  0  0  0  0  0  0  0  0  0  0  0
  125.1606  131.6633  160.8757 H   0  0  0  0  0  0  0  0  0  0  0  0
  129.4031  129.5523  159.3904 H   0  0  0  0  0  0  0  0  0  0  0  0
  131.1627  128.8276  157.8323 H   0  0  0  0  0  0  0  0  0  0  0  0
  131.5796  130.0942  155.7649 H   0  0  0  0  0  0  0  0  0  0  0  0
  130.3145  130.3469  153.9385 H   0  0  0  0  0  0  0  0  0  0  0  0
  129.1762  131.5170  153.2046 H   0  0  0  0  0  0  0  0  0  0  0  0
  131.9546  131.0251  152.4760 H   0  0  0  0  0  0  0  0  0  0  0  0
  130.8164  132.1935  151.7413 H   0  0  0  0  0  0  0  0  0  0  0  0
  133.0567  132.9637  153.1871 H   0  0  0  0  0  0  0  0  0  0  0  0
  131.5733  133.9594  153.0817 H   0  0  0  0  0  0  0  0  0  0  0  0
  128.4696  132.8266  156.7838 H   0  0  0  0  0  0  0  0  0  0  0  0
  124.4421  134.0364  160.8991 H   0  0  0  0  0  0  0  0  0  0  0  0
  124.7820  133.4884  159.2402 H   0  0  0  0  0  0  0  0  0  0  0  0
  126.9336  134.4600  158.0384 H   0  0  0  0  0  0  0  0  0  0  0  0
  129.3710  138.2630  159.7553 H   0  0  0  0  0  0  0  0  0  0  0  0
  130.9081  138.0210  162.4911 H   0  0  0  0  0  0  0  0  0  0  0  0
  131.0243  139.7071  163.1561 H   0  0  0  0  0  0  0  0  0  0  0  0
  133.6002  139.6105  162.0223 H   0  0  0  0  0  0  0  0  0  0  0  0
  132.7245  141.1592  161.9692 H   0  0  0  0  0  0  0  0  0  0  0  0
  133.5000  140.5242  160.4981 H   0  0  0  0  0  0  0  0  0  0  0  0
  130.5921  141.4393  161.1319 H   0  0  0  0  0  0  0  0  0  0  0  0
  130.2965  140.4782  159.6187 H   0  0  0  0  0  0  0  0  0  0  0  0
  126.3587  137.1434  163.9424 H   0  0  0  0  0  0  0  0  0  0  0  0
  1  2  1  0
  1 37  1  0
  1 38  1  0
  1 39  1  0
  2  3  1  0
  2 19  1  0
  2 40  1  1
  3  4  3  0
  4  5  1  0
  5 18  1  0
  5  6  2  0
  6  7  1  0
  6 41  1  0
  7  8  2  0
  7 42  1  0
  8  9  1  0
  8 43  1  0
  9 10  1  0
  9 18  2  0
 10 11  1  6
 10 15  1  0
 10 12  1  0
 12 13  1  0
 12 44  1  0
 12 45  1  0
 13 14  1  0
 13 46  1  0
 13 47  1  0
 14 15  1  0
 14 48  1  0
 14 49  1  0
 15 16  1  0
 15 17  1  0
 18 50  1  0
 19 20  1  0
 19 51  1  0
 19 52  1  0
 20 36  1  0
 20 21  1  0
 21 22  2  0
 21 53  1  0
 22 23  1  0
 23 36  2  0
 23 24  1  0
 24 25  1  0
 24 33  2  0
 25 26  1  0
 25 54  1  0
 26 27  1  1
 26 32  1  0
 26 28  1  0
 28 29  1  0
 28 55  1  0
 28 56  1  0
 29 30  1  6
 29 31  1  0
 29 32  1  0
 31 57  1  0
 31 58  1  0
 31 59  1  0
 32 60  1  0
 32 61  1  0
 33 34  1  0
 34 35  2  0
 34 62  1  0
 35 36  1  0
M  CHG  1  15   1
M  END
>  <DOCK_score>  (1) 
-41.844612

>  <SMILES>  (1) 
CC(C#Cc1cccc([C@@H]2CCC[NH2+]2)c1)Cn1cnc2c(N[C@H]3C[C@H](C)C3)ncnc21

$$$$
