F[C@@H]1C[C@H](Nc2ccc(-c3n[nH]cc3C[NH2+][C@H]3C[C@@H](Br)C3)o2)C[C@@H]1F
     RDKit          3D

 47 50  0  0  1  0  0  0  0  0999 V2000
  130.1362  139.3354  162.7791 F   0  0  0  0  0  0  0  0  0  0  0  0
  129.1370  138.6100  163.4369 C   0  0  2  0  0  0  0  0  0  0  0  0
  129.5268  138.1730  164.3563 H   0  0  0  0  0  0  0  0  0  0  0  0
  128.5665  137.5088  162.5091 C   0  0  0  0  0  0  0  0  0  0  0  0
  127.1614  137.2513  163.1080 C   0  0  2  0  0  0  0  0  0  0  0  0
  127.2284  136.5923  163.9736 H   0  0  0  0  0  0  0  0  0  0  0  0
  126.2701  136.6782  162.0966 N   0  0  0  0  0  0  0  0  0  0  0  0
  126.7503  135.7234  161.2078 C   0  0  0  0  0  0  0  0  0  0  0  0
  126.0216  134.7276  160.6446 C   0  0  0  0  0  0  0  0  0  0  0  0
  126.8953  133.9975  159.8149 C   0  0  0  0  0  0  0  0  0  0  0  0
  128.1164  134.5862  159.9141 C   0  0  0  0  0  0  0  0  0  0  0  0
  129.3443  134.1553  159.2148 C   0  0  0  0  0  0  0  0  0  0  0  0
  129.4479  133.1367  158.3839 N   0  0  0  0  0  0  0  0  0  0  0  0
  130.7765  133.0666  157.9457 N   0  0  0  0  0  0  0  0  0  0  0  0
  131.1383  132.4106  157.3296 H   0  0  0  0  0  0  0  0  0  0  0  0
  131.4664  134.0708  158.5289 C   0  0  0  0  0  0  0  0  0  0  0  0
  130.6138  134.7630  159.3144 C   0  0  0  0  0  0  0  0  0  0  0  0
  130.9583  135.9665  160.1534 C   0  0  0  0  0  0  0  0  0  0  0  0
  132.3814  136.2895  159.9851 N   0  0  0  0  0  0  0  0  0  0  0  0
  132.5678  136.4918  159.0145 H   0  0  0  0  0  0  0  0  0  0  0  0
  132.9417  135.5033  160.2785 H   0  0  0  0  0  0  0  0  0  0  0  0
  132.7172  137.4626  160.8031 C   0  0  1  0  0  0  0  0  0  0  0  0
  132.2320  137.4510  161.7790 H   0  0  0  0  0  0  0  0  0  0  0  0
  134.2246  137.7596  160.8681 C   0  0  0  0  0  0  0  0  0  0  0  0
  133.8561  139.2487  160.7618 C   0  0  1  0  0  0  0  0  0  0  0  0
  133.6820  139.7267  161.7259 H   0  0  0  0  0  0  0  0  0  0  0  0
  135.0674  140.2793  159.6063 Br  0  0  0  0  0  0  0  0  0  0  0  0
  132.5662  138.7982  160.0560 C   0  0  0  0  0  0  0  0  0  0  0  0
  128.0158  135.6286  160.7657 O   0  0  0  0  0  0  0  0  0  0  0  0
  126.6687  138.6505  163.5316 C   0  0  0  0  0  0  0  0  0  0  0  0
  127.9246  139.5143  163.7406 C   0  0  2  0  0  0  0  0  0  0  0  0
  127.9692  139.8649  164.7718 H   0  0  0  0  0  0  0  0  0  0  0  0
  127.9081  140.6043  162.8637 F   0  0  0  0  0  0  0  0  0  0  0  0
  129.1781  136.6079  162.5575 H   0  0  0  0  0  0  0  0  0  0  0  0
  128.4889  137.8698  161.4835 H   0  0  0  0  0  0  0  0  0  0  0  0
  125.3447  136.9650  162.0471 H   0  0  0  0  0  0  0  0  0  0  0  0
  124.9714  134.5314  160.8025 H   0  0  0  0  0  0  0  0  0  0  0  0
  126.6434  133.1354  159.2151 H   0  0  0  0  0  0  0  0  0  0  0  0
  132.5164  134.2824  158.3914 H   0  0  0  0  0  0  0  0  0  0  0  0
  130.7568  135.7481  161.2020 H   0  0  0  0  0  0  0  0  0  0  0  0
  130.3530  136.8156  159.8362 H   0  0  0  0  0  0  0  0  0  0  0  0
  134.6821  137.4899  161.8200 H   0  0  0  0  0  0  0  0  0  0  0  0
  134.7809  137.3850  160.0089 H   0  0  0  0  0  0  0  0  0  0  0  0
  132.6690  138.7077  158.9746 H   0  0  0  0  0  0  0  0  0  0  0  0
  131.6840  139.3664  160.3512 H   0  0  0  0  0  0  0  0  0  0  0  0
  126.0462  139.0805  162.7468 H   0  0  0  0  0  0  0  0  0  0  0  0
  126.1029  138.5816  164.4608 H   0  0  0  0  0  0  0  0  0  0  0  0
  1  2  1  0
  2  3  1  1
  2 31  1  0
  2  4  1  0
  4  5  1  0
  4 34  1  0
  4 35  1  0
  5  6  1  1
  5  7  1  0
  5 30  1  0
  7  8  1  0
  7 36  1  0
  8 29  1  0
  8  9  2  0
  9 10  1  0
  9 37  1  0
 10 11  2  0
 10 38  1  0
 11 12  1  0
 11 29  1  0
 12 17  1  0
 12 13  2  0
 13 14  1  0
 14 15  1  0
 14 16  1  0
 16 17  2  0
 16 39  1  0
 17 18  1  0
 18 19  1  0
 18 40  1  0
 18 41  1  0
 19 20  1  0
 19 21  1  0
 19 22  1  0
 22 23  1  1
 22 28  1  0
 22 24  1  0
 24 25  1  0
 24 42  1  0
 24 43  1  0
 25 26  1  1
 25 27  1  0
 25 28  1  0
 28 44  1  0
 28 45  1  0
 30 31  1  0
 30 46  1  0
 30 47  1  0
 31 32  1  1
 31 33  1  0
M  CHG  1  19   1
M  END
>  <DOCK_score>  (1) 
-44.869324

>  <SMILES>  (1) 
F[C@@H]1C[C@H](Nc2ccc(-c3n[nH]cc3C[NH2+][C@H]3C[C@@H](Br)C3)o2)C[C@@H]1F

$$$$
