O=C1CCC(NC(NC2COC2)=[NH+][C@H]2COc3ccccc3C2)CN1
     RDKit          3D

 50 53  0  0  1  0  0  0  0  0999 V2000
  123.7878  133.8023  161.5620 O   0  0  0  0  0  0  0  0  0  0  0  0
  124.9550  133.9402  161.2631 C   0  0  0  0  0  0  0  0  0  0  0  0
  125.7258  132.7266  160.8292 C   0  0  0  0  0  0  0  0  0  0  0  0
  127.2284  133.0040  160.9199 C   0  0  0  0  0  0  0  0  0  0  0  0
  127.5167  134.3426  160.2296 C   0  0  2  0  0  0  0  0  0  0  0  0
  128.9644  134.5515  160.1474 N   0  0  0  0  0  0  0  0  0  0  0  0
  129.6629  134.1007  159.0526 C   0  0  0  0  0  0  0  0  0  0  0  0
  129.0028  133.4537  158.0347 N   0  0  0  0  0  0  0  0  0  0  0  0
  129.7472  132.9732  156.8680 C   0  0  0  0  0  0  0  0  0  0  0  0
  129.0571  131.8145  156.1238 C   0  0  0  0  0  0  0  0  0  0  0  0
  130.3708  131.2238  156.0585 O   0  0  0  0  0  0  0  0  0  0  0  0
  130.8466  131.9499  157.2096 C   0  0  0  0  0  0  0  0  0  0  0  0
  130.9509  134.2867  158.9793 N   0  0  0  0  0  0  0  0  0  0  0  0
  131.3779  134.3884  158.1143 H   0  0  0  0  0  0  0  0  0  0  0  0
  131.7536  134.3422  160.2035 C   0  0  1  0  0  0  0  0  0  0  0  0
  131.2939  133.7218  160.9727 H   0  0  0  0  0  0  0  0  0  0  0  0
  133.1741  133.8399  159.9146 C   0  0  0  0  0  0  0  0  0  0  0  0
  133.8996  133.8085  161.1445 O   0  0  0  0  0  0  0  0  0  0  0  0
  133.8671  134.9185  161.9271 C   0  0  0  0  0  0  0  0  0  0  0  0
  134.8244  135.0534  162.9277 C   0  0  0  0  0  0  0  0  0  0  0  0
  134.8153  136.1592  163.7528 C   0  0  0  0  0  0  0  0  0  0  0  0
  133.8488  137.1347  163.5895 C   0  0  0  0  0  0  0  0  0  0  0  0
  132.8950  137.0024  162.5995 C   0  0  0  0  0  0  0  0  0  0  0  0
  132.8999  135.8950  161.7676 C   0  0  0  0  0  0  0  0  0  0  0  0
  131.8458  135.7891  160.6947 C   0  0  0  0  0  0  0  0  0  0  0  0
  126.8824  135.4646  161.0527 C   0  0  0  0  0  0  0  0  0  0  0  0
  125.4852  135.1616  161.3367 N   0  0  0  0  0  0  0  0  0  0  0  0
  125.4645  132.4806  159.7999 H   0  0  0  0  0  0  0  0  0  0  0  0
  125.4729  131.8867  161.4762 H   0  0  0  0  0  0  0  0  0  0  0  0
  127.7794  132.2073  160.4203 H   0  0  0  0  0  0  0  0  0  0  0  0
  127.5289  133.0584  161.9662 H   0  0  0  0  0  0  0  0  0  0  0  0
  127.0906  134.3360  159.2264 H   0  0  0  0  0  0  0  0  0  0  0  0
  129.4301  135.0079  160.8656 H   0  0  0  0  0  0  0  0  0  0  0  0
  128.0444  133.3153  158.0891 H   0  0  0  0  0  0  0  0  0  0  0  0
  130.0836  133.7793  156.2158 H   0  0  0  0  0  0  0  0  0  0  0  0
  128.3517  131.2543  156.7376 H   0  0  0  0  0  0  0  0  0  0  0  0
  128.6507  132.0944  155.1520 H   0  0  0  0  0  0  0  0  0  0  0  0
  131.8594  132.3373  157.0990 H   0  0  0  0  0  0  0  0  0  0  0  0
  130.6888  131.4326  158.1561 H   0  0  0  0  0  0  0  0  0  0  0  0
  133.1295  132.8374  159.4890 H   0  0  0  0  0  0  0  0  0  0  0  0
  133.6668  134.5144  159.2142 H   0  0  0  0  0  0  0  0  0  0  0  0
  135.5799  134.2924  163.0561 H   0  0  0  0  0  0  0  0  0  0  0  0
  135.5622  136.2627  164.5260 H   0  0  0  0  0  0  0  0  0  0  0  0
  133.8401  138.0000  164.2357 H   0  0  0  0  0  0  0  0  0  0  0  0
  132.1415  137.7659  162.4737 H   0  0  0  0  0  0  0  0  0  0  0  0
  130.8823  136.0961  161.1012 H   0  0  0  0  0  0  0  0  0  0  0  0
  132.1106  136.4391  159.8608 H   0  0  0  0  0  0  0  0  0  0  0  0
  127.4254  135.5740  161.9915 H   0  0  0  0  0  0  0  0  0  0  0  0
  126.9421  136.3989  160.4946 H   0  0  0  0  0  0  0  0  0  0  0  0
  124.9047  135.8943  161.5957 H   0  0  0  0  0  0  0  0  0  0  0  0
  1  2  2  0
  2 27  1  0
  2  3  1  0
  3  4  1  0
  3 28  1  0
  3 29  1  0
  4  5  1  0
  4 30  1  0
  4 31  1  0
  5  6  1  0
  5 26  1  0
  5 32  1  6
  6 33  1  0
  7  6  1  0
  7  8  1  0
  7 13  2  0
  8  9  1  0
  8 34  1  0
  9 12  1  0
  9 10  1  0
  9 35  1  0
 10 11  1  0
 10 36  1  0
 10 37  1  0
 11 12  1  0
 12 38  1  0
 12 39  1  0
 13 14  1  0
 13 15  1  0
 15 16  1  1
 15 25  1  0
 15 17  1  0
 17 18  1  0
 17 40  1  0
 17 41  1  0
 18 19  1  0
 19 24  2  0
 19 20  1  0
 20 21  2  0
 20 42  1  0
 21 22  1  0
 21 43  1  0
 22 23  2  0
 22 44  1  0
 23 24  1  0
 23 45  1  0
 24 25  1  0
 25 46  1  0
 25 47  1  0
 26 27  1  0
 26 48  1  0
 26 49  1  0
 27 50  1  0
M  CHG  1  13   1
M  END
>  <DOCK_score>  (1) 
-43.088509

>  <SMILES>  (1) 
O=C1CCC(NC(NC2COC2)=[NH+][C@H]2COc3ccccc3C2)CN1

$$$$
