Nc1ccc(-c2c[nH]c(NC(N)[C@@H]3Cc4ccccc4C3=O)[nH+]2)cc1
     RDKit          3D

 45 48  0  0  1  0  0  0  0  0999 V2000
  131.3814  129.7903  151.9062 N   0  0  0  0  0  0  0  0  0  0  0  0
  131.0677  130.4315  153.1072 C   0  0  0  0  0  0  0  0  0  0  0  0
  130.3487  131.6214  153.0907 C   0  0  0  0  0  0  0  0  0  0  0  0
  130.0336  132.2540  154.2747 C   0  0  0  0  0  0  0  0  0  0  0  0
  130.4463  131.7054  155.4880 C   0  0  0  0  0  0  0  0  0  0  0  0
  130.1143  132.3876  156.7629 C   0  0  0  0  0  0  0  0  0  0  0  0
  129.3892  131.8647  157.7823 C   0  0  0  0  0  0  0  0  0  0  0  0
  129.3239  132.8286  158.7604 N   0  0  0  0  0  0  0  0  0  0  0  0
  128.8713  132.7504  159.6149 H   0  0  0  0  0  0  0  0  0  0  0  0
  130.0116  133.9122  158.3086 C   0  0  0  0  0  0  0  0  0  0  0  0
  130.1857  135.1011  158.9965 N   0  0  0  0  0  0  0  0  0  0  0  0
  129.6031  135.2676  160.3304 C   0  0  1  0  0  0  0  0  0  0  0  0
  129.7564  134.0201  161.0909 N   0  0  0  0  0  0  0  0  0  0  0  0
  130.3215  136.4028  161.0626 C   0  0  2  0  0  0  0  0  0  0  0  0
  129.8974  136.5376  162.0577 H   0  0  0  0  0  0  0  0  0  0  0  0
  130.2173  137.7051  160.2570 C   0  0  0  0  0  0  0  0  0  0  0  0
  131.6325  138.1108  159.9219 C   0  0  0  0  0  0  0  0  0  0  0  0
  132.1110  139.1985  159.2161 C   0  0  0  0  0  0  0  0  0  0  0  0
  133.4709  139.3678  159.0317 C   0  0  0  0  0  0  0  0  0  0  0  0
  134.3641  138.4479  159.5532 C   0  0  0  0  0  0  0  0  0  0  0  0
  133.9029  137.3590  160.2586 C   0  0  0  0  0  0  0  0  0  0  0  0
  132.5242  137.1785  160.4513 C   0  0  0  0  0  0  0  0  0  0  0  0
  131.7992  136.1103  161.1591 C   0  0  0  0  0  0  0  0  0  0  0  0
  132.3017  135.1607  161.7213 O   0  0  0  0  0  0  0  0  0  0  0  0
  130.4874  133.6428  157.1173 N   0  0  0  0  0  0  0  0  0  0  0  0
  131.0191  134.2458  156.5745 H   0  0  0  0  0  0  0  0  0  0  0  0
  131.1717  130.5152  155.5015 C   0  0  0  0  0  0  0  0  0  0  0  0
  131.4796  129.8831  154.3154 C   0  0  0  0  0  0  0  0  0  0  0  0
  131.8864  128.9624  151.9166 H   0  0  0  0  0  0  0  0  0  0  0  0
  131.0907  130.1708  151.0626 H   0  0  0  0  0  0  0  0  0  0  0  0
  130.0333  132.0486  152.1501 H   0  0  0  0  0  0  0  0  0  0  0  0
  129.4715  133.1761  154.2618 H   0  0  0  0  0  0  0  0  0  0  0  0
  128.9473  130.8799  157.8186 H   0  0  0  0  0  0  0  0  0  0  0  0
  130.6933  135.8237  158.5954 H   0  0  0  0  0  0  0  0  0  0  0  0
  128.5442  135.5084  160.2369 H   0  0  0  0  0  0  0  0  0  0  0  0
  130.7300  133.7752  161.1914 H   0  0  0  0  0  0  0  0  0  0  0  0
  129.3058  134.0878  161.9911 H   0  0  0  0  0  0  0  0  0  0  0  0
  129.6501  137.5347  159.3419 H   0  0  0  0  0  0  0  0  0  0  0  0
  129.7379  138.4789  160.8567 H   0  0  0  0  0  0  0  0  0  0  0  0
  131.4193  139.9199  158.8068 H   0  0  0  0  0  0  0  0  0  0  0  0
  133.8373  140.2205  158.4794 H   0  0  0  0  0  0  0  0  0  0  0  0
  135.4253  138.5843  159.4061 H   0  0  0  0  0  0  0  0  0  0  0  0
  134.6026  136.6430  160.6638 H   0  0  0  0  0  0  0  0  0  0  0  0
  131.4921  130.0882  156.4405 H   0  0  0  0  0  0  0  0  0  0  0  0
  132.0416  128.9609  154.3253 H   0  0  0  0  0  0  0  0  0  0  0  0
  1  2  1  0
  1 29  1  0
  1 30  1  0
  2 28  2  0
  2  3  1  0
  3  4  2  0
  3 31  1  0
  4  5  1  0
  4 32  1  0
  5  6  1  0
  5 27  2  0
  6 25  1  0
  6  7  2  0
  7  8  1  0
  7 33  1  0
  8  9  1  0
  8 10  1  0
 10 11  1  0
 10 25  2  0
 11 12  1  0
 11 34  1  0
 12 13  1  0
 12 14  1  0
 12 35  1  6
 13 36  1  0
 13 37  1  0
 14 15  1  1
 14 23  1  0
 14 16  1  0
 16 17  1  0
 16 38  1  0
 16 39  1  0
 17 22  2  0
 17 18  1  0
 18 19  2  0
 18 40  1  0
 19 20  1  0
 19 41  1  0
 20 21  2  0
 20 42  1  0
 21 22  1  0
 21 43  1  0
 22 23  1  0
 23 24  2  0
 25 26  1  0
 27 28  1  0
 27 44  1  0
 28 45  1  0
M  CHG  1  25   1
M  END
>  <DOCK_score>  (1) 
-58.362839

>  <SMILES>  (1) 
Nc1ccc(-c2c[nH]c(NC(N)[C@@H]3Cc4ccccc4C3=O)[nH+]2)cc1

$$$$
