Nc1ccc(-c2c[nH]c(N[C@@H](/C=C/C(=O)OCC3=CCCCC3)c3ccccc3)[nH+]2)cc1
     RDKit          3D

 61 64  0  0  1  0  0  0  0  0999 V2000
  131.3295  129.4297  152.0490 N   0  0  0  0  0  0  0  0  0  0  0  0
  131.0678  130.1122  153.2394 C   0  0  0  0  0  0  0  0  0  0  0  0
  130.1522  131.1577  153.2527 C   0  0  0  0  0  0  0  0  0  0  0  0
  129.8919  131.8326  154.4268 C   0  0  0  0  0  0  0  0  0  0  0  0
  130.5477  131.4654  155.6007 C   0  0  0  0  0  0  0  0  0  0  0  0
  130.2697  132.1903  156.8649 C   0  0  0  0  0  0  0  0  0  0  0  0
  129.7803  131.6454  158.0060 C   0  0  0  0  0  0  0  0  0  0  0  0
  129.6775  132.6651  158.9225 N   0  0  0  0  0  0  0  0  0  0  0  0
  129.3542  132.5882  159.8337 H   0  0  0  0  0  0  0  0  0  0  0  0
  130.1074  133.8031  158.3129 C   0  0  0  0  0  0  0  0  0  0  0  0
  130.1626  135.0582  158.8948 N   0  0  0  0  0  0  0  0  0  0  0  0
  129.7348  135.2408  160.2841 C   0  0  1  0  0  0  0  0  0  0  0  0
  130.0754  134.3963  160.8832 H   0  0  0  0  0  0  0  0  0  0  0  0
  130.3275  136.5147  160.8289 C   0  0  0  0  0  0  0  0  0  0  0  0
  130.0468  137.6799  160.2502 C   0  0  0  0  0  0  0  0  0  0  0  0
  130.6248  138.9221  160.7812 C   0  0  0  0  0  0  0  0  0  0  0  0
  130.3684  139.9862  160.2526 O   0  0  0  0  0  0  0  0  0  0  0  0
  131.4392  138.8817  161.8545 O   0  0  0  0  0  0  0  0  0  0  0  0
  131.9737  140.1473  162.3246 C   0  0  0  0  0  0  0  0  0  0  0  0
  133.3234  139.9195  162.9551 C   0  0  0  0  0  0  0  0  0  0  0  0
  134.3436  140.5295  162.4425 C   0  0  0  0  0  0  0  0  0  0  0  0
  135.7473  140.3982  162.9564 C   0  0  0  0  0  0  0  0  0  0  0  0
  135.7401  139.8065  164.3676 C   0  0  0  0  0  0  0  0  0  0  0  0
  134.8501  138.5572  164.3654 C   0  0  0  0  0  0  0  0  0  0  0  0
  133.4020  138.9949  164.1345 C   0  0  0  0  0  0  0  0  0  0  0  0
  128.2310  135.3223  160.3400 C   0  0  0  0  0  0  0  0  0  0  0  0
  127.5560  134.8780  161.4615 C   0  0  0  0  0  0  0  0  0  0  0  0
  126.1769  134.9565  161.5143 C   0  0  0  0  0  0  0  0  0  0  0  0
  125.4723  135.4718  160.4424 C   0  0  0  0  0  0  0  0  0  0  0  0
  126.1470  135.9111  159.3188 C   0  0  0  0  0  0  0  0  0  0  0  0
  127.5264  135.8364  159.2676 C   0  0  0  0  0  0  0  0  0  0  0  0
  130.4604  133.5154  157.0837 N   0  0  0  0  0  0  0  0  0  0  0  0
  130.8028  134.1491  156.4340 H   0  0  0  0  0  0  0  0  0  0  0  0
  131.4695  130.4199  155.5838 C   0  0  0  0  0  0  0  0  0  0  0  0
  131.7229  129.7444  154.4086 C   0  0  0  0  0  0  0  0  0  0  0  0
  130.8725  129.6855  151.2326 H   0  0  0  0  0  0  0  0  0  0  0  0
  131.9684  128.6997  152.0389 H   0  0  0  0  0  0  0  0  0  0  0  0
  129.6445  131.4421  152.3430 H   0  0  0  0  0  0  0  0  0  0  0  0
  129.1800  132.6448  154.4368 H   0  0  0  0  0  0  0  0  0  0  0  0
  129.5208  130.6092  158.1645 H   0  0  0  0  0  0  0  0  0  0  0  0
  130.4844  135.8164  158.3828 H   0  0  0  0  0  0  0  0  0  0  0  0
  130.9800  136.4823  161.6888 H   0  0  0  0  0  0  0  0  0  0  0  0
  129.3941  137.7124  159.3902 H   0  0  0  0  0  0  0  0  0  0  0  0
  132.0767  140.8330  161.4835 H   0  0  0  0  0  0  0  0  0  0  0  0
  131.2958  140.5765  163.0624 H   0  0  0  0  0  0  0  0  0  0  0  0
  134.1733  141.1760  161.5942 H   0  0  0  0  0  0  0  0  0  0  0  0
  136.2197  141.3802  162.9788 H   0  0  0  0  0  0  0  0  0  0  0  0
  136.3117  139.7430  162.2929 H   0  0  0  0  0  0  0  0  0  0  0  0
  135.3418  140.5388  165.0700 H   0  0  0  0  0  0  0  0  0  0  0  0
  136.7542  139.5332  164.6590 H   0  0  0  0  0  0  0  0  0  0  0  0
  134.9302  138.0484  165.3260 H   0  0  0  0  0  0  0  0  0  0  0  0
  135.1621  137.8863  163.5649 H   0  0  0  0  0  0  0  0  0  0  0  0
  133.0341  139.5096  165.0222 H   0  0  0  0  0  0  0  0  0  0  0  0
  132.7865  138.1154  163.9458 H   0  0  0  0  0  0  0  0  0  0  0  0
  128.1062  134.4724  162.2976 H   0  0  0  0  0  0  0  0  0  0  0  0
  125.6496  134.6127  162.3920 H   0  0  0  0  0  0  0  0  0  0  0  0
  124.3946  135.5306  160.4826 H   0  0  0  0  0  0  0  0  0  0  0  0
  125.5965  136.3134  158.4812 H   0  0  0  0  0  0  0  0  0  0  0  0
  128.0535  136.1796  158.3897 H   0  0  0  0  0  0  0  0  0  0  0  0
  131.9823  130.1367  156.4913 H   0  0  0  0  0  0  0  0  0  0  0  0
  132.4342  128.9318  154.3959 H   0  0  0  0  0  0  0  0  0  0  0  0
  1  2  1  0
  1 36  1  0
  1 37  1  0
  2 35  2  0
  2  3  1  0
  3  4  2  0
  3 38  1  0
  4  5  1  0
  4 39  1  0
  5  6  1  0
  5 34  2  0
  6 32  1  0
  6  7  2  0
  7  8  1  0
  7 40  1  0
  8  9  1  0
  8 10  1  0
 10 11  1  0
 10 32  2  0
 11 12  1  0
 11 41  1  0
 12 13  1  1
 12 14  1  0
 12 26  1  0
 14 15  2  0
 14 42  1  0
 15 16  1  0
 15 43  1  0
 16 17  2  0
 16 18  1  0
 18 19  1  0
 19 20  1  0
 19 44  1  0
 19 45  1  0
 20 25  1  0
 20 21  2  0
 21 22  1  0
 21 46  1  0
 22 23  1  0
 22 47  1  0
 22 48  1  0
 23 24  1  0
 23 49  1  0
 23 50  1  0
 24 25  1  0
 24 51  1  0
 24 52  1  0
 25 53  1  0
 25 54  1  0
 26 31  1  0
 26 27  2  0
 27 28  1  0
 27 55  1  0
 28 29  2  0
 28 56  1  0
 29 30  1  0
 29 57  1  0
 30 31  2  0
 30 58  1  0
 31 59  1  0
 32 33  1  0
 34 35  1  0
 34 60  1  0
 35 61  1  0
M  CHG  1  32   1
M  END
>  <DOCK_score>  (1) 
-58.752525

>  <SMILES>  (1) 
Nc1ccc(-c2c[nH]c(N[C@@H](/C=C/C(=O)OCC3=CCCCC3)c3ccccc3)[nH+]2)cc1

$$$$
