Nc1ccc(-c2c[nH]c(Nc3ccc(N)c(O)c3)[nH+]2)cc1
     RDKit          3D

 37 39  0  0  1  0  0  0  0  0999 V2000
  131.2783  129.4015  151.9574 N   0  0  0  0  0  0  0  0  0  0  0  0
  131.0230  130.0808  153.1511 C   0  0  0  0  0  0  0  0  0  0  0  0
  130.1191  131.1356  153.1693 C   0  0  0  0  0  0  0  0  0  0  0  0
  129.8618  131.8046  154.3474 C   0  0  0  0  0  0  0  0  0  0  0  0
  130.5170  131.4282  155.5188 C   0  0  0  0  0  0  0  0  0  0  0  0
  130.2454  132.1495  156.7864 C   0  0  0  0  0  0  0  0  0  0  0  0
  129.7591  131.6016  157.9277 C   0  0  0  0  0  0  0  0  0  0  0  0
  129.6620  132.6180  158.8479 N   0  0  0  0  0  0  0  0  0  0  0  0
  129.3453  132.5381  159.7612 H   0  0  0  0  0  0  0  0  0  0  0  0
  130.0922  133.7576  158.2405 C   0  0  0  0  0  0  0  0  0  0  0  0
  130.1534  135.0108  158.8271 N   0  0  0  0  0  0  0  0  0  0  0  0
  129.2433  135.3582  159.8333 C   0  0  0  0  0  0  0  0  0  0  0  0
  128.0379  135.9618  159.5005 C   0  0  0  0  0  0  0  0  0  0  0  0
  127.1359  136.3002  160.4912 C   0  0  0  0  0  0  0  0  0  0  0  0
  127.4378  136.0479  161.8211 C   0  0  0  0  0  0  0  0  0  0  0  0
  126.5246  136.3976  162.8265 N   0  0  0  0  0  0  0  0  0  0  0  0
  128.6489  135.4477  162.1578 C   0  0  0  0  0  0  0  0  0  0  0  0
  128.9464  135.1992  163.4615 O   0  0  0  0  0  0  0  0  0  0  0  0
  129.5493  135.1039  161.1637 C   0  0  0  0  0  0  0  0  0  0  0  0
  130.4449  133.4720  157.0106 N   0  0  0  0  0  0  0  0  0  0  0  0
  130.7910  134.1062  156.3632 H   0  0  0  0  0  0  0  0  0  0  0  0
  131.4274  130.3728  155.4974 C   0  0  0  0  0  0  0  0  0  0  0  0
  131.6779  129.7036  154.3181 C   0  0  0  0  0  0  0  0  0  0  0  0
  131.9126  128.6668  151.9438 H   0  0  0  0  0  0  0  0  0  0  0  0
  130.8191  129.6606  151.1440 H   0  0  0  0  0  0  0  0  0  0  0  0
  129.6146  131.4295  152.2607 H   0  0  0  0  0  0  0  0  0  0  0  0
  129.1562  132.6220  154.3616 H   0  0  0  0  0  0  0  0  0  0  0  0
  129.4979  130.5654  158.0837 H   0  0  0  0  0  0  0  0  0  0  0  0
  130.8267  135.6478  158.5410 H   0  0  0  0  0  0  0  0  0  0  0  0
  127.8033  136.1633  158.4657 H   0  0  0  0  0  0  0  0  0  0  0  0
  126.1969  136.7657  160.2300 H   0  0  0  0  0  0  0  0  0  0  0  0
  126.7361  136.2212  163.7565 H   0  0  0  0  0  0  0  0  0  0  0  0
  125.6813  136.8154  162.5916 H   0  0  0  0  0  0  0  0  0  0  0  0
  129.8079  134.7810  163.5956 H   0  0  0  0  0  0  0  0  0  0  0  0
  130.4886  134.6381  161.4228 H   0  0  0  0  0  0  0  0  0  0  0  0
  131.9364  130.0797  156.4038 H   0  0  0  0  0  0  0  0  0  0  0  0
  132.3832  128.8858  154.3011 H   0  0  0  0  0  0  0  0  0  0  0  0
  1  2  1  0
  1 24  1  0
  1 25  1  0
  2 23  2  0
  2  3  1  0
  3  4  2  0
  3 26  1  0
  4  5  1  0
  4 27  1  0
  5  6  1  0
  5 22  2  0
  6 20  1  0
  6  7  2  0
  7  8  1  0
  7 28  1  0
  8  9  1  0
  8 10  1  0
 10 11  1  0
 10 20  2  0
 11 12  1  0
 11 29  1  0
 12 19  1  0
 12 13  2  0
 13 14  1  0
 13 30  1  0
 14 15  2  0
 14 31  1  0
 15 16  1  0
 15 17  1  0
 16 32  1  0
 16 33  1  0
 17 18  1  0
 17 19  2  0
 18 34  1  0
 19 35  1  0
 20 21  1  0
 22 23  1  0
 22 36  1  0
 23 37  1  0
M  CHG  1  20   1
M  END
>  <DOCK_score>  (1) 
-49.428753

>  <SMILES>  (1) 
Nc1ccc(-c2c[nH]c(Nc3ccc(N)c(O)c3)[nH+]2)cc1

$$$$
