CC(Cc1ccccc1CC1CNC(=O)C1)[NH2+][C@H](C)Cc1c[nH]c2ccc(O)cc12
     RDKit          3D

 62 65  0  0  1  0  0  0  0  0999 V2000
  129.0016  138.8983  161.8097 C   0  0  0  0  0  0  0  0  0  0  0  0
  130.3329  138.5054  161.1657 C   0  0  2  0  0  0  0  0  0  0  0  0
  131.1924  139.7555  160.9683 C   0  0  0  0  0  0  0  0  0  0  0  0
  132.5037  139.3686  160.3343 C   0  0  0  0  0  0  0  0  0  0  0  0
  132.6248  139.3432  158.9572 C   0  0  0  0  0  0  0  0  0  0  0  0
  133.8288  138.9934  158.3757 C   0  0  0  0  0  0  0  0  0  0  0  0
  134.9089  138.6578  159.1709 C   0  0  0  0  0  0  0  0  0  0  0  0
  134.7863  138.6781  160.5475 C   0  0  0  0  0  0  0  0  0  0  0  0
  133.5836  139.0335  161.1293 C   0  0  0  0  0  0  0  0  0  0  0  0
  133.4498  139.0552  162.6301 C   0  0  0  0  0  0  0  0  0  0  0  0
  133.8204  140.4437  163.1551 C   0  0  1  0  0  0  0  0  0  0  0  0
  133.7864  140.4783  164.6992 C   0  0  0  0  0  0  0  0  0  0  0  0
  134.8923  141.3579  165.0956 N   0  0  0  0  0  0  0  0  0  0  0  0
  135.7628  141.5330  164.0865 C   0  0  0  0  0  0  0  0  0  0  0  0
  136.7690  142.2075  164.1463 O   0  0  0  0  0  0  0  0  0  0  0  0
  135.3044  140.7670  162.8651 C   0  0  0  0  0  0  0  0  0  0  0  0
  130.0797  137.8746  159.8636 N   0  0  0  0  0  0  0  0  0  0  0  0
  130.9174  137.9135  159.3024 H   0  0  0  0  0  0  0  0  0  0  0  0
  129.3353  138.3653  159.3912 H   0  0  0  0  0  0  0  0  0  0  0  0
  129.6907  136.4725  160.0660 C   0  0  2  0  0  0  0  0  0  0  0  0
  129.0305  136.3998  160.9302 H   0  0  0  0  0  0  0  0  0  0  0  0
  130.9420  135.6258  160.3074 C   0  0  0  0  0  0  0  0  0  0  0  0
  128.9609  135.9611  158.8223 C   0  0  0  0  0  0  0  0  0  0  0  0
  128.5618  134.5228  159.0299 C   0  0  0  0  0  0  0  0  0  0  0  0
  129.2910  133.4393  158.7196 C   0  0  0  0  0  0  0  0  0  0  0  0
  128.6037  132.3039  159.0516 N   0  0  0  0  0  0  0  0  0  0  0  0
  128.9271  131.3987  158.9218 H   0  0  0  0  0  0  0  0  0  0  0  0
  127.3827  132.6386  159.5982 C   0  0  0  0  0  0  0  0  0  0  0  0
  126.3204  131.8893  160.0929 C   0  0  0  0  0  0  0  0  0  0  0  0
  125.2026  132.5229  160.5874 C   0  0  0  0  0  0  0  0  0  0  0  0
  125.1218  133.9132  160.5985 C   0  0  0  0  0  0  0  0  0  0  0  0
  124.0080  134.5231  161.0853 O   0  0  0  0  0  0  0  0  0  0  0  0
  126.1654  134.6746  160.1120 C   0  0  0  0  0  0  0  0  0  0  0  0
  127.3044  134.0425  159.6080 C   0  0  0  0  0  0  0  0  0  0  0  0
  128.4779  139.6007  161.1613 H   0  0  0  0  0  0  0  0  0  0  0  0
  128.3893  138.0076  161.9503 H   0  0  0  0  0  0  0  0  0  0  0  0
  129.1895  139.3663  162.7759 H   0  0  0  0  0  0  0  0  0  0  0  0
  130.8566  137.8030  161.8141 H   0  0  0  0  0  0  0  0  0  0  0  0
  130.6687  140.4579  160.3200 H   0  0  0  0  0  0  0  0  0  0  0  0
  131.3804  140.2237  161.9346 H   0  0  0  0  0  0  0  0  0  0  0  0
  131.7796  139.6007  158.3360 H   0  0  0  0  0  0  0  0  0  0  0  0
  133.9247  138.9779  157.3001 H   0  0  0  0  0  0  0  0  0  0  0  0
  135.8485  138.3802  158.7165 H   0  0  0  0  0  0  0  0  0  0  0  0
  135.6301  138.4161  161.1687 H   0  0  0  0  0  0  0  0  0  0  0  0
  132.4209  138.8250  162.9065 H   0  0  0  0  0  0  0  0  0  0  0  0
  134.1179  138.3121  163.0652 H   0  0  0  0  0  0  0  0  0  0  0  0
  133.1650  141.2058  162.7335 H   0  0  0  0  0  0  0  0  0  0  0  0
  132.8370  140.8858  165.0465 H   0  0  0  0  0  0  0  0  0  0  0  0
  133.9379  139.4768  165.1021 H   0  0  0  0  0  0  0  0  0  0  0  0
  134.9830  141.7616  165.9731 H   0  0  0  0  0  0  0  0  0  0  0  0
  135.8801  139.8484  162.7528 H   0  0  0  0  0  0  0  0  0  0  0  0
  135.3927  141.3852  161.9718 H   0  0  0  0  0  0  0  0  0  0  0  0
  131.4619  135.9902  161.1934 H   0  0  0  0  0  0  0  0  0  0  0  0
  130.6534  134.5855  160.4576 H   0  0  0  0  0  0  0  0  0  0  0  0
  131.6021  135.6986  159.4432 H   0  0  0  0  0  0  0  0  0  0  0  0
  129.6211  136.0339  157.9580 H   0  0  0  0  0  0  0  0  0  0  0  0
  128.0695  136.5644  158.6503 H   0  0  0  0  0  0  0  0  0  0  0  0
  130.2746  133.4606  158.2742 H   0  0  0  0  0  0  0  0  0  0  0  0
  126.3725  130.8105  160.0896 H   0  0  0  0  0  0  0  0  0  0  0  0
  124.3804  131.9364  160.9700 H   0  0  0  0  0  0  0  0  0  0  0  0
  124.0424  135.4888  161.0525 H   0  0  0  0  0  0  0  0  0  0  0  0
  126.1017  135.7527  160.1214 H   0  0  0  0  0  0  0  0  0  0  0  0
  1  2  1  0
  1 35  1  0
  1 36  1  0
  1 37  1  0
  2  3  1  0
  2 17  1  0
  2 38  1  1
  3  4  1  0
  3 39  1  0
  3 40  1  0
  4  9  1  0
  4  5  2  0
  5  6  1  0
  5 41  1  0
  6  7  2  0
  6 42  1  0
  7  8  1  0
  7 43  1  0
  8  9  2  0
  8 44  1  0
  9 10  1  0
 10 11  1  0
 10 45  1  0
 10 46  1  0
 11 16  1  0
 11 12  1  0
 11 47  1  6
 12 13  1  0
 12 48  1  0
 12 49  1  0
 13 14  1  0
 13 50  1  0
 14 15  2  0
 14 16  1  0
 16 51  1  0
 16 52  1  0
 17 18  1  0
 17 19  1  0
 17 20  1  0
 20 21  1  1
 20 22  1  0
 20 23  1  0
 22 53  1  0
 22 54  1  0
 22 55  1  0
 23 24  1  0
 23 56  1  0
 23 57  1  0
 24 34  1  0
 24 25  2  0
 25 26  1  0
 25 58  1  0
 26 27  1  0
 26 28  1  0
 28 34  2  0
 28 29  1  0
 29 30  2  0
 29 59  1  0
 30 31  1  0
 30 60  1  0
 31 32  1  0
 31 33  2  0
 32 61  1  0
 33 34  1  0
 33 62  1  0
M  CHG  1  17   1
M  END
>  <DOCK_score>  (1) 
-41.590744

>  <SMILES>  (1) 
CC(Cc1ccccc1CC1CNC(=O)C1)[NH2+][C@H](C)Cc1c[nH]c2ccc(O)cc12

$$$$
