Oc1ccc2c(c1)C([NH+]1CCCC1C(O)C=C1C=C[C@H](O)C1)c1cc(O)ccc1-2
     RDKit          3D

 55 59  0  0  1  0  0  0  0  0999 V2000
  124.0249  134.9422  161.3952 O   0  0  0  0  0  0  0  0  0  0  0  0
  125.0063  134.1956  160.8241 C   0  0  0  0  0  0  0  0  0  0  0  0
  124.7953  132.8468  160.5726 C   0  0  0  0  0  0  0  0  0  0  0  0
  125.7880  132.0858  159.9936 C   0  0  0  0  0  0  0  0  0  0  0  0
  127.0108  132.6708  159.6573 C   0  0  0  0  0  0  0  0  0  0  0  0
  127.2152  134.0246  159.9122 C   0  0  0  0  0  0  0  0  0  0  0  0
  126.2186  134.7829  160.4867 C   0  0  0  0  0  0  0  0  0  0  0  0
  128.6094  134.3692  159.4483 C   0  0  0  0  0  0  0  0  0  0  0  0
  129.4141  134.8505  160.5791 N   0  0  1  0  0  0  0  0  0  0  0  0
  128.8510  135.4444  161.1693 H   0  0  0  0  0  0  0  0  0  0  0  0
  129.9099  133.7020  161.3597 C   0  0  0  0  0  0  0  0  0  0  0  0
  131.4512  133.7765  161.3540 C   0  0  0  0  0  0  0  0  0  0  0  0
  131.7277  135.2731  161.0526 C   0  0  0  0  0  0  0  0  0  0  0  0
  130.5775  135.6101  160.0743 C   0  0  2  0  0  0  0  0  0  0  0  0
  130.2845  137.1117  160.0987 C   0  0  2  0  0  0  0  0  0  0  0  0
  131.4200  137.8267  159.6076 O   0  0  0  0  0  0  0  0  0  0  0  0
  129.9921  137.5435  161.5126 C   0  0  0  0  0  0  0  0  0  0  0  0
  129.7084  138.8150  161.7738 C   0  0  0  0  0  0  0  0  0  0  0  0
  129.5444  139.8895  160.7875 C   0  0  0  0  0  0  0  0  0  0  0  0
  129.2623  141.0471  161.3538 C   0  0  0  0  0  0  0  0  0  0  0  0
  129.2056  140.9066  162.8540 C   0  0  2  0  0  0  0  0  0  0  0  0
  128.2141  141.1716  163.2210 H   0  0  0  0  0  0  0  0  0  0  0  0
  130.1957  141.7362  163.4651 O   0  0  0  0  0  0  0  0  0  0  0  0
  129.5012  139.4244  163.1441 C   0  0  0  0  0  0  0  0  0  0  0  0
  129.1947  133.0905  158.9010 C   0  0  0  0  0  0  0  0  0  0  0  0
  130.4215  132.7992  158.3456 C   0  0  0  0  0  0  0  0  0  0  0  0
  130.7003  131.5084  157.9160 C   0  0  0  0  0  0  0  0  0  0  0  0
  131.9100  131.2209  157.3678 O   0  0  0  0  0  0  0  0  0  0  0  0
  129.7426  130.5119  158.0465 C   0  0  0  0  0  0  0  0  0  0  0  0
  128.5142  130.7992  158.6015 C   0  0  0  0  0  0  0  0  0  0  0  0
  128.2291  132.0959  159.0350 C   0  0  0  0  0  0  0  0  0  0  0  0
  124.2630  135.8701  161.5270 H   0  0  0  0  0  0  0  0  0  0  0  0
  123.8505  132.3922  160.8318 H   0  0  0  0  0  0  0  0  0  0  0  0
  125.6203  131.0366  159.8002 H   0  0  0  0  0  0  0  0  0  0  0  0
  126.3815  135.8333  160.6781 H   0  0  0  0  0  0  0  0  0  0  0  0
  128.5691  135.1282  158.6670 H   0  0  0  0  0  0  0  0  0  0  0  0
  129.5395  133.7616  162.3831 H   0  0  0  0  0  0  0  0  0  0  0  0
  129.5795  132.7707  160.8996 H   0  0  0  0  0  0  0  0  0  0  0  0
  131.8540  133.4988  162.3281 H   0  0  0  0  0  0  0  0  0  0  0  0
  131.8649  133.1425  160.5698 H   0  0  0  0  0  0  0  0  0  0  0  0
  131.6594  135.8732  161.9599 H   0  0  0  0  0  0  0  0  0  0  0  0
  132.6983  135.4020  160.5737 H   0  0  0  0  0  0  0  0  0  0  0  0
  130.8313  135.2887  159.0643 H   0  0  0  0  0  0  0  0  0  0  0  0
  129.4210  137.3237  159.4682 H   0  0  0  0  0  0  0  0  0  0  0  0
  131.7138  137.5438  158.7307 H   0  0  0  0  0  0  0  0  0  0  0  0
  130.0130  136.8193  162.3136 H   0  0  0  0  0  0  0  0  0  0  0  0
  129.6408  139.7481  159.7212 H   0  0  0  0  0  0  0  0  0  0  0  0
  129.0986  141.9697  160.8167 H   0  0  0  0  0  0  0  0  0  0  0  0
  131.0963  141.5662  163.1567 H   0  0  0  0  0  0  0  0  0  0  0  0
  128.6539  138.9572  163.6457 H   0  0  0  0  0  0  0  0  0  0  0  0
  130.4044  139.3260  163.7463 H   0  0  0  0  0  0  0  0  0  0  0  0
  131.1663  133.5747  158.2443 H   0  0  0  0  0  0  0  0  0  0  0  0
  132.5096  131.9781  157.3189 H   0  0  0  0  0  0  0  0  0  0  0  0
  129.9607  129.5086  157.7116 H   0  0  0  0  0  0  0  0  0  0  0  0
  127.7719  130.0212  158.7016 H   0  0  0  0  0  0  0  0  0  0  0  0
  1  2  1  0
  1 32  1  0
  2  7  2  0
  2  3  1  0
  3  4  2  0
  3 33  1  0
  4  5  1  0
  4 34  1  0
  5 31  1  0
  5  6  2  0
  6  7  1  0
  6  8  1  0
  7 35  1  0
  8  9  1  0
  8 25  1  0
  8 36  1  0
  9 10  1  1
  9 14  1  0
  9 11  1  0
 11 12  1  0
 11 37  1  0
 11 38  1  0
 12 13  1  0
 12 39  1  0
 12 40  1  0
 13 14  1  0
 13 41  1  0
 13 42  1  0
 14 15  1  0
 14 43  1  6
 15 16  1  0
 15 17  1  0
 15 44  1  6
 16 45  1  0
 17 18  2  0
 17 46  1  0
 18 24  1  0
 18 19  1  0
 19 20  2  0
 19 47  1  0
 20 21  1  0
 20 48  1  0
 21 22  1  1
 21 23  1  0
 21 24  1  0
 23 49  1  0
 24 50  1  0
 24 51  1  0
 25 31  2  0
 25 26  1  0
 26 27  2  0
 26 52  1  0
 27 28  1  0
 27 29  1  0
 28 53  1  0
 29 30  2  0
 29 54  1  0
 30 31  1  0
 30 55  1  0
M  CHG  1   9   1
M  END
>  <DOCK_score>  (1) 
-45.35347

>  <SMILES>  (1) 
Oc1ccc2c(c1)C([NH+]1CCCC1C(O)C=C1C=C[C@H](O)C1)c1cc(O)ccc1-2

$$$$
