O=C1CC[C@@H](CNc2ccc(-c3n[nH]cc3C[NH2+]C3CC=CC3)o2)CN1
     RDKit          3D

 52 55  0  0  1  0  0  0  0  0999 V2000
  126.0588  135.1857  167.8810 O   0  0  0  0  0  0  0  0  0  0  0  0
  126.3736  135.6363  166.7999 C   0  0  0  0  0  0  0  0  0  0  0  0
  126.7981  137.0748  166.7257 C   0  0  0  0  0  0  0  0  0  0  0  0
  127.5531  137.3282  165.4184 C   0  0  0  0  0  0  0  0  0  0  0  0
  126.7310  136.7445  164.2629 C   0  0  1  0  0  0  0  0  0  0  0  0
  125.7109  137.1255  164.3110 H   0  0  0  0  0  0  0  0  0  0  0  0
  127.3678  137.1398  162.9292 C   0  0  0  0  0  0  0  0  0  0  0  0
  126.5803  136.5808  161.8274 N   0  0  0  0  0  0  0  0  0  0  0  0
  127.1695  135.6975  160.9303 C   0  0  0  0  0  0  0  0  0  0  0  0
  126.5543  135.1174  159.8697 C   0  0  0  0  0  0  0  0  0  0  0  0
  127.5115  134.3013  159.2351 C   0  0  0  0  0  0  0  0  0  0  0  0
  128.6654  134.4252  159.9423 C   0  0  0  0  0  0  0  0  0  0  0  0
  129.9427  133.7467  159.6402 C   0  0  0  0  0  0  0  0  0  0  0  0
  130.0787  132.5676  159.0658 N   0  0  0  0  0  0  0  0  0  0  0  0
  131.4477  132.2915  158.9592 N   0  0  0  0  0  0  0  0  0  0  0  0
  131.8383  131.4918  158.5734 H   0  0  0  0  0  0  0  0  0  0  0  0
  132.1299  133.3287  159.4915 C   0  0  0  0  0  0  0  0  0  0  0  0
  131.2335  134.2427  159.9205 C   0  0  0  0  0  0  0  0  0  0  0  0
  131.5545  135.5586  160.5810 C   0  0  0  0  0  0  0  0  0  0  0  0
  132.6389  136.2236  159.8464 N   0  0  0  0  0  0  0  0  0  0  0  0
  133.4588  135.6356  159.8521 H   0  0  0  0  0  0  0  0  0  0  0  0
  132.3489  136.3872  158.8938 H   0  0  0  0  0  0  0  0  0  0  0  0
  132.9517  137.5065  160.4901 C   0  0  0  0  0  0  0  0  0  0  0  0
  131.7856  138.5086  160.3264 C   0  0  0  0  0  0  0  0  0  0  0  0
  132.4557  139.8475  160.1223 C   0  0  0  0  0  0  0  0  0  0  0  0
  133.7131  139.7001  159.8048 C   0  0  0  0  0  0  0  0  0  0  0  0
  134.0914  138.2385  159.7442 C   0  0  0  0  0  0  0  0  0  0  0  0
  128.4462  135.2791  160.9642 O   0  0  0  0  0  0  0  0  0  0  0  0
  126.7165  135.2209  164.3930 C   0  0  0  0  0  0  0  0  0  0  0  0
  126.3236  134.8278  165.7405 N   0  0  0  0  0  0  0  0  0  0  0  0
  125.9167  137.7148  166.7646 H   0  0  0  0  0  0  0  0  0  0  0  0
  127.4496  137.3039  167.5688 H   0  0  0  0  0  0  0  0  0  0  0  0
  127.6828  138.4005  165.2715 H   0  0  0  0  0  0  0  0  0  0  0  0
  128.5282  136.8426  165.4577 H   0  0  0  0  0  0  0  0  0  0  0  0
  127.3901  138.2264  162.8450 H   0  0  0  0  0  0  0  0  0  0  0  0
  128.3850  136.7508  162.8826 H   0  0  0  0  0  0  0  0  0  0  0  0
  125.6478  136.8271  161.7240 H   0  0  0  0  0  0  0  0  0  0  0  0
  125.5260  135.2544  159.5694 H   0  0  0  0  0  0  0  0  0  0  0  0
  127.3576  133.6935  158.3558 H   0  0  0  0  0  0  0  0  0  0  0  0
  133.2043  133.4120  159.5621 H   0  0  0  0  0  0  0  0  0  0  0  0
  130.6687  136.1938  160.5749 H   0  0  0  0  0  0  0  0  0  0  0  0
  131.8677  135.3820  161.6099 H   0  0  0  0  0  0  0  0  0  0  0  0
  133.2009  137.3634  161.5417 H   0  0  0  0  0  0  0  0  0  0  0  0
  131.1818  138.2498  159.4568 H   0  0  0  0  0  0  0  0  0  0  0  0
  131.1700  138.5252  161.2258 H   0  0  0  0  0  0  0  0  0  0  0  0
  131.9595  140.8011  160.2260 H   0  0  0  0  0  0  0  0  0  0  0  0
  134.3940  140.5159  159.6111 H   0  0  0  0  0  0  0  0  0  0  0  0
  135.0436  138.0715  160.2478 H   0  0  0  0  0  0  0  0  0  0  0  0
  134.1445  137.9026  158.7086 H   0  0  0  0  0  0  0  0  0  0  0  0
  127.7121  134.8317  164.1799 H   0  0  0  0  0  0  0  0  0  0  0  0
  126.0092  134.8048  163.6757 H   0  0  0  0  0  0  0  0  0  0  0  0
  126.0100  133.9199  165.8758 H   0  0  0  0  0  0  0  0  0  0  0  0
  1  2  2  0
  2 30  1  0
  2  3  1  0
  3  4  1  0
  3 31  1  0
  3 32  1  0
  4  5  1  0
  4 33  1  0
  4 34  1  0
  5  6  1  6
  5  7  1  0
  5 29  1  0
  7  8  1  0
  7 35  1  0
  7 36  1  0
  8  9  1  0
  8 37  1  0
  9 28  1  0
  9 10  2  0
 10 11  1  0
 10 38  1  0
 11 12  2  0
 11 39  1  0
 12 13  1  0
 12 28  1  0
 13 18  1  0
 13 14  2  0
 14 15  1  0
 15 16  1  0
 15 17  1  0
 17 18  2  0
 17 40  1  0
 18 19  1  0
 19 20  1  0
 19 41  1  0
 19 42  1  0
 20 21  1  0
 20 22  1  0
 20 23  1  0
 23 27  1  0
 23 24  1  0
 23 43  1  0
 24 25  1  0
 24 44  1  0
 24 45  1  0
 25 26  2  0
 25 46  1  0
 26 27  1  0
 26 47  1  0
 27 48  1  0
 27 49  1  0
 29 30  1  0
 29 50  1  0
 29 51  1  0
 30 52  1  0
M  CHG  1  20   1
M  END
>  <DOCK_score>  (1) 
-41.641392

>  <SMILES>  (1) 
O=C1CC[C@@H](CNc2ccc(-c3n[nH]cc3C[NH2+]C3CC=CC3)o2)CN1

$$$$
