C1=C(C[NH2+]Cc2c[nH]nc2-c2ccc(Nc3c[nH]c4ccccc34)o2)CCC1
     RDKit          3D

 52 56  0  0  0  0  0  0  0  0999 V2000
  133.3602  137.4852  160.4636 C   0  0  0  0  0  0  0  0  0  0  0  0
  132.3251  137.9873  161.0802 C   0  0  0  0  0  0  0  0  0  0  0  0
  130.9317  138.0330  160.5083 C   0  0  0  0  0  0  0  0  0  0  0  0
  130.7368  136.8937  159.6016 N   0  0  0  0  0  0  0  0  0  0  0  0
  129.8038  136.9243  159.2187 H   0  0  0  0  0  0  0  0  0  0  0  0
  131.4099  136.9419  158.8516 H   0  0  0  0  0  0  0  0  0  0  0  0
  130.9204  135.6398  160.3444 C   0  0  0  0  0  0  0  0  0  0  0  0
  130.7205  134.4710  159.4143 C   0  0  0  0  0  0  0  0  0  0  0  0
  131.6775  133.8696  158.6759 C   0  0  0  0  0  0  0  0  0  0  0  0
  131.1003  132.8662  157.9799 N   0  0  0  0  0  0  0  0  0  0  0  0
  131.5527  132.2645  157.3683 H   0  0  0  0  0  0  0  0  0  0  0  0
  129.7344  132.8480  158.2901 N   0  0  0  0  0  0  0  0  0  0  0  0
  129.4987  133.8144  159.1556 C   0  0  0  0  0  0  0  0  0  0  0  0
  128.1881  134.1498  159.7494 C   0  0  0  0  0  0  0  0  0  0  0  0
  127.0145  133.5103  159.5014 C   0  0  0  0  0  0  0  0  0  0  0  0
  126.0279  134.1535  160.2737 C   0  0  0  0  0  0  0  0  0  0  0  0
  126.6459  135.1520  160.9538 C   0  0  0  0  0  0  0  0  0  0  0  0
  126.0331  136.0345  161.8344 N   0  0  0  0  0  0  0  0  0  0  0  0
  126.7607  136.5724  162.9106 C   0  0  0  0  0  0  0  0  0  0  0  0
  126.5742  137.7779  163.4813 C   0  0  0  0  0  0  0  0  0  0  0  0
  127.4736  137.9503  164.5072 N   0  0  0  0  0  0  0  0  0  0  0  0
  127.5337  138.7387  165.0692 H   0  0  0  0  0  0  0  0  0  0  0  0
  128.2806  136.8400  164.6133 C   0  0  0  0  0  0  0  0  0  0  0  0
  129.3333  136.5007  165.4580 C   0  0  0  0  0  0  0  0  0  0  0  0
  129.9610  135.2831  165.3140 C   0  0  0  0  0  0  0  0  0  0  0  0
  129.5540  134.3886  164.3330 C   0  0  0  0  0  0  0  0  0  0  0  0
  128.5226  134.7013  163.4936 C   0  0  0  0  0  0  0  0  0  0  0  0
  127.8723  135.9298  163.6217 C   0  0  0  0  0  0  0  0  0  0  0  0
  127.9518  135.1401  160.6356 O   0  0  0  0  0  0  0  0  0  0  0  0
  132.7077  138.5171  162.4427 C   0  0  0  0  0  0  0  0  0  0  0  0
  134.2489  138.6362  162.3995 C   0  0  0  0  0  0  0  0  0  0  0  0
  134.6057  137.5965  161.3120 C   0  0  0  0  0  0  0  0  0  0  0  0
  133.3305  137.0479  159.4766 H   0  0  0  0  0  0  0  0  0  0  0  0
  130.2045  137.9810  161.3187 H   0  0  0  0  0  0  0  0  0  0  0  0
  130.7955  138.9634  159.9571 H   0  0  0  0  0  0  0  0  0  0  0  0
  131.9283  135.6066  160.7580 H   0  0  0  0  0  0  0  0  0  0  0  0
  130.1933  135.5877  161.1548 H   0  0  0  0  0  0  0  0  0  0  0  0
  132.7222  134.1420  158.6480 H   0  0  0  0  0  0  0  0  0  0  0  0
  126.8669  132.6702  158.8389 H   0  0  0  0  0  0  0  0  0  0  0  0
  124.9789  133.9001  160.3167 H   0  0  0  0  0  0  0  0  0  0  0  0
  125.1032  136.2794  161.7070 H   0  0  0  0  0  0  0  0  0  0  0  0
  125.8286  138.4991  163.1806 H   0  0  0  0  0  0  0  0  0  0  0  0
  129.6572  137.1898  166.2239 H   0  0  0  0  0  0  0  0  0  0  0  0
  130.7774  135.0215  165.9706 H   0  0  0  0  0  0  0  0  0  0  0  0
  130.0567  133.4379  164.2333 H   0  0  0  0  0  0  0  0  0  0  0  0
  128.2115  134.0004  162.7330 H   0  0  0  0  0  0  0  0  0  0  0  0
  132.4025  137.8181  163.2212 H   0  0  0  0  0  0  0  0  0  0  0  0
  132.2559  139.4947  162.6104 H   0  0  0  0  0  0  0  0  0  0  0  0
  134.6893  138.3654  163.3592 H   0  0  0  0  0  0  0  0  0  0  0  0
  134.5556  139.6379  162.0988 H   0  0  0  0  0  0  0  0  0  0  0  0
  135.4443  137.9481  160.7109 H   0  0  0  0  0  0  0  0  0  0  0  0
  134.8414  136.6351  161.7684 H   0  0  0  0  0  0  0  0  0  0  0  0
  1 32  1  0
  1  2  2  0
  1 33  1  0
  2  3  1  0
  2 30  1  0
  3  4  1  0
  3 34  1  0
  3 35  1  0
  4  5  1  0
  4  6  1  0
  4  7  1  0
  7  8  1  0
  7 36  1  0
  7 37  1  0
  8 13  1  0
  8  9  2  0
  9 10  1  0
  9 38  1  0
 10 11  1  0
 10 12  1  0
 12 13  2  0
 13 14  1  0
 14 29  1  0
 14 15  2  0
 15 16  1  0
 15 39  1  0
 16 17  2  0
 16 40  1  0
 17 18  1  0
 17 29  1  0
 18 19  1  0
 18 41  1  0
 19 28  1  0
 19 20  2  0
 20 21  1  0
 20 42  1  0
 21 22  1  0
 21 23  1  0
 23 28  2  0
 23 24  1  0
 24 25  2  0
 24 43  1  0
 25 26  1  0
 25 44  1  0
 26 27  2  0
 26 45  1  0
 27 28  1  0
 27 46  1  0
 30 31  1  0
 30 47  1  0
 30 48  1  0
 31 32  1  0
 31 49  1  0
 31 50  1  0
 32 51  1  0
 32 52  1  0
M  CHG  1   4   1
M  END
>  <DOCK_score>  (1) 
-44.839264

>  <SMILES>  (1) 
C1=C(C[NH2+]Cc2c[nH]nc2-c2ccc(Nc3c[nH]c4ccccc34)o2)CCC1

$$$$
