C(=C[C@H](Nc1[nH]cc(-c2cccnc2)[nH+]1)c1ccccc1)c1ccccc1
     RDKit          3D

 48 51  0  0  1  0  0  0  0  0999 V2000
  129.5140  137.2955  161.5645 C   0  0  0  0  0  0  0  0  0  0  0  0
  129.4162  137.0191  160.2716 C   0  0  0  0  0  0  0  0  0  0  0  0
  129.0699  135.6224  159.8239 C   0  0  2  0  0  0  0  0  0  0  0  0
  128.9376  134.9833  160.6968 H   0  0  0  0  0  0  0  0  0  0  0  0
  130.1531  135.0938  158.9913 N   0  0  0  0  0  0  0  0  0  0  0  0
  130.0593  133.8185  158.4610 C   0  0  0  0  0  0  0  0  0  0  0  0
  129.4011  132.7708  159.0278 N   0  0  0  0  0  0  0  0  0  0  0  0
  128.9176  132.7831  159.8685 H   0  0  0  0  0  0  0  0  0  0  0  0
  129.5457  131.6932  158.1879 C   0  0  0  0  0  0  0  0  0  0  0  0
  130.2944  132.1108  157.1373 C   0  0  0  0  0  0  0  0  0  0  0  0
  130.7118  131.2832  155.9792 C   0  0  0  0  0  0  0  0  0  0  0  0
  130.3270  131.6321  154.6813 C   0  0  0  0  0  0  0  0  0  0  0  0
  130.7474  130.8305  153.6342 C   0  0  0  0  0  0  0  0  0  0  0  0
  131.5178  129.7137  153.9041 C   0  0  0  0  0  0  0  0  0  0  0  0
  131.8606  129.4067  155.1400 N   0  0  0  0  0  0  0  0  0  0  0  0
  131.4890  130.1422  156.1679 C   0  0  0  0  0  0  0  0  0  0  0  0
  130.5945  133.4194  157.3330 N   0  0  0  0  0  0  0  0  0  0  0  0
  131.1206  133.9716  156.7337 H   0  0  0  0  0  0  0  0  0  0  0  0
  127.7920  135.6533  159.0257 C   0  0  0  0  0  0  0  0  0  0  0  0
  126.5749  135.5024  159.6634 C   0  0  0  0  0  0  0  0  0  0  0  0
  125.4027  135.5315  158.9313 C   0  0  0  0  0  0  0  0  0  0  0  0
  125.4476  135.7119  157.5615 C   0  0  0  0  0  0  0  0  0  0  0  0
  126.6647  135.8633  156.9238 C   0  0  0  0  0  0  0  0  0  0  0  0
  127.8370  135.8328  157.6558 C   0  0  0  0  0  0  0  0  0  0  0  0
  129.8537  138.6655  162.0037 C   0  0  0  0  0  0  0  0  0  0  0  0
  130.4697  139.5520  161.1197 C   0  0  0  0  0  0  0  0  0  0  0  0
  130.7798  140.8309  161.5345 C   0  0  0  0  0  0  0  0  0  0  0  0
  130.4903  141.2316  162.8266 C   0  0  0  0  0  0  0  0  0  0  0  0
  129.8844  140.3557  163.7094 C   0  0  0  0  0  0  0  0  0  0  0  0
  129.5647  139.0757  163.3058 C   0  0  0  0  0  0  0  0  0  0  0  0
  129.3454  136.5199  162.2969 H   0  0  0  0  0  0  0  0  0  0  0  0
  129.5848  137.7947  159.5392 H   0  0  0  0  0  0  0  0  0  0  0  0
  130.9362  135.6374  158.8116 H   0  0  0  0  0  0  0  0  0  0  0  0
  129.1435  130.7022  158.3379 H   0  0  0  0  0  0  0  0  0  0  0  0
  129.7209  132.5073  154.4998 H   0  0  0  0  0  0  0  0  0  0  0  0
  130.4732  131.0719  152.6179 H   0  0  0  0  0  0  0  0  0  0  0  0
  131.8438  129.0835  153.0899 H   0  0  0  0  0  0  0  0  0  0  0  0
  131.7897  129.8584  157.1656 H   0  0  0  0  0  0  0  0  0  0  0  0
  126.5397  135.3622  160.7337 H   0  0  0  0  0  0  0  0  0  0  0  0
  124.4518  135.4138  159.4295 H   0  0  0  0  0  0  0  0  0  0  0  0
  124.5321  135.7303  156.9888 H   0  0  0  0  0  0  0  0  0  0  0  0
  126.6999  136.0038  155.8536 H   0  0  0  0  0  0  0  0  0  0  0  0
  128.7879  135.9509  157.1575 H   0  0  0  0  0  0  0  0  0  0  0  0
  130.7004  139.2391  160.1122 H   0  0  0  0  0  0  0  0  0  0  0  0
  131.2533  141.5194  160.8501 H   0  0  0  0  0  0  0  0  0  0  0  0
  130.7389  142.2324  163.1475 H   0  0  0  0  0  0  0  0  0  0  0  0
  129.6613  140.6745  164.7169 H   0  0  0  0  0  0  0  0  0  0  0  0
  129.0923  138.3925  163.9960 H   0  0  0  0  0  0  0  0  0  0  0  0
  1  2  2  0
  1 25  1  0
  1 31  1  0
  2  3  1  0
  2 32  1  0
  3  4  1  1
  3  5  1  0
  3 19  1  0
  5 33  1  0
  6  5  1  0
  6 17  2  0
  6  7  1  0
  7  8  1  0
  7  9  1  0
  9 10  2  0
  9 34  1  0
 10 11  1  0
 10 17  1  0
 11 16  1  0
 11 12  2  0
 12 13  1  0
 12 35  1  0
 13 14  2  0
 13 36  1  0
 14 15  1  0
 14 37  1  0
 15 16  2  0
 16 38  1  0
 17 18  1  0
 19 24  1  0
 19 20  2  0
 20 21  1  0
 20 39  1  0
 21 22  2  0
 21 40  1  0
 22 23  1  0
 22 41  1  0
 23 24  2  0
 23 42  1  0
 24 43  1  0
 25 30  1  0
 25 26  2  0
 26 27  1  0
 26 44  1  0
 27 28  2  0
 27 45  1  0
 28 29  1  0
 28 46  1  0
 29 30  2  0
 29 47  1  0
 30 48  1  0
M  CHG  1  17   1
M  END
>  <DOCK_score>  (1) 
-60.393944

>  <SMILES>  (1) 
C(=C[C@H](Nc1[nH]cc(-c2cccnc2)[nH+]1)c1ccccc1)c1ccccc1

$$$$
