CN(c1ccc(F)cc1)c1ccc(-c2ccc(Nc3ccc(NC4=[NH+]CCN4)cc3)cc2)cc1
     RDKit          3D

 61 65  0  0  0  0  0  0  0  0999 V2000
  127.3913  143.5965  171.3015 C   0  0  0  0  0  0  0  0  0  0  0  0
  128.1259  143.6560  170.0353 N   0  0  0  0  0  0  0  0  0  0  0  0
  129.1211  144.6205  169.8491 C   0  0  0  0  0  0  0  0  0  0  0  0
  130.4286  144.2297  169.5896 C   0  0  0  0  0  0  0  0  0  0  0  0
  131.4090  145.1841  169.4017 C   0  0  0  0  0  0  0  0  0  0  0  0
  131.0915  146.5295  169.4819 C   0  0  0  0  0  0  0  0  0  0  0  0
  132.0534  147.4613  169.3034 F   0  0  0  0  0  0  0  0  0  0  0  0
  129.7897  146.9214  169.7453 C   0  0  0  0  0  0  0  0  0  0  0  0
  128.8049  145.9707  169.9292 C   0  0  0  0  0  0  0  0  0  0  0  0
  127.8323  142.7495  169.0145 C   0  0  0  0  0  0  0  0  0  0  0  0
  128.0065  143.1199  167.6859 C   0  0  0  0  0  0  0  0  0  0  0  0
  127.7175  142.2264  166.6767 C   0  0  0  0  0  0  0  0  0  0  0  0
  127.2499  140.9507  166.9891 C   0  0  0  0  0  0  0  0  0  0  0  0
  126.9384  139.9877  165.9050 C   0  0  0  0  0  0  0  0  0  0  0  0
  127.0811  138.6184  166.1252 C   0  0  0  0  0  0  0  0  0  0  0  0
  126.7906  137.7250  165.1162 C   0  0  0  0  0  0  0  0  0  0  0  0
  126.3552  138.1886  163.8799 C   0  0  0  0  0  0  0  0  0  0  0  0
  126.0610  137.2822  162.8596 N   0  0  0  0  0  0  0  0  0  0  0  0
  127.0621  136.8860  161.9658 C   0  0  0  0  0  0  0  0  0  0  0  0
  126.7707  135.9796  160.9540 C   0  0  0  0  0  0  0  0  0  0  0  0
  127.7596  135.5848  160.0753 C   0  0  0  0  0  0  0  0  0  0  0  0
  129.0456  136.0929  160.2033 C   0  0  0  0  0  0  0  0  0  0  0  0
  130.0495  135.6916  159.3114 N   0  0  0  0  0  0  0  0  0  0  0  0
  130.0077  134.4432  158.7501 C   0  0  0  0  0  0  0  0  0  0  0  0
  129.4738  133.4004  159.3652 N   0  0  0  0  0  0  0  0  0  0  0  0
  129.0709  133.4144  160.2475 H   0  0  0  0  0  0  0  0  0  0  0  0
  129.5840  132.2171  158.4978 C   0  0  0  0  0  0  0  0  0  0  0  0
  130.3001  132.7572  157.2434 C   0  0  0  0  0  0  0  0  0  0  0  0
  130.5029  134.1814  157.5513 N   0  0  0  0  0  0  0  0  0  0  0  0
  129.3369  136.9989  161.2144 C   0  0  0  0  0  0  0  0  0  0  0  0
  128.3482  137.3944  162.0931 C   0  0  0  0  0  0  0  0  0  0  0  0
  126.2177  139.5541  163.6564 C   0  0  0  0  0  0  0  0  0  0  0  0
  126.5020  140.4505  164.6642 C   0  0  0  0  0  0  0  0  0  0  0  0
  127.0699  140.5834  168.3221 C   0  0  0  0  0  0  0  0  0  0  0  0
  127.3664  141.4778  169.3284 C   0  0  0  0  0  0  0  0  0  0  0  0
  127.9100  142.9311  171.9916 H   0  0  0  0  0  0  0  0  0  0  0  0
  127.3324  144.5950  171.7347 H   0  0  0  0  0  0  0  0  0  0  0  0
  126.3849  143.2192  171.1201 H   0  0  0  0  0  0  0  0  0  0  0  0
  130.6775  143.1804  169.5313 H   0  0  0  0  0  0  0  0  0  0  0  0
  132.4250  144.8807  169.1966 H   0  0  0  0  0  0  0  0  0  0  0  0
  129.5444  147.9713  169.8075 H   0  0  0  0  0  0  0  0  0  0  0  0
  127.7900  146.2767  170.1353 H   0  0  0  0  0  0  0  0  0  0  0  0
  128.3688  144.1083  167.4443 H   0  0  0  0  0  0  0  0  0  0  0  0
  127.8530  142.5145  165.6446 H   0  0  0  0  0  0  0  0  0  0  0  0
  127.4186  138.2577  167.0856 H   0  0  0  0  0  0  0  0  0  0  0  0
  126.9009  136.6642  165.2864 H   0  0  0  0  0  0  0  0  0  0  0  0
  125.1628  136.9270  162.7705 H   0  0  0  0  0  0  0  0  0  0  0  0
  125.7708  135.5839  160.8548 H   0  0  0  0  0  0  0  0  0  0  0  0
  127.5333  134.8803  159.2888 H   0  0  0  0  0  0  0  0  0  0  0  0
  130.7739  136.2981  159.0917 H   0  0  0  0  0  0  0  0  0  0  0  0
  128.5972  131.8320  158.2407 H   0  0  0  0  0  0  0  0  0  0  0  0
  130.1844  131.4461  158.9806 H   0  0  0  0  0  0  0  0  0  0  0  0
  129.6699  132.6409  156.3616 H   0  0  0  0  0  0  0  0  0  0  0  0
  131.2570  132.2557  157.0987 H   0  0  0  0  0  0  0  0  0  0  0  0
  130.9319  134.8268  156.9677 H   0  0  0  0  0  0  0  0  0  0  0  0
  130.3370  137.3945  161.3133 H   0  0  0  0  0  0  0  0  0  0  0  0
  128.5749  138.0992  162.8792 H   0  0  0  0  0  0  0  0  0  0  0  0
  125.8835  139.9124  162.6939 H   0  0  0  0  0  0  0  0  0  0  0  0
  126.3912  141.5109  164.4916 H   0  0  0  0  0  0  0  0  0  0  0  0
  126.7032  139.5974  168.5661 H   0  0  0  0  0  0  0  0  0  0  0  0
  127.2325  141.1917  170.3613 H   0  0  0  0  0  0  0  0  0  0  0  0
  1  2  1  0
  1 36  1  0
  1 37  1  0
  1 38  1  0
  2  3  1  0
  2 10  1  0
  3  9  1  0
  3  4  2  0
  4  5  1  0
  4 39  1  0
  5  6  2  0
  5 40  1  0
  6  7  1  0
  6  8  1  0
  8  9  2  0
  8 41  1  0
  9 42  1  0
 10 35  1  0
 10 11  2  0
 11 12  1  0
 11 43  1  0
 12 13  2  0
 12 44  1  0
 13 14  1  0
 13 34  1  0
 14 33  1  0
 14 15  2  0
 15 16  1  0
 15 45  1  0
 16 17  2  0
 16 46  1  0
 17 18  1  0
 17 32  1  0
 18 19  1  0
 18 47  1  0
 19 31  1  0
 19 20  2  0
 20 21  1  0
 20 48  1  0
 21 22  2  0
 21 49  1  0
 22 23  1  0
 22 30  1  0
 23 24  1  0
 23 50  1  0
 24 29  2  0
 24 25  1  0
 25 26  1  0
 25 27  1  0
 27 28  1  0
 27 51  1  0
 27 52  1  0
 28 29  1  0
 28 53  1  0
 28 54  1  0
 29 55  1  0
 30 31  2  0
 30 56  1  0
 31 57  1  0
 32 33  2  0
 32 58  1  0
 33 59  1  0
 34 35  2  0
 34 60  1  0
 35 61  1  0
M  CHG  1  29   1
M  END
>  <DOCK_score>  (1) 
-46.227657

>  <SMILES>  (1) 
CN(c1ccc(F)cc1)c1ccc(-c2ccc(Nc3ccc(NC4=[NH+]CCN4)cc3)cc2)cc1

$$$$
