Brc1ccc2c(c1)C[C@@H](Nc1ccc(-c3n[nH]cc3C[NH2+]CC3CC3)o1)C2
     RDKit          3D

 51 55  0  0  1  0  0  0  0  0999 V2000
  128.8458  135.4157  169.0530 Br  0  0  0  0  0  0  0  0  0  0  0  0
  127.8561  135.9771  167.5427 C   0  0  0  0  0  0  0  0  0  0  0  0
  126.9983  137.0582  167.6394 C   0  0  0  0  0  0  0  0  0  0  0  0
  126.2770  137.4664  166.5350 C   0  0  0  0  0  0  0  0  0  0  0  0
  126.4094  136.7972  165.3296 C   0  0  0  0  0  0  0  0  0  0  0  0
  127.2662  135.7169  165.2323 C   0  0  0  0  0  0  0  0  0  0  0  0
  127.9888  135.3082  166.3407 C   0  0  0  0  0  0  0  0  0  0  0  0
  127.2339  135.1633  163.8239 C   0  0  0  0  0  0  0  0  0  0  0  0
  126.6053  136.2807  162.9648 C   0  0  1  0  0  0  0  0  0  0  0  0
  127.3762  136.9274  162.5457 H   0  0  0  0  0  0  0  0  0  0  0  0
  125.7703  135.7140  161.9029 N   0  0  0  0  0  0  0  0  0  0  0  0
  126.3315  134.8657  160.9555 C   0  0  0  0  0  0  0  0  0  0  0  0
  125.6881  133.8592  160.3130 C   0  0  0  0  0  0  0  0  0  0  0  0
  126.6236  133.2607  159.4459 C   0  0  0  0  0  0  0  0  0  0  0  0
  127.7936  133.9341  159.6038 C   0  0  0  0  0  0  0  0  0  0  0  0
  129.0572  133.6523  158.8919 C   0  0  0  0  0  0  0  0  0  0  0  0
  129.2464  132.7094  157.9897 N   0  0  0  0  0  0  0  0  0  0  0  0
  130.5785  132.7781  157.5622 N   0  0  0  0  0  0  0  0  0  0  0  0
  130.9942  132.2027  156.9012 H   0  0  0  0  0  0  0  0  0  0  0  0
  131.1842  133.7846  158.2291 C   0  0  0  0  0  0  0  0  0  0  0  0
  130.2740  134.3481  159.0520 C   0  0  0  0  0  0  0  0  0  0  0  0
  130.5160  135.5109  159.9797 C   0  0  0  0  0  0  0  0  0  0  0  0
  131.9107  135.9550  159.8544 N   0  0  0  0  0  0  0  0  0  0  0  0
  132.5288  135.1958  160.0985 H   0  0  0  0  0  0  0  0  0  0  0  0
  132.0884  136.2409  158.9032 H   0  0  0  0  0  0  0  0  0  0  0  0
  132.1466  137.0885  160.7586 C   0  0  0  0  0  0  0  0  0  0  0  0
  133.5992  137.5512  160.6281 C   0  0  0  0  0  0  0  0  0  0  0  0
  133.8896  139.0372  160.8474 C   0  0  0  0  0  0  0  0  0  0  0  0
  133.9517  138.4449  159.4373 C   0  0  0  0  0  0  0  0  0  0  0  0
  127.6029  134.9048  160.5219 O   0  0  0  0  0  0  0  0  0  0  0  0
  125.7434  137.0478  163.9900 C   0  0  0  0  0  0  0  0  0  0  0  0
  126.8933  137.5827  168.5777 H   0  0  0  0  0  0  0  0  0  0  0  0
  125.6076  138.3105  166.6111 H   0  0  0  0  0  0  0  0  0  0  0  0
  128.6584  134.4642  166.2656 H   0  0  0  0  0  0  0  0  0  0  0  0
  126.6184  134.2644  163.7849 H   0  0  0  0  0  0  0  0  0  0  0  0
  128.2445  134.9440  163.4788 H   0  0  0  0  0  0  0  0  0  0  0  0
  124.8256  135.9305  161.8610 H   0  0  0  0  0  0  0  0  0  0  0  0
  124.6551  133.5714  160.4416 H   0  0  0  0  0  0  0  0  0  0  0  0
  126.4453  132.4267  158.7834 H   0  0  0  0  0  0  0  0  0  0  0  0
  132.2149  134.0879  158.1202 H   0  0  0  0  0  0  0  0  0  0  0  0
  129.8484  136.3311  159.7162 H   0  0  0  0  0  0  0  0  0  0  0  0
  130.3241  135.2020  161.0073 H   0  0  0  0  0  0  0  0  0  0  0  0
  131.4790  137.9088  160.4947 H   0  0  0  0  0  0  0  0  0  0  0  0
  131.9546  136.7798  161.7860 H   0  0  0  0  0  0  0  0  0  0  0  0
  134.3519  136.8367  160.9613 H   0  0  0  0  0  0  0  0  0  0  0  0
  133.0459  139.6853  161.0847 H   0  0  0  0  0  0  0  0  0  0  0  0
  134.8336  139.3004  161.3246 H   0  0  0  0  0  0  0  0  0  0  0  0
  134.9364  138.3186  158.9873 H   0  0  0  0  0  0  0  0  0  0  0  0
  133.1488  138.7033  158.7469 H   0  0  0  0  0  0  0  0  0  0  0  0
  125.7394  138.1131  163.7591 H   0  0  0  0  0  0  0  0  0  0  0  0
  124.7256  136.6576  163.9956 H   0  0  0  0  0  0  0  0  0  0  0  0
  1  2  1  0
  2  7  2  0
  2  3  1  0
  3  4  2  0
  3 32  1  0
  4  5  1  0
  4 33  1  0
  5 31  1  0
  5  6  2  0
  6  7  1  0
  6  8  1  0
  7 34  1  0
  8  9  1  0
  8 35  1  0
  8 36  1  0
  9 10  1  6
  9 11  1  0
  9 31  1  0
 11 12  1  0
 11 37  1  0
 12 30  1  0
 12 13  2  0
 13 14  1  0
 13 38  1  0
 14 15  2  0
 14 39  1  0
 15 16  1  0
 15 30  1  0
 16 21  1  0
 16 17  2  0
 17 18  1  0
 18 19  1  0
 18 20  1  0
 20 21  2  0
 20 40  1  0
 21 22  1  0
 22 23  1  0
 22 41  1  0
 22 42  1  0
 23 24  1  0
 23 25  1  0
 23 26  1  0
 26 27  1  0
 26 43  1  0
 26 44  1  0
 27 29  1  0
 27 28  1  0
 27 45  1  0
 28 29  1  0
 28 46  1  0
 28 47  1  0
 29 48  1  0
 29 49  1  0
 31 50  1  0
 31 51  1  0
M  CHG  1  23   1
M  END
>  <DOCK_score>  (1) 
-48.978046

>  <SMILES>  (1) 
Brc1ccc2c(c1)C[C@@H](Nc1ccc(-c3n[nH]cc3C[NH2+]CC3CC3)o1)C2

$$$$
