Nc1ccc(-c2c[nH]c(N[C@@H]3CC=C(Cc4cccc5cccnc45)C3)[nH+]2)cc1
     RDKit          3D

 53 57  0  0  1  0  0  0  0  0999 V2000
  131.2222  129.3898  152.3739 N   0  0  0  0  0  0  0  0  0  0  0  0
  130.9416  130.1241  153.5287 C   0  0  0  0  0  0  0  0  0  0  0  0
  130.0693  131.2051  153.4680 C   0  0  0  0  0  0  0  0  0  0  0  0
  129.7909  131.9321  154.6062 C   0  0  0  0  0  0  0  0  0  0  0  0
  130.3843  131.5821  155.8180 C   0  0  0  0  0  0  0  0  0  0  0  0
  130.0867  132.3631  157.0438 C   0  0  0  0  0  0  0  0  0  0  0  0
  129.5304  131.8801  158.1821 C   0  0  0  0  0  0  0  0  0  0  0  0
  129.4383  132.9346  159.0594 N   0  0  0  0  0  0  0  0  0  0  0  0
  129.0836  132.9024  159.9616 H   0  0  0  0  0  0  0  0  0  0  0  0
  129.9336  134.0329  158.4268 C   0  0  0  0  0  0  0  0  0  0  0  0
  130.0180  135.3049  158.9667 N   0  0  0  0  0  0  0  0  0  0  0  0
  129.5500  135.5534  160.3325 C   0  0  2  0  0  0  0  0  0  0  0  0
  128.6296  135.0057  160.5347 H   0  0  0  0  0  0  0  0  0  0  0  0
  129.3630  137.0669  160.5884 C   0  0  0  0  0  0  0  0  0  0  0  0
  130.6710  137.5200  161.1943 C   0  0  0  0  0  0  0  0  0  0  0  0
  131.3719  136.5023  161.6142 C   0  0  0  0  0  0  0  0  0  0  0  0
  132.7264  136.6108  162.2660 C   0  0  0  0  0  0  0  0  0  0  0  0
  133.1286  138.0607  162.3503 C   0  0  0  0  0  0  0  0  0  0  0  0
  132.7964  138.7991  163.4445 C   0  0  0  0  0  0  0  0  0  0  0  0
  133.1581  140.1409  163.5431 C   0  0  0  0  0  0  0  0  0  0  0  0
  133.8558  140.7514  162.5458 C   0  0  0  0  0  0  0  0  0  0  0  0
  134.2154  140.0203  161.4025 C   0  0  0  0  0  0  0  0  0  0  0  0
  134.9362  140.6143  160.3492 C   0  0  0  0  0  0  0  0  0  0  0  0
  135.2466  139.8434  159.2654 C   0  0  0  0  0  0  0  0  0  0  0  0
  134.8581  138.5057  159.2297 C   0  0  0  0  0  0  0  0  0  0  0  0
  134.1876  137.9555  160.2125 N   0  0  0  0  0  0  0  0  0  0  0  0
  133.8481  138.6555  161.2997 C   0  0  0  0  0  0  0  0  0  0  0  0
  130.6442  135.2012  161.3669 C   0  0  0  0  0  0  0  0  0  0  0  0
  130.3230  133.6867  157.2240 N   0  0  0  0  0  0  0  0  0  0  0  0
  130.7169  134.2821  156.5673 H   0  0  0  0  0  0  0  0  0  0  0  0
  131.2623  130.5009  155.8752 C   0  0  0  0  0  0  0  0  0  0  0  0
  131.5343  129.7741  154.7354 C   0  0  0  0  0  0  0  0  0  0  0  0
  130.8089  129.6339  151.5309 H   0  0  0  0  0  0  0  0  0  0  0  0
  131.8308  128.6356  152.4152 H   0  0  0  0  0  0  0  0  0  0  0  0
  129.6099  131.4759  152.5288 H   0  0  0  0  0  0  0  0  0  0  0  0
  129.1133  132.7718  154.5588 H   0  0  0  0  0  0  0  0  0  0  0  0
  129.2224  130.8614  158.3659 H   0  0  0  0  0  0  0  0  0  0  0  0
  130.3870  136.0316  158.4407 H   0  0  0  0  0  0  0  0  0  0  0  0
  129.1744  137.5901  159.6510 H   0  0  0  0  0  0  0  0  0  0  0  0
  128.5440  137.2354  161.2877 H   0  0  0  0  0  0  0  0  0  0  0  0
  130.9855  138.5506  161.2682 H   0  0  0  0  0  0  0  0  0  0  0  0
  133.4597  136.0642  161.6730 H   0  0  0  0  0  0  0  0  0  0  0  0
  132.6818  136.1870  163.2692 H   0  0  0  0  0  0  0  0  0  0  0  0
  132.2436  138.3373  164.2493 H   0  0  0  0  0  0  0  0  0  0  0  0
  132.8818  140.7041  164.4221 H   0  0  0  0  0  0  0  0  0  0  0  0
  134.1313  141.7920  162.6338 H   0  0  0  0  0  0  0  0  0  0  0  0
  135.2318  141.6522  160.3950 H   0  0  0  0  0  0  0  0  0  0  0  0
  135.7947  140.2694  158.4383 H   0  0  0  0  0  0  0  0  0  0  0  0
  135.1133  137.9072  158.3677 H   0  0  0  0  0  0  0  0  0  0  0  0
  131.3268  134.4561  160.9587 H   0  0  0  0  0  0  0  0  0  0  0  0
  130.1917  134.8381  162.2896 H   0  0  0  0  0  0  0  0  0  0  0  0
  131.7263  130.2305  156.8122 H   0  0  0  0  0  0  0  0  0  0  0  0
  132.2123  128.9344  154.7797 H   0  0  0  0  0  0  0  0  0  0  0  0
  1  2  1  0
  1 33  1  0
  1 34  1  0
  2 32  2  0
  2  3  1  0
  3  4  2  0
  3 35  1  0
  4  5  1  0
  4 36  1  0
  5  6  1  0
  5 31  2  0
  6 29  1  0
  6  7  2  0
  7  8  1  0
  7 37  1  0
  8  9  1  0
  8 10  1  0
 10 11  1  0
 10 29  2  0
 11 12  1  0
 11 38  1  0
 12 13  1  1
 12 28  1  0
 12 14  1  0
 14 15  1  0
 14 39  1  0
 14 40  1  0
 15 16  2  0
 15 41  1  0
 16 17  1  0
 16 28  1  0
 17 18  1  0
 17 42  1  0
 17 43  1  0
 18 27  1  0
 18 19  2  0
 19 20  1  0
 19 44  1  0
 20 21  2  0
 20 45  1  0
 21 22  1  0
 21 46  1  0
 22 27  2  0
 22 23  1  0
 23 24  2  0
 23 47  1  0
 24 25  1  0
 24 48  1  0
 25 26  2  0
 25 49  1  0
 26 27  1  0
 28 50  1  0
 28 51  1  0
 29 30  1  0
 31 32  1  0
 31 52  1  0
 32 53  1  0
M  CHG  1  29   1
M  END
>  <DOCK_score>  (1) 
-56.136414

>  <SMILES>  (1) 
Nc1ccc(-c2c[nH]c(N[C@@H]3CC=C(Cc4cccc5cccnc45)C3)[nH+]2)cc1

$$$$
