CCn1ncnc1CNc1cccc([C@@H]([NH3+])C(=O)Nc2cccc(O)c2)c1
     RDKit          3D

 50 52  0  0  1  0  0  0  0  0999 V2000
  133.8665  140.3719  164.3173 C   0  0  0  0  0  0  0  0  0  0  0  0
  133.9255  140.1265  162.8083 C   0  0  0  0  0  0  0  0  0  0  0  0
  135.2299  139.5600  162.4563 N   0  0  0  0  0  0  0  0  0  0  0  0
  136.3880  140.2705  162.1009 N   0  0  0  0  0  0  0  0  0  0  0  0
  137.3185  139.3831  161.8661 C   0  0  0  0  0  0  0  0  0  0  0  0
  136.8132  138.1654  162.0583 N   0  0  0  0  0  0  0  0  0  0  0  0
  135.5560  138.2567  162.4086 C   0  0  0  0  0  0  0  0  0  0  0  0
  134.6356  137.1026  162.7120 C   0  0  0  0  0  0  0  0  0  0  0  0
  133.9580  136.6821  161.4831 N   0  0  0  0  0  0  0  0  0  0  0  0
  133.0493  135.6219  161.5143 C   0  0  0  0  0  0  0  0  0  0  0  0
  132.7866  134.9651  162.7102 C   0  0  0  0  0  0  0  0  0  0  0  0
  131.8874  133.9176  162.7377 C   0  0  0  0  0  0  0  0  0  0  0  0
  131.2443  133.5255  161.5777 C   0  0  0  0  0  0  0  0  0  0  0  0
  131.5076  134.1732  160.3849 C   0  0  0  0  0  0  0  0  0  0  0  0
  130.8092  133.7388  159.1221 C   0  0  1  0  0  0  0  0  0  0  0  0
  130.6939  134.5950  158.4576 H   0  0  0  0  0  0  0  0  0  0  0  0
  131.6075  132.7032  158.4526 N   0  0  0  0  0  0  0  0  0  0  0  0
  131.1399  132.4121  157.6072 H   0  0  0  0  0  0  0  0  0  0  0  0
  132.5167  133.0754  158.2229 H   0  0  0  0  0  0  0  0  0  0  0  0
  131.7142  131.9106  159.0678 H   0  0  0  0  0  0  0  0  0  0  0  0
  129.4513  133.1827  159.4651 C   0  0  0  0  0  0  0  0  0  0  0  0
  129.3223  132.0002  159.7021 O   0  0  0  0  0  0  0  0  0  0  0  0
  128.3790  133.9984  159.5032 N   0  0  0  0  0  0  0  0  0  0  0  0
  127.1172  133.4811  159.8161 C   0  0  0  0  0  0  0  0  0  0  0  0
  126.8011  132.1697  159.4839 C   0  0  0  0  0  0  0  0  0  0  0  0
  125.5574  131.6573  159.7980 C   0  0  0  0  0  0  0  0  0  0  0  0
  124.6206  132.4507  160.4330 C   0  0  0  0  0  0  0  0  0  0  0  0
  124.9287  133.7630  160.7621 C   0  0  0  0  0  0  0  0  0  0  0  0
  124.0064  134.5421  161.3859 O   0  0  0  0  0  0  0  0  0  0  0  0
  126.1778  134.2791  160.4536 C   0  0  0  0  0  0  0  0  0  0  0  0
  132.4060  135.2220  160.3502 C   0  0  0  0  0  0  0  0  0  0  0  0
  134.6543  141.0687  164.6032 H   0  0  0  0  0  0  0  0  0  0  0  0
  132.8960  140.7933  164.5792 H   0  0  0  0  0  0  0  0  0  0  0  0
  134.0070  139.4283  164.8446 H   0  0  0  0  0  0  0  0  0  0  0  0
  133.7850  141.0701  162.2810 H   0  0  0  0  0  0  0  0  0  0  0  0
  133.1377  139.4296  162.5224 H   0  0  0  0  0  0  0  0  0  0  0  0
  138.3337  139.6016  161.5693 H   0  0  0  0  0  0  0  0  0  0  0  0
  133.8940  137.4131  163.4480 H   0  0  0  0  0  0  0  0  0  0  0  0
  135.2159  136.2702  163.1100 H   0  0  0  0  0  0  0  0  0  0  0  0
  134.1404  137.1402  160.6478 H   0  0  0  0  0  0  0  0  0  0  0  0
  133.2849  135.2738  163.6173 H   0  0  0  0  0  0  0  0  0  0  0  0
  131.6827  133.4066  163.6669 H   0  0  0  0  0  0  0  0  0  0  0  0
  130.5379  132.7091  161.6028 H   0  0  0  0  0  0  0  0  0  0  0  0
  128.4820  134.9440  159.3136 H   0  0  0  0  0  0  0  0  0  0  0  0
  127.5299  131.5491  158.9838 H   0  0  0  0  0  0  0  0  0  0  0  0
  125.3150  130.6364  159.5427 H   0  0  0  0  0  0  0  0  0  0  0  0
  123.6476  132.0486  160.6737 H   0  0  0  0  0  0  0  0  0  0  0  0
  124.3126  135.4399  161.5741 H   0  0  0  0  0  0  0  0  0  0  0  0
  126.4196  135.3002  160.7092 H   0  0  0  0  0  0  0  0  0  0  0  0
  132.6083  135.7301  159.4191 H   0  0  0  0  0  0  0  0  0  0  0  0
  1  2  1  0
  1 32  1  0
  1 33  1  0
  1 34  1  0
  2  3  1  0
  2 35  1  0
  2 36  1  0
  3  7  1  0
  3  4  1  0
  4  5  2  0
  5  6  1  0
  5 37  1  0
  6  7  2  0
  7  8  1  0
  8  9  1  0
  8 38  1  0
  8 39  1  0
  9 10  1  0
  9 40  1  0
 10 31  1  0
 10 11  2  0
 11 12  1  0
 11 41  1  0
 12 13  2  0
 12 42  1  0
 13 14  1  0
 13 43  1  0
 14 15  1  0
 14 31  2  0
 15 16  1  6
 15 17  1  0
 15 21  1  0
 17 18  1  0
 17 19  1  0
 17 20  1  0
 21 22  2  0
 21 23  1  0
 23 24  1  0
 23 44  1  0
 24 30  1  0
 24 25  2  0
 25 26  1  0
 25 45  1  0
 26 27  2  0
 26 46  1  0
 27 28  1  0
 27 47  1  0
 28 29  1  0
 28 30  2  0
 29 48  1  0
 30 49  1  0
 31 50  1  0
M  CHG  1  17   1
M  END
>  <DOCK_score>  (1) 
-40.953117

>  <SMILES>  (1) 
CCn1ncnc1CNc1cccc([C@@H]([NH3+])C(=O)Nc2cccc(O)c2)c1

$$$$
