COc1ccncc1Nc1c(N)c(Cl)c(Cl)c(Nc2[nH]c3ccccc3[nH+]2)c1Cl
     RDKit          3D

 45 48  0  0  0  0  0  0  0  0999 V2000
  130.8401  131.7852  155.1089 C   0  0  0  0  0  0  0  0  0  0  0  0
  131.6516  131.2716  156.1671 O   0  0  0  0  0  0  0  0  0  0  0  0
  131.0127  130.8825  157.3009 C   0  0  0  0  0  0  0  0  0  0  0  0
  130.5643  129.5755  157.4544 C   0  0  0  0  0  0  0  0  0  0  0  0
  129.9138  129.2193  158.6195 C   0  0  0  0  0  0  0  0  0  0  0  0
  129.7193  130.0980  159.5841 N   0  0  0  0  0  0  0  0  0  0  0  0
  130.1325  131.3470  159.4837 C   0  0  0  0  0  0  0  0  0  0  0  0
  130.7937  131.7847  158.3466 C   0  0  0  0  0  0  0  0  0  0  0  0
  131.2303  133.1108  158.2445 N   0  0  0  0  0  0  0  0  0  0  0  0
  130.5326  134.1310  158.9045 C   0  0  0  0  0  0  0  0  0  0  0  0
  129.1927  134.3697  158.6013 C   0  0  0  0  0  0  0  0  0  0  0  0
  128.5420  133.5888  157.6341 N   0  0  0  0  0  0  0  0  0  0  0  0
  128.5039  135.3804  159.2558 C   0  0  0  0  0  0  0  0  0  0  0  0
  126.8359  135.6784  158.8780 Cl  0  0  0  0  0  0  0  0  0  0  0  0
  129.1454  136.1515  160.2097 C   0  0  0  0  0  0  0  0  0  0  0  0
  128.2807  137.4158  161.0268 Cl  0  0  0  0  0  0  0  0  0  0  0  0
  130.4798  135.9156  160.5138 C   0  0  0  0  0  0  0  0  0  0  0  0
  131.1273  136.6986  161.4801 N   0  0  0  0  0  0  0  0  0  0  0  0
  132.2320  137.4424  161.1353 C   0  0  0  0  0  0  0  0  0  0  0  0
  132.9180  138.2208  161.9698 N   0  0  0  0  0  0  0  0  0  0  0  0
  132.7226  138.3548  162.9104 H   0  0  0  0  0  0  0  0  0  0  0  0
  133.9501  138.7960  161.2764 C   0  0  0  0  0  0  0  0  0  0  0  0
  134.9716  139.6753  161.6237 C   0  0  0  0  0  0  0  0  0  0  0  0
  135.8812  140.0794  160.6707 C   0  0  0  0  0  0  0  0  0  0  0  0
  135.7860  139.6164  159.3664 C   0  0  0  0  0  0  0  0  0  0  0  0
  134.7806  138.7458  159.0055 C   0  0  0  0  0  0  0  0  0  0  0  0
  133.8540  138.3268  159.9560 C   0  0  0  0  0  0  0  0  0  0  0  0
  132.7687  137.4918  159.9178 N   0  0  0  0  0  0  0  0  0  0  0  0
  132.4483  137.0137  159.1369 H   0  0  0  0  0  0  0  0  0  0  0  0
  131.1752  134.9082  159.8570 C   0  0  0  0  0  0  0  0  0  0  0  0
  132.8450  134.6181  160.2325 Cl  0  0  0  0  0  0  0  0  0  0  0  0
  130.1260  131.0234  154.7960 H   0  0  0  0  0  0  0  0  0  0  0  0
  130.3017  132.6661  155.4587 H   0  0  0  0  0  0  0  0  0  0  0  0
  131.4735  132.0579  154.2648 H   0  0  0  0  0  0  0  0  0  0  0  0
  130.7188  128.8489  156.6705 H   0  0  0  0  0  0  0  0  0  0  0  0
  129.5595  128.2067  158.7429 H   0  0  0  0  0  0  0  0  0  0  0  0
  129.9533  132.0360  160.2959 H   0  0  0  0  0  0  0  0  0  0  0  0
  132.0158  133.3234  157.7168 H   0  0  0  0  0  0  0  0  0  0  0  0
  127.6006  133.7318  157.4484 H   0  0  0  0  0  0  0  0  0  0  0  0
  129.0333  132.9059  157.1512 H   0  0  0  0  0  0  0  0  0  0  0  0
  130.7962  136.7159  162.3916 H   0  0  0  0  0  0  0  0  0  0  0  0
  135.0510  140.0401  162.6372 H   0  0  0  0  0  0  0  0  0  0  0  0
  136.6735  140.7617  160.9409 H   0  0  0  0  0  0  0  0  0  0  0  0
  136.5047  139.9408  158.6285 H   0  0  0  0  0  0  0  0  0  0  0  0
  134.7118  138.3897  157.9883 H   0  0  0  0  0  0  0  0  0  0  0  0
  1  2  1  0
  1 32  1  0
  1 33  1  0
  1 34  1  0
  2  3  1  0
  3  8  2  0
  3  4  1  0
  4  5  2  0
  4 35  1  0
  5  6  1  0
  5 36  1  0
  6  7  2  0
  7  8  1  0
  7 37  1  0
  8  9  1  0
  9 10  1  0
  9 38  1  0
 10 30  1  0
 10 11  2  0
 11 12  1  0
 11 13  1  0
 12 39  1  0
 12 40  1  0
 13 14  1  0
 13 15  2  0
 15 16  1  0
 15 17  1  0
 17 18  1  0
 17 30  2  0
 18 19  1  0
 18 41  1  0
 19 28  1  0
 19 20  2  0
 20 21  1  0
 20 22  1  0
 22 27  2  0
 22 23  1  0
 23 24  2  0
 23 42  1  0
 24 25  1  0
 24 43  1  0
 25 26  2  0
 25 44  1  0
 26 27  1  0
 26 45  1  0
 27 28  1  0
 28 29  1  0
 30 31  1  0
M  CHG  1  20   1
M  END
>  <DOCK_score>  (1) 
-57.68404

>  <SMILES>  (1) 
COc1ccncc1Nc1c(N)c(Cl)c(Cl)c(Nc2[nH]c3ccccc3[nH+]2)c1Cl

$$$$
