O=C1CC=C(Nc2ccc(-c3n[nH]cc3C[NH2+]C3CC(C4CC4)C3)o2)N1
     RDKit          3D

 50 54  0  0  1  0  0  0  0  0999 V2000
  129.9503  139.2221  162.5154 O   0  0  0  0  0  0  0  0  0  0  0  0
  128.8273  138.7783  162.6294 C   0  0  0  0  0  0  0  0  0  0  0  0
  127.6862  139.3754  163.4284 C   0  0  0  0  0  0  0  0  0  0  0  0
  126.5433  138.4073  163.2019 C   0  0  0  0  0  0  0  0  0  0  0  0
  127.0137  137.4470  162.4149 C   0  0  0  0  0  0  0  0  0  0  0  0
  126.2600  136.3624  161.9798 N   0  0  0  0  0  0  0  0  0  0  0  0
  126.8356  135.4017  161.1553 C   0  0  0  0  0  0  0  0  0  0  0  0
  126.2132  134.2987  160.6693 C   0  0  0  0  0  0  0  0  0  0  0  0
  127.1565  133.6064  159.8853 C   0  0  0  0  0  0  0  0  0  0  0  0
  128.3103  134.3236  159.9324 C   0  0  0  0  0  0  0  0  0  0  0  0
  129.5750  133.9739  159.2534 C   0  0  0  0  0  0  0  0  0  0  0  0
  129.7832  132.9137  158.4977 N   0  0  0  0  0  0  0  0  0  0  0  0
  131.1091  132.9539  158.0481 N   0  0  0  0  0  0  0  0  0  0  0  0
  131.5354  132.2983  157.4741 H   0  0  0  0  0  0  0  0  0  0  0  0
  131.6934  134.0604  158.5568 C   0  0  0  0  0  0  0  0  0  0  0  0
  130.7749  134.7147  159.2992 C   0  0  0  0  0  0  0  0  0  0  0  0
  130.9941  136.0036  160.0487 C   0  0  0  0  0  0  0  0  0  0  0  0
  132.3759  136.4590  159.8458 N   0  0  0  0  0  0  0  0  0  0  0  0
  133.0149  135.7574  160.1890 H   0  0  0  0  0  0  0  0  0  0  0  0
  132.5392  136.6103  158.8618 H   0  0  0  0  0  0  0  0  0  0  0  0
  132.5897  137.7153  160.5765 C   0  0  2  0  0  0  0  0  0  0  0  0
  134.0284  138.2490  160.4766 C   0  0  0  0  0  0  0  0  0  0  0  0
  133.9055  138.6286  161.9635 C   0  0  1  0  0  0  0  0  0  0  0  0
  133.3450  140.0339  162.1909 C   0  0  0  0  0  0  0  0  0  0  0  0
  134.3471  141.1846  162.3032 C   0  0  0  0  0  0  0  0  0  0  0  0
  133.6091  140.6886  163.5483 C   0  0  0  0  0  0  0  0  0  0  0  0
  132.8485  137.5175  162.0794 C   0  0  0  0  0  0  0  0  0  0  0  0
  128.1040  135.4067  160.7105 O   0  0  0  0  0  0  0  0  0  0  0  0
  128.3388  137.6531  162.0725 N   0  0  0  0  0  0  0  0  0  0  0  0
  127.9451  139.4270  164.4860 H   0  0  0  0  0  0  0  0  0  0  0  0
  127.4296  140.3645  163.0492 H   0  0  0  0  0  0  0  0  0  0  0  0
  125.5436  138.4823  163.6033 H   0  0  0  0  0  0  0  0  0  0  0  0
  125.3328  136.2758  162.2513 H   0  0  0  0  0  0  0  0  0  0  0  0
  125.1891  134.0068  160.8495 H   0  0  0  0  0  0  0  0  0  0  0  0
  126.9942  132.6830  159.3492 H   0  0  0  0  0  0  0  0  0  0  0  0
  132.7158  134.3691  158.3957 H   0  0  0  0  0  0  0  0  0  0  0  0
  130.3038  136.7615  159.6779 H   0  0  0  0  0  0  0  0  0  0  0  0
  130.8177  135.8403  161.1118 H   0  0  0  0  0  0  0  0  0  0  0  0
  131.8296  138.4658  160.3596 H   0  0  0  0  0  0  0  0  0  0  0  0
  134.7695  137.4731  160.2838 H   0  0  0  0  0  0  0  0  0  0  0  0
  134.1307  139.1075  159.8127 H   0  0  0  0  0  0  0  0  0  0  0  0
  134.8086  138.4342  162.5421 H   0  0  0  0  0  0  0  0  0  0  0  0
  132.3901  140.2429  161.7087 H   0  0  0  0  0  0  0  0  0  0  0  0
  135.4057  140.9404  162.2149 H   0  0  0  0  0  0  0  0  0  0  0  0
  134.0518  142.1509  161.8945 H   0  0  0  0  0  0  0  0  0  0  0  0
  132.8282  141.3288  163.9588 H   0  0  0  0  0  0  0  0  0  0  0  0
  134.1822  140.1182  164.2792 H   0  0  0  0  0  0  0  0  0  0  0  0
  131.9995  137.7866  162.7079 H   0  0  0  0  0  0  0  0  0  0  0  0
  133.2650  136.5408  162.3259 H   0  0  0  0  0  0  0  0  0  0  0  0
  128.8523  137.0605  161.5015 H   0  0  0  0  0  0  0  0  0  0  0  0
  1  2  2  0
  2 29  1  0
  2  3  1  0
  3  4  1  0
  3 30  1  0
  3 31  1  0
  4  5  2  0
  4 32  1  0
  5  6  1  0
  5 29  1  0
  6  7  1  0
  6 33  1  0
  7 28  1  0
  7  8  2  0
  8  9  1  0
  8 34  1  0
  9 10  2  0
  9 35  1  0
 10 11  1  0
 10 28  1  0
 11 16  1  0
 11 12  2  0
 12 13  1  0
 13 14  1  0
 13 15  1  0
 15 16  2  0
 15 36  1  0
 16 17  1  0
 17 18  1  0
 17 37  1  0
 17 38  1  0
 18 19  1  0
 18 20  1  0
 18 21  1  0
 21 27  1  0
 21 22  1  0
 21 39  1  1
 22 23  1  0
 22 40  1  0
 22 41  1  0
 23 24  1  0
 23 27  1  0
 23 42  1  1
 24 26  1  0
 24 25  1  0
 24 43  1  0
 25 26  1  0
 25 44  1  0
 25 45  1  0
 26 46  1  0
 26 47  1  0
 27 48  1  0
 27 49  1  0
 29 50  1  0
M  CHG  1  18   1
M  END
>  <DOCK_score>  (1) 
-41.512524

>  <SMILES>  (1) 
O=C1CC=C(Nc2ccc(-c3n[nH]cc3C[NH2+]C3CC(C4CC4)C3)o2)N1

$$$$
