O=C1CC[C@H](NC(NC2Cc3ccccc3C2)=[NH+]C2COc3ccc(-c4ccccc4)cc3C2)CN1
     RDKit          3D

 69 74  0  0  1  0  0  0  0  0999 V2000
  123.7502  133.5536  161.2214 O   0  0  0  0  0  0  0  0  0  0  0  0
  124.9008  133.8769  161.0156 C   0  0  0  0  0  0  0  0  0  0  0  0
  125.8007  132.8970  160.3189 C   0  0  0  0  0  0  0  0  0  0  0  0
  127.2645  133.2861  160.5396 C   0  0  0  0  0  0  0  0  0  0  0  0
  127.4217  134.7789  160.2262 C   0  0  2  0  0  0  0  0  0  0  0  0
  127.0139  134.9899  159.2375 H   0  0  0  0  0  0  0  0  0  0  0  0
  128.8408  135.1414  160.2600 N   0  0  0  0  0  0  0  0  0  0  0  0
  129.7271  134.5294  159.4055 C   0  0  0  0  0  0  0  0  0  0  0  0
  129.3021  134.0879  158.1749 N   0  0  0  0  0  0  0  0  0  0  0  0
  130.2466  133.4358  157.2644 C   0  0  0  0  0  0  0  0  0  0  0  0
  129.7611  133.5403  155.8030 C   0  0  0  0  0  0  0  0  0  0  0  0
  130.1799  132.2394  155.1523 C   0  0  0  0  0  0  0  0  0  0  0  0
  130.2965  131.9019  153.8143 C   0  0  0  0  0  0  0  0  0  0  0  0
  130.7031  130.6334  153.4502 C   0  0  0  0  0  0  0  0  0  0  0  0
  130.9951  129.6965  154.4241 C   0  0  0  0  0  0  0  0  0  0  0  0
  130.8795  130.0310  155.7590 C   0  0  0  0  0  0  0  0  0  0  0  0
  130.4718  131.3028  156.1259 C   0  0  0  0  0  0  0  0  0  0  0  0
  130.2690  131.9102  157.4976 C   0  0  0  0  0  0  0  0  0  0  0  0
  130.9703  134.3677  159.7623 N   0  0  0  0  0  0  0  0  0  0  0  0
  131.5956  133.9359  159.1595 H   0  0  0  0  0  0  0  0  0  0  0  0
  131.4245  134.8436  161.0712 C   0  0  1  0  0  0  0  0  0  0  0  0
  130.6509  134.1208  162.1814 C   0  0  0  0  0  0  0  0  0  0  0  0
  131.0390  134.6787  163.4374 O   0  0  0  0  0  0  0  0  0  0  0  0
  132.3672  134.8059  163.6932 C   0  0  0  0  0  0  0  0  0  0  0  0
  132.7718  134.9990  165.0119 C   0  0  0  0  0  0  0  0  0  0  0  0
  134.1073  135.1372  165.3177 C   0  0  0  0  0  0  0  0  0  0  0  0
  135.0605  135.0835  164.3019 C   0  0  0  0  0  0  0  0  0  0  0  0
  136.5010  135.2339  164.6234 C   0  0  0  0  0  0  0  0  0  0  0  0
  137.4623  134.5959  163.8419 C   0  0  0  0  0  0  0  0  0  0  0  0
  138.8012  134.7427  164.1430 C   0  0  0  0  0  0  0  0  0  0  0  0
  139.1891  135.5133  165.2243 C   0  0  0  0  0  0  0  0  0  0  0  0
  138.2390  136.1448  166.0064 C   0  0  0  0  0  0  0  0  0  0  0  0
  136.8976  136.0090  165.7116 C   0  0  0  0  0  0  0  0  0  0  0  0
  134.6551  134.8890  162.9845 C   0  0  0  0  0  0  0  0  0  0  0  0
  133.3129  134.7492  162.6826 C   0  0  0  0  0  0  0  0  0  0  0  0
  132.9137  134.5345  161.2444 C   0  0  0  0  0  0  0  0  0  0  0  0
  126.6606  135.5865  161.2782 C   0  0  0  0  0  0  0  0  0  0  0  0
  125.2994  135.0834  161.4202 N   0  0  0  0  0  0  0  0  0  0  0  0
  125.5821  132.9006  159.2510 H   0  0  0  0  0  0  0  0  0  0  0  0
  125.6272  131.8981  160.7193 H   0  0  0  0  0  0  0  0  0  0  0  0
  127.9034  132.7026  159.8767 H   0  0  0  0  0  0  0  0  0  0  0  0
  127.5419  133.0977  161.5768 H   0  0  0  0  0  0  0  0  0  0  0  0
  129.1550  135.8133  160.8850 H   0  0  0  0  0  0  0  0  0  0  0  0
  128.3770  134.2081  157.9095 H   0  0  0  0  0  0  0  0  0  0  0  0
  131.2447  133.8594  157.3755 H   0  0  0  0  0  0  0  0  0  0  0  0
  128.6767  133.6472  155.7714 H   0  0  0  0  0  0  0  0  0  0  0  0
  130.2395  134.3835  155.3050 H   0  0  0  0  0  0  0  0  0  0  0  0
  130.0686  132.6333  153.0529 H   0  0  0  0  0  0  0  0  0  0  0  0
  130.7926  130.3733  152.4059 H   0  0  0  0  0  0  0  0  0  0  0  0
  131.3129  128.7038  154.1411 H   0  0  0  0  0  0  0  0  0  0  0  0
  131.1074  129.2986  156.5191 H   0  0  0  0  0  0  0  0  0  0  0  0
  131.0943  131.6405  158.1565 H   0  0  0  0  0  0  0  0  0  0  0  0
  129.3221  131.5787  157.9234 H   0  0  0  0  0  0  0  0  0  0  0  0
  131.2603  135.9184  161.1487 H   0  0  0  0  0  0  0  0  0  0  0  0
  129.5801  134.2601  162.0331 H   0  0  0  0  0  0  0  0  0  0  0  0
  130.8894  133.0574  162.1626 H   0  0  0  0  0  0  0  0  0  0  0  0
  132.0337  135.0408  165.7992 H   0  0  0  0  0  0  0  0  0  0  0  0
  134.4155  135.2862  166.3421 H   0  0  0  0  0  0  0  0  0  0  0  0
  137.1604  133.9907  162.9999 H   0  0  0  0  0  0  0  0  0  0  0  0
  139.5472  134.2514  163.5360 H   0  0  0  0  0  0  0  0  0  0  0  0
  140.2377  135.6218  165.4591 H   0  0  0  0  0  0  0  0  0  0  0  0
  138.5473  136.7454  166.8495 H   0  0  0  0  0  0  0  0  0  0  0  0
  136.1566  136.5026  166.3229 H   0  0  0  0  0  0  0  0  0  0  0  0
  135.3913  134.8466  162.1955 H   0  0  0  0  0  0  0  0  0  0  0  0
  133.1037  133.4979  160.9659 H   0  0  0  0  0  0  0  0  0  0  0  0
  133.4981  135.1946  160.6035 H   0  0  0  0  0  0  0  0  0  0  0  0
  127.1743  135.5049  162.2361 H   0  0  0  0  0  0  0  0  0  0  0  0
  126.6312  136.6336  160.9767 H   0  0  0  0  0  0  0  0  0  0  0  0
  124.6416  135.6646  161.8331 H   0  0  0  0  0  0  0  0  0  0  0  0
  1  2  2  0
  2 38  1  0
  2  3  1  0
  3  4  1  0
  3 39  1  0
  3 40  1  0
  4  5  1  0
  4 41  1  0
  4 42  1  0
  5  6  1  6
  5  7  1  0
  5 37  1  0
  7 43  1  0
  8  7  1  0
  8  9  1  0
  8 19  2  0
  9 10  1  0
  9 44  1  0
 10 18  1  0
 10 11  1  0
 10 45  1  0
 11 12  1  0
 11 46  1  0
 11 47  1  0
 12 17  2  0
 12 13  1  0
 13 14  2  0
 13 48  1  0
 14 15  1  0
 14 49  1  0
 15 16  2  0
 15 50  1  0
 16 17  1  0
 16 51  1  0
 17 18  1  0
 18 52  1  0
 18 53  1  0
 19 20  1  0
 19 21  1  0
 21 36  1  0
 21 22  1  0
 21 54  1  6
 22 23  1  0
 22 55  1  0
 22 56  1  0
 23 24  1  0
 24 35  2  0
 24 25  1  0
 25 26  2  0
 25 57  1  0
 26 27  1  0
 26 58  1  0
 27 28  1  0
 27 34  2  0
 28 33  1  0
 28 29  2  0
 29 30  1  0
 29 59  1  0
 30 31  2  0
 30 60  1  0
 31 32  1  0
 31 61  1  0
 32 33  2  0
 32 62  1  0
 33 63  1  0
 34 35  1  0
 34 64  1  0
 35 36  1  0
 36 65  1  0
 36 66  1  0
 37 38  1  0
 37 67  1  0
 37 68  1  0
 38 69  1  0
M  CHG  1  19   1
M  END
>  <DOCK_score>  (1) 
-53.048828

>  <SMILES>  (1) 
O=C1CC[C@H](NC(NC2Cc3ccccc3C2)=[NH+]C2COc3ccc(-c4ccccc4)cc3C2)CN1

$$$$
