Nc1ccc(-c2c[nH]c(N[C@@H](/C=C/C(=O)OCI)c3ccccc3)[nH+]2)cc1
     RDKit          3D

 47 49  0  0  1  0  0  0  0  0999 V2000
  131.8050  129.6064  151.8892 N   0  0  0  0  0  0  0  0  0  0  0  0
  131.4275  130.2686  153.0599 C   0  0  0  0  0  0  0  0  0  0  0  0
  130.6378  131.4100  152.9874 C   0  0  0  0  0  0  0  0  0  0  0  0
  130.2636  132.0651  154.1417 C   0  0  0  0  0  0  0  0  0  0  0  0
  130.6779  131.5817  155.3818 C   0  0  0  0  0  0  0  0  0  0  0  0
  130.2769  132.2850  156.6249 C   0  0  0  0  0  0  0  0  0  0  0  0
  129.5542  131.7564  157.6431 C   0  0  0  0  0  0  0  0  0  0  0  0
  129.4127  132.7457  158.5872 N   0  0  0  0  0  0  0  0  0  0  0  0
  128.9397  132.6715  159.4308 H   0  0  0  0  0  0  0  0  0  0  0  0
  130.0538  133.8499  158.1169 C   0  0  0  0  0  0  0  0  0  0  0  0
  130.1465  135.0676  158.7690 N   0  0  0  0  0  0  0  0  0  0  0  0
  129.0757  135.4987  159.6712 C   0  0  1  0  0  0  0  0  0  0  0  0
  128.9678  134.7748  160.4791 H   0  0  0  0  0  0  0  0  0  0  0  0
  129.4180  136.8481  160.2482 C   0  0  0  0  0  0  0  0  0  0  0  0
  129.5406  136.9971  161.5651 C   0  0  0  0  0  0  0  0  0  0  0  0
  129.8743  138.3128  162.1277 C   0  0  0  0  0  0  0  0  0  0  0  0
  130.5020  138.3884  163.1657 O   0  0  0  0  0  0  0  0  0  0  0  0
  129.4841  139.4362  161.4928 O   0  0  0  0  0  0  0  0  0  0  0  0
  129.8488  140.7006  162.1063 C   0  0  0  0  0  0  0  0  0  0  0  0
  128.4727  141.1452  163.7135 I   0  0  0  0  0  0  0  0  0  0  0  0
  127.7814  135.5936  158.9053 C   0  0  0  0  0  0  0  0  0  0  0  0
  126.5796  135.3605  159.5475 C   0  0  0  0  0  0  0  0  0  0  0  0
  125.3921  135.4513  158.8457 C   0  0  0  0  0  0  0  0  0  0  0  0
  125.4069  135.7673  157.5000 C   0  0  0  0  0  0  0  0  0  0  0  0
  126.6089  135.9952  156.8567 C   0  0  0  0  0  0  0  0  0  0  0  0
  127.7963  135.9082  157.5593 C   0  0  0  0  0  0  0  0  0  0  0  0
  130.5689  133.5708  156.9442 N   0  0  0  0  0  0  0  0  0  0  0  0
  131.0772  134.1856  156.3925 H   0  0  0  0  0  0  0  0  0  0  0  0
  131.4742  130.4398  155.4517 C   0  0  0  0  0  0  0  0  0  0  0  0
  131.8417  129.7849  154.2952 C   0  0  0  0  0  0  0  0  0  0  0  0
  131.5160  129.9431  151.0267 H   0  0  0  0  0  0  0  0  0  0  0  0
  132.3561  128.8096  151.9390 H   0  0  0  0  0  0  0  0  0  0  0  0
  130.3173  131.7844  152.0265 H   0  0  0  0  0  0  0  0  0  0  0  0
  129.6496  132.9518  154.0850 H   0  0  0  0  0  0  0  0  0  0  0  0
  129.1641  130.7510  157.7011 H   0  0  0  0  0  0  0  0  0  0  0  0
  130.9204  135.6352  158.6287 H   0  0  0  0  0  0  0  0  0  0  0  0
  129.5637  137.6943  159.5933 H   0  0  0  0  0  0  0  0  0  0  0  0
  129.3949  136.1508  162.2201 H   0  0  0  0  0  0  0  0  0  0  0  0
  130.8616  140.6329  162.5034 H   0  0  0  0  0  0  0  0  0  0  0  0
  129.8034  141.4933  161.3595 H   0  0  0  0  0  0  0  0  0  0  0  0
  126.5683  135.1103  160.5980 H   0  0  0  0  0  0  0  0  0  0  0  0
  124.4528  135.2729  159.3482 H   0  0  0  0  0  0  0  0  0  0  0  0
  124.4793  135.8357  156.9512 H   0  0  0  0  0  0  0  0  0  0  0  0
  126.6205  136.2416  155.8052 H   0  0  0  0  0  0  0  0  0  0  0  0
  128.7354  136.0861  157.0567 H   0  0  0  0  0  0  0  0  0  0  0  0
  131.8001  130.0661  156.4112 H   0  0  0  0  0  0  0  0  0  0  0  0
  132.4556  128.8979  154.3491 H   0  0  0  0  0  0  0  0  0  0  0  0
  1  2  1  0
  1 31  1  0
  1 32  1  0
  2 30  2  0
  2  3  1  0
  3  4  2  0
  3 33  1  0
  4  5  1  0
  4 34  1  0
  5  6  1  0
  5 29  2  0
  6 27  1  0
  6  7  2  0
  7  8  1  0
  7 35  1  0
  8  9  1  0
  8 10  1  0
 10 11  1  0
 10 27  2  0
 11 12  1  0
 11 36  1  0
 12 13  1  1
 12 14  1  0
 12 21  1  0
 14 15  2  0
 14 37  1  0
 15 16  1  0
 15 38  1  0
 16 17  2  0
 16 18  1  0
 18 19  1  0
 19 20  1  0
 19 39  1  0
 19 40  1  0
 21 26  1  0
 21 22  2  0
 22 23  1  0
 22 41  1  0
 23 24  2  0
 23 42  1  0
 24 25  1  0
 24 43  1  0
 25 26  2  0
 25 44  1  0
 26 45  1  0
 27 28  1  0
 29 30  1  0
 29 46  1  0
 30 47  1  0
M  CHG  1  27   1
M  END
>  <DOCK_score>  (1) 
-61.826225

>  <SMILES>  (1) 
Nc1ccc(-c2c[nH]c(N[C@@H](/C=C/C(=O)OCI)c3ccccc3)[nH+]2)cc1

$$$$
