Oc1cccc(CNC(NC2CC=CC2)=[NH+]Cc2ccccc2)c1
     RDKit          3D

 48 50  0  0  1  0  0  0  0  0999 V2000
  124.4221  135.6576  163.3920 O   0  0  0  0  0  0  0  0  0  0  0  0
  125.6470  135.8651  163.9428 C   0  0  0  0  0  0  0  0  0  0  0  0
  125.8571  135.6030  165.2892 C   0  0  0  0  0  0  0  0  0  0  0  0
  127.1046  135.8087  165.8451 C   0  0  0  0  0  0  0  0  0  0  0  0
  128.1407  136.2870  165.0640 C   0  0  0  0  0  0  0  0  0  0  0  0
  127.9325  136.5541  163.7237 C   0  0  0  0  0  0  0  0  0  0  0  0
  129.0638  137.0753  162.8753 C   0  0  0  0  0  0  0  0  0  0  0  0
  129.0932  136.3513  161.6022 N   0  0  0  0  0  0  0  0  0  0  0  0
  130.0466  136.6565  160.6597 C   0  0  0  0  0  0  0  0  0  0  0  0
  130.0743  135.9769  159.4648 N   0  0  0  0  0  0  0  0  0  0  0  0
  129.0878  134.9278  159.1958 C   0  0  0  0  0  0  0  0  0  0  0  0
  129.3126  133.7055  160.1160 C   0  0  0  0  0  0  0  0  0  0  0  0
  129.0076  132.5084  159.2458 C   0  0  0  0  0  0  0  0  0  0  0  0
  129.0054  132.8345  157.9820 C   0  0  0  0  0  0  0  0  0  0  0  0
  129.3085  134.3034  157.7985 C   0  0  0  0  0  0  0  0  0  0  0  0
  130.9243  137.5898  160.8990 N   0  0  0  0  0  0  0  0  0  0  0  0
  130.9049  138.0693  161.7421 H   0  0  0  0  0  0  0  0  0  0  0  0
  131.9403  137.9150  159.8947 C   0  0  0  0  0  0  0  0  0  0  0  0
  132.8244  139.0193  160.4140 C   0  0  0  0  0  0  0  0  0  0  0  0
  134.1465  139.0909  160.0164 C   0  0  0  0  0  0  0  0  0  0  0  0
  134.9563  140.1067  160.4889 C   0  0  0  0  0  0  0  0  0  0  0  0
  134.4469  141.0448  161.3673 C   0  0  0  0  0  0  0  0  0  0  0  0
  133.1263  140.9701  161.7689 C   0  0  0  0  0  0  0  0  0  0  0  0
  132.3152  139.9574  161.2923 C   0  0  0  0  0  0  0  0  0  0  0  0
  126.6880  136.3442  163.1613 C   0  0  0  0  0  0  0  0  0  0  0  0
  124.3727  135.8721  162.4505 H   0  0  0  0  0  0  0  0  0  0  0  0
  125.0469  135.2344  165.9007 H   0  0  0  0  0  0  0  0  0  0  0  0
  127.2698  135.6003  166.8918 H   0  0  0  0  0  0  0  0  0  0  0  0
  129.1142  136.4517  165.5016 H   0  0  0  0  0  0  0  0  0  0  0  0
  128.9156  138.1384  162.6855 H   0  0  0  0  0  0  0  0  0  0  0  0
  130.0084  136.9279  163.3990 H   0  0  0  0  0  0  0  0  0  0  0  0
  128.4399  135.6567  161.4239 H   0  0  0  0  0  0  0  0  0  0  0  0
  130.7469  136.1922  158.7999 H   0  0  0  0  0  0  0  0  0  0  0  0
  128.0730  135.3128  159.2964 H   0  0  0  0  0  0  0  0  0  0  0  0
  130.3469  133.6727  160.4579 H   0  0  0  0  0  0  0  0  0  0  0  0
  128.6315  133.7402  160.9664 H   0  0  0  0  0  0  0  0  0  0  0  0
  128.8161  131.5138  159.6205 H   0  0  0  0  0  0  0  0  0  0  0  0
  128.8120  132.1450  157.1735 H   0  0  0  0  0  0  0  0  0  0  0  0
  128.6249  134.7444  157.0732 H   0  0  0  0  0  0  0  0  0  0  0  0
  130.3414  134.4427  157.4792 H   0  0  0  0  0  0  0  0  0  0  0  0
  132.5447  137.0313  159.6902 H   0  0  0  0  0  0  0  0  0  0  0  0
  131.4520  138.2417  158.9767 H   0  0  0  0  0  0  0  0  0  0  0  0
  134.5456  138.3554  159.3336 H   0  0  0  0  0  0  0  0  0  0  0  0
  135.9883  140.1648  160.1754 H   0  0  0  0  0  0  0  0  0  0  0  0
  135.0808  141.8358  161.7399 H   0  0  0  0  0  0  0  0  0  0  0  0
  132.7285  141.7028  162.4556 H   0  0  0  0  0  0  0  0  0  0  0  0
  131.2834  139.8989  161.6065 H   0  0  0  0  0  0  0  0  0  0  0  0
  126.5260  136.5529  162.1141 H   0  0  0  0  0  0  0  0  0  0  0  0
  1  2  1  0
  1 26  1  0
  2 25  2  0
  2  3  1  0
  3  4  2  0
  3 27  1  0
  4  5  1  0
  4 28  1  0
  5  6  2  0
  5 29  1  0
  6  7  1  0
  6 25  1  0
  7  8  1  0
  7 30  1  0
  7 31  1  0
  8 32  1  0
  9  8  1  0
  9 10  1  0
  9 16  2  0
 10 11  1  0
 10 33  1  0
 11 15  1  0
 11 12  1  0
 11 34  1  0
 12 13  1  0
 12 35  1  0
 12 36  1  0
 13 14  2  0
 13 37  1  0
 14 15  1  0
 14 38  1  0
 15 39  1  0
 15 40  1  0
 16 17  1  0
 16 18  1  0
 18 19  1  0
 18 41  1  0
 18 42  1  0
 19 24  1  0
 19 20  2  0
 20 21  1  0
 20 43  1  0
 21 22  2  0
 21 44  1  0
 22 23  1  0
 22 45  1  0
 23 24  2  0
 23 46  1  0
 24 47  1  0
 25 48  1  0
M  CHG  1  16   1
M  END
>  <DOCK_score>  (1) 
-42.264893

>  <SMILES>  (1) 
Oc1cccc(CNC(NC2CC=CC2)=[NH+]Cc2ccccc2)c1

$$$$
