CCC=CC(C[C@@H](O)CC#N)Nc1[nH]cc(-c2ccc(N)cc2)[nH+]1
     RDKit          3D

 48 49  0  0  1  0  0  0  0  0999 V2000
  126.3349  132.1238  160.2038 C   0  0  0  0  0  0  0  0  0  0  0  0
  126.5770  133.1799  161.2839 C   0  0  0  0  0  0  0  0  0  0  0  0
  128.0028  133.6617  161.2048 C   0  0  0  0  0  0  0  0  0  0  0  0
  128.3073  134.6848  160.4453 C   0  0  0  0  0  0  0  0  0  0  0  0
  129.7330  135.1666  160.3662 C   0  0  2  0  0  0  0  0  0  0  0  0
  129.8070  136.6204  160.8372 C   0  0  0  0  0  0  0  0  0  0  0  0
  131.2462  136.9556  161.2334 C   0  0  1  0  0  0  0  0  0  0  0  0
  131.6843  136.1086  161.7614 H   0  0  0  0  0  0  0  0  0  0  0  0
  132.0116  137.2322  160.0587 O   0  0  0  0  0  0  0  0  0  0  0  0
  131.2513  138.1833  162.1462 C   0  0  0  0  0  0  0  0  0  0  0  0
  131.1244  139.4020  161.3304 C   0  0  0  0  0  0  0  0  0  0  0  0
  131.0265  140.3424  160.7007 N   0  0  0  0  0  0  0  0  0  0  0  0
  130.2023  135.0775  158.9813 N   0  0  0  0  0  0  0  0  0  0  0  0
  130.2268  133.8528  158.3361 C   0  0  0  0  0  0  0  0  0  0  0  0
  129.8426  132.6646  158.8765 N   0  0  0  0  0  0  0  0  0  0  0  0
  129.5059  132.5241  159.7753 H   0  0  0  0  0  0  0  0  0  0  0  0
  130.0155  131.7006  157.9117 C   0  0  0  0  0  0  0  0  0  0  0  0
  130.5078  132.3266  156.8142 C   0  0  0  0  0  0  0  0  0  0  0  0
  130.8527  131.6825  155.5230 C   0  0  0  0  0  0  0  0  0  0  0  0
  130.7458  132.4018  154.3337 C   0  0  0  0  0  0  0  0  0  0  0  0
  131.0673  131.8012  153.1347 C   0  0  0  0  0  0  0  0  0  0  0  0
  131.4982  130.4800  153.1116 C   0  0  0  0  0  0  0  0  0  0  0  0
  131.8238  129.8738  151.8959 N   0  0  0  0  0  0  0  0  0  0  0  0
  131.6000  129.7593  154.2957 C   0  0  0  0  0  0  0  0  0  0  0  0
  131.2845  130.3573  155.4975 C   0  0  0  0  0  0  0  0  0  0  0  0
  130.6236  133.6467  157.1039 N   0  0  0  0  0  0  0  0  0  0  0  0
  130.9486  134.3294  156.4962 H   0  0  0  0  0  0  0  0  0  0  0  0
  126.5169  132.5601  159.2216 H   0  0  0  0  0  0  0  0  0  0  0  0
  127.0115  131.2835  160.3591 H   0  0  0  0  0  0  0  0  0  0  0  0
  125.3037  131.7754  160.2611 H   0  0  0  0  0  0  0  0  0  0  0  0
  126.3950  132.7437  162.2661 H   0  0  0  0  0  0  0  0  0  0  0  0
  125.9005  134.0202  161.1287 H   0  0  0  0  0  0  0  0  0  0  0  0
  128.7735  133.1636  161.7741 H   0  0  0  0  0  0  0  0  0  0  0  0
  127.5365  135.1830  159.8760 H   0  0  0  0  0  0  0  0  0  0  0  0
  130.3623  134.5457  161.0037 H   0  0  0  0  0  0  0  0  0  0  0  0
  129.4892  137.2805  160.0298 H   0  0  0  0  0  0  0  0  0  0  0  0
  129.1518  136.7574  161.6975 H   0  0  0  0  0  0  0  0  0  0  0  0
  132.0517  136.4958  159.4332 H   0  0  0  0  0  0  0  0  0  0  0  0
  130.4137  138.1227  162.8413 H   0  0  0  0  0  0  0  0  0  0  0  0
  132.1861  138.2163  162.7058 H   0  0  0  0  0  0  0  0  0  0  0  0
  130.4958  135.8766  158.5162 H   0  0  0  0  0  0  0  0  0  0  0  0
  129.8024  130.6463  158.0098 H   0  0  0  0  0  0  0  0  0  0  0  0
  130.4111  133.4283  154.3511 H   0  0  0  0  0  0  0  0  0  0  0  0
  130.9847  132.3579  152.2131 H   0  0  0  0  0  0  0  0  0  0  0  0
  131.7492  130.3748  151.0688 H   0  0  0  0  0  0  0  0  0  0  0  0
  132.1283  128.9530  151.8794 H   0  0  0  0  0  0  0  0  0  0  0  0
  131.9305  128.7312  154.2749 H   0  0  0  0  0  0  0  0  0  0  0  0
  131.3681  129.7983  156.4177 H   0  0  0  0  0  0  0  0  0  0  0  0
  1  2  1  0
  1 28  1  0
  1 29  1  0
  1 30  1  0
  2  3  1  0
  2 31  1  0
  2 32  1  0
  3  4  2  0
  3 33  1  0
  4  5  1  0
  4 34  1  0
  5  6  1  0
  5 13  1  0
  5 35  1  1
  6  7  1  0
  6 36  1  0
  6 37  1  0
  7  8  1  1
  7  9  1  0
  7 10  1  0
  9 38  1  0
 10 11  1  0
 10 39  1  0
 10 40  1  0
 11 12  3  0
 13 41  1  0
 14 13  1  0
 14 26  2  0
 14 15  1  0
 15 16  1  0
 15 17  1  0
 17 18  2  0
 17 42  1  0
 18 19  1  0
 18 26  1  0
 19 25  1  0
 19 20  2  0
 20 21  1  0
 20 43  1  0
 21 22  2  0
 21 44  1  0
 22 23  1  0
 22 24  1  0
 23 45  1  0
 23 46  1  0
 24 25  2  0
 24 47  1  0
 25 48  1  0
 26 27  1  0
M  CHG  1  26   1
M  END
>  <DOCK_score>  (1) 
-56.537937

>  <SMILES>  (1) 
CCC=CC(C[C@@H](O)CC#N)Nc1[nH]cc(-c2ccc(N)cc2)[nH+]1

$$$$
