FC(F)C(Cc1ccc(Cl)cc1)N1CC[NH+](Cc2ccc(C3=C[C@H]4CCC3C4)cc2)CC1
     RDKit          3D

 64 68  0  0  1  0  0  0  0  0999 V2000
  131.7137  130.2874  157.9288 F   0  0  0  0  0  0  0  0  0  0  0  0
  130.3453  130.3413  157.6425 C   0  0  0  0  0  0  0  0  0  0  0  0
  129.6147  130.1681  158.8229 F   0  0  0  0  0  0  0  0  0  0  0  0
  130.0061  131.7007  157.0276 C   0  0  2  0  0  0  0  0  0  0  0  0
  131.1164  132.1137  156.0593 C   0  0  0  0  0  0  0  0  0  0  0  0
  130.9288  131.3993  154.7456 C   0  0  0  0  0  0  0  0  0  0  0  0
  131.5222  130.1682  154.5378 C   0  0  0  0  0  0  0  0  0  0  0  0
  131.3497  129.5122  153.3335 C   0  0  0  0  0  0  0  0  0  0  0  0
  130.5834  130.0881  152.3359 C   0  0  0  0  0  0  0  0  0  0  0  0
  130.3662  129.2647  150.8232 Cl  0  0  0  0  0  0  0  0  0  0  0  0
  129.9949  131.3230  152.5424 C   0  0  0  0  0  0  0  0  0  0  0  0
  130.1631  131.9753  153.7493 C   0  0  0  0  0  0  0  0  0  0  0  0
  129.8875  132.7044  158.0936 N   0  0  0  0  0  0  0  0  0  0  0  0
  129.0477  133.8317  157.6644 C   0  0  0  0  0  0  0  0  0  0  0  0
  128.9008  134.8235  158.8205 C   0  0  0  0  0  0  0  0  0  0  0  0
  130.2283  135.3054  159.2241 N   0  0  0  0  0  0  0  0  0  0  0  0
  130.6763  135.7532  158.4386 H   0  0  0  0  0  0  0  0  0  0  0  0
  130.0856  136.2711  160.3219 C   0  0  0  0  0  0  0  0  0  0  0  0
  131.3293  137.1176  160.4111 C   0  0  0  0  0  0  0  0  0  0  0  0
  132.3799  136.7151  161.2162 C   0  0  0  0  0  0  0  0  0  0  0  0
  133.5235  137.4827  161.2979 C   0  0  0  0  0  0  0  0  0  0  0  0
  133.6145  138.6727  160.5749 C   0  0  0  0  0  0  0  0  0  0  0  0
  134.8347  139.5023  160.6617 C   0  0  0  0  0  0  0  0  0  0  0  0
  135.3191  140.2853  159.6962 C   0  0  0  0  0  0  0  0  0  0  0  0
  136.5939  140.9579  160.2205 C   0  0  1  0  0  0  0  0  0  0  0  0
  137.2821  141.3579  159.4759 H   0  0  0  0  0  0  0  0  0  0  0  0
  136.0826  141.9640  161.3001 C   0  0  0  0  0  0  0  0  0  0  0  0
  135.5237  141.0509  162.4185 C   0  0  0  0  0  0  0  0  0  0  0  0
  135.7670  139.6071  161.8749 C   0  0  2  0  0  0  0  0  0  0  0  0
  137.1430  139.8076  161.1410 C   0  0  0  0  0  0  0  0  0  0  0  0
  132.5491  139.0757  159.7692 C   0  0  0  0  0  0  0  0  0  0  0  0
  131.4131  138.2964  159.6920 C   0  0  0  0  0  0  0  0  0  0  0  0
  131.0471  134.1716  159.6732 C   0  0  0  0  0  0  0  0  0  0  0  0
  131.2118  133.1744  158.5242 C   0  0  0  0  0  0  0  0  0  0  0  0
  130.0901  129.5499  156.9377 H   0  0  0  0  0  0  0  0  0  0  0  0
  129.0615  131.6301  156.4883 H   0  0  0  0  0  0  0  0  0  0  0  0
  132.0851  131.8478  156.4824 H   0  0  0  0  0  0  0  0  0  0  0  0
  131.0744  133.1907  155.8965 H   0  0  0  0  0  0  0  0  0  0  0  0
  132.1204  129.7187  155.3166 H   0  0  0  0  0  0  0  0  0  0  0  0
  131.8134  128.5504  153.1712 H   0  0  0  0  0  0  0  0  0  0  0  0
  129.4005  131.7752  151.7622 H   0  0  0  0  0  0  0  0  0  0  0  0
  129.6996  132.9371  153.9123 H   0  0  0  0  0  0  0  0  0  0  0  0
  129.5144  134.3302  156.8148 H   0  0  0  0  0  0  0  0  0  0  0  0
  128.0639  133.4627  157.3747 H   0  0  0  0  0  0  0  0  0  0  0  0
  128.4216  134.3285  159.6652 H   0  0  0  0  0  0  0  0  0  0  0  0
  128.2900  135.6673  158.4998 H   0  0  0  0  0  0  0  0  0  0  0  0
  129.2235  136.9108  160.1331 H   0  0  0  0  0  0  0  0  0  0  0  0
  129.9423  135.7358  161.2604 H   0  0  0  0  0  0  0  0  0  0  0  0
  132.3064  135.7962  161.7787 H   0  0  0  0  0  0  0  0  0  0  0  0
  134.3450  137.1651  161.9230 H   0  0  0  0  0  0  0  0  0  0  0  0
  134.8875  140.4230  158.7159 H   0  0  0  0  0  0  0  0  0  0  0  0
  136.9051  142.5717  161.6772 H   0  0  0  0  0  0  0  0  0  0  0  0
  135.2957  142.5977  160.8910 H   0  0  0  0  0  0  0  0  0  0  0  0
  134.4585  141.2312  162.5635 H   0  0  0  0  0  0  0  0  0  0  0  0
  136.0698  141.2069  163.3488 H   0  0  0  0  0  0  0  0  0  0  0  0
  135.7131  138.7926  162.5974 H   0  0  0  0  0  0  0  0  0  0  0  0
  137.9285  140.1512  161.8139 H   0  0  0  0  0  0  0  0  0  0  0  0
  137.4447  138.9274  160.5731 H   0  0  0  0  0  0  0  0  0  0  0  0
  132.6136  139.9955  159.2068 H   0  0  0  0  0  0  0  0  0  0  0  0
  130.5877  138.6074  159.0689 H   0  0  0  0  0  0  0  0  0  0  0  0
  130.5570  133.6799  160.5135 H   0  0  0  0  0  0  0  0  0  0  0  0
  132.0274  134.5322  159.9847 H   0  0  0  0  0  0  0  0  0  0  0  0
  131.8069  132.3257  158.8617 H   0  0  0  0  0  0  0  0  0  0  0  0
  131.7142  133.6619  157.6888 H   0  0  0  0  0  0  0  0  0  0  0  0
  1  2  1  0
  2  3  1  0
  2  4  1  0
  2 35  1  0
  4  5  1  0
  4 13  1  0
  4 36  1  6
  5  6  1  0
  5 37  1  0
  5 38  1  0
  6 12  1  0
  6  7  2  0
  7  8  1  0
  7 39  1  0
  8  9  2  0
  8 40  1  0
  9 10  1  0
  9 11  1  0
 11 12  2  0
 11 41  1  0
 12 42  1  0
 13 34  1  0
 13 14  1  0
 14 15  1  0
 14 43  1  0
 14 44  1  0
 15 16  1  0
 15 45  1  0
 15 46  1  0
 16 17  1  0
 16 18  1  0
 16 33  1  0
 18 19  1  0
 18 47  1  0
 18 48  1  0
 19 32  1  0
 19 20  2  0
 20 21  1  0
 20 49  1  0
 21 22  2  0
 21 50  1  0
 22 23  1  0
 22 31  1  0
 23 29  1  0
 23 24  2  0
 24 25  1  0
 24 51  1  0
 25 26  1  6
 25 30  1  0
 25 27  1  0
 27 28  1  0
 27 52  1  0
 27 53  1  0
 28 29  1  0
 28 54  1  0
 28 55  1  0
 29 30  1  0
 29 56  1  1
 30 57  1  0
 30 58  1  0
 31 32  2  0
 31 59  1  0
 32 60  1  0
 33 34  1  0
 33 61  1  0
 33 62  1  0
 34 63  1  0
 34 64  1  0
M  CHG  1  16   1
M  END
>  <DOCK_score>  (1) 
-58.8256

>  <SMILES>  (1) 
FC(F)C(Cc1ccc(Cl)cc1)N1CC[NH+](Cc2ccc(C3=C[C@H]4CCC3C4)cc2)CC1

$$$$
