CCc1ccc(-c2c[nH]c(N[C@H](c3ccccc3)c3ccccc3C3CC(=O)N3)[nH+]2)cc1
     RDKit          3D

 59 63  0  0  1  0  0  0  0  0999 V2000
  130.5356  128.4270  151.5814 C   0  0  0  0  0  0  0  0  0  0  0  0
  131.6261  129.4382  151.9400 C   0  0  0  0  0  0  0  0  0  0  0  0
  131.2496  130.1535  153.2117 C   0  0  0  0  0  0  0  0  0  0  0  0
  131.6462  129.6411  154.4335 C   0  0  0  0  0  0  0  0  0  0  0  0
  131.3090  130.2947  155.6013 C   0  0  0  0  0  0  0  0  0  0  0  0
  130.5579  131.4676  155.5484 C   0  0  0  0  0  0  0  0  0  0  0  0
  130.1877  132.1717  156.8003 C   0  0  0  0  0  0  0  0  0  0  0  0
  129.4561  131.6565  157.8192 C   0  0  0  0  0  0  0  0  0  0  0  0
  129.3513  132.6404  158.7721 N   0  0  0  0  0  0  0  0  0  0  0  0
  128.8852  132.5718  159.6200 H   0  0  0  0  0  0  0  0  0  0  0  0
  130.0226  133.7292  158.3071 C   0  0  0  0  0  0  0  0  0  0  0  0
  130.1569  134.9373  158.9697 N   0  0  0  0  0  0  0  0  0  0  0  0
  129.1062  135.3923  159.8835 C   0  0  2  0  0  0  0  0  0  0  0  0
  128.9819  134.6646  160.6854 H   0  0  0  0  0  0  0  0  0  0  0  0
  127.8099  135.5337  159.1280 C   0  0  0  0  0  0  0  0  0  0  0  0
  126.6062  135.3312  159.7769 C   0  0  0  0  0  0  0  0  0  0  0  0
  125.4171  135.4648  159.0848 C   0  0  0  0  0  0  0  0  0  0  0  0
  125.4319  135.7921  157.7418 C   0  0  0  0  0  0  0  0  0  0  0  0
  126.6357  135.9900  157.0918 C   0  0  0  0  0  0  0  0  0  0  0  0
  127.8248  135.8602  157.7848 C   0  0  0  0  0  0  0  0  0  0  0  0
  129.4936  136.7252  160.4704 C   0  0  0  0  0  0  0  0  0  0  0  0
  129.7073  137.8102  159.6404 C   0  0  0  0  0  0  0  0  0  0  0  0
  130.0577  139.0337  160.1790 C   0  0  0  0  0  0  0  0  0  0  0  0
  130.2043  139.1705  161.5470 C   0  0  0  0  0  0  0  0  0  0  0  0
  129.9963  138.0845  162.3761 C   0  0  0  0  0  0  0  0  0  0  0  0
  129.6406  136.8617  161.8378 C   0  0  0  0  0  0  0  0  0  0  0  0
  129.4137  135.6777  162.7421 C   0  0  1  0  0  0  0  0  0  0  0  0
  130.6340  134.7509  162.8648 C   0  0  0  0  0  0  0  0  0  0  0  0
  130.6920  135.1688  164.3200 C   0  0  0  0  0  0  0  0  0  0  0  0
  131.4185  134.8912  165.2507 O   0  0  0  0  0  0  0  0  0  0  0  0
  129.6076  135.9781  164.1719 N   0  0  0  0  0  0  0  0  0  0  0  0
  130.5260  133.4433  157.1312 N   0  0  0  0  0  0  0  0  0  0  0  0
  131.0538  134.0454  156.5838 H   0  0  0  0  0  0  0  0  0  0  0  0
  130.1561  131.9765  154.3145 C   0  0  0  0  0  0  0  0  0  0  0  0
  130.5037  131.3175  153.1530 C   0  0  0  0  0  0  0  0  0  0  0  0
  130.4330  127.7021  152.3890 H   0  0  0  0  0  0  0  0  0  0  0  0
  129.5891  128.9483  151.4385 H   0  0  0  0  0  0  0  0  0  0  0  0
  130.8079  127.9098  150.6614 H   0  0  0  0  0  0  0  0  0  0  0  0
  132.5726  128.9174  152.0824 H   0  0  0  0  0  0  0  0  0  0  0  0
  131.7285  130.1636  151.1320 H   0  0  0  0  0  0  0  0  0  0  0  0
  132.2241  128.7296  154.4736 H   0  0  0  0  0  0  0  0  0  0  0  0
  131.6233  129.8961  156.5546 H   0  0  0  0  0  0  0  0  0  0  0  0
  129.0358  130.6629  157.8714 H   0  0  0  0  0  0  0  0  0  0  0  0
  130.9468  135.4826  158.8287 H   0  0  0  0  0  0  0  0  0  0  0  0
  126.5947  135.0718  160.8251 H   0  0  0  0  0  0  0  0  0  0  0  0
  124.4765  135.3100  159.5925 H   0  0  0  0  0  0  0  0  0  0  0  0
  124.5029  135.8932  157.2003 H   0  0  0  0  0  0  0  0  0  0  0  0
  126.6474  136.2454  156.0426 H   0  0  0  0  0  0  0  0  0  0  0  0
  128.7654  136.0143  157.2770 H   0  0  0  0  0  0  0  0  0  0  0  0
  129.5966  137.7023  158.5715 H   0  0  0  0  0  0  0  0  0  0  0  0
  130.2207  139.8823  159.5309 H   0  0  0  0  0  0  0  0  0  0  0  0
  130.4819  140.1257  161.9675 H   0  0  0  0  0  0  0  0  0  0  0  0
  130.1112  138.1912  163.4447 H   0  0  0  0  0  0  0  0  0  0  0  0
  128.4836  135.1515  162.5270 H   0  0  0  0  0  0  0  0  0  0  0  0
  130.3994  133.6962  162.7211 H   0  0  0  0  0  0  0  0  0  0  0  0
  131.4931  135.0781  162.2790 H   0  0  0  0  0  0  0  0  0  0  0  0
  129.1294  136.5527  164.7900 H   0  0  0  0  0  0  0  0  0  0  0  0
  129.5736  132.8847  154.2677 H   0  0  0  0  0  0  0  0  0  0  0  0
  130.1933  131.7111  152.1963 H   0  0  0  0  0  0  0  0  0  0  0  0
  1  2  1  0
  1 36  1  0
  1 37  1  0
  1 38  1  0
  2  3  1  0
  2 39  1  0
  2 40  1  0
  3 35  2  0
  3  4  1  0
  4  5  2  0
  4 41  1  0
  5  6  1  0
  5 42  1  0
  6  7  1  0
  6 34  2  0
  7 32  1  0
  7  8  2  0
  8  9  1  0
  8 43  1  0
  9 10  1  0
  9 11  1  0
 11 12  1  0
 11 32  2  0
 12 13  1  0
 12 44  1  0
 13 14  1  1
 13 15  1  0
 13 21  1  0
 15 20  1  0
 15 16  2  0
 16 17  1  0
 16 45  1  0
 17 18  2  0
 17 46  1  0
 18 19  1  0
 18 47  1  0
 19 20  2  0
 19 48  1  0
 20 49  1  0
 21 26  1  0
 21 22  2  0
 22 23  1  0
 22 50  1  0
 23 24  2  0
 23 51  1  0
 24 25  1  0
 24 52  1  0
 25 26  2  0
 25 53  1  0
 26 27  1  0
 27 31  1  0
 27 28  1  0
 27 54  1  1
 28 29  1  0
 28 55  1  0
 28 56  1  0
 29 30  2  0
 29 31  1  0
 31 57  1  0
 32 33  1  0
 34 35  1  0
 34 58  1  0
 35 59  1  0
M  CHG  1  32   1
M  END
>  <DOCK_score>  (1) 
-63.320969

>  <SMILES>  (1) 
CCc1ccc(-c2c[nH]c(N[C@H](c3ccccc3)c3ccccc3C3CC(=O)N3)[nH+]2)cc1

$$$$
