O[C@@]1(c2cccc(F)c2)C=C([NH2+]C(Cc2ccccc2)Cc2ccccc2)CCC1
     RDKit          3D

 59 62  0  0  1  0  0  0  0  0999 V2000
  133.8447  136.7644  162.5277 O   0  0  0  0  0  0  0  0  0  0  0  0
  132.4625  136.9697  162.2286 C   0  0  1  0  0  0  0  0  0  0  0  0
  132.1488  138.4419  162.3022 C   0  0  0  0  0  0  0  0  0  0  0  0
  133.1450  139.3456  162.6224 C   0  0  0  0  0  0  0  0  0  0  0  0
  132.8588  140.6962  162.6900 C   0  0  0  0  0  0  0  0  0  0  0  0
  131.5759  141.1447  162.4380 C   0  0  0  0  0  0  0  0  0  0  0  0
  130.5788  140.2412  162.1127 C   0  0  0  0  0  0  0  0  0  0  0  0
  129.3257  140.6790  161.8609 F   0  0  0  0  0  0  0  0  0  0  0  0
  130.8654  138.8879  162.0505 C   0  0  0  0  0  0  0  0  0  0  0  0
  132.1732  136.4681  160.8441 C   0  0  0  0  0  0  0  0  0  0  0  0
  131.5789  135.3470  160.5883 C   0  0  0  0  0  0  0  0  0  0  0  0
  131.3831  134.9998  159.2484 N   0  0  0  0  0  0  0  0  0  0  0  0
  131.7597  135.7236  158.6547 H   0  0  0  0  0  0  0  0  0  0  0  0
  131.8526  134.1279  159.0549 H   0  0  0  0  0  0  0  0  0  0  0  0
  129.9453  134.8504  158.9864 C   0  0  0  0  0  0  0  0  0  0  0  0
  129.3168  136.2314  158.7894 C   0  0  0  0  0  0  0  0  0  0  0  0
  127.8418  136.0783  158.5209 C   0  0  0  0  0  0  0  0  0  0  0  0
  127.3856  135.9468  157.2226 C   0  0  0  0  0  0  0  0  0  0  0  0
  126.0331  135.8020  156.9766 C   0  0  0  0  0  0  0  0  0  0  0  0
  125.1359  135.7979  158.0282 C   0  0  0  0  0  0  0  0  0  0  0  0
  125.5915  135.9347  159.3260 C   0  0  0  0  0  0  0  0  0  0  0  0
  126.9446  136.0752  159.5724 C   0  0  0  0  0  0  0  0  0  0  0  0
  129.7415  134.0124  157.7227 C   0  0  0  0  0  0  0  0  0  0  0  0
  130.3608  132.6522  157.9167 C   0  0  0  0  0  0  0  0  0  0  0  0
  130.8607  131.9591  156.8302 C   0  0  0  0  0  0  0  0  0  0  0  0
  131.4326  130.7134  157.0088 C   0  0  0  0  0  0  0  0  0  0  0  0
  131.4965  130.1569  158.2725 C   0  0  0  0  0  0  0  0  0  0  0  0
  130.9919  130.8478  159.3583 C   0  0  0  0  0  0  0  0  0  0  0  0
  130.4238  132.0954  159.1803 C   0  0  0  0  0  0  0  0  0  0  0  0
  131.0874  134.3967  161.6406 C   0  0  0  0  0  0  0  0  0  0  0  0
  131.7460  134.7127  162.9852 C   0  0  0  0  0  0  0  0  0  0  0  0
  131.6056  136.2169  163.2487 C   0  0  0  0  0  0  0  0  0  0  0  0
  134.1077  137.0755  163.4047 H   0  0  0  0  0  0  0  0  0  0  0  0
  134.1477  138.9961  162.8194 H   0  0  0  0  0  0  0  0  0  0  0  0
  133.6380  141.4013  162.9393 H   0  0  0  0  0  0  0  0  0  0  0  0
  131.3526  142.2001  162.4906 H   0  0  0  0  0  0  0  0  0  0  0  0
  130.0873  138.1817  161.8009 H   0  0  0  0  0  0  0  0  0  0  0  0
  132.4798  137.0809  160.0092 H   0  0  0  0  0  0  0  0  0  0  0  0
  129.4716  134.3530  159.8327 H   0  0  0  0  0  0  0  0  0  0  0  0
  129.4621  136.8285  159.6896 H   0  0  0  0  0  0  0  0  0  0  0  0
  129.7904  136.7288  157.9431 H   0  0  0  0  0  0  0  0  0  0  0  0
  128.0863  135.9538  156.4007 H   0  0  0  0  0  0  0  0  0  0  0  0
  125.6771  135.6949  155.9626 H   0  0  0  0  0  0  0  0  0  0  0  0
  124.0788  135.6875  157.8357 H   0  0  0  0  0  0  0  0  0  0  0  0
  124.8906  135.9315  160.1477 H   0  0  0  0  0  0  0  0  0  0  0  0
  127.3005  136.1821  160.5864 H   0  0  0  0  0  0  0  0  0  0  0  0
  128.6747  133.9015  157.5284 H   0  0  0  0  0  0  0  0  0  0  0  0
  130.2153  134.5099  156.8764 H   0  0  0  0  0  0  0  0  0  0  0  0
  130.8073  132.3923  155.8423 H   0  0  0  0  0  0  0  0  0  0  0  0
  131.8272  130.1737  156.1605 H   0  0  0  0  0  0  0  0  0  0  0  0
  131.9409  129.1824  158.4117 H   0  0  0  0  0  0  0  0  0  0  0  0
  131.0418  130.4131  160.3457 H   0  0  0  0  0  0  0  0  0  0  0  0
  130.0296  132.6352  160.0287 H   0  0  0  0  0  0  0  0  0  0  0  0
  130.0060  134.4919  161.7367 H   0  0  0  0  0  0  0  0  0  0  0  0
  131.3360  133.3759  161.3499 H   0  0  0  0  0  0  0  0  0  0  0  0
  131.2481  134.1537  163.7775 H   0  0  0  0  0  0  0  0  0  0  0  0
  132.8012  134.4420  162.9490 H   0  0  0  0  0  0  0  0  0  0  0  0
  131.9518  136.4440  164.2569 H   0  0  0  0  0  0  0  0  0  0  0  0
  130.5623  136.5135  163.1407 H   0  0  0  0  0  0  0  0  0  0  0  0
  1 33  1  0
  2  1  1  1
  2 32  1  0
  2  3  1  0
  2 10  1  0
  3  9  1  0
  3  4  2  0
  4  5  1  0
  4 34  1  0
  5  6  2  0
  5 35  1  0
  6  7  1  0
  6 36  1  0
  7  8  1  0
  7  9  2  0
  9 37  1  0
 10 11  2  0
 10 38  1  0
 11 12  1  0
 11 30  1  0
 12 13  1  0
 12 14  1  0
 12 15  1  0
 15 16  1  0
 15 23  1  0
 15 39  1  0
 16 17  1  0
 16 40  1  0
 16 41  1  0
 17 22  1  0
 17 18  2  0
 18 19  1  0
 18 42  1  0
 19 20  2  0
 19 43  1  0
 20 21  1  0
 20 44  1  0
 21 22  2  0
 21 45  1  0
 22 46  1  0
 23 24  1  0
 23 47  1  0
 23 48  1  0
 24 29  1  0
 24 25  2  0
 25 26  1  0
 25 49  1  0
 26 27  2  0
 26 50  1  0
 27 28  1  0
 27 51  1  0
 28 29  2  0
 28 52  1  0
 29 53  1  0
 30 31  1  0
 30 54  1  0
 30 55  1  0
 31 32  1  0
 31 56  1  0
 31 57  1  0
 32 58  1  0
 32 59  1  0
M  CHG  1  12   1
M  END
>  <DOCK_score>  (1) 
-56.972092

>  <SMILES>  (1) 
O[C@@]1(c2cccc(F)c2)C=C([NH2+]C(Cc2ccccc2)Cc2ccccc2)CCC1

$$$$
