Oc1ccc(Nc2[nH]cc(-c3ccc4c(c3)CC4)[nH+]2)cc1
     RDKit          3D

 37 40  0  0  1  0  0  0  0  0999 V2000
  126.2588  137.2397  162.2300 O   0  0  0  0  0  0  0  0  0  0  0  0
  127.2295  136.6083  161.5170 C   0  0  0  0  0  0  0  0  0  0  0  0
  126.9167  135.9936  160.3136 C   0  0  0  0  0  0  0  0  0  0  0  0
  127.9017  135.3522  159.5888 C   0  0  0  0  0  0  0  0  0  0  0  0
  129.2058  135.3227  160.0651 C   0  0  0  0  0  0  0  0  0  0  0  0
  130.2051  134.6723  159.3313 N   0  0  0  0  0  0  0  0  0  0  0  0
  129.8831  133.5867  158.5338 C   0  0  0  0  0  0  0  0  0  0  0  0
  128.8758  132.7016  158.7683 N   0  0  0  0  0  0  0  0  0  0  0  0
  128.2594  132.7177  159.5171 H   0  0  0  0  0  0  0  0  0  0  0  0
  128.8928  131.7819  157.7485 C   0  0  0  0  0  0  0  0  0  0  0  0
  129.9089  132.1307  156.9206 C   0  0  0  0  0  0  0  0  0  0  0  0
  130.3058  131.4223  155.6793 C   0  0  0  0  0  0  0  0  0  0  0  0
  131.2480  130.3963  155.7270 C   0  0  0  0  0  0  0  0  0  0  0  0
  131.6135  129.7414  154.5718 C   0  0  0  0  0  0  0  0  0  0  0  0
  131.0523  130.0988  153.3505 C   0  0  0  0  0  0  0  0  0  0  0  0
  130.1120  131.1144  153.3050 C   0  0  0  0  0  0  0  0  0  0  0  0
  129.7394  131.7771  154.4570 C   0  0  0  0  0  0  0  0  0  0  0  0
  129.9786  130.9339  151.8141 C   0  0  0  0  0  0  0  0  0  0  0  0
  131.0119  129.8084  151.8645 C   0  0  0  0  0  0  0  0  0  0  0  0
  130.5017  133.2385  157.4317 N   0  0  0  0  0  0  0  0  0  0  0  0
  131.2603  133.7008  157.0425 H   0  0  0  0  0  0  0  0  0  0  0  0
  129.5172  135.9339  161.2727 C   0  0  0  0  0  0  0  0  0  0  0  0
  128.5318  136.5789  161.9938 C   0  0  0  0  0  0  0  0  0  0  0  0
  125.3843  137.2073  161.8184 H   0  0  0  0  0  0  0  0  0  0  0  0
  125.9023  136.0163  159.9433 H   0  0  0  0  0  0  0  0  0  0  0  0
  127.6579  134.8733  158.6520 H   0  0  0  0  0  0  0  0  0  0  0  0
  131.1230  134.9821  159.3814 H   0  0  0  0  0  0  0  0  0  0  0  0
  128.2247  130.9419  157.6285 H   0  0  0  0  0  0  0  0  0  0  0  0
  131.6920  130.1149  156.6703 H   0  0  0  0  0  0  0  0  0  0  0  0
  132.3445  128.9475  154.6140 H   0  0  0  0  0  0  0  0  0  0  0  0
  129.0088  132.5711  154.4107 H   0  0  0  0  0  0  0  0  0  0  0  0
  128.9887  130.5939  151.5102 H   0  0  0  0  0  0  0  0  0  0  0  0
  130.3158  131.8005  151.2453 H   0  0  0  0  0  0  0  0  0  0  0  0
  130.6104  128.8270  151.6122 H   0  0  0  0  0  0  0  0  0  0  0  0
  131.9420  130.0371  151.3440 H   0  0  0  0  0  0  0  0  0  0  0  0
  130.5302  135.9079  161.6460 H   0  0  0  0  0  0  0  0  0  0  0  0
  128.7742  137.0573  162.9312 H   0  0  0  0  0  0  0  0  0  0  0  0
  1  2  1  0
  1 24  1  0
  2 23  2  0
  2  3  1  0
  3  4  2  0
  3 25  1  0
  4  5  1  0
  4 26  1  0
  5  6  1  0
  5 22  2  0
  6 27  1  0
  7  6  1  0
  7 20  2  0
  7  8  1  0
  8  9  1  0
  8 10  1  0
 10 11  2  0
 10 28  1  0
 11 12  1  0
 11 20  1  0
 12 17  1  0
 12 13  2  0
 13 14  1  0
 13 29  1  0
 14 15  2  0
 14 30  1  0
 15 19  1  0
 15 16  1  0
 16 17  2  0
 16 18  1  0
 17 31  1  0
 18 19  1  0
 18 32  1  0
 18 33  1  0
 19 34  1  0
 19 35  1  0
 20 21  1  0
 22 23  1  0
 22 36  1  0
 23 37  1  0
M  CHG  1  20   1
M  END
>  <DOCK_score>  (1) 
-44.022484

>  <SMILES>  (1) 
Oc1ccc(Nc2[nH]cc(-c3ccc4c(c3)CC4)[nH+]2)cc1

$$$$
