Nc1ccc(-c2c[nH]c(N[C@@H](CCBr)c3ccc(F)cc3)[nH+]2)cc1
     RDKit          3D

 43 45  0  0  1  0  0  0  0  0999 V2000
  131.7601  129.6003  151.9941 N   0  0  0  0  0  0  0  0  0  0  0  0
  131.3914  130.2632  153.1672 C   0  0  0  0  0  0  0  0  0  0  0  0
  130.5953  131.4005  153.1004 C   0  0  0  0  0  0  0  0  0  0  0  0
  130.2301  132.0566  154.2571 C   0  0  0  0  0  0  0  0  0  0  0  0
  130.6597  131.5781  155.4939 C   0  0  0  0  0  0  0  0  0  0  0  0
  130.2680  132.2822  156.7396 C   0  0  0  0  0  0  0  0  0  0  0  0
  129.5541  131.7536  157.7639 C   0  0  0  0  0  0  0  0  0  0  0  0
  129.4194  132.7436  158.7085 N   0  0  0  0  0  0  0  0  0  0  0  0
  128.9567  132.6685  159.5576 H   0  0  0  0  0  0  0  0  0  0  0  0
  130.0556  133.8481  158.2320 C   0  0  0  0  0  0  0  0  0  0  0  0
  130.1528  135.0661  158.8827 N   0  0  0  0  0  0  0  0  0  0  0  0
  129.0894  135.4969  159.7937 C   0  0  1  0  0  0  0  0  0  0  0  0
  128.9891  134.7735  160.6028 H   0  0  0  0  0  0  0  0  0  0  0  0
  129.4408  136.8675  160.3757 C   0  0  0  0  0  0  0  0  0  0  0  0
  128.6373  137.0987  161.6571 C   0  0  0  0  0  0  0  0  0  0  0  0
  129.0887  138.8600  162.4050 Br  0  0  0  0  0  0  0  0  0  0  0  0
  127.7885  135.5902  159.0388 C   0  0  0  0  0  0  0  0  0  0  0  0
  126.5923  135.3623  159.6935 C   0  0  0  0  0  0  0  0  0  0  0  0
  125.3987  135.4476  159.0024 C   0  0  0  0  0  0  0  0  0  0  0  0
  125.4010  135.7613  157.6538 C   0  0  0  0  0  0  0  0  0  0  0  0
  124.2347  135.8445  156.9771 F   0  0  0  0  0  0  0  0  0  0  0  0
  126.6000  135.9841  156.9981 C   0  0  0  0  0  0  0  0  0  0  0  0
  127.7920  135.9039  157.6925 C   0  0  0  0  0  0  0  0  0  0  0  0
  130.5566  133.5702  157.0530 N   0  0  0  0  0  0  0  0  0  0  0  0
  131.0558  134.1865  156.4946 H   0  0  0  0  0  0  0  0  0  0  0  0
  131.4628  130.4404  155.5580 C   0  0  0  0  0  0  0  0  0  0  0  0
  131.8204  129.7840  154.3992 C   0  0  0  0  0  0  0  0  0  0  0  0
  131.4607  129.9337  151.1339 H   0  0  0  0  0  0  0  0  0  0  0  0
  132.3154  128.8062  152.0399 H   0  0  0  0  0  0  0  0  0  0  0  0
  130.2629  131.7710  152.1419 H   0  0  0  0  0  0  0  0  0  0  0  0
  129.6113  132.9402  154.2047 H   0  0  0  0  0  0  0  0  0  0  0  0
  129.1656  130.7479  157.8260 H   0  0  0  0  0  0  0  0  0  0  0  0
  130.9251  135.6344  158.7354 H   0  0  0  0  0  0  0  0  0  0  0  0
  130.5061  136.9034  160.6035 H   0  0  0  0  0  0  0  0  0  0  0  0
  129.1982  137.6436  159.6498 H   0  0  0  0  0  0  0  0  0  0  0  0
  127.5719  137.0630  161.4292 H   0  0  0  0  0  0  0  0  0  0  0  0
  128.8798  136.3227  162.3830 H   0  0  0  0  0  0  0  0  0  0  0  0
  126.5908  135.1180  160.7455 H   0  0  0  0  0  0  0  0  0  0  0  0
  124.4643  135.2700  159.5140 H   0  0  0  0  0  0  0  0  0  0  0  0
  126.6032  136.2249  155.9452 H   0  0  0  0  0  0  0  0  0  0  0  0
  128.7271  136.0824  157.1823 H   0  0  0  0  0  0  0  0  0  0  0  0
  131.8004  130.0706  156.5148 H   0  0  0  0  0  0  0  0  0  0  0  0
  132.4389  128.9000  154.4488 H   0  0  0  0  0  0  0  0  0  0  0  0
  1  2  1  0
  1 28  1  0
  1 29  1  0
  2 27  2  0
  2  3  1  0
  3  4  2  0
  3 30  1  0
  4  5  1  0
  4 31  1  0
  5  6  1  0
  5 26  2  0
  6 24  1  0
  6  7  2  0
  7  8  1  0
  7 32  1  0
  8  9  1  0
  8 10  1  0
 10 11  1  0
 10 24  2  0
 11 12  1  0
 11 33  1  0
 12 13  1  1
 12 14  1  0
 12 17  1  0
 14 15  1  0
 14 34  1  0
 14 35  1  0
 15 16  1  0
 15 36  1  0
 15 37  1  0
 17 23  1  0
 17 18  2  0
 18 19  1  0
 18 38  1  0
 19 20  2  0
 19 39  1  0
 20 21  1  0
 20 22  1  0
 22 23  2  0
 22 40  1  0
 23 41  1  0
 24 25  1  0
 26 27  1  0
 26 42  1  0
 27 43  1  0
M  CHG  1  24   1
M  END
>  <DOCK_score>  (1) 
-58.7146

>  <SMILES>  (1) 
Nc1ccc(-c2c[nH]c(N[C@@H](CCBr)c3ccc(F)cc3)[nH+]2)cc1

$$$$
