COc1ccccc1CC1CCC[N@H+]1C1c2cc(O)ccc2-c2ccc(O)cc21
     RDKit          3D

 55 59  0  0  1  0  0  0  0  0999 V2000
  126.7539  137.5440  163.1409 C   0  0  0  0  0  0  0  0  0  0  0  0
  127.6325  136.4488  162.8760 O   0  0  0  0  0  0  0  0  0  0  0  0
  128.9183  136.5731  163.2982 C   0  0  0  0  0  0  0  0  0  0  0  0
  129.3261  137.7261  163.9537 C   0  0  0  0  0  0  0  0  0  0  0  0
  130.6336  137.8502  164.3814 C   0  0  0  0  0  0  0  0  0  0  0  0
  131.5360  136.8270  164.1564 C   0  0  0  0  0  0  0  0  0  0  0  0
  131.1308  135.6748  163.5085 C   0  0  0  0  0  0  0  0  0  0  0  0
  129.8254  135.5479  163.0741 C   0  0  0  0  0  0  0  0  0  0  0  0
  129.3858  134.2941  162.3628 C   0  0  0  0  0  0  0  0  0  0  0  0
  129.5943  134.4625  160.8566 C   0  0  2  0  0  0  0  0  0  0  0  0
  131.0818  134.7480  160.5611 C   0  0  0  0  0  0  0  0  0  0  0  0
  131.1236  136.2941  160.4400 C   0  0  0  0  0  0  0  0  0  0  0  0
  129.7601  136.5923  159.7681 C   0  0  0  0  0  0  0  0  0  0  0  0
  128.8222  135.6205  160.3696 N   0  0  1  0  0  0  0  0  0  0  0  0
  128.3363  136.0531  161.1408 H   0  0  0  0  0  0  0  0  0  0  0  0
  127.8527  135.1783  159.3584 C   0  0  0  0  0  0  0  0  0  0  0  0
  126.6775  134.5054  160.0246 C   0  0  0  0  0  0  0  0  0  0  0  0
  125.7477  134.9582  160.9353 C   0  0  0  0  0  0  0  0  0  0  0  0
  124.7545  134.1044  161.3960 C   0  0  0  0  0  0  0  0  0  0  0  0
  123.8372  134.5507  162.2938 O   0  0  0  0  0  0  0  0  0  0  0  0
  124.6985  132.7946  160.9389 C   0  0  0  0  0  0  0  0  0  0  0  0
  125.6269  132.3377  160.0285 C   0  0  0  0  0  0  0  0  0  0  0  0
  126.6277  133.1930  159.5617 C   0  0  0  0  0  0  0  0  0  0  0  0
  127.7337  132.9666  158.5985 C   0  0  0  0  0  0  0  0  0  0  0  0
  128.1011  131.8314  157.8723 C   0  0  0  0  0  0  0  0  0  0  0  0
  129.1885  131.8755  157.0268 C   0  0  0  0  0  0  0  0  0  0  0  0
  129.9226  133.0465  156.8936 C   0  0  0  0  0  0  0  0  0  0  0  0
  130.9945  133.0854  156.0592 O   0  0  0  0  0  0  0  0  0  0  0  0
  129.5612  134.1774  157.6133 C   0  0  0  0  0  0  0  0  0  0  0  0
  128.4747  134.1375  158.4597 C   0  0  0  0  0  0  0  0  0  0  0  0
  125.7431  137.2832  162.8271 H   0  0  0  0  0  0  0  0  0  0  0  0
  126.7577  137.7629  164.2087 H   0  0  0  0  0  0  0  0  0  0  0  0
  127.0906  138.4217  162.5891 H   0  0  0  0  0  0  0  0  0  0  0  0
  128.6216  138.5255  164.1297 H   0  0  0  0  0  0  0  0  0  0  0  0
  130.9514  138.7475  164.8917 H   0  0  0  0  0  0  0  0  0  0  0  0
  132.5579  136.9260  164.4916 H   0  0  0  0  0  0  0  0  0  0  0  0
  131.8364  134.8752  163.3379 H   0  0  0  0  0  0  0  0  0  0  0  0
  128.3303  134.1125  162.5655 H   0  0  0  0  0  0  0  0  0  0  0  0
  129.9748  133.4490  162.7189 H   0  0  0  0  0  0  0  0  0  0  0  0
  129.2789  133.5600  160.3331 H   0  0  0  0  0  0  0  0  0  0  0  0
  131.7102  134.4088  161.3846 H   0  0  0  0  0  0  0  0  0  0  0  0
  131.3856  134.2797  159.6249 H   0  0  0  0  0  0  0  0  0  0  0  0
  131.1850  136.7612  161.4230 H   0  0  0  0  0  0  0  0  0  0  0  0
  131.9504  136.6139  159.8057 H   0  0  0  0  0  0  0  0  0  0  0  0
  129.8262  136.4391  158.6910 H   0  0  0  0  0  0  0  0  0  0  0  0
  129.4433  137.6117  159.9886 H   0  0  0  0  0  0  0  0  0  0  0  0
  127.5126  136.0282  158.7666 H   0  0  0  0  0  0  0  0  0  0  0  0
  125.7917  135.9770  161.2908 H   0  0  0  0  0  0  0  0  0  0  0  0
  123.9571  135.4748  162.5522 H   0  0  0  0  0  0  0  0  0  0  0  0
  123.9255  132.1314  161.2982 H   0  0  0  0  0  0  0  0  0  0  0  0
  125.5804  131.3181  159.6756 H   0  0  0  0  0  0  0  0  0  0  0  0
  127.5329  130.9186  157.9736 H   0  0  0  0  0  0  0  0  0  0  0  0
  129.4708  130.9964  156.4664 H   0  0  0  0  0  0  0  0  0  0  0  0
  131.4416  133.9424  156.0331 H   0  0  0  0  0  0  0  0  0  0  0  0
  130.1318  135.0887  157.5096 H   0  0  0  0  0  0  0  0  0  0  0  0
  1  2  1  0
  1 31  1  0
  1 32  1  0
  1 33  1  0
  2  3  1  0
  3  8  2  0
  3  4  1  0
  4  5  2  0
  4 34  1  0
  5  6  1  0
  5 35  1  0
  6  7  2  0
  6 36  1  0
  7  8  1  0
  7 37  1  0
  8  9  1  0
  9 10  1  0
  9 38  1  0
  9 39  1  0
 10 14  1  0
 10 11  1  0
 10 40  1  6
 11 12  1  0
 11 41  1  0
 11 42  1  0
 12 13  1  0
 12 43  1  0
 12 44  1  0
 13 14  1  0
 13 45  1  0
 13 46  1  0
 14 15  1  1
 14 16  1  0
 16 30  1  0
 16 17  1  0
 16 47  1  0
 17 23  1  0
 17 18  2  0
 18 19  1  0
 18 48  1  0
 19 20  1  0
 19 21  2  0
 20 49  1  0
 21 22  1  0
 21 50  1  0
 22 23  2  0
 22 51  1  0
 23 24  1  0
 24 30  2  0
 24 25  1  0
 25 26  2  0
 25 52  1  0
 26 27  1  0
 26 53  1  0
 27 28  1  0
 27 29  2  0
 28 54  1  0
 29 30  1  0
 29 55  1  0
M  CHG  1  14   1
M  END
>  <DOCK_score>  (1) 
-41.538483

>  <SMILES>  (1) 
COc1ccccc1CC1CCC[N@H+]1C1c2cc(O)ccc2-c2ccc(O)cc21

$$$$
