CCc1ccc(-c2c[nH]c(NC(c3ccccc3)[C@H](NC#N)c3ccccc3)[nH+]2)cc1
     RDKit          3D

 57 60  0  0  1  0  0  0  0  0999 V2000
  130.1956  128.3537  151.7668 C   0  0  0  0  0  0  0  0  0  0  0  0
  131.1907  129.5052  151.9208 C   0  0  0  0  0  0  0  0  0  0  0  0
  130.9350  130.2195  153.2227 C   0  0  0  0  0  0  0  0  0  0  0  0
  131.5854  129.8103  154.3724 C   0  0  0  0  0  0  0  0  0  0  0  0
  131.3587  130.4637  155.5667 C   0  0  0  0  0  0  0  0  0  0  0  0
  130.4648  131.5319  155.6148 C   0  0  0  0  0  0  0  0  0  0  0  0
  130.2136  132.2352  156.8964 C   0  0  0  0  0  0  0  0  0  0  0  0
  129.7165  131.6780  158.0283 C   0  0  0  0  0  0  0  0  0  0  0  0
  129.6483  132.6776  158.9681 N   0  0  0  0  0  0  0  0  0  0  0  0
  129.3345  132.5870  159.8815 H   0  0  0  0  0  0  0  0  0  0  0  0
  130.0981  133.8194  158.3798 C   0  0  0  0  0  0  0  0  0  0  0  0
  130.1848  135.0598  158.9883 N   0  0  0  0  0  0  0  0  0  0  0  0
  129.7716  135.2214  160.3845 C   0  0  1  0  0  0  0  0  0  0  0  0
  130.9514  134.9755  161.2891 C   0  0  0  0  0  0  0  0  0  0  0  0
  130.7543  134.4679  162.5597 C   0  0  0  0  0  0  0  0  0  0  0  0
  131.8370  134.2379  163.3878 C   0  0  0  0  0  0  0  0  0  0  0  0
  133.1160  134.5253  162.9491 C   0  0  0  0  0  0  0  0  0  0  0  0
  133.3127  135.0379  161.6805 C   0  0  0  0  0  0  0  0  0  0  0  0
  132.2305  135.2630  160.8505 C   0  0  0  0  0  0  0  0  0  0  0  0
  129.2505  136.6435  160.6009 C   0  0  2  0  0  0  0  0  0  0  0  0
  128.6297  136.6707  161.4964 H   0  0  0  0  0  0  0  0  0  0  0  0
  128.4538  137.0532  159.4417 N   0  0  0  0  0  0  0  0  0  0  0  0
  127.7748  136.1257  158.7244 C   0  0  0  0  0  0  0  0  0  0  0  0
  127.2055  135.3481  158.1229 N   0  0  0  0  0  0  0  0  0  0  0  0
  130.4151  137.5852  160.7682 C   0  0  0  0  0  0  0  0  0  0  0  0
  130.9266  137.8348  162.0280 C   0  0  0  0  0  0  0  0  0  0  0  0
  131.9977  138.6952  162.1810 C   0  0  0  0  0  0  0  0  0  0  0  0
  132.5513  139.3131  161.0752 C   0  0  0  0  0  0  0  0  0  0  0  0
  132.0364  139.0676  159.8161 C   0  0  0  0  0  0  0  0  0  0  0  0
  130.9680  138.2039  159.6626 C   0  0  0  0  0  0  0  0  0  0  0  0
  130.4349  133.5511  157.1419 N   0  0  0  0  0  0  0  0  0  0  0  0
  130.7861  134.1911  156.5031 H   0  0  0  0  0  0  0  0  0  0  0  0
  129.8082  131.9372  154.4541 C   0  0  0  0  0  0  0  0  0  0  0  0
  130.0462  131.2795  153.2644 C   0  0  0  0  0  0  0  0  0  0  0  0
  129.1793  128.7479  151.7715 H   0  0  0  0  0  0  0  0  0  0  0  0
  130.3805  127.8372  150.8249 H   0  0  0  0  0  0  0  0  0  0  0  0
  130.3183  127.6550  152.5944 H   0  0  0  0  0  0  0  0  0  0  0  0
  132.2065  129.1117  151.9154 H   0  0  0  0  0  0  0  0  0  0  0  0
  131.0677  130.2045  151.0926 H   0  0  0  0  0  0  0  0  0  0  0  0
  132.2750  128.9799  154.3346 H   0  0  0  0  0  0  0  0  0  0  0  0
  131.8705  130.1456  156.4630 H   0  0  0  0  0  0  0  0  0  0  0  0
  129.4314  130.6453  158.1656 H   0  0  0  0  0  0  0  0  0  0  0  0
  130.5190  135.8221  158.4901 H   0  0  0  0  0  0  0  0  0  0  0  0
  128.9819  134.5061  160.6147 H   0  0  0  0  0  0  0  0  0  0  0  0
  129.7547  134.2475  162.9040 H   0  0  0  0  0  0  0  0  0  0  0  0
  131.6833  133.8378  164.3791 H   0  0  0  0  0  0  0  0  0  0  0  0
  133.9616  134.3499  163.5977 H   0  0  0  0  0  0  0  0  0  0  0  0
  134.3118  135.2628  161.3378 H   0  0  0  0  0  0  0  0  0  0  0  0
  132.3841  135.6638  159.8595 H   0  0  0  0  0  0  0  0  0  0  0  0
  128.4124  137.9885  159.1878 H   0  0  0  0  0  0  0  0  0  0  0  0
  130.4918  137.3548  162.8921 H   0  0  0  0  0  0  0  0  0  0  0  0
  132.4003  138.8867  163.1647 H   0  0  0  0  0  0  0  0  0  0  0  0
  133.3864  139.9875  161.1951 H   0  0  0  0  0  0  0  0  0  0  0  0
  132.4688  139.5504  158.9522 H   0  0  0  0  0  0  0  0  0  0  0  0
  130.5657  138.0121  158.6789 H   0  0  0  0  0  0  0  0  0  0  0  0
  129.1143  132.7641  154.4857 H   0  0  0  0  0  0  0  0  0  0  0  0
  129.5381  131.5927  152.3643 H   0  0  0  0  0  0  0  0  0  0  0  0
  1  2  1  0
  1 35  1  0
  1 36  1  0
  1 37  1  0
  2  3  1  0
  2 38  1  0
  2 39  1  0
  3 34  2  0
  3  4  1  0
  4  5  2  0
  4 40  1  0
  5  6  1  0
  5 41  1  0
  6  7  1  0
  6 33  2  0
  7 31  1  0
  7  8  2  0
  8  9  1  0
  8 42  1  0
  9 10  1  0
  9 11  1  0
 11 12  1  0
 11 31  2  0
 12 13  1  0
 12 43  1  0
 13 14  1  0
 13 20  1  0
 13 44  1  1
 14 19  1  0
 14 15  2  0
 15 16  1  0
 15 45  1  0
 16 17  2  0
 16 46  1  0
 17 18  1  0
 17 47  1  0
 18 19  2  0
 18 48  1  0
 19 49  1  0
 20 21  1  1
 20 22  1  0
 20 25  1  0
 22 23  1  0
 22 50  1  0
 23 24  3  0
 25 30  1  0
 25 26  2  0
 26 27  1  0
 26 51  1  0
 27 28  2  0
 27 52  1  0
 28 29  1  0
 28 53  1  0
 29 30  2  0
 29 54  1  0
 30 55  1  0
 31 32  1  0
 33 34  1  0
 33 56  1  0
 34 57  1  0
M  CHG  1  31   1
M  END
>  <DOCK_score>  (1) 
-62.377789

>  <SMILES>  (1) 
CCc1ccc(-c2c[nH]c(NC(c3ccccc3)[C@H](NC#N)c3ccccc3)[nH+]2)cc1

$$$$
