Nc1c(Nc2[nH]c3cccc(N)c3[nH+]2)c(Cl)c(Cl)c(Cl)c1-c1cccc2ccccc12
     RDKit          3D

 48 52  0  0  1  0  0  0  0  0999 V2000
  131.6273  137.0985  160.4185 N   0  0  0  0  0  0  0  0  0  0  0  0
  130.3644  136.6464  160.8107 C   0  0  0  0  0  0  0  0  0  0  0  0
  129.5814  135.9058  159.9283 C   0  0  0  0  0  0  0  0  0  0  0  0
  130.0599  135.6113  158.6435 N   0  0  0  0  0  0  0  0  0  0  0  0
  130.2130  134.2972  158.2482 C   0  0  0  0  0  0  0  0  0  0  0  0
  129.9368  133.2063  159.0236 N   0  0  0  0  0  0  0  0  0  0  0  0
  129.6033  133.2174  159.9344 H   0  0  0  0  0  0  0  0  0  0  0  0
  130.2187  132.0819  158.2657 C   0  0  0  0  0  0  0  0  0  0  0  0
  130.1373  130.7163  158.5042 C   0  0  0  0  0  0  0  0  0  0  0  0
  130.5068  129.8218  157.5216 C   0  0  0  0  0  0  0  0  0  0  0  0
  130.9610  130.2750  156.2922 C   0  0  0  0  0  0  0  0  0  0  0  0
  131.0490  131.6311  156.0349 C   0  0  0  0  0  0  0  0  0  0  0  0
  131.5075  132.0825  154.7938 N   0  0  0  0  0  0  0  0  0  0  0  0
  130.6762  132.5512  157.0259 C   0  0  0  0  0  0  0  0  0  0  0  0
  130.6500  133.9097  157.0764 N   0  0  0  0  0  0  0  0  0  0  0  0
  130.9145  134.5013  156.3547 H   0  0  0  0  0  0  0  0  0  0  0  0
  128.3257  135.4635  160.3196 C   0  0  0  0  0  0  0  0  0  0  0  0
  127.3494  134.5457  159.2157 Cl  0  0  0  0  0  0  0  0  0  0  0  0
  127.8478  135.7514  161.5884 C   0  0  0  0  0  0  0  0  0  0  0  0
  126.2755  135.1923  162.0670 Cl  0  0  0  0  0  0  0  0  0  0  0  0
  128.6173  136.4805  162.4739 C   0  0  0  0  0  0  0  0  0  0  0  0
  128.0112  136.8358  164.0614 Cl  0  0  0  0  0  0  0  0  0  0  0  0
  129.8829  136.9315  162.0930 C   0  0  0  0  0  0  0  0  0  0  0  0
  130.7092  137.7134  163.0399 C   0  0  0  0  0  0  0  0  0  0  0  0
  131.5927  137.0728  163.8916 C   0  0  0  0  0  0  0  0  0  0  0  0
  132.3676  137.7999  164.7876 C   0  0  0  0  0  0  0  0  0  0  0  0
  132.2853  139.1583  164.8494 C   0  0  0  0  0  0  0  0  0  0  0  0
  131.4062  139.8502  163.9987 C   0  0  0  0  0  0  0  0  0  0  0  0
  131.3028  141.2514  164.0428 C   0  0  0  0  0  0  0  0  0  0  0  0
  130.4406  141.8899  163.2051 C   0  0  0  0  0  0  0  0  0  0  0  0
  129.6570  141.1747  162.3020 C   0  0  0  0  0  0  0  0  0  0  0  0
  129.7317  139.8165  162.2322 C   0  0  0  0  0  0  0  0  0  0  0  0
  130.6089  139.1249  163.0801 C   0  0  0  0  0  0  0  0  0  0  0  0
  132.1721  137.6113  161.0359 H   0  0  0  0  0  0  0  0  0  0  0  0
  131.9590  136.8995  159.5289 H   0  0  0  0  0  0  0  0  0  0  0  0
  130.2833  136.3307  158.0324 H   0  0  0  0  0  0  0  0  0  0  0  0
  129.7843  130.3547  159.4587 H   0  0  0  0  0  0  0  0  0  0  0  0
  130.4417  128.7604  157.7109 H   0  0  0  0  0  0  0  0  0  0  0  0
  131.2475  129.5646  155.5307 H   0  0  0  0  0  0  0  0  0  0  0  0
  131.5685  133.0342  154.6162 H   0  0  0  0  0  0  0  0  0  0  0  0
  131.7646  131.4441  154.1104 H   0  0  0  0  0  0  0  0  0  0  0  0
  131.6773  135.9965  163.8630 H   0  0  0  0  0  0  0  0  0  0  0  0
  133.0470  137.2791  165.4460 H   0  0  0  0  0  0  0  0  0  0  0  0
  132.8967  139.7043  165.5528 H   0  0  0  0  0  0  0  0  0  0  0  0
  131.9042  141.8185  164.7379 H   0  0  0  0  0  0  0  0  0  0  0  0
  130.3632  142.9665  163.2407 H   0  0  0  0  0  0  0  0  0  0  0  0
  128.9809  141.7048  161.6476 H   0  0  0  0  0  0  0  0  0  0  0  0
  129.1187  139.2748  161.5273 H   0  0  0  0  0  0  0  0  0  0  0  0
  1  2  1  0
  1 34  1  0
  1 35  1  0
  2 23  2  0
  2  3  1  0
  3  4  1  0
  3 17  2  0
  4 36  1  0
  5  4  1  0
  5 15  2  0
  5  6  1  0
  6  7  1  0
  6  8  1  0
  8 14  2  0
  8  9  1  0
  9 10  2  0
  9 37  1  0
 10 11  1  0
 10 38  1  0
 11 12  2  0
 11 39  1  0
 12 13  1  0
 12 14  1  0
 13 40  1  0
 13 41  1  0
 14 15  1  0
 15 16  1  0
 17 18  1  0
 17 19  1  0
 19 20  1  0
 19 21  2  0
 21 22  1  0
 21 23  1  0
 23 24  1  0
 24 33  1  0
 24 25  2  0
 25 26  1  0
 25 42  1  0
 26 27  2  0
 26 43  1  0
 27 28  1  0
 27 44  1  0
 28 33  2  0
 28 29  1  0
 29 30  2  0
 29 45  1  0
 30 31  1  0
 30 46  1  0
 31 32  2  0
 31 47  1  0
 32 33  1  0
 32 48  1  0
M  CHG  1  15   1
M  END
>  <DOCK_score>  (1) 
-55.9072

>  <SMILES>  (1) 
Nc1c(Nc2[nH]c3cccc(N)c3[nH+]2)c(Cl)c(Cl)c(Cl)c1-c1cccc2ccccc12

$$$$
