Cc1c[nH]c(N[C@@H](c2ccccc2C2(O)C=CC(=O)C=C2)c2cccc3ccccc23)[nH+]1
     RDKit          3D

 56 60  0  0  1  0  0  0  0  0999 V2000
  130.2486  131.9599  154.7027 C   0  0  0  0  0  0  0  0  0  0  0  0
  129.9700  132.5604  156.0565 C   0  0  0  0  0  0  0  0  0  0  0  0
  129.5805  131.8858  157.1514 C   0  0  0  0  0  0  0  0  0  0  0  0
  129.4437  132.8086  158.1638 N   0  0  0  0  0  0  0  0  0  0  0  0
  129.1770  132.6264  159.0784 H   0  0  0  0  0  0  0  0  0  0  0  0
  129.7511  134.0248  157.6379 C   0  0  0  0  0  0  0  0  0  0  0  0
  129.7379  135.2295  158.3210 N   0  0  0  0  0  0  0  0  0  0  0  0
  129.3688  135.2638  159.7383 C   0  0  1  0  0  0  0  0  0  0  0  0
  129.8043  134.4046  160.2482 H   0  0  0  0  0  0  0  0  0  0  0  0
  129.8874  136.5340  160.3617 C   0  0  0  0  0  0  0  0  0  0  0  0
  129.1022  137.6720  160.3679 C   0  0  0  0  0  0  0  0  0  0  0  0
  129.5758  138.8353  160.9444 C   0  0  0  0  0  0  0  0  0  0  0  0
  130.8392  138.8642  161.5054 C   0  0  0  0  0  0  0  0  0  0  0  0
  131.6263  137.7282  161.4942 C   0  0  0  0  0  0  0  0  0  0  0  0
  131.1503  136.5629  160.9226 C   0  0  0  0  0  0  0  0  0  0  0  0
  132.0088  135.3243  160.9104 C   0  0  0  0  0  0  0  0  0  0  0  0
  131.7075  134.5685  159.7357 O   0  0  0  0  0  0  0  0  0  0  0  0
  131.6787  134.4976  162.1129 C   0  0  0  0  0  0  0  0  0  0  0  0
  132.4579  134.4288  163.1816 C   0  0  0  0  0  0  0  0  0  0  0  0
  133.7228  135.1870  163.2038 C   0  0  0  0  0  0  0  0  0  0  0  0
  134.3122  135.3966  164.2475 O   0  0  0  0  0  0  0  0  0  0  0  0
  134.2486  135.6832  161.9182 C   0  0  0  0  0  0  0  0  0  0  0  0
  133.4466  135.7353  160.8630 C   0  0  0  0  0  0  0  0  0  0  0  0
  127.8680  135.2172  159.8678 C   0  0  0  0  0  0  0  0  0  0  0  0
  127.0868  135.1538  158.7549 C   0  0  0  0  0  0  0  0  0  0  0  0
  125.6979  135.1094  158.8548 C   0  0  0  0  0  0  0  0  0  0  0  0
  125.0816  135.1286  160.0685 C   0  0  0  0  0  0  0  0  0  0  0  0
  125.8548  135.1936  161.2399 C   0  0  0  0  0  0  0  0  0  0  0  0
  125.2547  135.2139  162.5105 C   0  0  0  0  0  0  0  0  0  0  0  0
  126.0358  135.2764  163.6232 C   0  0  0  0  0  0  0  0  0  0  0  0
  127.4252  135.3211  163.5232 C   0  0  0  0  0  0  0  0  0  0  0  0
  128.0415  135.3027  162.3099 C   0  0  0  0  0  0  0  0  0  0  0  0
  127.2679  135.2382  161.1380 C   0  0  0  0  0  0  0  0  0  0  0  0
  130.0678  133.8623  156.3750 N   0  0  0  0  0  0  0  0  0  0  0  0
  130.3313  134.5706  155.7669 H   0  0  0  0  0  0  0  0  0  0  0  0
  131.2993  131.6767  154.6400 H   0  0  0  0  0  0  0  0  0  0  0  0
  129.6253  131.0769  154.5617 H   0  0  0  0  0  0  0  0  0  0  0  0
  130.0227  132.6917  153.9271 H   0  0  0  0  0  0  0  0  0  0  0  0
  129.4108  130.8217  157.2243 H   0  0  0  0  0  0  0  0  0  0  0  0
  129.9731  136.0506  157.8609 H   0  0  0  0  0  0  0  0  0  0  0  0
  128.1171  137.6506  159.9257 H   0  0  0  0  0  0  0  0  0  0  0  0
  128.9606  139.7228  160.9536 H   0  0  0  0  0  0  0  0  0  0  0  0
  131.2107  139.7743  161.9526 H   0  0  0  0  0  0  0  0  0  0  0  0
  132.6132  137.7509  161.9324 H   0  0  0  0  0  0  0  0  0  0  0  0
  131.8696  135.0442  158.9094 H   0  0  0  0  0  0  0  0  0  0  0  0
  130.7607  133.9286  162.1106 H   0  0  0  0  0  0  0  0  0  0  0  0
  132.1700  133.8246  164.0290 H   0  0  0  0  0  0  0  0  0  0  0  0
  135.2776  136.0013  161.8368 H   0  0  0  0  0  0  0  0  0  0  0  0
  133.8500  136.0914  159.9266 H   0  0  0  0  0  0  0  0  0  0  0  0
  127.5506  135.1372  157.7797 H   0  0  0  0  0  0  0  0  0  0  0  0
  125.1012  135.0594  157.9561 H   0  0  0  0  0  0  0  0  0  0  0  0
  124.0038  135.0985  160.1306 H   0  0  0  0  0  0  0  0  0  0  0  0
  124.1791  135.1805  162.6035 H   0  0  0  0  0  0  0  0  0  0  0  0
  125.5720  135.2918  164.5985 H   0  0  0  0  0  0  0  0  0  0  0  0
  128.0220  135.3706  164.4219 H   0  0  0  0  0  0  0  0  0  0  0  0
  129.1190  135.3372  162.2478 H   0  0  0  0  0  0  0  0  0  0  0  0
  1  2  1  0
  1 36  1  0
  1 37  1  0
  1 38  1  0
  2 34  1  0
  2  3  2  0
  3  4  1  0
  3 39  1  0
  4  5  1  0
  4  6  1  0
  6  7  1  0
  6 34  2  0
  7  8  1  0
  7 40  1  0
  8  9  1  1
  8 10  1  0
  8 24  1  0
 10 15  1  0
 10 11  2  0
 11 12  1  0
 11 41  1  0
 12 13  2  0
 12 42  1  0
 13 14  1  0
 13 43  1  0
 14 15  2  0
 14 44  1  0
 15 16  1  0
 16 23  1  0
 16 17  1  0
 16 18  1  0
 17 45  1  0
 18 19  2  0
 18 46  1  0
 19 20  1  0
 19 47  1  0
 20 21  2  0
 20 22  1  0
 22 23  2  0
 22 48  1  0
 23 49  1  0
 24 33  1  0
 24 25  2  0
 25 26  1  0
 25 50  1  0
 26 27  2  0
 26 51  1  0
 27 28  1  0
 27 52  1  0
 28 33  2  0
 28 29  1  0
 29 30  2  0
 29 53  1  0
 30 31  1  0
 30 54  1  0
 31 32  2  0
 31 55  1  0
 32 33  1  0
 32 56  1  0
 34 35  1  0
M  CHG  1  34   1
M  END
>  <DOCK_score>  (1) 
-56.461788

>  <SMILES>  (1) 
Cc1c[nH]c(N[C@@H](c2ccccc2C2(O)C=CC(=O)C=C2)c2cccc3ccccc23)[nH+]1

$$$$
