Cc1nc(N)ccc1Nc1[nH]cc(-c2ccc(N)cc2)[nH+]1
     RDKit          3D

 38 40  0  0  1  0  0  0  0  0999 V2000
  131.0198  137.3910  160.6181 C   0  0  0  0  0  0  0  0  0  0  0  0
  129.6136  136.8503  160.6456 C   0  0  0  0  0  0  0  0  0  0  0  0
  128.7662  137.2823  161.5607 N   0  0  0  0  0  0  0  0  0  0  0  0
  127.5221  136.8355  161.6223 C   0  0  0  0  0  0  0  0  0  0  0  0
  126.6644  137.3208  162.6066 N   0  0  0  0  0  0  0  0  0  0  0  0
  127.0614  135.8864  160.7158 C   0  0  0  0  0  0  0  0  0  0  0  0
  127.9211  135.4106  159.7429 C   0  0  0  0  0  0  0  0  0  0  0  0
  129.2244  135.9048  159.7092 C   0  0  0  0  0  0  0  0  0  0  0  0
  130.1299  135.4510  158.7413 N   0  0  0  0  0  0  0  0  0  0  0  0
  130.0210  134.1644  158.2403 C   0  0  0  0  0  0  0  0  0  0  0  0
  129.5298  133.0896  158.9156 N   0  0  0  0  0  0  0  0  0  0  0  0
  129.1961  133.0866  159.8263 H   0  0  0  0  0  0  0  0  0  0  0  0
  129.5945  132.0092  158.0684 C   0  0  0  0  0  0  0  0  0  0  0  0
  130.1227  132.4551  156.9017 C   0  0  0  0  0  0  0  0  0  0  0  0
  130.3806  131.6371  155.6912 C   0  0  0  0  0  0  0  0  0  0  0  0
  129.7521  131.9536  154.4879 C   0  0  0  0  0  0  0  0  0  0  0  0
  129.9967  131.1944  153.3630 C   0  0  0  0  0  0  0  0  0  0  0  0
  130.8611  130.1089  153.4303 C   0  0  0  0  0  0  0  0  0  0  0  0
  131.1040  129.3379  152.2911 N   0  0  0  0  0  0  0  0  0  0  0  0
  131.4854  129.7883  154.6306 C   0  0  0  0  0  0  0  0  0  0  0  0
  131.2476  130.5474  155.7568 C   0  0  0  0  0  0  0  0  0  0  0  0
  130.3689  133.7820  157.0355 N   0  0  0  0  0  0  0  0  0  0  0  0
  130.7446  134.3561  156.3498 H   0  0  0  0  0  0  0  0  0  0  0  0
  131.6601  136.7702  161.2450 H   0  0  0  0  0  0  0  0  0  0  0  0
  131.3933  137.3803  159.5943 H   0  0  0  0  0  0  0  0  0  0  0  0
  131.0234  138.4136  160.9955 H   0  0  0  0  0  0  0  0  0  0  0  0
  126.9800  137.9825  163.2417 H   0  0  0  0  0  0  0  0  0  0  0  0
  125.7513  136.9972  162.6568 H   0  0  0  0  0  0  0  0  0  0  0  0
  126.0452  135.5253  160.7714 H   0  0  0  0  0  0  0  0  0  0  0  0
  127.5905  134.6739  159.0258 H   0  0  0  0  0  0  0  0  0  0  0  0
  130.8332  136.0379  158.4220 H   0  0  0  0  0  0  0  0  0  0  0  0
  129.2837  130.9987  158.2895 H   0  0  0  0  0  0  0  0  0  0  0  0
  129.0768  132.7948  154.4357 H   0  0  0  0  0  0  0  0  0  0  0  0
  129.5128  131.4415  152.4296 H   0  0  0  0  0  0  0  0  0  0  0  0
  131.7076  128.5800  152.3374 H   0  0  0  0  0  0  0  0  0  0  0  0
  130.6689  129.5607  151.4533 H   0  0  0  0  0  0  0  0  0  0  0  0
  132.1570  128.9439  154.6809 H   0  0  0  0  0  0  0  0  0  0  0  0
  131.7328  130.2983  156.6889 H   0  0  0  0  0  0  0  0  0  0  0  0
  1  2  1  0
  1 24  1  0
  1 25  1  0
  1 26  1  0
  2  8  2  0
  2  3  1  0
  3  4  2  0
  4  5  1  0
  4  6  1  0
  5 27  1  0
  5 28  1  0
  6  7  2  0
  6 29  1  0
  7  8  1  0
  7 30  1  0
  8  9  1  0
  9 31  1  0
 10  9  1  0
 10 22  2  0
 10 11  1  0
 11 12  1  0
 11 13  1  0
 13 14  2  0
 13 32  1  0
 14 15  1  0
 14 22  1  0
 15 21  1  0
 15 16  2  0
 16 17  1  0
 16 33  1  0
 17 18  2  0
 17 34  1  0
 18 19  1  0
 18 20  1  0
 19 35  1  0
 19 36  1  0
 20 21  2  0
 20 37  1  0
 21 38  1  0
 22 23  1  0
M  CHG  1  22   1
M  END
>  <DOCK_score>  (1) 
-49.437393

>  <SMILES>  (1) 
Cc1nc(N)ccc1Nc1[nH]cc(-c2ccc(N)cc2)[nH+]1

$$$$
