[NH3+]C(C(=O)Nc1cc(O)cc(O)c1)c1cccc(O[C@H]2CCC=CC(=O)C2)c1
     RDKit          3D

 51 53  0  0  1  0  0  0  0  0999 V2000
  130.6063  134.3543  157.5411 N   0  0  0  0  0  0  0  0  0  0  0  0
  130.7395  133.3611  157.6591 H   0  0  0  0  0  0  0  0  0  0  0  0
  129.9899  134.5206  156.7599 H   0  0  0  0  0  0  0  0  0  0  0  0
  131.4973  134.7947  157.3662 H   0  0  0  0  0  0  0  0  0  0  0  0
  130.0132  134.9171  158.7616 C   0  0  1  0  0  0  0  0  0  0  0  0
  128.6826  134.2595  159.0229 C   0  0  0  0  0  0  0  0  0  0  0  0
  128.2693  133.4060  158.2668 O   0  0  0  0  0  0  0  0  0  0  0  0
  127.9523  134.6197  160.0966 N   0  0  0  0  0  0  0  0  0  0  0  0
  126.7170  134.0091  160.3392 C   0  0  0  0  0  0  0  0  0  0  0  0
  126.4962  132.7013  159.9291 C   0  0  0  0  0  0  0  0  0  0  0  0
  125.2738  132.0951  160.1750 C   0  0  0  0  0  0  0  0  0  0  0  0
  125.0594  130.8132  159.7780 O   0  0  0  0  0  0  0  0  0  0  0  0
  124.2678  132.7985  160.8204 C   0  0  0  0  0  0  0  0  0  0  0  0
  124.4857  134.1069  161.2253 C   0  0  0  0  0  0  0  0  0  0  0  0
  123.4997  134.7954  161.8580 O   0  0  0  0  0  0  0  0  0  0  0  0
  125.7096  134.7126  160.9852 C   0  0  0  0  0  0  0  0  0  0  0  0
  130.9341  134.6688  159.9283 C   0  0  0  0  0  0  0  0  0  0  0  0
  130.8054  133.5126  160.6761 C   0  0  0  0  0  0  0  0  0  0  0  0
  131.6489  133.2816  161.7468 C   0  0  0  0  0  0  0  0  0  0  0  0
  132.6226  134.2061  162.0726 C   0  0  0  0  0  0  0  0  0  0  0  0
  132.7534  135.3669  161.3244 C   0  0  0  0  0  0  0  0  0  0  0  0
  133.7104  136.2776  161.6429 O   0  0  0  0  0  0  0  0  0  0  0  0
  133.2670  137.5931  161.9820 C   0  0  1  0  0  0  0  0  0  0  0  0
  132.1791  137.6217  161.9181 H   0  0  0  0  0  0  0  0  0  0  0  0
  133.6800  137.8900  163.4185 C   0  0  0  0  0  0  0  0  0  0  0  0
  133.0109  139.1555  163.9373 C   0  0  0  0  0  0  0  0  0  0  0  0
  133.8595  140.3659  163.5810 C   0  0  0  0  0  0  0  0  0  0  0  0
  133.9584  140.7413  162.3104 C   0  0  0  0  0  0  0  0  0  0  0  0
  133.3047  139.9609  161.2620 C   0  0  0  0  0  0  0  0  0  0  0  0
  132.3685  140.4128  160.6363 O   0  0  0  0  0  0  0  0  0  0  0  0
  133.8366  138.5694  160.9804 C   0  0  0  0  0  0  0  0  0  0  0  0
  131.9019  135.5990  160.2538 C   0  0  0  0  0  0  0  0  0  0  0  0
  129.8694  135.9901  158.6342 H   0  0  0  0  0  0  0  0  0  0  0  0
  128.2829  135.3023  160.7013 H   0  0  0  0  0  0  0  0  0  0  0  0
  127.2779  132.1550  159.4223 H   0  0  0  0  0  0  0  0  0  0  0  0
  124.1785  130.4771  159.9930 H   0  0  0  0  0  0  0  0  0  0  0  0
  123.3144  132.3272  161.0080 H   0  0  0  0  0  0  0  0  0  0  0  0
  123.7445  135.6987  162.1016 H   0  0  0  0  0  0  0  0  0  0  0  0
  125.8792  135.7314  161.3009 H   0  0  0  0  0  0  0  0  0  0  0  0
  130.0450  132.7888  160.4230 H   0  0  0  0  0  0  0  0  0  0  0  0
  131.5464  132.3779  162.3292 H   0  0  0  0  0  0  0  0  0  0  0  0
  133.2811  134.0254  162.9094 H   0  0  0  0  0  0  0  0  0  0  0  0
  133.3951  137.0503  164.0524 H   0  0  0  0  0  0  0  0  0  0  0  0
  134.7620  138.0158  163.4599 H   0  0  0  0  0  0  0  0  0  0  0  0
  132.0254  139.2571  163.4829 H   0  0  0  0  0  0  0  0  0  0  0  0
  132.9057  139.0924  165.0204 H   0  0  0  0  0  0  0  0  0  0  0  0
  134.3769  140.9156  164.3536 H   0  0  0  0  0  0  0  0  0  0  0  0
  134.5226  141.6254  162.0524 H   0  0  0  0  0  0  0  0  0  0  0  0
  134.9240  138.5747  161.0576 H   0  0  0  0  0  0  0  0  0  0  0  0
  133.5462  138.2671  159.9743 H   0  0  0  0  0  0  0  0  0  0  0  0
  131.9986  136.5041  159.6727 H   0  0  0  0  0  0  0  0  0  0  0  0
  1  2  1  0
  1  3  1  0
  1  4  1  0
  1  5  1  0
  5  6  1  0
  5 17  1  0
  5 33  1  6
  6  7  2  0
  6  8  1  0
  8  9  1  0
  8 34  1  0
  9 16  1  0
  9 10  2  0
 10 11  1  0
 10 35  1  0
 11 12  1  0
 11 13  2  0
 12 36  1  0
 13 14  1  0
 13 37  1  0
 14 15  1  0
 14 16  2  0
 15 38  1  0
 16 39  1  0
 17 32  1  0
 17 18  2  0
 18 19  1  0
 18 40  1  0
 19 20  2  0
 19 41  1  0
 20 21  1  0
 20 42  1  0
 21 22  1  0
 21 32  2  0
 22 23  1  0
 23 24  1  1
 23 31  1  0
 23 25  1  0
 25 26  1  0
 25 43  1  0
 25 44  1  0
 26 27  1  0
 26 45  1  0
 26 46  1  0
 27 28  2  0
 27 47  1  0
 28 29  1  0
 28 48  1  0
 29 30  2  0
 29 31  1  0
 31 49  1  0
 31 50  1  0
 32 51  1  0
M  CHG  1   1   1
M  END
>  <DOCK_score>  (1) 
-43.93182

>  <SMILES>  (1) 
[NH3+]C(C(=O)Nc1cc(O)cc(O)c1)c1cccc(O[C@H]2CCC=CC(=O)C2)c1

$$$$
