C=Cc1ccc(-c2c[nH]c(N[C@H](C)c3cnn(Cc4ccccc4)c3)[nH+]2)cc1
     RDKit          3D

 52 55  0  0  1  0  0  0  0  0999 V2000
  130.2432  129.7708  150.5066 C   0  0  0  0  0  0  0  0  0  0  0  0
  131.2101  129.8105  151.4140 C   0  0  0  0  0  0  0  0  0  0  0  0
  130.9719  130.4597  152.7191 C   0  0  0  0  0  0  0  0  0  0  0  0
  131.0872  129.7204  153.8985 C   0  0  0  0  0  0  0  0  0  0  0  0
  130.8698  130.3273  155.1150 C   0  0  0  0  0  0  0  0  0  0  0  0
  130.5240  131.6779  155.1692 C   0  0  0  0  0  0  0  0  0  0  0  0
  130.2850  132.3294  156.4790 C   0  0  0  0  0  0  0  0  0  0  0  0
  129.8147  131.7236  157.5983 C   0  0  0  0  0  0  0  0  0  0  0  0
  129.7471  132.6873  158.5745 N   0  0  0  0  0  0  0  0  0  0  0  0
  129.4476  132.5594  159.4882 H   0  0  0  0  0  0  0  0  0  0  0  0
  130.1783  133.8548  158.0236 C   0  0  0  0  0  0  0  0  0  0  0  0
  130.2640  135.0717  158.6779 N   0  0  0  0  0  0  0  0  0  0  0  0
  129.8712  135.1759  160.0853 C   0  0  2  0  0  0  0  0  0  0  0  0
  130.2142  134.2929  160.6246 H   0  0  0  0  0  0  0  0  0  0  0  0
  128.3475  135.2737  160.1838 C   0  0  0  0  0  0  0  0  0  0  0  0
  130.4938  136.4075  160.6908 C   0  0  0  0  0  0  0  0  0  0  0  0
  130.8660  136.5683  162.0293 C   0  0  0  0  0  0  0  0  0  0  0  0
  131.3727  137.7662  162.1717 N   0  0  0  0  0  0  0  0  0  0  0  0
  131.3295  138.4101  160.9284 N   0  0  0  0  0  0  0  0  0  0  0  0
  131.7923  139.7712  160.6461 C   0  0  0  0  0  0  0  0  0  0  0  0
  133.2442  139.7349  160.2440 C   0  0  0  0  0  0  0  0  0  0  0  0
  134.2306  139.8525  161.2052 C   0  0  0  0  0  0  0  0  0  0  0  0
  135.5625  139.8144  160.8369 C   0  0  0  0  0  0  0  0  0  0  0  0
  135.9077  139.6691  159.5063 C   0  0  0  0  0  0  0  0  0  0  0  0
  134.9211  139.5567  158.5445 C   0  0  0  0  0  0  0  0  0  0  0  0
  133.5893  139.5896  158.9134 C   0  0  0  0  0  0  0  0  0  0  0  0
  130.7860  137.5555  160.0366 C   0  0  0  0  0  0  0  0  0  0  0  0
  130.5036  133.6360  156.7730 N   0  0  0  0  0  0  0  0  0  0  0  0
  130.8440  134.3022  156.1555 H   0  0  0  0  0  0  0  0  0  0  0  0
  130.4034  132.4158  153.9912 C   0  0  0  0  0  0  0  0  0  0  0  0
  130.6256  131.8116  152.7743 C   0  0  0  0  0  0  0  0  0  0  0  0
  129.2804  130.2093  150.7240 H   0  0  0  0  0  0  0  0  0  0  0  0
  130.4188  129.3000  149.5507 H   0  0  0  0  0  0  0  0  0  0  0  0
  132.1729  129.3721  151.1967 H   0  0  0  0  0  0  0  0  0  0  0  0
  131.3506  128.6738  153.8565 H   0  0  0  0  0  0  0  0  0  0  0  0
  130.9631  129.7569  156.0272 H   0  0  0  0  0  0  0  0  0  0  0  0
  129.5448  130.6830  157.7018 H   0  0  0  0  0  0  0  0  0  0  0  0
  130.5842  135.8554  158.2044 H   0  0  0  0  0  0  0  0  0  0  0  0
  127.8972  134.3829  159.7458 H   0  0  0  0  0  0  0  0  0  0  0  0
  128.0554  135.3511  161.2311 H   0  0  0  0  0  0  0  0  0  0  0  0
  128.0045  136.1566  159.6445 H   0  0  0  0  0  0  0  0  0  0  0  0
  130.7570  135.8300  162.8100 H   0  0  0  0  0  0  0  0  0  0  0  0
  131.2009  140.1949  159.8346 H   0  0  0  0  0  0  0  0  0  0  0  0
  131.6776  140.3862  161.5387 H   0  0  0  0  0  0  0  0  0  0  0  0
  133.9609  139.9705  162.2442 H   0  0  0  0  0  0  0  0  0  0  0  0
  136.3333  139.9026  161.5882 H   0  0  0  0  0  0  0  0  0  0  0  0
  136.9482  139.6438  159.2180 H   0  0  0  0  0  0  0  0  0  0  0  0
  135.1909  139.4436  157.5049 H   0  0  0  0  0  0  0  0  0  0  0  0
  132.8187  139.5022  158.1620 H   0  0  0  0  0  0  0  0  0  0  0  0
  130.6153  137.7523  158.9884 H   0  0  0  0  0  0  0  0  0  0  0  0
  130.1353  133.4612  154.0339 H   0  0  0  0  0  0  0  0  0  0  0  0
  130.5319  132.3828  151.8624 H   0  0  0  0  0  0  0  0  0  0  0  0
  1  2  2  0
  1 32  1  0
  1 33  1  0
  2  3  1  0
  2 34  1  0
  3 31  2  0
  3  4  1  0
  4  5  2  0
  4 35  1  0
  5  6  1  0
  5 36  1  0
  6  7  1  0
  6 30  2  0
  7 28  1  0
  7  8  2  0
  8  9  1  0
  8 37  1  0
  9 10  1  0
  9 11  1  0
 11 12  1  0
 11 28  2  0
 12 13  1  0
 12 38  1  0
 13 14  1  1
 13 15  1  0
 13 16  1  0
 15 39  1  0
 15 40  1  0
 15 41  1  0
 16 27  2  0
 16 17  1  0
 17 18  2  0
 17 42  1  0
 18 19  1  0
 19 20  1  0
 19 27  1  0
 20 21  1  0
 20 43  1  0
 20 44  1  0
 21 26  1  0
 21 22  2  0
 22 23  1  0
 22 45  1  0
 23 24  2  0
 23 46  1  0
 24 25  1  0
 24 47  1  0
 25 26  2  0
 25 48  1  0
 26 49  1  0
 27 50  1  0
 28 29  1  0
 30 31  1  0
 30 51  1  0
 31 52  1  0
M  CHG  1  28   1
M  END
>  <DOCK_score>  (1) 
-63.765553

>  <SMILES>  (1) 
C=Cc1ccc(-c2c[nH]c(N[C@H](C)c3cnn(Cc4ccccc4)c3)[nH+]2)cc1

$$$$
