O[C@@H]1[C@H](O)C=C[C@H]1[NH+]=C(NC1CC=CC1)N[C@H]1CC=C(c2ccc(-c3ccccc3)cc2)C1
     RDKit          3D

 65 69  0  0  1  0  0  0  0  0999 V2000
  124.2962  134.9975  161.8292 O   0  0  0  0  0  0  0  0  0  0  0  0
  125.2422  134.4276  160.9225 C   0  0  2  0  0  0  0  0  0  0  0  0
  124.9011  134.5243  159.8918 H   0  0  0  0  0  0  0  0  0  0  0  0
  125.5295  132.9500  161.2760 C   0  0  2  0  0  0  0  0  0  0  0  0
  125.7444  132.3785  160.3730 H   0  0  0  0  0  0  0  0  0  0  0  0
  124.4205  132.3807  161.9746 O   0  0  0  0  0  0  0  0  0  0  0  0
  126.7464  132.9985  162.1704 C   0  0  0  0  0  0  0  0  0  0  0  0
  127.3535  134.1534  162.0789 C   0  0  0  0  0  0  0  0  0  0  0  0
  126.6399  135.0634  161.1064 C   0  0  1  0  0  0  0  0  0  0  0  0
  126.5488  136.0669  161.5222 H   0  0  0  0  0  0  0  0  0  0  0  0
  127.3540  135.1046  159.8279 N   0  0  0  0  0  0  0  0  0  0  0  0
  126.9327  134.7586  159.0256 H   0  0  0  0  0  0  0  0  0  0  0  0
  128.5556  135.6061  159.7685 C   0  0  0  0  0  0  0  0  0  0  0  0
  129.4508  135.1372  158.8364 N   0  0  0  0  0  0  0  0  0  0  0  0
  129.0542  134.0739  157.9099 C   0  0  0  0  0  0  0  0  0  0  0  0
  128.8393  132.7375  158.6577 C   0  0  0  0  0  0  0  0  0  0  0  0
  129.3633  131.6806  157.7135 C   0  0  0  0  0  0  0  0  0  0  0  0
  130.1132  132.2095  156.7854 C   0  0  0  0  0  0  0  0  0  0  0  0
  130.2147  133.7074  156.9559 C   0  0  0  0  0  0  0  0  0  0  0  0
  128.9280  136.6039  160.6380 N   0  0  0  0  0  0  0  0  0  0  0  0
  130.2784  137.1674  160.5712 C   0  0  1  0  0  0  0  0  0  0  0  0
  130.9929  136.4235  160.2183 H   0  0  0  0  0  0  0  0  0  0  0  0
  130.3082  138.4302  159.6801 C   0  0  0  0  0  0  0  0  0  0  0  0
  131.2861  139.3602  160.3600 C   0  0  0  0  0  0  0  0  0  0  0  0
  131.5064  138.9804  161.6074 C   0  0  0  0  0  0  0  0  0  0  0  0
  132.4110  139.6729  162.5476 C   0  0  0  0  0  0  0  0  0  0  0  0
  132.1461  139.6479  163.9186 C   0  0  0  0  0  0  0  0  0  0  0  0
  132.9931  140.2889  164.7946 C   0  0  0  0  0  0  0  0  0  0  0  0
  134.1089  140.9729  164.3124 C   0  0  0  0  0  0  0  0  0  0  0  0
  135.0174  141.6677  165.2562 C   0  0  0  0  0  0  0  0  0  0  0  0
  136.3724  141.7976  164.9558 C   0  0  0  0  0  0  0  0  0  0  0  0
  137.2121  142.4494  165.8358 C   0  0  0  0  0  0  0  0  0  0  0  0
  136.7136  142.9643  167.0190 C   0  0  0  0  0  0  0  0  0  0  0  0
  135.3708  142.8339  167.3249 C   0  0  0  0  0  0  0  0  0  0  0  0
  134.5207  142.1885  166.4500 C   0  0  0  0  0  0  0  0  0  0  0  0
  134.3710  141.0033  162.9427 C   0  0  0  0  0  0  0  0  0  0  0  0
  133.5284  140.3581  162.0656 C   0  0  0  0  0  0  0  0  0  0  0  0
  130.7072  137.7420  161.9407 C   0  0  0  0  0  0  0  0  0  0  0  0
  124.1762  135.9513  161.7243 H   0  0  0  0  0  0  0  0  0  0  0  0
  124.5451  131.4541  162.2218 H   0  0  0  0  0  0  0  0  0  0  0  0
  127.0723  132.1861  162.8029 H   0  0  0  0  0  0  0  0  0  0  0  0
  128.2458  134.4221  162.6248 H   0  0  0  0  0  0  0  0  0  0  0  0
  130.3464  135.5076  158.7948 H   0  0  0  0  0  0  0  0  0  0  0  0
  128.1627  134.3577  157.3506 H   0  0  0  0  0  0  0  0  0  0  0  0
  129.4051  132.7286  159.5893 H   0  0  0  0  0  0  0  0  0  0  0  0
  127.7792  132.5789  158.8547 H   0  0  0  0  0  0  0  0  0  0  0  0
  129.1459  130.6259  157.7960 H   0  0  0  0  0  0  0  0  0  0  0  0
  130.5980  131.6499  155.9991 H   0  0  0  0  0  0  0  0  0  0  0  0
  130.0896  134.2082  155.9958 H   0  0  0  0  0  0  0  0  0  0  0  0
  131.1723  133.9748  157.4026 H   0  0  0  0  0  0  0  0  0  0  0  0
  128.2963  136.9346  161.2957 H   0  0  0  0  0  0  0  0  0  0  0  0
  130.6568  138.1796  158.6782 H   0  0  0  0  0  0  0  0  0  0  0  0
  129.3192  138.8865  159.6354 H   0  0  0  0  0  0  0  0  0  0  0  0
  131.7431  140.2188  159.8907 H   0  0  0  0  0  0  0  0  0  0  0  0
  131.2797  139.1221  164.2919 H   0  0  0  0  0  0  0  0  0  0  0  0
  132.7912  140.2657  165.8555 H   0  0  0  0  0  0  0  0  0  0  0  0
  136.7634  141.3920  164.0345 H   0  0  0  0  0  0  0  0  0  0  0  0
  138.2614  142.5541  165.6022 H   0  0  0  0  0  0  0  0  0  0  0  0
  137.3752  143.4704  167.7065 H   0  0  0  0  0  0  0  0  0  0  0  0
  134.9870  143.2382  168.2498 H   0  0  0  0  0  0  0  0  0  0  0  0
  133.4725  142.0871  166.6899 H   0  0  0  0  0  0  0  0  0  0  0  0
  135.2351  141.5334  162.5702 H   0  0  0  0  0  0  0  0  0  0  0  0
  133.7312  140.3820  161.0051 H   0  0  0  0  0  0  0  0  0  0  0  0
  129.8308  138.0040  162.5334 H   0  0  0  0  0  0  0  0  0  0  0  0
  131.3272  137.0231  162.4765 H   0  0  0  0  0  0  0  0  0  0  0  0
  1  2  1  0
  1 39  1  0
  2  3  1  6
  2  9  1  0
  2  4  1  0
  4  5  1  6
  4  6  1  0
  4  7  1  0
  6 40  1  0
  7  8  2  0
  7 41  1  0
  8  9  1  0
  8 42  1  0
  9 10  1  1
  9 11  1  0
 11 12  1  0
 13 11  2  0
 13 14  1  0
 13 20  1  0
 14 15  1  0
 14 43  1  0
 15 19  1  0
 15 16  1  0
 15 44  1  0
 16 17  1  0
 16 45  1  0
 16 46  1  0
 17 18  2  0
 17 47  1  0
 18 19  1  0
 18 48  1  0
 19 49  1  0
 19 50  1  0
 20 21  1  0
 20 51  1  0
 21 22  1  6
 21 38  1  0
 21 23  1  0
 23 24  1  0
 23 52  1  0
 23 53  1  0
 24 25  2  0
 24 54  1  0
 25 26  1  0
 25 38  1  0
 26 37  1  0
 26 27  2  0
 27 28  1  0
 27 55  1  0
 28 29  2  0
 28 56  1  0
 29 30  1  0
 29 36  1  0
 30 35  1  0
 30 31  2  0
 31 32  1  0
 31 57  1  0
 32 33  2  0
 32 58  1  0
 33 34  1  0
 33 59  1  0
 34 35  2  0
 34 60  1  0
 35 61  1  0
 36 37  2  0
 36 62  1  0
 37 63  1  0
 38 64  1  0
 38 65  1  0
M  CHG  1  11   1
M  END
>  <DOCK_score>  (1) 
-49.654175

>  <SMILES>  (1) 
O[C@@H]1[C@H](O)C=C[C@H]1[NH+]=C(NC1CC=CC1)N[C@H]1CC=C(c2ccc(-c3ccccc3)cc2)C1

$$$$
