c1ccc(C[C@H](Cc2cccnc2)[NH2+]Cc2cccc(-c3cc4cccnc4[nH]3)c2)cc1
     RDKit          3D

 59 63  0  0  1  0  0  0  0  0999 V2000
  129.5531  130.1490  158.6316 C   0  0  0  0  0  0  0  0  0  0  0  0
  130.7092  130.2957  159.3750 C   0  0  0  0  0  0  0  0  0  0  0  0
  131.3196  131.5326  159.4669 C   0  0  0  0  0  0  0  0  0  0  0  0
  130.7738  132.6228  158.8154 C   0  0  0  0  0  0  0  0  0  0  0  0
  131.4390  133.9713  158.9160 C   0  0  0  0  0  0  0  0  0  0  0  0
  130.8788  134.7275  160.1224 C   0  0  2  0  0  0  0  0  0  0  0  0
  131.0736  134.1575  161.0309 H   0  0  0  0  0  0  0  0  0  0  0  0
  129.3699  134.9145  159.9513 C   0  0  0  0  0  0  0  0  0  0  0  0
  128.8182  135.6592  161.1395 C   0  0  0  0  0  0  0  0  0  0  0  0
  129.4141  135.5338  162.3854 C   0  0  0  0  0  0  0  0  0  0  0  0
  128.8723  136.2375  163.4498 C   0  0  0  0  0  0  0  0  0  0  0  0
  127.7640  137.0352  163.2354 C   0  0  0  0  0  0  0  0  0  0  0  0
  127.2233  137.1306  162.0367 N   0  0  0  0  0  0  0  0  0  0  0  0
  127.7154  136.4802  161.0002 C   0  0  0  0  0  0  0  0  0  0  0  0
  131.5272  136.0420  160.2205 N   0  0  0  0  0  0  0  0  0  0  0  0
  130.9569  136.6573  160.7812 H   0  0  0  0  0  0  0  0  0  0  0  0
  131.6362  136.4331  159.2968 H   0  0  0  0  0  0  0  0  0  0  0  0
  132.8471  135.8913  160.8474 C   0  0  0  0  0  0  0  0  0  0  0  0
  133.5123  137.2399  160.9481 C   0  0  0  0  0  0  0  0  0  0  0  0
  134.3118  137.6942  159.9141 C   0  0  0  0  0  0  0  0  0  0  0  0
  134.9260  138.9308  159.9987 C   0  0  0  0  0  0  0  0  0  0  0  0
  134.7410  139.7214  161.1143 C   0  0  0  0  0  0  0  0  0  0  0  0
  133.9404  139.2669  162.1627 C   0  0  0  0  0  0  0  0  0  0  0  0
  133.7416  140.1069  163.3635 C   0  0  0  0  0  0  0  0  0  0  0  0
  134.7277  140.5379  164.1886 C   0  0  0  0  0  0  0  0  0  0  0  0
  134.0868  141.3309  165.2348 C   0  0  0  0  0  0  0  0  0  0  0  0
  134.5555  142.0276  166.3533 C   0  0  0  0  0  0  0  0  0  0  0  0
  133.6317  142.6838  167.1439 C   0  0  0  0  0  0  0  0  0  0  0  0
  132.2874  142.6309  166.8074 C   0  0  0  0  0  0  0  0  0  0  0  0
  131.8664  141.9695  165.7502 N   0  0  0  0  0  0  0  0  0  0  0  0
  132.7058  141.3206  164.9540 C   0  0  0  0  0  0  0  0  0  0  0  0
  132.5271  140.5717  163.8153 N   0  0  0  0  0  0  0  0  0  0  0  0
  131.6714  140.3936  163.3948 H   0  0  0  0  0  0  0  0  0  0  0  0
  133.3232  138.0183  162.0710 C   0  0  0  0  0  0  0  0  0  0  0  0
  129.6149  132.4772  158.0762 C   0  0  0  0  0  0  0  0  0  0  0  0
  129.0073  131.2393  157.9801 C   0  0  0  0  0  0  0  0  0  0  0  0
  129.0760  129.1828  158.5601 H   0  0  0  0  0  0  0  0  0  0  0  0
  131.1354  129.4441  159.8844 H   0  0  0  0  0  0  0  0  0  0  0  0
  132.2228  131.6472  160.0481 H   0  0  0  0  0  0  0  0  0  0  0  0
  131.2444  134.5412  158.0076 H   0  0  0  0  0  0  0  0  0  0  0  0
  132.5140  133.8380  159.0379 H   0  0  0  0  0  0  0  0  0  0  0  0
  129.1753  135.4845  159.0428 H   0  0  0  0  0  0  0  0  0  0  0  0
  128.8889  133.9391  159.8784 H   0  0  0  0  0  0  0  0  0  0  0  0
  130.2795  134.9026  162.5232 H   0  0  0  0  0  0  0  0  0  0  0  0
  129.3109  136.1638  164.4340 H   0  0  0  0  0  0  0  0  0  0  0  0
  127.3356  137.5864  164.0596 H   0  0  0  0  0  0  0  0  0  0  0  0
  127.2485  136.5870  160.0322 H   0  0  0  0  0  0  0  0  0  0  0  0
  133.4633  135.2266  160.2418 H   0  0  0  0  0  0  0  0  0  0  0  0
  132.7294  135.4688  161.8453 H   0  0  0  0  0  0  0  0  0  0  0  0
  134.4567  137.0808  159.0370 H   0  0  0  0  0  0  0  0  0  0  0  0
  135.5482  139.2800  159.1879 H   0  0  0  0  0  0  0  0  0  0  0  0
  135.2180  140.6883  161.1775 H   0  0  0  0  0  0  0  0  0  0  0  0
  135.7838  140.3341  164.0911 H   0  0  0  0  0  0  0  0  0  0  0  0
  135.6084  142.0518  166.5921 H   0  0  0  0  0  0  0  0  0  0  0  0
  133.9535  143.2333  168.0162 H   0  0  0  0  0  0  0  0  0  0  0  0
  131.5682  143.1448  167.4281 H   0  0  0  0  0  0  0  0  0  0  0  0
  132.6993  137.6624  162.8775 H   0  0  0  0  0  0  0  0  0  0  0  0
  129.1861  133.3298  157.5707 H   0  0  0  0  0  0  0  0  0  0  0  0
  128.1039  131.1247  157.3995 H   0  0  0  0  0  0  0  0  0  0  0  0
  1 36  2  0
  1  2  1  0
  1 37  1  0
  2  3  2  0
  2 38  1  0
  3  4  1  0
  3 39  1  0
  4  5  1  0
  4 35  2  0
  5  6  1  0
  5 40  1  0
  5 41  1  0
  6  7  1  1
  6  8  1  0
  6 15  1  0
  8  9  1  0
  8 42  1  0
  8 43  1  0
  9 14  1  0
  9 10  2  0
 10 11  1  0
 10 44  1  0
 11 12  2  0
 11 45  1  0
 12 13  1  0
 12 46  1  0
 13 14  2  0
 14 47  1  0
 15 16  1  0
 15 17  1  0
 15 18  1  0
 18 19  1  0
 18 48  1  0
 18 49  1  0
 19 34  1  0
 19 20  2  0
 20 21  1  0
 20 50  1  0
 21 22  2  0
 21 51  1  0
 22 23  1  0
 22 52  1  0
 23 24  1  0
 23 34  2  0
 24 32  1  0
 24 25  2  0
 25 26  1  0
 25 53  1  0
 26 31  2  0
 26 27  1  0
 27 28  2  0
 27 54  1  0
 28 29  1  0
 28 55  1  0
 29 30  2  0
 29 56  1  0
 30 31  1  0
 31 32  1  0
 32 33  1  0
 34 57  1  0
 35 36  1  0
 35 58  1  0
 36 59  1  0
M  CHG  1  15   1
M  END
>  <DOCK_score>  (1) 
-44.499989

>  <SMILES>  (1) 
c1ccc(C[C@H](Cc2cccnc2)[NH2+]Cc2cccc(-c3cc4cccnc4[nH]3)c2)cc1

$$$$
