CCc1ccccc1CCC#CCC[C@@H]([NH3+])C(=O)Nc1cccc(O)c1
     RDKit          3D

 53 54  0  0  1  0  0  0  0  0999 V2000
  127.9323  138.2031  163.6479 C   0  0  0  0  0  0  0  0  0  0  0  0
  128.5925  139.1060  162.6042 C   0  0  0  0  0  0  0  0  0  0  0  0
  129.6235  139.9776  163.2739 C   0  0  0  0  0  0  0  0  0  0  0  0
  129.2631  141.2151  163.7737 C   0  0  0  0  0  0  0  0  0  0  0  0
  130.2088  142.0146  164.3876 C   0  0  0  0  0  0  0  0  0  0  0  0
  131.5150  141.5764  164.5025 C   0  0  0  0  0  0  0  0  0  0  0  0
  131.8751  140.3386  164.0040 C   0  0  0  0  0  0  0  0  0  0  0  0
  130.9302  139.5411  163.3853 C   0  0  0  0  0  0  0  0  0  0  0  0
  131.3241  138.1941  162.8362 C   0  0  0  0  0  0  0  0  0  0  0  0
  131.7690  138.3471  161.3802 C   0  0  0  0  0  0  0  0  0  0  0  0
  132.1537  137.0315  160.8438 C   0  0  0  0  0  0  0  0  0  0  0  0
  132.4606  135.9821  160.4161 C   0  0  0  0  0  0  0  0  0  0  0  0
  132.8453  134.6664  159.8797 C   0  0  0  0  0  0  0  0  0  0  0  0
  131.6476  133.7170  159.9499 C   0  0  0  0  0  0  0  0  0  0  0  0
  130.4949  134.2880  159.1217 C   0  0  1  0  0  0  0  0  0  0  0  0
  130.4416  135.3667  159.2683 H   0  0  0  0  0  0  0  0  0  0  0  0
  130.7228  133.9978  157.6998 N   0  0  0  0  0  0  0  0  0  0  0  0
  129.9626  134.3744  157.1536 H   0  0  0  0  0  0  0  0  0  0  0  0
  131.5904  134.4205  157.4051 H   0  0  0  0  0  0  0  0  0  0  0  0
  130.7721  132.9992  157.5640 H   0  0  0  0  0  0  0  0  0  0  0  0
  129.1992  133.6567  159.5618 C   0  0  0  0  0  0  0  0  0  0  0  0
  129.1937  132.5260  160.0005 O   0  0  0  0  0  0  0  0  0  0  0  0
  128.0464  134.3486  159.4677 N   0  0  0  0  0  0  0  0  0  0  0  0
  126.8434  133.7625  159.8763 C   0  0  0  0  0  0  0  0  0  0  0  0
  126.6709  132.3874  159.7784 C   0  0  0  0  0  0  0  0  0  0  0  0
  125.4856  131.8082  160.1875 C   0  0  0  0  0  0  0  0  0  0  0  0
  124.4639  132.5956  160.6836 C   0  0  0  0  0  0  0  0  0  0  0  0
  124.6283  133.9702  160.7784 C   0  0  0  0  0  0  0  0  0  0  0  0
  123.6228  134.7433  161.2664 O   0  0  0  0  0  0  0  0  0  0  0  0
  125.8188  134.5545  160.3745 C   0  0  0  0  0  0  0  0  0  0  0  0
  128.6899  137.5750  164.1164 H   0  0  0  0  0  0  0  0  0  0  0  0
  127.4499  138.8183  164.4075 H   0  0  0  0  0  0  0  0  0  0  0  0
  127.1864  137.5728  163.1635 H   0  0  0  0  0  0  0  0  0  0  0  0
  127.8348  139.7341  162.1356 H   0  0  0  0  0  0  0  0  0  0  0  0
  129.0749  138.4909  161.8445 H   0  0  0  0  0  0  0  0  0  0  0  0
  128.2427  141.5573  163.6843 H   0  0  0  0  0  0  0  0  0  0  0  0
  129.9273  142.9816  164.7778 H   0  0  0  0  0  0  0  0  0  0  0  0
  132.2539  142.2011  164.9821 H   0  0  0  0  0  0  0  0  0  0  0  0
  132.8954  139.9963  164.0939 H   0  0  0  0  0  0  0  0  0  0  0  0
  132.1454  137.7872  163.4262 H   0  0  0  0  0  0  0  0  0  0  0  0
  130.4710  137.5177  162.8861 H   0  0  0  0  0  0  0  0  0  0  0  0
  130.9476  138.7541  160.7902 H   0  0  0  0  0  0  0  0  0  0  0  0
  132.6223  139.0236  161.3303 H   0  0  0  0  0  0  0  0  0  0  0  0
  133.1622  134.7755  158.8424 H   0  0  0  0  0  0  0  0  0  0  0  0
  133.6666  134.2596  160.4697 H   0  0  0  0  0  0  0  0  0  0  0  0
  131.9326  132.7427  159.5529 H   0  0  0  0  0  0  0  0  0  0  0  0
  131.3307  133.6081  160.9872 H   0  0  0  0  0  0  0  0  0  0  0  0
  128.0508  135.2529  159.1168 H   0  0  0  0  0  0  0  0  0  0  0  0
  127.4661  131.7704  159.3866 H   0  0  0  0  0  0  0  0  0  0  0  0
  125.3553  130.7386  160.1151 H   0  0  0  0  0  0  0  0  0  0  0  0
  123.5364  132.1405  160.9982 H   0  0  0  0  0  0  0  0  0  0  0  0
  123.8304  135.6874  161.2940 H   0  0  0  0  0  0  0  0  0  0  0  0
  125.9486  135.6242  160.4479 H   0  0  0  0  0  0  0  0  0  0  0  0
  1  2  1  0
  1 31  1  0
  1 32  1  0
  1 33  1  0
  2  3  1  0
  2 34  1  0
  2 35  1  0
  3  8  2  0
  3  4  1  0
  4  5  2  0
  4 36  1  0
  5  6  1  0
  5 37  1  0
  6  7  2  0
  6 38  1  0
  7  8  1  0
  7 39  1  0
  8  9  1  0
  9 10  1  0
  9 40  1  0
  9 41  1  0
 10 11  1  0
 10 42  1  0
 10 43  1  0
 11 12  3  0
 12 13  1  0
 13 14  1  0
 13 44  1  0
 13 45  1  0
 14 15  1  0
 14 46  1  0
 14 47  1  0
 15 16  1  6
 15 17  1  0
 15 21  1  0
 17 18  1  0
 17 19  1  0
 17 20  1  0
 21 22  2  0
 21 23  1  0
 23 24  1  0
 23 48  1  0
 24 30  1  0
 24 25  2  0
 25 26  1  0
 25 49  1  0
 26 27  2  0
 26 50  1  0
 27 28  1  0
 27 51  1  0
 28 29  1  0
 28 30  2  0
 29 52  1  0
 30 53  1  0
M  CHG  1  17   1
M  END
>  <DOCK_score>  (1) 
-42.016201

>  <SMILES>  (1) 
CCc1ccccc1CCC#CCC[C@@H]([NH3+])C(=O)Nc1cccc(O)c1

$$$$
