CC1=CC(Nc2ccccc2N)C(C)=C(C)[C@@H]1Nc1[nH]cc(-c2ccc(C(F)(F)F)cc2)[nH+]1
     RDKit          3D

 60 63  0  0  1  0  0  0  0  0999 V2000
  128.5486  137.7176  161.0277 C   0  0  0  0  0  0  0  0  0  0  0  0
  129.8449  136.9492  161.0450 C   0  0  0  0  0  0  0  0  0  0  0  0
  130.9326  137.5736  161.3803 C   0  0  0  0  0  0  0  0  0  0  0  0
  132.2726  136.9032  161.4301 C   0  0  2  0  0  0  0  0  0  0  0  0
  133.0246  137.2427  160.2196 N   0  0  0  0  0  0  0  0  0  0  0  0
  134.2518  137.9090  160.3217 C   0  0  0  0  0  0  0  0  0  0  0  0
  135.0525  137.7244  161.4386 C   0  0  0  0  0  0  0  0  0  0  0  0
  136.2638  138.3837  161.5375 C   0  0  0  0  0  0  0  0  0  0  0  0
  136.6805  139.2282  160.5253 C   0  0  0  0  0  0  0  0  0  0  0  0
  135.8887  139.4178  159.4078 C   0  0  0  0  0  0  0  0  0  0  0  0
  134.6698  138.7651  159.3028 C   0  0  0  0  0  0  0  0  0  0  0  0
  133.8634  138.9604  158.1750 N   0  0  0  0  0  0  0  0  0  0  0  0
  132.1302  135.4135  161.5186 C   0  0  0  0  0  0  0  0  0  0  0  0
  133.2999  134.6058  162.0187 C   0  0  0  0  0  0  0  0  0  0  0  0
  131.0426  134.7891  161.1831 C   0  0  0  0  0  0  0  0  0  0  0  0
  131.0047  133.2880  161.3111 C   0  0  0  0  0  0  0  0  0  0  0  0
  129.8228  135.4966  160.6747 C   0  0  2  0  0  0  0  0  0  0  0  0
  128.9352  135.0320  161.1043 H   0  0  0  0  0  0  0  0  0  0  0  0
  129.7694  135.3737  159.2159 N   0  0  0  0  0  0  0  0  0  0  0  0
  129.7405  134.1209  158.6274 C   0  0  0  0  0  0  0  0  0  0  0  0
  129.2054  132.9980  159.1795 N   0  0  0  0  0  0  0  0  0  0  0  0
  128.7795  132.9318  160.0484 H   0  0  0  0  0  0  0  0  0  0  0  0
  129.3768  131.9761  158.2775 C   0  0  0  0  0  0  0  0  0  0  0  0
  130.0195  132.5014  157.2052 C   0  0  0  0  0  0  0  0  0  0  0  0
  130.4225  131.7652  155.9821 C   0  0  0  0  0  0  0  0  0  0  0  0
  129.9230  132.1483  154.7386 C   0  0  0  0  0  0  0  0  0  0  0  0
  130.3065  131.4639  153.6032 C   0  0  0  0  0  0  0  0  0  0  0  0
  131.1751  130.3913  153.6995 C   0  0  0  0  0  0  0  0  0  0  0  0
  131.5849  129.6434  152.4570 C   0  0  0  0  0  0  0  0  0  0  0  0
  130.9627  130.2158  151.3418 F   0  0  0  0  0  0  0  0  0  0  0  0
  132.9737  129.7176  152.3048 F   0  0  0  0  0  0  0  0  0  0  0  0
  131.1987  128.3039  152.5699 F   0  0  0  0  0  0  0  0  0  0  0  0
  131.6692  130.0030  154.9316 C   0  0  0  0  0  0  0  0  0  0  0  0
  131.2977  130.6843  156.0728 C   0  0  0  0  0  0  0  0  0  0  0  0
  130.2292  133.8194  157.4492 N   0  0  0  0  0  0  0  0  0  0  0  0
  130.6706  134.4395  156.8480 H   0  0  0  0  0  0  0  0  0  0  0  0
  128.7350  138.7511  161.3194 H   0  0  0  0  0  0  0  0  0  0  0  0
  128.1259  137.6940  160.0233 H   0  0  0  0  0  0  0  0  0  0  0  0
  127.8476  137.2632  161.7277 H   0  0  0  0  0  0  0  0  0  0  0  0
  130.8693  138.6213  161.6349 H   0  0  0  0  0  0  0  0  0  0  0  0
  132.8191  137.2613  162.3024 H   0  0  0  0  0  0  0  0  0  0  0  0
  132.6724  137.0059  159.3473 H   0  0  0  0  0  0  0  0  0  0  0  0
  134.7302  137.0651  162.2310 H   0  0  0  0  0  0  0  0  0  0  0  0
  136.8865  138.2385  162.4080 H   0  0  0  0  0  0  0  0  0  0  0  0
  137.6275  139.7410  160.6073 H   0  0  0  0  0  0  0  0  0  0  0  0
  136.2173  140.0779  158.6186 H   0  0  0  0  0  0  0  0  0  0  0  0
  134.1571  139.5531  157.4656 H   0  0  0  0  0  0  0  0  0  0  0  0
  133.0110  138.5031  158.1031 H   0  0  0  0  0  0  0  0  0  0  0  0
  133.2328  134.5016  163.1016 H   0  0  0  0  0  0  0  0  0  0  0  0
  133.2838  133.6185  161.5569 H   0  0  0  0  0  0  0  0  0  0  0  0
  134.2291  135.1130  161.7594 H   0  0  0  0  0  0  0  0  0  0  0  0
  131.3441  132.8354  160.3794 H   0  0  0  0  0  0  0  0  0  0  0  0
  131.6582  132.9761  162.1258 H   0  0  0  0  0  0  0  0  0  0  0  0
  129.9844  132.9669  161.5205 H   0  0  0  0  0  0  0  0  0  0  0  0
  129.7541  136.1700  158.6623 H   0  0  0  0  0  0  0  0  0  0  0  0
  129.0638  130.9498  158.4008 H   0  0  0  0  0  0  0  0  0  0  0  0
  129.2408  132.9821  154.6631 H   0  0  0  0  0  0  0  0  0  0  0  0
  129.9242  131.7630  152.6385 H   0  0  0  0  0  0  0  0  0  0  0  0
  132.3473  129.1653  155.0007 H   0  0  0  0  0  0  0  0  0  0  0  0
  131.6845  130.3806  157.0343 H   0  0  0  0  0  0  0  0  0  0  0  0
  1  2  1  0
  1 37  1  0
  1 38  1  0
  1 39  1  0
  2 17  1  0
  2  3  2  0
  3  4  1  0
  3 40  1  0
  4  5  1  0
  4 13  1  0
  4 41  1  1
  5  6  1  0
  5 42  1  0
  6 11  1  0
  6  7  2  0
  7  8  1  0
  7 43  1  0
  8  9  2  0
  8 44  1  0
  9 10  1  0
  9 45  1  0
 10 11  2  0
 10 46  1  0
 11 12  1  0
 12 47  1  0
 12 48  1  0
 13 14  1  0
 13 15  2  0
 14 49  1  0
 14 50  1  0
 14 51  1  0
 15 16  1  0
 15 17  1  0
 16 52  1  0
 16 53  1  0
 16 54  1  0
 17 18  1  1
 17 19  1  0
 19 55  1  0
 20 19  1  0
 20 35  2  0
 20 21  1  0
 21 22  1  0
 21 23  1  0
 23 24  2  0
 23 56  1  0
 24 25  1  0
 24 35  1  0
 25 34  1  0
 25 26  2  0
 26 27  1  0
 26 57  1  0
 27 28  2  0
 27 58  1  0
 28 29  1  0
 28 33  1  0
 29 30  1  0
 29 31  1  0
 29 32  1  0
 33 34  2  0
 33 59  1  0
 34 60  1  0
 35 36  1  0
M  CHG  1  35   1
M  END
>  <DOCK_score>  (1) 
-60.914921

>  <SMILES>  (1) 
CC1=CC(Nc2ccccc2N)C(C)=C(C)[C@@H]1Nc1[nH]cc(-c2ccc(C(F)(F)F)cc2)[nH+]1

$$$$
