C[C@H](NC(=O)C[N@H+]1CCCC1Cc1ccc(F)cc1F)c1ccccc1
     RDKit          3D

 51 53  0  0  1  0  0  0  0  0999 V2000
  128.0345  134.8893  158.1270 C   0  0  0  0  0  0  0  0  0  0  0  0
  129.2044  134.0241  158.5995 C   0  0  2  0  0  0  0  0  0  0  0  0
  128.8896  133.4211  159.4512 H   0  0  0  0  0  0  0  0  0  0  0  0
  130.3199  134.8863  158.9974 N   0  0  0  0  0  0  0  0  0  0  0  0
  130.3960  135.3499  160.2607 C   0  0  0  0  0  0  0  0  0  0  0  0
  129.5409  135.0532  161.0680 O   0  0  0  0  0  0  0  0  0  0  0  0
  131.5436  136.2368  160.6700 C   0  0  0  0  0  0  0  0  0  0  0  0
  131.5412  137.4525  159.8455 N   0  0  1  0  0  0  0  0  0  0  0  0
  131.6408  137.2134  158.8703 H   0  0  0  0  0  0  0  0  0  0  0  0
  130.2844  138.2145  160.0602 C   0  0  0  0  0  0  0  0  0  0  0  0
  130.6600  139.6503  159.6150 C   0  0  0  0  0  0  0  0  0  0  0  0
  132.1168  139.7963  160.1116 C   0  0  0  0  0  0  0  0  0  0  0  0
  132.6361  138.3545  160.2637 C   0  0  2  0  0  0  0  0  0  0  0  0
  133.8572  138.1430  159.3665 C   0  0  0  0  0  0  0  0  0  0  0  0
  135.0830  138.6945  160.0479 C   0  0  0  0  0  0  0  0  0  0  0  0
  135.4744  138.1950  161.2759 C   0  0  0  0  0  0  0  0  0  0  0  0
  136.5949  138.7036  161.9046 C   0  0  0  0  0  0  0  0  0  0  0  0
  137.3270  139.7146  161.3048 C   0  0  0  0  0  0  0  0  0  0  0  0
  138.4228  140.2115  161.9195 F   0  0  0  0  0  0  0  0  0  0  0  0
  136.9361  140.2155  160.0753 C   0  0  0  0  0  0  0  0  0  0  0  0
  135.8134  139.7052  159.4464 C   0  0  0  0  0  0  0  0  0  0  0  0
  135.4304  140.1935  158.2462 F   0  0  0  0  0  0  0  0  0  0  0  0
  129.6446  133.1186  157.4782 C   0  0  0  0  0  0  0  0  0  0  0  0
  130.2007  131.8856  157.7634 C   0  0  0  0  0  0  0  0  0  0  0  0
  130.6001  131.0530  156.7347 C   0  0  0  0  0  0  0  0  0  0  0  0
  130.4525  131.4574  155.4212 C   0  0  0  0  0  0  0  0  0  0  0  0
  129.9017  132.6929  155.1362 C   0  0  0  0  0  0  0  0  0  0  0  0
  129.4976  133.5234  156.1646 C   0  0  0  0  0  0  0  0  0  0  0  0
  127.2044  134.2478  157.8309 H   0  0  0  0  0  0  0  0  0  0  0  0
  127.7160  135.5443  158.9379 H   0  0  0  0  0  0  0  0  0  0  0  0
  128.3492  135.4924  157.2753 H   0  0  0  0  0  0  0  0  0  0  0  0
  131.0037  135.1236  158.3517 H   0  0  0  0  0  0  0  0  0  0  0  0
  132.4835  135.7034  160.5282 H   0  0  0  0  0  0  0  0  0  0  0  0
  131.4354  136.5096  161.7199 H   0  0  0  0  0  0  0  0  0  0  0  0
  130.0007  138.1999  161.1125 H   0  0  0  0  0  0  0  0  0  0  0  0
  129.4802  137.8177  159.4406 H   0  0  0  0  0  0  0  0  0  0  0  0
  130.0134  140.3846  160.0955 H   0  0  0  0  0  0  0  0  0  0  0  0
  130.6107  139.7461  158.5304 H   0  0  0  0  0  0  0  0  0  0  0  0
  132.1391  140.3100  161.0726 H   0  0  0  0  0  0  0  0  0  0  0  0
  132.7150  140.3386  159.3794 H   0  0  0  0  0  0  0  0  0  0  0  0
  132.9019  138.1635  161.3034 H   0  0  0  0  0  0  0  0  0  0  0  0
  133.7053  138.6590  158.4185 H   0  0  0  0  0  0  0  0  0  0  0  0
  133.9924  137.0771  159.1824 H   0  0  0  0  0  0  0  0  0  0  0  0
  134.9037  137.4067  161.7446 H   0  0  0  0  0  0  0  0  0  0  0  0
  136.8999  138.3125  162.8640 H   0  0  0  0  0  0  0  0  0  0  0  0
  137.5063  141.0042  159.6069 H   0  0  0  0  0  0  0  0  0  0  0  0
  130.3197  131.5713  158.7897 H   0  0  0  0  0  0  0  0  0  0  0  0
  131.0307  130.0879  156.9575 H   0  0  0  0  0  0  0  0  0  0  0  0
  130.7679  130.8085  154.6176 H   0  0  0  0  0  0  0  0  0  0  0  0
  129.7868  133.0091  154.1099 H   0  0  0  0  0  0  0  0  0  0  0  0
  129.0671  134.4885  155.9419 H   0  0  0  0  0  0  0  0  0  0  0  0
  1  2  1  0
  1 29  1  0
  1 30  1  0
  1 31  1  0
  2  3  1  1
  2  4  1  0
  2 23  1  0
  4  5  1  0
  4 32  1  0
  5  6  2  0
  5  7  1  0
  7  8  1  0
  7 33  1  0
  7 34  1  0
  8  9  1  6
  8 13  1  0
  8 10  1  0
 10 11  1  0
 10 35  1  0
 10 36  1  0
 11 12  1  0
 11 37  1  0
 11 38  1  0
 12 13  1  0
 12 39  1  0
 12 40  1  0
 13 14  1  0
 13 41  1  1
 14 15  1  0
 14 42  1  0
 14 43  1  0
 15 21  1  0
 15 16  2  0
 16 17  1  0
 16 44  1  0
 17 18  2  0
 17 45  1  0
 18 19  1  0
 18 20  1  0
 20 21  2  0
 20 46  1  0
 21 22  1  0
 23 28  1  0
 23 24  2  0
 24 25  1  0
 24 47  1  0
 25 26  2  0
 25 48  1  0
 26 27  1  0
 26 49  1  0
 27 28  2  0
 27 50  1  0
 28 51  1  0
M  CHG  1   8   1
M  END
>  <DOCK_score>  (1) 
-58.624809

>  <SMILES>  (1) 
C[C@H](NC(=O)C[N@H+]1CCCC1Cc1ccc(F)cc1F)c1ccccc1

$$$$
