Nc1ccc(-c2c[nH]c(N[C@H](c3ccccc3Nc3ccccc3Cl)C(F)F)[nH+]2)cc1
     RDKit          3D

 52 55  0  0  1  0  0  0  0  0999 V2000
  131.2341  129.5247  151.9351 N   0  0  0  0  0  0  0  0  0  0  0  0
  130.9887  130.1653  153.1519 C   0  0  0  0  0  0  0  0  0  0  0  0
  130.0723  131.2082  153.2146 C   0  0  0  0  0  0  0  0  0  0  0  0
  129.8284  131.8421  154.4147 C   0  0  0  0  0  0  0  0  0  0  0  0
  130.5021  131.4361  155.5656 C   0  0  0  0  0  0  0  0  0  0  0  0
  130.2415  132.1164  156.8579 C   0  0  0  0  0  0  0  0  0  0  0  0
  129.7648  131.5327  157.9851 C   0  0  0  0  0  0  0  0  0  0  0  0
  129.6762  132.5195  158.9383 N   0  0  0  0  0  0  0  0  0  0  0  0
  129.3675  132.4104  159.8514 H   0  0  0  0  0  0  0  0  0  0  0  0
  130.1017  133.6773  158.3641 C   0  0  0  0  0  0  0  0  0  0  0  0
  130.1680  134.9108  158.9896 N   0  0  0  0  0  0  0  0  0  0  0  0
  129.7586  135.0449  160.3897 C   0  0  2  0  0  0  0  0  0  0  0  0
  130.1042  134.1788  160.9540 H   0  0  0  0  0  0  0  0  0  0  0  0
  128.2558  135.1281  160.4678 C   0  0  0  0  0  0  0  0  0  0  0  0
  127.5388  135.6810  159.4248 C   0  0  0  0  0  0  0  0  0  0  0  0
  126.1601  135.7573  159.4953 C   0  0  0  0  0  0  0  0  0  0  0  0
  125.4940  135.2810  160.6101 C   0  0  0  0  0  0  0  0  0  0  0  0
  126.2041  134.7218  161.6539 C   0  0  0  0  0  0  0  0  0  0  0  0
  127.5901  134.6484  161.5887 C   0  0  0  0  0  0  0  0  0  0  0  0
  128.3121  134.0881  162.6454 N   0  0  0  0  0  0  0  0  0  0  0  0
  128.7605  134.8982  163.6924 C   0  0  0  0  0  0  0  0  0  0  0  0
  128.0400  136.0287  164.0557 C   0  0  0  0  0  0  0  0  0  0  0  0
  128.4859  136.8270  165.0908 C   0  0  0  0  0  0  0  0  0  0  0  0
  129.6486  136.5025  165.7656 C   0  0  0  0  0  0  0  0  0  0  0  0
  130.3694  135.3783  165.4069 C   0  0  0  0  0  0  0  0  0  0  0  0
  129.9259  134.5713  164.3762 C   0  0  0  0  0  0  0  0  0  0  0  0
  130.8266  133.1554  163.9317 Cl  0  0  0  0  0  0  0  0  0  0  0  0
  130.3711  136.3163  160.9808 C   0  0  0  0  0  0  0  0  0  0  0  0
  131.7036  136.0728  161.3305 F   0  0  0  0  0  0  0  0  0  0  0  0
  130.3180  137.3437  160.0327 F   0  0  0  0  0  0  0  0  0  0  0  0
  130.4333  133.4337  157.1196 N   0  0  0  0  0  0  0  0  0  0  0  0
  130.7651  134.0901  156.4872 H   0  0  0  0  0  0  0  0  0  0  0  0
  131.4253  130.3936  155.4992 C   0  0  0  0  0  0  0  0  0  0  0  0
  131.6612  129.7586  154.2982 C   0  0  0  0  0  0  0  0  0  0  0  0
  130.7649  129.8077  151.1347 H   0  0  0  0  0  0  0  0  0  0  0  0
  131.8737  128.7966  151.8905 H   0  0  0  0  0  0  0  0  0  0  0  0
  129.5508  131.5226  152.3227 H   0  0  0  0  0  0  0  0  0  0  0  0
  129.1159  132.6522  154.4630 H   0  0  0  0  0  0  0  0  0  0  0  0
  129.5043  130.4920  158.1101 H   0  0  0  0  0  0  0  0  0  0  0  0
  130.4856  135.6860  158.5007 H   0  0  0  0  0  0  0  0  0  0  0  0
  128.0559  136.0544  158.5531 H   0  0  0  0  0  0  0  0  0  0  0  0
  125.6020  136.1901  158.6783 H   0  0  0  0  0  0  0  0  0  0  0  0
  124.4171  135.3422  160.6620 H   0  0  0  0  0  0  0  0  0  0  0  0
  125.6831  134.3461  162.5222 H   0  0  0  0  0  0  0  0  0  0  0  0
  128.5053  133.1376  162.6504 H   0  0  0  0  0  0  0  0  0  0  0  0
  127.1320  136.2834  163.5292 H   0  0  0  0  0  0  0  0  0  0  0  0
  127.9259  137.7064  165.3733 H   0  0  0  0  0  0  0  0  0  0  0  0
  129.9946  137.1288  166.5745 H   0  0  0  0  0  0  0  0  0  0  0  0
  131.2769  135.1278  165.9360 H   0  0  0  0  0  0  0  0  0  0  0  0
  129.8105  136.6112  161.8678 H   0  0  0  0  0  0  0  0  0  0  0  0
  131.9516  130.0804  156.3889 H   0  0  0  0  0  0  0  0  0  0  0  0
  132.3731  128.9479  154.2472 H   0  0  0  0  0  0  0  0  0  0  0  0
  1  2  1  0
  1 35  1  0
  1 36  1  0
  2 34  2  0
  2  3  1  0
  3  4  2  0
  3 37  1  0
  4  5  1  0
  4 38  1  0
  5  6  1  0
  5 33  2  0
  6 31  1  0
  6  7  2  0
  7  8  1  0
  7 39  1  0
  8  9  1  0
  8 10  1  0
 10 11  1  0
 10 31  2  0
 11 12  1  0
 11 40  1  0
 12 13  1  1
 12 14  1  0
 12 28  1  0
 14 19  1  0
 14 15  2  0
 15 16  1  0
 15 41  1  0
 16 17  2  0
 16 42  1  0
 17 18  1  0
 17 43  1  0
 18 19  2  0
 18 44  1  0
 19 20  1  0
 20 21  1  0
 20 45  1  0
 21 26  1  0
 21 22  2  0
 22 23  1  0
 22 46  1  0
 23 24  2  0
 23 47  1  0
 24 25  1  0
 24 48  1  0
 25 26  2  0
 25 49  1  0
 26 27  1  0
 28 29  1  0
 28 30  1  0
 28 50  1  0
 31 32  1  0
 33 34  1  0
 33 51  1  0
 34 52  1  0
M  CHG  1  31   1
M  END
>  <DOCK_score>  (1) 
-56.064411

>  <SMILES>  (1) 
Nc1ccc(-c2c[nH]c(N[C@H](c3ccccc3Nc3ccccc3Cl)C(F)F)[nH+]2)cc1

$$$$
