CCCSc1ccc2c(c1)[C@@H]([NH+]=C(NCC1CC(O)C1(C)C)NC1CCCCCC1)C(C)(C)C2
     RDKit          3D

 82 85  0  0  1  0  0  0  0  0999 V2000
  139.4799  136.5860  167.5680 C   0  0  0  0  0  0  0  0  0  0  0  0
  138.6186  135.7327  166.6347 C   0  0  0  0  0  0  0  0  0  0  0  0
  137.7638  136.6454  165.7530 C   0  0  0  0  0  0  0  0  0  0  0  0
  136.7426  135.6339  164.6465 S   0  0  0  0  0  0  0  0  0  0  0  0
  135.8439  136.8378  163.7257 C   0  0  0  0  0  0  0  0  0  0  0  0
  136.0410  138.1920  163.9692 C   0  0  0  0  0  0  0  0  0  0  0  0
  135.3343  139.1297  163.2453 C   0  0  0  0  0  0  0  0  0  0  0  0
  134.4286  138.7283  162.2761 C   0  0  0  0  0  0  0  0  0  0  0  0
  134.2302  137.3817  162.0313 C   0  0  0  0  0  0  0  0  0  0  0  0
  134.9362  136.4370  162.7546 C   0  0  0  0  0  0  0  0  0  0  0  0
  133.1999  137.2074  160.9358 C   0  0  1  0  0  0  0  0  0  0  0  0
  133.5236  136.4441  160.2281 H   0  0  0  0  0  0  0  0  0  0  0  0
  131.9015  136.8480  161.5113 N   0  0  0  0  0  0  0  0  0  0  0  0
  131.4660  137.4473  162.1375 H   0  0  0  0  0  0  0  0  0  0  0  0
  131.3318  135.7229  161.1821 C   0  0  0  0  0  0  0  0  0  0  0  0
  130.5121  135.0793  162.0789 N   0  0  0  0  0  0  0  0  0  0  0  0
  130.2788  135.6579  163.4043 C   0  0  0  0  0  0  0  0  0  0  0  0
  129.0631  136.5851  163.3493 C   0  0  2  0  0  0  0  0  0  0  0  0
  128.6963  137.2013  164.7097 C   0  0  0  0  0  0  0  0  0  0  0  0
  127.2232  136.9732  164.3254 C   0  0  1  0  0  0  0  0  0  0  0  0
  126.6417  138.0700  163.6174 O   0  0  0  0  0  0  0  0  0  0  0  0
  127.7183  135.8418  163.4094 C   0  0  0  0  0  0  0  0  0  0  0  0
  126.9917  135.7797  162.0643 C   0  0  0  0  0  0  0  0  0  0  0  0
  127.8008  134.4806  164.1033 C   0  0  0  0  0  0  0  0  0  0  0  0
  131.5505  135.1797  159.9383 N   0  0  0  0  0  0  0  0  0  0  0  0
  130.9101  133.9151  159.5683 C   0  0  0  0  0  0  0  0  0  0  0  0
  131.8061  132.7475  160.0300 C   0  0  0  0  0  0  0  0  0  0  0  0
  130.9621  131.5055  160.1247 C   0  0  0  0  0  0  0  0  0  0  0  0
  131.0124  130.6590  158.8384 C   0  0  0  0  0  0  0  0  0  0  0  0
  130.9498  131.5136  157.5579 C   0  0  0  0  0  0  0  0  0  0  0  0
  129.9486  132.6323  157.6608 C   0  0  0  0  0  0  0  0  0  0  0  0
  130.6825  133.9048  158.1308 C   0  0  0  0  0  0  0  0  0  0  0  0
  133.1148  138.5820  160.2389 C   0  0  0  0  0  0  0  0  0  0  0  0
  134.0845  138.6538  159.0576 C   0  0  0  0  0  0  0  0  0  0  0  0
  131.6836  138.8729  159.7831 C   0  0  0  0  0  0  0  0  0  0  0  0
  133.5451  139.5499  161.3615 C   0  0  0  0  0  0  0  0  0  0  0  0
  140.1291  137.2303  166.9753 H   0  0  0  0  0  0  0  0  0  0  0  0
  138.8354  137.1996  168.1975 H   0  0  0  0  0  0  0  0  0  0  0  0
  140.0888  135.9356  168.1961 H   0  0  0  0  0  0  0  0  0  0  0  0
  137.9693  135.0883  167.2273 H   0  0  0  0  0  0  0  0  0  0  0  0
  139.2630  135.1191  166.0052 H   0  0  0  0  0  0  0  0  0  0  0  0
  138.4131  137.2899  165.1603 H   0  0  0  0  0  0  0  0  0  0  0  0
  137.1193  137.2592  166.3825 H   0  0  0  0  0  0  0  0  0  0  0  0
  136.7457  138.5093  164.7235 H   0  0  0  0  0  0  0  0  0  0  0  0
  135.4875  140.1819  163.4348 H   0  0  0  0  0  0  0  0  0  0  0  0
  134.7810  135.3855  162.5635 H   0  0  0  0  0  0  0  0  0  0  0  0
  130.0881  134.2419  161.8338 H   0  0  0  0  0  0  0  0  0  0  0  0
  130.0943  134.8589  164.1224 H   0  0  0  0  0  0  0  0  0  0  0  0
  131.1562  136.2271  163.7117 H   0  0  0  0  0  0  0  0  0  0  0  0
  129.1232  137.3144  162.5416 H   0  0  0  0  0  0  0  0  0  0  0  0
  129.0227  136.6049  165.5616 H   0  0  0  0  0  0  0  0  0  0  0  0
  128.9673  138.2534  164.7997 H   0  0  0  0  0  0  0  0  0  0  0  0
  126.6027  136.6263  165.1517 H   0  0  0  0  0  0  0  0  0  0  0  0
  127.2444  138.5010  162.9961 H   0  0  0  0  0  0  0  0  0  0  0  0
  127.6172  135.2622  161.3369 H   0  0  0  0  0  0  0  0  0  0  0  0
  126.0517  135.2410  162.1836 H   0  0  0  0  0  0  0  0  0  0  0  0
  126.7886  136.7917  161.7141 H   0  0  0  0  0  0  0  0  0  0  0  0
  128.1437  134.6160  165.1291 H   0  0  0  0  0  0  0  0  0  0  0  0
  126.8154  134.0148  164.1080 H   0  0  0  0  0  0  0  0  0  0  0  0
  128.5022  133.8413  163.5671 H   0  0  0  0  0  0  0  0  0  0  0  0
  132.1288  135.6338  159.3056 H   0  0  0  0  0  0  0  0  0  0  0  0
  129.9494  133.8439  160.0783 H   0  0  0  0  0  0  0  0  0  0  0  0
  132.6066  132.5921  159.3066 H   0  0  0  0  0  0  0  0  0  0  0  0
  132.2314  132.9766  161.0071 H   0  0  0  0  0  0  0  0  0  0  0  0
  129.9288  131.7951  160.3160 H   0  0  0  0  0  0  0  0  0  0  0  0
  131.3170  130.9006  160.9590 H   0  0  0  0  0  0  0  0  0  0  0  0
  130.1708  129.9663  158.8403 H   0  0  0  0  0  0  0  0  0  0  0  0
  131.9393  130.0853  158.8331 H   0  0  0  0  0  0  0  0  0  0  0  0
  130.6776  130.8728  156.7192 H   0  0  0  0  0  0  0  0  0  0  0  0
  131.9358  131.9388  157.3708 H   0  0  0  0  0  0  0  0  0  0  0  0
  129.1763  132.3672  158.3828 H   0  0  0  0  0  0  0  0  0  0  0  0
  129.4963  132.8097  156.6851 H   0  0  0  0  0  0  0  0  0  0  0  0
  130.0858  134.7762  157.8618 H   0  0  0  0  0  0  0  0  0  0  0  0
  131.6440  133.9648  157.6209 H   0  0  0  0  0  0  0  0  0  0  0  0
  133.8840  137.8301  158.3725 H   0  0  0  0  0  0  0  0  0  0  0  0
  135.1087  138.5813  159.4233 H   0  0  0  0  0  0  0  0  0  0  0  0
  133.9513  139.6013  158.5355 H   0  0  0  0  0  0  0  0  0  0  0  0
  131.3791  138.1304  159.0455 H   0  0  0  0  0  0  0  0  0  0  0  0
  131.0128  138.8288  160.6413 H   0  0  0  0  0  0  0  0  0  0  0  0
  131.6389  139.8668  159.3381 H   0  0  0  0  0  0  0  0  0  0  0  0
  134.1060  140.3866  160.9450 H   0  0  0  0  0  0  0  0  0  0  0  0
  132.6717  139.9117  161.9042 H   0  0  0  0  0  0  0  0  0  0  0  0
  1  2  1  0
  1 37  1  0
  1 38  1  0
  1 39  1  0
  2  3  1  0
  2 40  1  0
  2 41  1  0
  3  4  1  0
  3 42  1  0
  3 43  1  0
  4  5  1  0
  5 10  2  0
  5  6  1  0
  6  7  2  0
  6 44  1  0
  7  8  1  0
  7 45  1  0
  8 36  1  0
  8  9  2  0
  9 10  1  0
  9 11  1  0
 10 46  1  0
 11 12  1  6
 11 13  1  0
 11 33  1  0
 13 14  1  0
 15 13  2  0
 15 16  1  0
 15 25  1  0
 16 17  1  0
 16 47  1  0
 17 18  1  0
 17 48  1  0
 17 49  1  0
 18 22  1  0
 18 19  1  0
 18 50  1  6
 19 20  1  0
 19 51  1  0
 19 52  1  0
 20 21  1  0
 20 22  1  0
 20 53  1  1
 21 54  1  0
 22 23  1  0
 22 24  1  0
 23 55  1  0
 23 56  1  0
 23 57  1  0
 24 58  1  0
 24 59  1  0
 24 60  1  0
 25 26  1  0
 25 61  1  0
 26 32  1  0
 26 27  1  0
 26 62  1  0
 27 28  1  0
 27 63  1  0
 27 64  1  0
 28 29  1  0
 28 65  1  0
 28 66  1  0
 29 30  1  0
 29 67  1  0
 29 68  1  0
 30 31  1  0
 30 69  1  0
 30 70  1  0
 31 32  1  0
 31 71  1  0
 31 72  1  0
 32 73  1  0
 32 74  1  0
 33 34  1  0
 33 35  1  0
 33 36  1  0
 34 75  1  0
 34 76  1  0
 34 77  1  0
 35 78  1  0
 35 79  1  0
 35 80  1  0
 36 81  1  0
 36 82  1  0
M  CHG  1  13   1
M  END
>  <DOCK_score>  (1) 
-51.212681

>  <SMILES>  (1) 
CCCSc1ccc2c(c1)[C@@H]([NH+]=C(NCC1CC(O)C1(C)C)NC1CCCCCC1)C(C)(C)C2

$$$$
