Cc1ccc([N+](=O)[O-])cc1C[NH+]=C(NC=C1NCCN1)N[C@H]1C[C@@H](O)C1
     RDKit          3D

 51 53  0  0  1  0  0  0  0  0999 V2000
  130.8451  131.0152  160.2495 C   0  0  0  0  0  0  0  0  0  0  0  0
  130.8823  131.0554  158.7435 C   0  0  0  0  0  0  0  0  0  0  0  0
  130.8203  129.8797  158.0187 C   0  0  0  0  0  0  0  0  0  0  0  0
  130.8488  129.9170  156.6375 C   0  0  0  0  0  0  0  0  0  0  0  0
  130.9445  131.1298  155.9805 C   0  0  0  0  0  0  0  0  0  0  0  0
  130.9746  131.1697  154.5011 N   0  0  0  0  0  0  0  0  0  0  0  0
  130.9149  130.1342  153.8626 O   0  0  0  0  0  0  0  0  0  0  0  0
  131.0589  132.2381  153.9224 O   0  0  0  0  0  0  0  0  0  0  0  0
  131.0119  132.3048  156.7051 C   0  0  0  0  0  0  0  0  0  0  0  0
  130.9833  132.2674  158.0869 C   0  0  0  0  0  0  0  0  0  0  0  0
  131.0562  133.5487  158.8768 C   0  0  0  0  0  0  0  0  0  0  0  0
  129.7024  134.0616  159.1014 N   0  0  0  0  0  0  0  0  0  0  0  0
  128.9367  133.5779  158.7541 H   0  0  0  0  0  0  0  0  0  0  0  0
  129.5266  135.1691  159.7685 C   0  0  0  0  0  0  0  0  0  0  0  0
  130.4863  136.1503  159.7353 N   0  0  0  0  0  0  0  0  0  0  0  0
  130.6600  137.0050  160.8442 C   0  0  0  0  0  0  0  0  0  0  0  0
  131.5912  137.9571  160.8119 C   0  0  0  0  0  0  0  0  0  0  0  0
  132.4413  138.1795  159.7332 N   0  0  0  0  0  0  0  0  0  0  0  0
  133.3287  139.3055  160.0508 C   0  0  0  0  0  0  0  0  0  0  0  0
  132.9263  139.7471  161.4676 C   0  0  0  0  0  0  0  0  0  0  0  0
  131.8346  138.8448  161.8552 N   0  0  0  0  0  0  0  0  0  0  0  0
  128.3792  135.3536  160.5054 N   0  0  0  0  0  0  0  0  0  0  0  0
  127.3551  134.3066  160.5409 C   0  0  1  0  0  0  0  0  0  0  0  0
  127.7695  133.3051  160.4253 H   0  0  0  0  0  0  0  0  0  0  0  0
  126.3811  134.4375  161.7236 C   0  0  0  0  0  0  0  0  0  0  0  0
  125.2643  134.0326  160.7471 C   0  0  1  0  0  0  0  0  0  0  0  0
  125.1050  132.9560  160.6880 H   0  0  0  0  0  0  0  0  0  0  0  0
  124.0505  134.7640  160.9306 O   0  0  0  0  0  0  0  0  0  0  0  0
  126.1554  134.5869  159.6206 C   0  0  0  0  0  0  0  0  0  0  0  0
  131.8611  130.9369  160.6361 H   0  0  0  0  0  0  0  0  0  0  0  0
  130.3823  131.9274  160.6260 H   0  0  0  0  0  0  0  0  0  0  0  0
  130.2648  130.1520  160.5757 H   0  0  0  0  0  0  0  0  0  0  0  0
  130.7453  128.9324  158.5320 H   0  0  0  0  0  0  0  0  0  0  0  0
  130.7959  128.9988  156.0712 H   0  0  0  0  0  0  0  0  0  0  0  0
  131.0863  133.2521  156.1920 H   0  0  0  0  0  0  0  0  0  0  0  0
  131.5358  133.3569  159.8367 H   0  0  0  0  0  0  0  0  0  0  0  0
  131.6364  134.2856  158.3215 H   0  0  0  0  0  0  0  0  0  0  0  0
  131.0449  136.2558  158.9494 H   0  0  0  0  0  0  0  0  0  0  0  0
  130.0379  136.8876  161.7193 H   0  0  0  0  0  0  0  0  0  0  0  0
  132.4456  137.6743  158.9050 H   0  0  0  0  0  0  0  0  0  0  0  0
  133.1782  140.1210  159.3434 H   0  0  0  0  0  0  0  0  0  0  0  0
  134.3685  138.9789  160.0374 H   0  0  0  0  0  0  0  0  0  0  0  0
  132.5779  140.7798  161.4572 H   0  0  0  0  0  0  0  0  0  0  0  0
  133.7682  139.6378  162.1513 H   0  0  0  0  0  0  0  0  0  0  0  0
  131.3602  138.8645  162.7012 H   0  0  0  0  0  0  0  0  0  0  0  0
  128.2485  136.1770  161.0014 H   0  0  0  0  0  0  0  0  0  0  0  0
  126.5546  133.7083  162.5150 H   0  0  0  0  0  0  0  0  0  0  0  0
  126.2857  135.4560  162.1002 H   0  0  0  0  0  0  0  0  0  0  0  0
  124.1457  135.7193  160.8150 H   0  0  0  0  0  0  0  0  0  0  0  0
  125.9972  135.6466  159.4200 H   0  0  0  0  0  0  0  0  0  0  0  0
  126.1470  133.9782  158.7165 H   0  0  0  0  0  0  0  0  0  0  0  0
  1  2  1  0
  1 30  1  0
  1 31  1  0
  1 32  1  0
  2 10  2  0
  2  3  1  0
  3  4  2  0
  3 33  1  0
  4  5  1  0
  4 34  1  0
  5  6  1  0
  5  9  2  0
  6  7  2  0
  6  8  1  0
  9 10  1  0
  9 35  1  0
 10 11  1  0
 11 12  1  0
 11 36  1  0
 11 37  1  0
 12 13  1  0
 14 12  2  0
 14 15  1  0
 14 22  1  0
 15 16  1  0
 15 38  1  0
 16 17  2  0
 16 39  1  0
 17 21  1  0
 17 18  1  0
 18 19  1  0
 18 40  1  0
 19 20  1  0
 19 41  1  0
 19 42  1  0
 20 21  1  0
 20 43  1  0
 20 44  1  0
 21 45  1  0
 22 23  1  0
 22 46  1  0
 23 24  1  6
 23 29  1  0
 23 25  1  0
 25 26  1  0
 25 47  1  0
 25 48  1  0
 26 27  1  6
 26 28  1  0
 26 29  1  0
 28 49  1  0
 29 50  1  0
 29 51  1  0
M  CHG  3   6   1   8  -1  12   1
M  END
>  <DOCK_score>  (1) 
-50.937195

>  <SMILES>  (1) 
Cc1ccc([N+](=O)[O-])cc1C[NH+]=C(NC=C1NCCN1)N[C@H]1C[C@@H](O)C1

$$$$
