Nc1ccc(-c2c[nH]c(N[C@@H](CC3CCC3)c3ccccc3)[nH+]2)cc1
     RDKit          3D

 50 53  0  0  1  0  0  0  0  0999 V2000
  130.9922  129.2533  150.5303 N   0  0  0  0  0  0  0  0  0  0  0  0
  130.9210  129.8304  151.8004 C   0  0  0  0  0  0  0  0  0  0  0  0
  130.2729  131.0475  151.9741 C   0  0  0  0  0  0  0  0  0  0  0  0
  130.2013  131.6190  153.2270 C   0  0  0  0  0  0  0  0  0  0  0  0
  130.7796  130.9752  154.3198 C   0  0  0  0  0  0  0  0  0  0  0  0
  130.7039  131.5881  155.6687 C   0  0  0  0  0  0  0  0  0  0  0  0
  130.1287  131.0352  156.7650 C   0  0  0  0  0  0  0  0  0  0  0  0
  130.2781  131.9377  157.7915 N   0  0  0  0  0  0  0  0  0  0  0  0
  129.9659  131.8277  158.7033 H   0  0  0  0  0  0  0  0  0  0  0  0
  130.9450  133.0134  157.2919 C   0  0  0  0  0  0  0  0  0  0  0  0
  131.2964  134.1467  158.0052 N   0  0  0  0  0  0  0  0  0  0  0  0
  130.9481  134.2566  159.4239 C   0  0  1  0  0  0  0  0  0  0  0  0
  131.0981  133.2928  159.9106 H   0  0  0  0  0  0  0  0  0  0  0  0
  131.8398  135.3076  160.0881 C   0  0  0  0  0  0  0  0  0  0  0  0
  131.8471  135.0872  161.6021 C   0  0  0  0  0  0  0  0  0  0  0  0
  130.9550  136.0748  162.3726 C   0  0  0  0  0  0  0  0  0  0  0  0
  132.0675  136.1307  163.4327 C   0  0  0  0  0  0  0  0  0  0  0  0
  133.0457  135.7369  162.3134 C   0  0  0  0  0  0  0  0  0  0  0  0
  129.5040  134.6667  159.5565 C   0  0  0  0  0  0  0  0  0  0  0  0
  128.7669  134.2569  160.6518 C   0  0  0  0  0  0  0  0  0  0  0  0
  127.4435  134.6364  160.7752 C   0  0  0  0  0  0  0  0  0  0  0  0
  126.8548  135.4187  159.7995 C   0  0  0  0  0  0  0  0  0  0  0  0
  127.5904  135.8242  158.7016 C   0  0  0  0  0  0  0  0  0  0  0  0
  128.9151  135.4480  158.5800 C   0  0  0  0  0  0  0  0  0  0  0  0
  131.2004  132.7994  156.0241 N   0  0  0  0  0  0  0  0  0  0  0  0
  131.6663  133.4116  155.4333 H   0  0  0  0  0  0  0  0  0  0  0  0
  131.4342  129.7574  154.1422 C   0  0  0  0  0  0  0  0  0  0  0  0
  131.4981  129.1864  152.8886 C   0  0  0  0  0  0  0  0  0  0  0  0
  130.5898  129.7018  149.7704 H   0  0  0  0  0  0  0  0  0  0  0  0
  131.4447  128.4038  150.4082 H   0  0  0  0  0  0  0  0  0  0  0  0
  129.8253  131.5461  151.1272 H   0  0  0  0  0  0  0  0  0  0  0  0
  129.6972  132.5647  153.3615 H   0  0  0  0  0  0  0  0  0  0  0  0
  129.6424  130.0724  156.8203 H   0  0  0  0  0  0  0  0  0  0  0  0
  131.7731  134.8680  157.5656 H   0  0  0  0  0  0  0  0  0  0  0  0
  132.8555  135.2180  159.7030 H   0  0  0  0  0  0  0  0  0  0  0  0
  131.4541  136.3030  159.8676 H   0  0  0  0  0  0  0  0  0  0  0  0
  131.6875  134.0451  161.8789 H   0  0  0  0  0  0  0  0  0  0  0  0
  130.7995  137.0200  161.8526 H   0  0  0  0  0  0  0  0  0  0  0  0
  130.0271  135.6329  162.7362 H   0  0  0  0  0  0  0  0  0  0  0  0
  131.9673  135.3743  164.2112 H   0  0  0  0  0  0  0  0  0  0  0  0
  132.2403  137.1301  163.8322 H   0  0  0  0  0  0  0  0  0  0  0  0
  133.8059  135.0224  162.6292 H   0  0  0  0  0  0  0  0  0  0  0  0
  133.4627  136.5889  161.7765 H   0  0  0  0  0  0  0  0  0  0  0  0
  129.2259  133.6428  161.4124 H   0  0  0  0  0  0  0  0  0  0  0  0
  126.8685  134.3193  161.6329 H   0  0  0  0  0  0  0  0  0  0  0  0
  125.8200  135.7130  159.8947 H   0  0  0  0  0  0  0  0  0  0  0  0
  127.1304  136.4352  157.9389 H   0  0  0  0  0  0  0  0  0  0  0  0
  129.4897  135.7647  157.7223 H   0  0  0  0  0  0  0  0  0  0  0  0
  131.8871  129.2590  154.9866 H   0  0  0  0  0  0  0  0  0  0  0  0
  132.0009  128.2405  152.7515 H   0  0  0  0  0  0  0  0  0  0  0  0
  1  2  1  0
  1 29  1  0
  1 30  1  0
  2 28  2  0
  2  3  1  0
  3  4  2  0
  3 31  1  0
  4  5  1  0
  4 32  1  0
  5  6  1  0
  5 27  2  0
  6 25  1  0
  6  7  2  0
  7  8  1  0
  7 33  1  0
  8  9  1  0
  8 10  1  0
 10 11  1  0
 10 25  2  0
 11 12  1  0
 11 34  1  0
 12 13  1  1
 12 14  1  0
 12 19  1  0
 14 15  1  0
 14 35  1  0
 14 36  1  0
 15 18  1  0
 15 16  1  0
 15 37  1  0
 16 17  1  0
 16 38  1  0
 16 39  1  0
 17 18  1  0
 17 40  1  0
 17 41  1  0
 18 42  1  0
 18 43  1  0
 19 24  1  0
 19 20  2  0
 20 21  1  0
 20 44  1  0
 21 22  2  0
 21 45  1  0
 22 23  1  0
 22 46  1  0
 23 24  2  0
 23 47  1  0
 24 48  1  0
 25 26  1  0
 27 28  1  0
 27 49  1  0
 28 50  1  0
M  CHG  1  25   1
M  END
>  <DOCK_score>  (1) 
-58.02261

>  <SMILES>  (1) 
Nc1ccc(-c2c[nH]c(N[C@@H](CC3CCC3)c3ccccc3)[nH+]2)cc1

$$$$
