Cc1cc(N)c(SC=CCl)cc1Nc1[nH]cc(-c2ccncc2)[nH+]1
     RDKit          3D

 41 43  0  0  1  0  0  0  0  0999 V2000
  131.0963  136.6165  160.2794 C   0  0  0  0  0  0  0  0  0  0  0  0
  129.6671  136.1579  160.1437 C   0  0  0  0  0  0  0  0  0  0  0  0
  128.7191  136.5728  161.0612 C   0  0  0  0  0  0  0  0  0  0  0  0
  127.4053  136.1479  160.9426 C   0  0  0  0  0  0  0  0  0  0  0  0
  126.4460  136.5651  161.8766 N   0  0  0  0  0  0  0  0  0  0  0  0
  127.0379  135.3049  159.8931 C   0  0  0  0  0  0  0  0  0  0  0  0
  125.3682  134.7634  159.7391 S   0  0  0  0  0  0  0  0  0  0  0  0
  125.5087  133.0103  159.8462 C   0  0  0  0  0  0  0  0  0  0  0  0
  126.0212  132.4534  160.9299 C   0  0  0  0  0  0  0  0  0  0  0  0
  126.1597  130.7262  161.0354 Cl  0  0  0  0  0  0  0  0  0  0  0  0
  127.9890  134.8948  158.9712 C   0  0  0  0  0  0  0  0  0  0  0  0
  129.3037  135.3237  159.0950 C   0  0  0  0  0  0  0  0  0  0  0  0
  130.2653  134.9101  158.1645 N   0  0  0  0  0  0  0  0  0  0  0  0
  130.1375  133.6828  157.5358 C   0  0  0  0  0  0  0  0  0  0  0  0
  129.5485  132.5765  158.0681 N   0  0  0  0  0  0  0  0  0  0  0  0
  129.1467  132.5070  158.9481 H   0  0  0  0  0  0  0  0  0  0  0  0
  129.6283  131.5784  157.1305 C   0  0  0  0  0  0  0  0  0  0  0  0
  130.2634  132.1012  156.0511 C   0  0  0  0  0  0  0  0  0  0  0  0
  130.5748  131.3857  154.7910 C   0  0  0  0  0  0  0  0  0  0  0  0
  130.0672  131.8326  153.5667 C   0  0  0  0  0  0  0  0  0  0  0  0
  130.3826  131.1375  152.4181 C   0  0  0  0  0  0  0  0  0  0  0  0
  131.1512  130.0650  152.4648 N   0  0  0  0  0  0  0  0  0  0  0  0
  131.6499  129.6106  153.5983 C   0  0  0  0  0  0  0  0  0  0  0  0
  131.3849  130.2455  154.7934 C   0  0  0  0  0  0  0  0  0  0  0  0
  130.5679  133.3931  156.3322 N   0  0  0  0  0  0  0  0  0  0  0  0
  131.0287  134.0050  155.7370 H   0  0  0  0  0  0  0  0  0  0  0  0
  131.2323  137.5485  159.7311 H   0  0  0  0  0  0  0  0  0  0  0  0
  131.3278  136.7772  161.3323 H   0  0  0  0  0  0  0  0  0  0  0  0
  131.7623  135.8551  159.8732 H   0  0  0  0  0  0  0  0  0  0  0  0
  129.0039  137.2251  161.8734 H   0  0  0  0  0  0  0  0  0  0  0  0
  125.5265  136.2678  161.7930 H   0  0  0  0  0  0  0  0  0  0  0  0
  126.7019  137.1510  162.6060 H   0  0  0  0  0  0  0  0  0  0  0  0
  125.1761  132.3907  159.0266 H   0  0  0  0  0  0  0  0  0  0  0  0
  126.3537  133.0730  161.7496 H   0  0  0  0  0  0  0  0  0  0  0  0
  127.7076  134.2421  158.1580 H   0  0  0  0  0  0  0  0  0  0  0  0
  131.0207  135.4832  157.9604 H   0  0  0  0  0  0  0  0  0  0  0  0
  129.2566  130.5694  157.2319 H   0  0  0  0  0  0  0  0  0  0  0  0
  129.4380  132.7091  153.5215 H   0  0  0  0  0  0  0  0  0  0  0  0
  129.9994  131.4778  151.4674 H   0  0  0  0  0  0  0  0  0  0  0  0
  132.2743  128.7295  153.5901 H   0  0  0  0  0  0  0  0  0  0  0  0
  131.7971  129.8681  155.7176 H   0  0  0  0  0  0  0  0  0  0  0  0
  1  2  1  0
  1 27  1  0
  1 28  1  0
  1 29  1  0
  2 12  2  0
  2  3  1  0
  3  4  2  0
  3 30  1  0
  4  5  1  0
  4  6  1  0
  5 31  1  0
  5 32  1  0
  6  7  1  0
  6 11  2  0
  7  8  1  0
  8  9  2  0
  8 33  1  0
  9 10  1  0
  9 34  1  0
 11 12  1  0
 11 35  1  0
 12 13  1  0
 13 36  1  0
 14 13  1  0
 14 25  2  0
 14 15  1  0
 15 16  1  0
 15 17  1  0
 17 18  2  0
 17 37  1  0
 18 19  1  0
 18 25  1  0
 19 24  1  0
 19 20  2  0
 20 21  1  0
 20 38  1  0
 21 22  2  0
 21 39  1  0
 22 23  1  0
 23 24  2  0
 23 40  1  0
 24 41  1  0
 25 26  1  0
M  CHG  1  25   1
M  END
>  <DOCK_score>  (1) 
-57.389027

>  <SMILES>  (1) 
Cc1cc(N)c(SC=CCl)cc1Nc1[nH]cc(-c2ccncc2)[nH+]1

$$$$
