C[C@](CNc1cc(O)ccc1Br)([NH2+]Cc1cccc2c1NC(=O)CO2)c1ccccc1
     RDKit          3D

 56 59  0  0  1  0  0  0  0  0999 V2000
  129.2210  137.2321  159.1304 C   0  0  0  0  0  0  0  0  0  0  0  0
  129.7412  136.0329  159.9255 C   0  0  2  0  0  0  0  0  0  0  0  0
  130.7893  136.5060  160.9346 C   0  0  0  0  0  0  0  0  0  0  0  0
  131.9019  137.1395  160.2226 N   0  0  0  0  0  0  0  0  0  0  0  0
  132.9868  137.6535  160.9375 C   0  0  0  0  0  0  0  0  0  0  0  0
  133.2289  137.2260  162.2358 C   0  0  0  0  0  0  0  0  0  0  0  0
  134.3088  137.7345  162.9400 C   0  0  0  0  0  0  0  0  0  0  0  0
  134.5507  137.3147  164.2098 O   0  0  0  0  0  0  0  0  0  0  0  0
  135.1393  138.6774  162.3503 C   0  0  0  0  0  0  0  0  0  0  0  0
  134.8944  139.1062  161.0597 C   0  0  0  0  0  0  0  0  0  0  0  0
  133.8217  138.5980  160.3519 C   0  0  0  0  0  0  0  0  0  0  0  0
  133.4897  139.1878  158.5862 Br  0  0  0  0  0  0  0  0  0  0  0  0
  130.3502  135.0626  159.0058 N   0  0  0  0  0  0  0  0  0  0  0  0
  130.9687  134.4538  159.5204 H   0  0  0  0  0  0  0  0  0  0  0  0
  130.8743  135.5538  158.2974 H   0  0  0  0  0  0  0  0  0  0  0  0
  129.2951  134.2633  158.3684 C   0  0  0  0  0  0  0  0  0  0  0  0
  129.9197  133.2679  157.4250 C   0  0  0  0  0  0  0  0  0  0  0  0
  130.1335  133.6069  156.1009 C   0  0  0  0  0  0  0  0  0  0  0  0
  130.7100  132.6968  155.2346 C   0  0  0  0  0  0  0  0  0  0  0  0
  131.0685  131.4380  155.6829 C   0  0  0  0  0  0  0  0  0  0  0  0
  130.8534  131.0901  157.0046 C   0  0  0  0  0  0  0  0  0  0  0  0
  130.2761  132.0095  157.8796 C   0  0  0  0  0  0  0  0  0  0  0  0
  130.0630  131.6434  159.2162 N   0  0  0  0  0  0  0  0  0  0  0  0
  130.6926  130.5525  159.7044 C   0  0  0  0  0  0  0  0  0  0  0  0
  130.4991  130.1989  160.8485 O   0  0  0  0  0  0  0  0  0  0  0  0
  131.6363  129.7760  158.8219 C   0  0  0  0  0  0  0  0  0  0  0  0
  131.2000  129.8575  157.4625 O   0  0  0  0  0  0  0  0  0  0  0  0
  128.5969  135.3811  160.6579 C   0  0  0  0  0  0  0  0  0  0  0  0
  127.3187  135.8942  160.5398 C   0  0  0  0  0  0  0  0  0  0  0  0
  126.2683  135.2934  161.2078 C   0  0  0  0  0  0  0  0  0  0  0  0
  126.4977  134.1857  162.0025 C   0  0  0  0  0  0  0  0  0  0  0  0
  127.7767  133.6757  162.1247 C   0  0  0  0  0  0  0  0  0  0  0  0
  128.8263  134.2733  161.4525 C   0  0  0  0  0  0  0  0  0  0  0  0
  128.4744  136.8949  158.4113 H   0  0  0  0  0  0  0  0  0  0  0  0
  128.7693  137.9520  159.8127 H   0  0  0  0  0  0  0  0  0  0  0  0
  130.0488  137.7035  158.6004 H   0  0  0  0  0  0  0  0  0  0  0  0
  130.3376  137.2262  161.6169 H   0  0  0  0  0  0  0  0  0  0  0  0
  131.1600  135.6517  161.5012 H   0  0  0  0  0  0  0  0  0  0  0  0
  131.8855  137.2021  159.2547 H   0  0  0  0  0  0  0  0  0  0  0  0
  132.5789  136.4959  162.6950 H   0  0  0  0  0  0  0  0  0  0  0  0
  135.3248  137.7250  164.6190 H   0  0  0  0  0  0  0  0  0  0  0  0
  135.9781  139.0768  162.9012 H   0  0  0  0  0  0  0  0  0  0  0  0
  135.5422  139.8403  160.6036 H   0  0  0  0  0  0  0  0  0  0  0  0
  128.7289  133.7327  159.1337 H   0  0  0  0  0  0  0  0  0  0  0  0
  128.6270  134.9210  157.8124 H   0  0  0  0  0  0  0  0  0  0  0  0
  129.8525  134.5865  155.7439 H   0  0  0  0  0  0  0  0  0  0  0  0
  130.8777  132.9684  154.2027 H   0  0  0  0  0  0  0  0  0  0  0  0
  131.5156  130.7284  155.0026 H   0  0  0  0  0  0  0  0  0  0  0  0
  129.4728  132.1656  159.7817 H   0  0  0  0  0  0  0  0  0  0  0  0
  132.6393  130.1942  158.9066 H   0  0  0  0  0  0  0  0  0  0  0  0
  131.6511  128.7324  159.1361 H   0  0  0  0  0  0  0  0  0  0  0  0
  127.1403  136.7623  159.9225 H   0  0  0  0  0  0  0  0  0  0  0  0
  125.2691  135.6920  161.1126 H   0  0  0  0  0  0  0  0  0  0  0  0
  125.6777  133.7190  162.5280 H   0  0  0  0  0  0  0  0  0  0  0  0
  127.9560  132.8105  162.7459 H   0  0  0  0  0  0  0  0  0  0  0  0
  129.8257  133.8752  161.5483 H   0  0  0  0  0  0  0  0  0  0  0  0
  1 34  1  0
  1 35  1  0
  1 36  1  0
  2  1  1  6
  2  3  1  0
  2 13  1  0
  2 28  1  0
  3  4  1  0
  3 37  1  0
  3 38  1  0
  4  5  1  0
  4 39  1  0
  5 11  1  0
  5  6  2  0
  6  7  1  0
  6 40  1  0
  7  8  1  0
  7  9  2  0
  8 41  1  0
  9 10  1  0
  9 42  1  0
 10 11  2  0
 10 43  1  0
 11 12  1  0
 13 14  1  0
 13 15  1  0
 13 16  1  0
 16 17  1  0
 16 44  1  0
 16 45  1  0
 17 22  1  0
 17 18  2  0
 18 19  1  0
 18 46  1  0
 19 20  2  0
 19 47  1  0
 20 21  1  0
 20 48  1  0
 21 27  1  0
 21 22  2  0
 22 23  1  0
 23 24  1  0
 23 49  1  0
 24 25  2  0
 24 26  1  0
 26 27  1  0
 26 50  1  0
 26 51  1  0
 28 33  1  0
 28 29  2  0
 29 30  1  0
 29 52  1  0
 30 31  2  0
 30 53  1  0
 31 32  1  0
 31 54  1  0
 32 33  2  0
 32 55  1  0
 33 56  1  0
M  CHG  1  13   1
M  END
>  <DOCK_score>  (1) 
-56.740162

>  <SMILES>  (1) 
C[C@](CNc1cc(O)ccc1Br)([NH2+]Cc1cccc2c1NC(=O)CO2)c1ccccc1

$$$$
