OC[C@@H]1CC[NH+]1C1c2cc(O)ccc2-c2ccc(O)cc21
     RDKit          3D

 39 42  0  0  1  0  0  0  0  0999 V2000
  132.4692  135.6516  160.3150 O   0  0  0  0  0  0  0  0  0  0  0  0
  131.2317  135.1937  160.8639 C   0  0  0  0  0  0  0  0  0  0  0  0
  130.1045  136.1356  160.4359 C   0  0  2  0  0  0  0  0  0  0  0  0
  130.1968  136.4664  159.4013 H   0  0  0  0  0  0  0  0  0  0  0  0
  129.8402  137.2792  161.4316 C   0  0  0  0  0  0  0  0  0  0  0  0
  128.3437  137.0141  161.1872 C   0  0  0  0  0  0  0  0  0  0  0  0
  128.7493  135.6489  160.7859 N   0  0  1  0  0  0  0  0  0  0  0  0
  128.7519  134.9967  161.5558 H   0  0  0  0  0  0  0  0  0  0  0  0
  128.0014  135.1464  159.6258 C   0  0  0  0  0  0  0  0  0  0  0  0
  126.6677  134.5946  160.0667 C   0  0  0  0  0  0  0  0  0  0  0  0
  125.5903  135.1733  160.6992 C   0  0  0  0  0  0  0  0  0  0  0  0
  124.4656  134.4135  160.9917 C   0  0  0  0  0  0  0  0  0  0  0  0
  123.4023  134.9855  161.6152 O   0  0  0  0  0  0  0  0  0  0  0  0
  124.4278  133.0690  160.6472 C   0  0  0  0  0  0  0  0  0  0  0  0
  125.5044  132.4847  160.0155 C   0  0  0  0  0  0  0  0  0  0  0  0
  126.6379  133.2451  159.7187 C   0  0  0  0  0  0  0  0  0  0  0  0
  127.9135  132.8770  159.0558 C   0  0  0  0  0  0  0  0  0  0  0  0
  128.3590  131.6609  158.5325 C   0  0  0  0  0  0  0  0  0  0  0  0
  129.6082  131.5739  157.9571 C   0  0  0  0  0  0  0  0  0  0  0  0
  130.4279  132.6929  157.8947 C   0  0  0  0  0  0  0  0  0  0  0  0
  131.6588  132.6029  157.3262 O   0  0  0  0  0  0  0  0  0  0  0  0
  129.9893  133.9039  158.4131 C   0  0  0  0  0  0  0  0  0  0  0  0
  128.7410  133.9949  158.9897 C   0  0  0  0  0  0  0  0  0  0  0  0
  132.4808  135.6900  159.3488 H   0  0  0  0  0  0  0  0  0  0  0  0
  131.3001  135.1793  161.9515 H   0  0  0  0  0  0  0  0  0  0  0  0
  131.0228  134.1879  160.4996 H   0  0  0  0  0  0  0  0  0  0  0  0
  130.1763  138.2544  161.0791 H   0  0  0  0  0  0  0  0  0  0  0  0
  130.1642  137.0589  162.4488 H   0  0  0  0  0  0  0  0  0  0  0  0
  127.7386  137.0439  162.0933 H   0  0  0  0  0  0  0  0  0  0  0  0
  127.9205  137.6033  160.3737 H   0  0  0  0  0  0  0  0  0  0  0  0
  127.8551  135.9457  158.8991 H   0  0  0  0  0  0  0  0  0  0  0  0
  125.6200  136.2191  160.9669 H   0  0  0  0  0  0  0  0  0  0  0  0
  123.5217  135.9240  161.8149 H   0  0  0  0  0  0  0  0  0  0  0  0
  123.5523  132.4792  160.8752 H   0  0  0  0  0  0  0  0  0  0  0  0
  125.4713  131.4385  159.7495 H   0  0  0  0  0  0  0  0  0  0  0  0
  127.7243  130.7883  158.5792 H   0  0  0  0  0  0  0  0  0  0  0  0
  129.9506  130.6326  157.5532 H   0  0  0  0  0  0  0  0  0  0  0  0
  132.1551  133.4328  157.3293 H   0  0  0  0  0  0  0  0  0  0  0  0
  130.6268  134.7745  158.3651 H   0  0  0  0  0  0  0  0  0  0  0  0
  1  2  1  0
  1 24  1  0
  2  3  1  0
  2 25  1  0
  2 26  1  0
  3  4  1  6
  3  7  1  0
  3  5  1  0
  5  6  1  0
  5 27  1  0
  5 28  1  0
  6  7  1  0
  6 29  1  0
  6 30  1  0
  7  8  1  1
  7  9  1  0
  9 23  1  0
  9 10  1  0
  9 31  1  0
 10 16  1  0
 10 11  2  0
 11 12  1  0
 11 32  1  0
 12 13  1  0
 12 14  2  0
 13 33  1  0
 14 15  1  0
 14 34  1  0
 15 16  2  0
 15 35  1  0
 16 17  1  0
 17 23  2  0
 17 18  1  0
 18 19  2  0
 18 36  1  0
 19 20  1  0
 19 37  1  0
 20 21  1  0
 20 22  2  0
 21 38  1  0
 22 23  1  0
 22 39  1  0
M  CHG  1   7   1
M  END
>  <DOCK_score>  (1) 
-42.713024

>  <SMILES>  (1) 
OC[C@@H]1CC[NH+]1C1c2cc(O)ccc2-c2ccc(O)cc21

$$$$
