Nc1ccc(-c2c[nH]c(Nc3cccc(N)c3C3=CCC=CC3)[nH+]2)cc1
     RDKit          3D

 48 51  0  0  1  0  0  0  0  0999 V2000
  131.3234  129.6674  151.5433 N   0  0  0  0  0  0  0  0  0  0  0  0
  131.0247  130.3660  152.7154 C   0  0  0  0  0  0  0  0  0  0  0  0
  130.5825  131.6817  152.6452 C   0  0  0  0  0  0  0  0  0  0  0  0
  130.2869  132.3734  153.8010 C   0  0  0  0  0  0  0  0  0  0  0  0
  130.4316  131.7518  155.0403 C   0  0  0  0  0  0  0  0  0  0  0  0
  130.1147  132.4941  156.2852 C   0  0  0  0  0  0  0  0  0  0  0  0
  129.6534  131.9543  157.4406 C   0  0  0  0  0  0  0  0  0  0  0  0
  129.5016  132.9895  158.3316 N   0  0  0  0  0  0  0  0  0  0  0  0
  129.1898  132.9185  159.2474 H   0  0  0  0  0  0  0  0  0  0  0  0
  129.8696  134.1328  157.6914 C   0  0  0  0  0  0  0  0  0  0  0  0
  129.8628  135.4040  158.2422 N   0  0  0  0  0  0  0  0  0  0  0  0
  128.9388  135.7288  159.2357 C   0  0  0  0  0  0  0  0  0  0  0  0
  127.6995  135.1053  159.2647 C   0  0  0  0  0  0  0  0  0  0  0  0
  126.7825  135.4254  160.2481 C   0  0  0  0  0  0  0  0  0  0  0  0
  127.0891  136.3678  161.2122 C   0  0  0  0  0  0  0  0  0  0  0  0
  128.3226  137.0023  161.2012 C   0  0  0  0  0  0  0  0  0  0  0  0
  128.6294  137.9520  162.1746 N   0  0  0  0  0  0  0  0  0  0  0  0
  129.2612  136.6817  160.2112 C   0  0  0  0  0  0  0  0  0  0  0  0
  130.5785  137.3469  160.1931 C   0  0  0  0  0  0  0  0  0  0  0  0
  130.7135  138.4629  159.5083 C   0  0  0  0  0  0  0  0  0  0  0  0
  132.0094  139.2132  159.4335 C   0  0  0  0  0  0  0  0  0  0  0  0
  133.1667  138.3305  159.7911 C   0  0  0  0  0  0  0  0  0  0  0  0
  133.0349  137.2280  160.4623 C   0  0  0  0  0  0  0  0  0  0  0  0
  131.7113  136.7212  160.9503 C   0  0  0  0  0  0  0  0  0  0  0  0
  130.2319  133.8327  156.4678 N   0  0  0  0  0  0  0  0  0  0  0  0
  130.5388  134.4665  155.8008 H   0  0  0  0  0  0  0  0  0  0  0  0
  130.8800  130.4337  155.1085 C   0  0  0  0  0  0  0  0  0  0  0  0
  131.1698  129.7443  153.9499 C   0  0  0  0  0  0  0  0  0  0  0  0
  131.2222  130.1004  150.6812 H   0  0  0  0  0  0  0  0  0  0  0  0
  131.6323  128.7489  151.5913 H   0  0  0  0  0  0  0  0  0  0  0  0
  130.4705  132.1630  151.6849 H   0  0  0  0  0  0  0  0  0  0  0  0
  129.9433  133.3958  153.7460 H   0  0  0  0  0  0  0  0  0  0  0  0
  129.4487  130.9102  157.6264 H   0  0  0  0  0  0  0  0  0  0  0  0
  130.5006  136.0682  157.9371 H   0  0  0  0  0  0  0  0  0  0  0  0
  127.4506  134.3676  158.5163 H   0  0  0  0  0  0  0  0  0  0  0  0
  125.8199  134.9359  160.2635 H   0  0  0  0  0  0  0  0  0  0  0  0
  126.3659  136.6104  161.9768 H   0  0  0  0  0  0  0  0  0  0  0  0
  127.9798  138.1704  162.8612 H   0  0  0  0  0  0  0  0  0  0  0  0
  129.4926  138.3947  162.1653 H   0  0  0  0  0  0  0  0  0  0  0  0
  129.8559  138.8556  158.9823 H   0  0  0  0  0  0  0  0  0  0  0  0
  131.9776  140.0573  160.1224 H   0  0  0  0  0  0  0  0  0  0  0  0
  132.1448  139.5859  158.4182 H   0  0  0  0  0  0  0  0  0  0  0  0
  134.1563  138.6257  159.4750 H   0  0  0  0  0  0  0  0  0  0  0  0
  133.9198  136.6483  160.6794 H   0  0  0  0  0  0  0  0  0  0  0  0
  131.6067  136.9574  162.0092 H   0  0  0  0  0  0  0  0  0  0  0  0
  131.6732  135.6397  160.8210 H   0  0  0  0  0  0  0  0  0  0  0  0
  130.9967  129.9515  156.0679 H   0  0  0  0  0  0  0  0  0  0  0  0
  131.5136  128.7219  154.0021 H   0  0  0  0  0  0  0  0  0  0  0  0
  1  2  1  0
  1 29  1  0
  1 30  1  0
  2 28  2  0
  2  3  1  0
  3  4  2  0
  3 31  1  0
  4  5  1  0
  4 32  1  0
  5  6  1  0
  5 27  2  0
  6 25  1  0
  6  7  2  0
  7  8  1  0
  7 33  1  0
  8  9  1  0
  8 10  1  0
 10 11  1  0
 10 25  2  0
 11 12  1  0
 11 34  1  0
 12 18  1  0
 12 13  2  0
 13 14  1  0
 13 35  1  0
 14 15  2  0
 14 36  1  0
 15 16  1  0
 15 37  1  0
 16 17  1  0
 16 18  2  0
 17 38  1  0
 17 39  1  0
 18 19  1  0
 19 24  1  0
 19 20  2  0
 20 21  1  0
 20 40  1  0
 21 22  1  0
 21 41  1  0
 21 42  1  0
 22 23  2  0
 22 43  1  0
 23 24  1  0
 23 44  1  0
 24 45  1  0
 24 46  1  0
 25 26  1  0
 27 28  1  0
 27 47  1  0
 28 48  1  0
M  CHG  1  25   1
M  END
>  <DOCK_score>  (1) 
-58.746586

>  <SMILES>  (1) 
Nc1ccc(-c2c[nH]c(Nc3cccc(N)c3C3=CCC=CC3)[nH+]2)cc1

$$$$
