Fc1ccc(C[C@H](Nc2[nH]cc(-c3ccc(C4=CCC4)cc3)[nH+]2)C(F)F)cc1
     RDKit          3D

 49 52  0  0  1  0  0  0  0  0999 V2000
  135.9537  137.3044  161.8511 F   0  0  0  0  0  0  0  0  0  0  0  0
  134.6230  137.2082  161.6382 C   0  0  0  0  0  0  0  0  0  0  0  0
  133.9004  138.3251  161.2543 C   0  0  0  0  0  0  0  0  0  0  0  0
  132.5392  138.2258  161.0373 C   0  0  0  0  0  0  0  0  0  0  0  0
  131.8989  137.0118  161.2039 C   0  0  0  0  0  0  0  0  0  0  0  0
  130.4144  136.9048  160.9674 C   0  0  0  0  0  0  0  0  0  0  0  0
  130.0749  135.4921  160.4880 C   0  0  2  0  0  0  0  0  0  0  0  0
  130.3751  134.7692  161.2464 H   0  0  0  0  0  0  0  0  0  0  0  0
  130.7895  135.2153  159.2393 N   0  0  0  0  0  0  0  0  0  0  0  0
  130.6381  133.9904  158.6123 C   0  0  0  0  0  0  0  0  0  0  0  0
  130.3835  132.8073  159.2350 N   0  0  0  0  0  0  0  0  0  0  0  0
  130.2762  132.6719  160.1895 H   0  0  0  0  0  0  0  0  0  0  0  0
  130.3062  131.8405  158.2626 C   0  0  0  0  0  0  0  0  0  0  0  0
  130.5155  132.4601  157.0738 C   0  0  0  0  0  0  0  0  0  0  0  0
  130.5243  131.8111  155.7413 C   0  0  0  0  0  0  0  0  0  0  0  0
  130.1305  132.5307  154.6126 C   0  0  0  0  0  0  0  0  0  0  0  0
  130.1389  131.9288  153.3745 C   0  0  0  0  0  0  0  0  0  0  0  0
  130.5412  130.5967  153.2487 C   0  0  0  0  0  0  0  0  0  0  0  0
  130.5505  129.9507  151.9205 C   0  0  0  0  0  0  0  0  0  0  0  0
  130.8673  128.7402  151.5135 C   0  0  0  0  0  0  0  0  0  0  0  0
  130.5683  129.0331  150.0743 C   0  0  0  0  0  0  0  0  0  0  0  0
  130.1962  130.4326  150.5461 C   0  0  0  0  0  0  0  0  0  0  0  0
  130.9352  129.8776  154.3787 C   0  0  0  0  0  0  0  0  0  0  0  0
  130.9269  130.4811  155.6161 C   0  0  0  0  0  0  0  0  0  0  0  0
  130.7213  133.7783  157.3216 N   0  0  0  0  0  0  0  0  0  0  0  0
  130.8992  134.4558  156.6506 H   0  0  0  0  0  0  0  0  0  0  0  0
  128.5677  135.3836  160.2478 C   0  0  0  0  0  0  0  0  0  0  0  0
  128.1826  136.3115  159.2744 F   0  0  0  0  0  0  0  0  0  0  0  0
  128.2573  134.0918  159.8096 F   0  0  0  0  0  0  0  0  0  0  0  0
  132.6184  135.8973  161.5927 C   0  0  0  0  0  0  0  0  0  0  0  0
  133.9808  135.9929  161.8044 C   0  0  0  0  0  0  0  0  0  0  0  0
  134.4003  139.2737  161.1247 H   0  0  0  0  0  0  0  0  0  0  0  0
  131.9753  139.0968  160.7377 H   0  0  0  0  0  0  0  0  0  0  0  0
  130.1143  137.6279  160.2089 H   0  0  0  0  0  0  0  0  0  0  0  0
  129.8827  137.1109  161.8963 H   0  0  0  0  0  0  0  0  0  0  0  0
  131.3687  135.8901  158.8521 H   0  0  0  0  0  0  0  0  0  0  0  0
  130.1148  130.7884  158.4151 H   0  0  0  0  0  0  0  0  0  0  0  0
  129.8148  133.5589  154.7109 H   0  0  0  0  0  0  0  0  0  0  0  0
  129.8336  132.4859  152.5010 H   0  0  0  0  0  0  0  0  0  0  0  0
  131.2153  127.8571  152.0289 H   0  0  0  0  0  0  0  0  0  0  0  0
  131.4454  129.0021  149.4279 H   0  0  0  0  0  0  0  0  0  0  0  0
  129.7263  128.4668  149.6762 H   0  0  0  0  0  0  0  0  0  0  0  0
  129.1398  130.6716  150.4229 H   0  0  0  0  0  0  0  0  0  0  0  0
  130.8571  131.2136  150.1701 H   0  0  0  0  0  0  0  0  0  0  0  0
  131.2462  128.8478  154.2821 H   0  0  0  0  0  0  0  0  0  0  0  0
  131.2314  129.9248  156.4902 H   0  0  0  0  0  0  0  0  0  0  0  0
  128.0361  135.5897  161.1767 H   0  0  0  0  0  0  0  0  0  0  0  0
  132.1164  134.9506  161.7273 H   0  0  0  0  0  0  0  0  0  0  0  0
  134.5433  135.1212  162.1042 H   0  0  0  0  0  0  0  0  0  0  0  0
  1  2  1  0
  2 31  2  0
  2  3  1  0
  3  4  2  0
  3 32  1  0
  4  5  1  0
  4 33  1  0
  5  6  1  0
  5 30  2  0
  6  7  1  0
  6 34  1  0
  6 35  1  0
  7  8  1  1
  7  9  1  0
  7 27  1  0
  9 36  1  0
 10  9  1  0
 10 25  2  0
 10 11  1  0
 11 12  1  0
 11 13  1  0
 13 14  2  0
 13 37  1  0
 14 15  1  0
 14 25  1  0
 15 24  1  0
 15 16  2  0
 16 17  1  0
 16 38  1  0
 17 18  2  0
 17 39  1  0
 18 19  1  0
 18 23  1  0
 19 22  1  0
 19 20  2  0
 20 21  1  0
 20 40  1  0
 21 22  1  0
 21 41  1  0
 21 42  1  0
 22 43  1  0
 22 44  1  0
 23 24  2  0
 23 45  1  0
 24 46  1  0
 25 26  1  0
 27 28  1  0
 27 29  1  0
 27 47  1  0
 30 31  1  0
 30 48  1  0
 31 49  1  0
M  CHG  1  25   1
M  END
>  <DOCK_score>  (1) 
-56.529774

>  <SMILES>  (1) 
Fc1ccc(C[C@H](Nc2[nH]cc(-c3ccc(C4=CCC4)cc3)[nH+]2)C(F)F)cc1

$$$$
