CC(C)(Sc1ccc(-c2cc(Cl)ccc2Nc2[nH]cc(-c3ccccc3)[nH+]2)cc1)c1ccccc1
     RDKit          3D

 62 66  0  0  1  0  0  0  0  0999 V2000
  136.6288  140.8248  162.6973 C   0  0  0  0  0  0  0  0  0  0  0  0
  135.5014  139.7965  162.5847 C   0  0  0  0  0  0  0  0  0  0  0  0
  134.2270  140.3663  163.2109 C   0  0  0  0  0  0  0  0  0  0  0  0
  135.1992  139.4199  160.8359 S   0  0  0  0  0  0  0  0  0  0  0  0
  133.5735  138.7406  160.8527 C   0  0  0  0  0  0  0  0  0  0  0  0
  133.3075  137.5933  161.5926 C   0  0  0  0  0  0  0  0  0  0  0  0
  132.0377  137.0570  161.6015 C   0  0  0  0  0  0  0  0  0  0  0  0
  131.0172  137.6713  160.8762 C   0  0  0  0  0  0  0  0  0  0  0  0
  129.6495  137.0993  160.8889 C   0  0  0  0  0  0  0  0  0  0  0  0
  128.7283  137.5098  161.8497 C   0  0  0  0  0  0  0  0  0  0  0  0
  127.4552  136.9739  161.8573 C   0  0  0  0  0  0  0  0  0  0  0  0
  126.3083  137.4866  163.0555 Cl  0  0  0  0  0  0  0  0  0  0  0  0
  127.0904  136.0286  160.9130 C   0  0  0  0  0  0  0  0  0  0  0  0
  127.9958  135.6140  159.9554 C   0  0  0  0  0  0  0  0  0  0  0  0
  129.2760  136.1484  159.9320 C   0  0  0  0  0  0  0  0  0  0  0  0
  130.1907  135.7346  158.9607 N   0  0  0  0  0  0  0  0  0  0  0  0
  130.1161  134.4530  158.4405 C   0  0  0  0  0  0  0  0  0  0  0  0
  129.6647  133.3531  159.1034 N   0  0  0  0  0  0  0  0  0  0  0  0
  129.3402  133.3259  160.0172 H   0  0  0  0  0  0  0  0  0  0  0  0
  129.7509  132.2896  158.2390 C   0  0  0  0  0  0  0  0  0  0  0  0
  130.2603  132.7676  157.0763 C   0  0  0  0  0  0  0  0  0  0  0  0
  130.5344  131.9756  155.8524 C   0  0  0  0  0  0  0  0  0  0  0  0
  130.4445  132.5743  154.5971 C   0  0  0  0  0  0  0  0  0  0  0  0
  130.7067  131.8341  153.4621 C   0  0  0  0  0  0  0  0  0  0  0  0
  131.0462  130.4969  153.5684 C   0  0  0  0  0  0  0  0  0  0  0  0
  131.1312  129.8963  154.8113 C   0  0  0  0  0  0  0  0  0  0  0  0
  130.8772  130.6283  155.9534 C   0  0  0  0  0  0  0  0  0  0  0  0
  130.4742  134.0980  157.2305 N   0  0  0  0  0  0  0  0  0  0  0  0
  130.8349  134.6919  156.5536 H   0  0  0  0  0  0  0  0  0  0  0  0
  131.2863  138.8211  160.1346 C   0  0  0  0  0  0  0  0  0  0  0  0
  132.5586  139.3514  160.1241 C   0  0  0  0  0  0  0  0  0  0  0  0
  135.8970  138.5358  163.3095 C   0  0  0  0  0  0  0  0  0  0  0  0
  135.5899  138.3831  164.6485 C   0  0  0  0  0  0  0  0  0  0  0  0
  135.9485  137.2246  165.3122 C   0  0  0  0  0  0  0  0  0  0  0  0
  136.6235  136.2234  164.6392 C   0  0  0  0  0  0  0  0  0  0  0  0
  136.9353  136.3783  163.3015 C   0  0  0  0  0  0  0  0  0  0  0  0
  136.5720  137.5346  162.6365 C   0  0  0  0  0  0  0  0  0  0  0  0
  136.4357  141.6520  162.0144 H   0  0  0  0  0  0  0  0  0  0  0  0
  136.6768  141.2009  163.7192 H   0  0  0  0  0  0  0  0  0  0  0  0
  137.5771  140.3538  162.4387 H   0  0  0  0  0  0  0  0  0  0  0  0
  133.5347  139.5533  163.4295 H   0  0  0  0  0  0  0  0  0  0  0  0
  134.4780  140.8880  164.1345 H   0  0  0  0  0  0  0  0  0  0  0  0
  133.7606  141.0636  162.5150 H   0  0  0  0  0  0  0  0  0  0  0  0
  134.0971  137.1201  162.1573 H   0  0  0  0  0  0  0  0  0  0  0  0
  131.8325  136.1637  162.1727 H   0  0  0  0  0  0  0  0  0  0  0  0
  129.0089  138.2466  162.5878 H   0  0  0  0  0  0  0  0  0  0  0  0
  126.0932  135.6138  160.9249 H   0  0  0  0  0  0  0  0  0  0  0  0
  127.7054  134.8767  159.2217 H   0  0  0  0  0  0  0  0  0  0  0  0
  130.8781  136.3446  158.6506 H   0  0  0  0  0  0  0  0  0  0  0  0
  129.4709  131.2674  158.4465 H   0  0  0  0  0  0  0  0  0  0  0  0
  130.1746  133.6165  154.5128 H   0  0  0  0  0  0  0  0  0  0  0  0
  130.6425  132.2982  152.4891 H   0  0  0  0  0  0  0  0  0  0  0  0
  131.2469  129.9207  152.6772 H   0  0  0  0  0  0  0  0  0  0  0  0
  131.3970  128.8524  154.8883 H   0  0  0  0  0  0  0  0  0  0  0  0
  130.9443  130.1583  156.9234 H   0  0  0  0  0  0  0  0  0  0  0  0
  130.4983  139.2962  159.5690 H   0  0  0  0  0  0  0  0  0  0  0  0
  132.7674  140.2418  159.5498 H   0  0  0  0  0  0  0  0  0  0  0  0
  135.0664  139.1672  165.1754 H   0  0  0  0  0  0  0  0  0  0  0  0
  135.7052  137.1036  166.3574 H   0  0  0  0  0  0  0  0  0  0  0  0
  136.9077  135.3202  165.1587 H   0  0  0  0  0  0  0  0  0  0  0  0
  137.4630  135.5963  162.7758 H   0  0  0  0  0  0  0  0  0  0  0  0
  136.8158  137.6559  161.5914 H   0  0  0  0  0  0  0  0  0  0  0  0
  1  2  1  0
  1 38  1  0
  1 39  1  0
  1 40  1  0
  2  3  1  0
  2  4  1  0
  2 32  1  0
  3 41  1  0
  3 42  1  0
  3 43  1  0
  4  5  1  0
  5 31  1  0
  5  6  2  0
  6  7  1  0
  6 44  1  0
  7  8  2  0
  7 45  1  0
  8  9  1  0
  8 30  1  0
  9 15  1  0
  9 10  2  0
 10 11  1  0
 10 46  1  0
 11 12  1  0
 11 13  2  0
 13 14  1  0
 13 47  1  0
 14 15  2  0
 14 48  1  0
 15 16  1  0
 16 49  1  0
 17 16  1  0
 17 28  2  0
 17 18  1  0
 18 19  1  0
 18 20  1  0
 20 21  2  0
 20 50  1  0
 21 22  1  0
 21 28  1  0
 22 27  1  0
 22 23  2  0
 23 24  1  0
 23 51  1  0
 24 25  2  0
 24 52  1  0
 25 26  1  0
 25 53  1  0
 26 27  2  0
 26 54  1  0
 27 55  1  0
 28 29  1  0
 30 31  2  0
 30 56  1  0
 31 57  1  0
 32 37  1  0
 32 33  2  0
 33 34  1  0
 33 58  1  0
 34 35  2  0
 34 59  1  0
 35 36  1  0
 35 60  1  0
 36 37  2  0
 36 61  1  0
 37 62  1  0
M  CHG  1  28   1
M  END
>  <DOCK_score>  (1) 
-62.055443

>  <SMILES>  (1) 
CC(C)(Sc1ccc(-c2cc(Cl)ccc2Nc2[nH]cc(-c3ccccc3)[nH+]2)cc1)c1ccccc1

$$$$
