Cc1nc(Sc2ccc(Sc3ccccc3)c(NC(=O)[C@@H]([NH3+])CC3=CCCC3)c2)[nH]c1C
     RDKit          3D

 61 64  0  0  1  0  0  0  0  0999 V2000
  128.7092  138.4198  164.9476 C   0  0  0  0  0  0  0  0  0  0  0  0
  127.7569  137.5719  164.1444 C   0  0  0  0  0  0  0  0  0  0  0  0
  127.9027  136.2636  163.8775 N   0  0  0  0  0  0  0  0  0  0  0  0
  126.8869  135.8523  163.1548 C   0  0  0  0  0  0  0  0  0  0  0  0
  126.6413  134.2114  162.5616 S   0  0  0  0  0  0  0  0  0  0  0  0
  127.4699  134.3196  161.0103 C   0  0  0  0  0  0  0  0  0  0  0  0
  127.0486  133.5370  159.9423 C   0  0  0  0  0  0  0  0  0  0  0  0
  127.6929  133.6229  158.7234 C   0  0  0  0  0  0  0  0  0  0  0  0
  128.7698  134.4839  158.5653 C   0  0  0  0  0  0  0  0  0  0  0  0
  129.5947  134.5881  157.0118 S   0  0  0  0  0  0  0  0  0  0  0  0
  130.1709  132.9425  156.7578 C   0  0  0  0  0  0  0  0  0  0  0  0
  131.0444  132.3617  157.6695 C   0  0  0  0  0  0  0  0  0  0  0  0
  131.4890  131.0697  157.4704 C   0  0  0  0  0  0  0  0  0  0  0  0
  131.0753  130.3579  156.3590 C   0  0  0  0  0  0  0  0  0  0  0  0
  130.2110  130.9347  155.4463 C   0  0  0  0  0  0  0  0  0  0  0  0
  129.7574  132.2240  155.6421 C   0  0  0  0  0  0  0  0  0  0  0  0
  129.1983  135.2670  159.6373 C   0  0  0  0  0  0  0  0  0  0  0  0
  130.2855  136.1367  159.4806 N   0  0  0  0  0  0  0  0  0  0  0  0
  130.3494  137.2728  160.2029 C   0  0  0  0  0  0  0  0  0  0  0  0
  129.4655  137.5422  160.9888 O   0  0  0  0  0  0  0  0  0  0  0  0
  131.5187  138.2083  160.0342 C   0  0  1  0  0  0  0  0  0  0  0  0
  131.5639  138.5506  159.0004 H   0  0  0  0  0  0  0  0  0  0  0  0
  131.3538  139.3639  160.9259 N   0  0  0  0  0  0  0  0  0  0  0  0
  132.1367  139.9902  160.8130 H   0  0  0  0  0  0  0  0  0  0  0  0
  130.4996  139.8483  160.6943 H   0  0  0  0  0  0  0  0  0  0  0  0
  131.3119  139.0471  161.8830 H   0  0  0  0  0  0  0  0  0  0  0  0
  132.8142  137.4738  160.3854 C   0  0  0  0  0  0  0  0  0  0  0  0
  133.9836  138.4094  160.2168 C   0  0  0  0  0  0  0  0  0  0  0  0
  134.8043  138.7453  161.1744 C   0  0  0  0  0  0  0  0  0  0  0  0
  135.8653  139.6972  160.6727 C   0  0  0  0  0  0  0  0  0  0  0  0
  135.3145  140.2261  159.3280 C   0  0  0  0  0  0  0  0  0  0  0  0
  134.3636  139.0763  158.9153 C   0  0  0  0  0  0  0  0  0  0  0  0
  128.5470  135.1829  160.8578 C   0  0  0  0  0  0  0  0  0  0  0  0
  126.0586  136.9102  162.9367 N   0  0  0  0  0  0  0  0  0  0  0  0
  125.2311  136.9005  162.4307 H   0  0  0  0  0  0  0  0  0  0  0  0
  126.6164  137.9957  163.5730 C   0  0  0  0  0  0  0  0  0  0  0  0
  126.0576  139.3947  163.6161 C   0  0  0  0  0  0  0  0  0  0  0  0
  129.4548  138.8571  164.2838 H   0  0  0  0  0  0  0  0  0  0  0  0
  128.1553  139.2154  165.4461 H   0  0  0  0  0  0  0  0  0  0  0  0
  129.2060  137.8003  165.6943 H   0  0  0  0  0  0  0  0  0  0  0  0
  126.2137  132.8630  160.0642 H   0  0  0  0  0  0  0  0  0  0  0  0
  127.3609  133.0164  157.8937 H   0  0  0  0  0  0  0  0  0  0  0  0
  131.3716  132.9187  158.5351 H   0  0  0  0  0  0  0  0  0  0  0  0
  132.1639  130.6160  158.1811 H   0  0  0  0  0  0  0  0  0  0  0  0
  131.4285  129.3492  156.2033 H   0  0  0  0  0  0  0  0  0  0  0  0
  129.8902  130.3759  154.5796 H   0  0  0  0  0  0  0  0  0  0  0  0
  129.0825  132.6740  154.9290 H   0  0  0  0  0  0  0  0  0  0  0  0
  130.9924  135.9211  158.8522 H   0  0  0  0  0  0  0  0  0  0  0  0
  132.7690  137.1315  161.4193 H   0  0  0  0  0  0  0  0  0  0  0  0
  132.9365  136.6163  159.7238 H   0  0  0  0  0  0  0  0  0  0  0  0
  134.7344  138.3899  162.1918 H   0  0  0  0  0  0  0  0  0  0  0  0
  136.0021  140.5184  161.3763 H   0  0  0  0  0  0  0  0  0  0  0  0
  136.8059  139.1692  160.5164 H   0  0  0  0  0  0  0  0  0  0  0  0
  134.7686  141.1590  159.4685 H   0  0  0  0  0  0  0  0  0  0  0  0
  136.1152  140.3499  158.5987 H   0  0  0  0  0  0  0  0  0  0  0  0
  134.8778  138.3707  158.2629 H   0  0  0  0  0  0  0  0  0  0  0  0
  133.4783  139.4763  158.4210 H   0  0  0  0  0  0  0  0  0  0  0  0
  128.8764  135.7883  161.6892 H   0  0  0  0  0  0  0  0  0  0  0  0
  126.4391  139.9645  162.7688 H   0  0  0  0  0  0  0  0  0  0  0  0
  124.9696  139.3532  163.5658 H   0  0  0  0  0  0  0  0  0  0  0  0
  126.3603  139.8784  164.5448 H   0  0  0  0  0  0  0  0  0  0  0  0
  1  2  1  0
  1 38  1  0
  1 39  1  0
  1 40  1  0
  2 36  2  0
  2  3  1  0
  3  4  2  0
  4  5  1  0
  4 34  1  0
  5  6  1  0
  6 33  1  0
  6  7  2  0
  7  8  1  0
  7 41  1  0
  8  9  2  0
  8 42  1  0
  9 10  1  0
  9 17  1  0
 10 11  1  0
 11 16  1  0
 11 12  2  0
 12 13  1  0
 12 43  1  0
 13 14  2  0
 13 44  1  0
 14 15  1  0
 14 45  1  0
 15 16  2  0
 15 46  1  0
 16 47  1  0
 17 18  1  0
 17 33  2  0
 18 19  1  0
 18 48  1  0
 19 20  2  0
 19 21  1  0
 21 22  1  6
 21 23  1  0
 21 27  1  0
 23 24  1  0
 23 25  1  0
 23 26  1  0
 27 28  1  0
 27 49  1  0
 27 50  1  0
 28 32  1  0
 28 29  2  0
 29 30  1  0
 29 51  1  0
 30 31  1  0
 30 52  1  0
 30 53  1  0
 31 32  1  0
 31 54  1  0
 31 55  1  0
 32 56  1  0
 32 57  1  0
 33 58  1  0
 34 35  1  0
 34 36  1  0
 36 37  1  0
 37 59  1  0
 37 60  1  0
 37 61  1  0
M  CHG  1  23   1
M  END
>  <DOCK_score>  (1) 
-47.63718

>  <SMILES>  (1) 
Cc1nc(Sc2ccc(Sc3ccccc3)c(NC(=O)[C@@H]([NH3+])CC3=CCCC3)c2)[nH]c1C

$$$$
