Nc1ccc(-c2c[nH]c(N[C@@H](C3=CCCC3)c3cccc4c3CC=C4)[nH+]2)cc1
     RDKit          3D

 53 57  0  0  1  0  0  0  0  0999 V2000
  131.1902  129.3105  151.4782 N   0  0  0  0  0  0  0  0  0  0  0  0
  130.9717  129.9821  152.6835 C   0  0  0  0  0  0  0  0  0  0  0  0
  130.1058  131.0691  152.7251 C   0  0  0  0  0  0  0  0  0  0  0  0
  129.8882  131.7333  153.9138 C   0  0  0  0  0  0  0  0  0  0  0  0
  130.5371  131.3139  155.0741 C   0  0  0  0  0  0  0  0  0  0  0  0
  130.3050  132.0271  156.3541 C   0  0  0  0  0  0  0  0  0  0  0  0
  129.8015  131.4843  157.4901 C   0  0  0  0  0  0  0  0  0  0  0  0
  129.7549  132.4902  158.4259 N   0  0  0  0  0  0  0  0  0  0  0  0
  129.4369  132.4113  159.3389 H   0  0  0  0  0  0  0  0  0  0  0  0
  130.2319  133.6183  157.8330 C   0  0  0  0  0  0  0  0  0  0  0  0
  130.3511  134.8581  158.4373 N   0  0  0  0  0  0  0  0  0  0  0  0
  129.9454  135.0344  159.8340 C   0  0  1  0  0  0  0  0  0  0  0  0
  130.2518  134.1639  160.4139 H   0  0  0  0  0  0  0  0  0  0  0  0
  130.6021  136.2689  160.3957 C   0  0  0  0  0  0  0  0  0  0  0  0
  131.4107  136.2737  161.4204 C   0  0  0  0  0  0  0  0  0  0  0  0
  131.8960  137.6721  161.7240 C   0  0  0  0  0  0  0  0  0  0  0  0
  131.5686  138.4882  160.4519 C   0  0  0  0  0  0  0  0  0  0  0  0
  130.4060  137.6646  159.8511 C   0  0  0  0  0  0  0  0  0  0  0  0
  128.4477  135.1847  159.9069 C   0  0  0  0  0  0  0  0  0  0  0  0
  127.6896  135.1431  158.7483 C   0  0  0  0  0  0  0  0  0  0  0  0
  126.3143  135.2744  158.8138 C   0  0  0  0  0  0  0  0  0  0  0  0
  125.6885  135.4599  160.0291 C   0  0  0  0  0  0  0  0  0  0  0  0
  126.4458  135.5093  161.2017 C   0  0  0  0  0  0  0  0  0  0  0  0
  127.8330  135.3689  161.1230 C   0  0  0  0  0  0  0  0  0  0  0  0
  128.3496  135.4658  162.5379 C   0  0  0  0  0  0  0  0  0  0  0  0
  127.1261  135.6714  163.4001 C   0  0  0  0  0  0  0  0  0  0  0  0
  126.0638  135.6917  162.6144 C   0  0  0  0  0  0  0  0  0  0  0  0
  130.5595  133.3376  156.5953 N   0  0  0  0  0  0  0  0  0  0  0  0
  130.9251  133.9666  155.9538 H   0  0  0  0  0  0  0  0  0  0  0  0
  131.4088  130.2271  155.0287 C   0  0  0  0  0  0  0  0  0  0  0  0
  131.6194  129.5627  153.8389 C   0  0  0  0  0  0  0  0  0  0  0  0
  130.7378  129.6031  150.6709 H   0  0  0  0  0  0  0  0  0  0  0  0
  131.7939  128.5524  151.4480 H   0  0  0  0  0  0  0  0  0  0  0  0
  129.6037  131.3938  151.8258 H   0  0  0  0  0  0  0  0  0  0  0  0
  129.2152  132.5774  153.9459 H   0  0  0  0  0  0  0  0  0  0  0  0
  129.4952  130.4584  157.6322 H   0  0  0  0  0  0  0  0  0  0  0  0
  130.7032  135.6101  157.9359 H   0  0  0  0  0  0  0  0  0  0  0  0
  131.6968  135.3935  161.9770 H   0  0  0  0  0  0  0  0  0  0  0  0
  132.9701  137.6721  161.9092 H   0  0  0  0  0  0  0  0  0  0  0  0
  131.3617  138.0777  162.5831 H   0  0  0  0  0  0  0  0  0  0  0  0
  132.4214  138.5139  159.7735 H   0  0  0  0  0  0  0  0  0  0  0  0
  131.2430  139.4966  160.7069 H   0  0  0  0  0  0  0  0  0  0  0  0
  130.4670  137.6595  158.7627 H   0  0  0  0  0  0  0  0  0  0  0  0
  129.4461  138.0671  160.1747 H   0  0  0  0  0  0  0  0  0  0  0  0
  128.1730  135.0033  157.7926 H   0  0  0  0  0  0  0  0  0  0  0  0
  125.7274  135.2365  157.9078 H   0  0  0  0  0  0  0  0  0  0  0  0
  124.6147  135.5673  160.0738 H   0  0  0  0  0  0  0  0  0  0  0  0
  128.8578  134.5431  162.8179 H   0  0  0  0  0  0  0  0  0  0  0  0
  129.0278  136.3136  162.6346 H   0  0  0  0  0  0  0  0  0  0  0  0
  127.1207  135.7830  164.4743 H   0  0  0  0  0  0  0  0  0  0  0  0
  125.0496  135.8241  162.9610 H   0  0  0  0  0  0  0  0  0  0  0  0
  131.9159  129.9032  155.9255 H   0  0  0  0  0  0  0  0  0  0  0  0
  132.2918  128.7182  153.8040 H   0  0  0  0  0  0  0  0  0  0  0  0
  1  2  1  0
  1 32  1  0
  1 33  1  0
  2 31  2  0
  2  3  1  0
  3  4  2  0
  3 34  1  0
  4  5  1  0
  4 35  1  0
  5  6  1  0
  5 30  2  0
  6 28  1  0
  6  7  2  0
  7  8  1  0
  7 36  1  0
  8  9  1  0
  8 10  1  0
 10 11  1  0
 10 28  2  0
 11 12  1  0
 11 37  1  0
 12 13  1  1
 12 14  1  0
 12 19  1  0
 14 18  1  0
 14 15  2  0
 15 16  1  0
 15 38  1  0
 16 17  1  0
 16 39  1  0
 16 40  1  0
 17 18  1  0
 17 41  1  0
 17 42  1  0
 18 43  1  0
 18 44  1  0
 19 24  1  0
 19 20  2  0
 20 21  1  0
 20 45  1  0
 21 22  2  0
 21 46  1  0
 22 23  1  0
 22 47  1  0
 23 27  1  0
 23 24  2  0
 24 25  1  0
 25 26  1  0
 25 48  1  0
 25 49  1  0
 26 27  2  0
 26 50  1  0
 27 51  1  0
 28 29  1  0
 30 31  1  0
 30 52  1  0
 31 53  1  0
M  CHG  1  28   1
M  END
>  <DOCK_score>  (1) 
-57.180981

>  <SMILES>  (1) 
Nc1ccc(-c2c[nH]c(N[C@@H](C3=CCCC3)c3cccc4c3CC=C4)[nH+]2)cc1

$$$$
