OCc1c[nH+]c(Nc2ccc(Nc3ccccc3)cc2)[nH]1
     RDKit          3D

 38 40  0  0  1  0  0  0  0  0999 V2000
  131.4771  132.1852  154.8227 O   0  0  0  0  0  0  0  0  0  0  0  0
  130.2011  131.8336  155.3615 C   0  0  0  0  0  0  0  0  0  0  0  0
  129.9485  132.6300  156.6157 C   0  0  0  0  0  0  0  0  0  0  0  0
  129.4630  132.1599  157.7775 C   0  0  0  0  0  0  0  0  0  0  0  0
  129.3848  133.1813  158.6469 N   0  0  0  0  0  0  0  0  0  0  0  0
  129.0664  133.1172  159.5609 H   0  0  0  0  0  0  0  0  0  0  0  0
  129.8121  134.2781  158.0670 C   0  0  0  0  0  0  0  0  0  0  0  0
  129.8838  135.5306  158.6550 N   0  0  0  0  0  0  0  0  0  0  0  0
  128.9737  135.8862  159.6580 C   0  0  0  0  0  0  0  0  0  0  0  0
  129.3522  136.7755  160.6556 C   0  0  0  0  0  0  0  0  0  0  0  0
  128.4534  137.1298  161.6418 C   0  0  0  0  0  0  0  0  0  0  0  0
  127.1740  136.5889  161.6423 C   0  0  0  0  0  0  0  0  0  0  0  0
  126.2643  136.9444  162.6449 N   0  0  0  0  0  0  0  0  0  0  0  0
  126.7264  137.2859  163.9181 C   0  0  0  0  0  0  0  0  0  0  0  0
  126.4636  138.5467  164.4392 C   0  0  0  0  0  0  0  0  0  0  0  0
  126.9179  138.8793  165.7002 C   0  0  0  0  0  0  0  0  0  0  0  0
  127.6422  137.9626  166.4401 C   0  0  0  0  0  0  0  0  0  0  0  0
  127.9101  136.7085  165.9223 C   0  0  0  0  0  0  0  0  0  0  0  0
  127.4549  136.3675  164.6639 C   0  0  0  0  0  0  0  0  0  0  0  0
  126.7973  135.6957  160.6476 C   0  0  0  0  0  0  0  0  0  0  0  0
  127.6945  135.3454  159.6585 C   0  0  0  0  0  0  0  0  0  0  0  0
  130.1704  133.9771  156.7893 N   0  0  0  0  0  0  0  0  0  0  0  0
  130.5198  134.5943  156.1275 H   0  0  0  0  0  0  0  0  0  0  0  0
  131.5615  133.1197  154.5892 H   0  0  0  0  0  0  0  0  0  0  0  0
  130.1872  130.7696  155.5978 H   0  0  0  0  0  0  0  0  0  0  0  0
  129.4243  132.0533  154.6290 H   0  0  0  0  0  0  0  0  0  0  0  0
  129.1832  131.1362  157.9779 H   0  0  0  0  0  0  0  0  0  0  0  0
  130.5645  136.1610  158.3720 H   0  0  0  0  0  0  0  0  0  0  0  0
  130.3484  137.1926  160.6576 H   0  0  0  0  0  0  0  0  0  0  0  0
  128.7463  137.8245  162.4151 H   0  0  0  0  0  0  0  0  0  0  0  0
  125.3131  136.9538  162.4556 H   0  0  0  0  0  0  0  0  0  0  0  0
  125.9015  139.2645  163.8603 H   0  0  0  0  0  0  0  0  0  0  0  0
  126.7108  139.8580  166.1075 H   0  0  0  0  0  0  0  0  0  0  0  0
  127.9999  138.2267  167.4243 H   0  0  0  0  0  0  0  0  0  0  0  0
  128.4765  135.9950  166.5027 H   0  0  0  0  0  0  0  0  0  0  0  0
  127.6651  135.3882  164.2599 H   0  0  0  0  0  0  0  0  0  0  0  0
  125.8027  135.2748  160.6482 H   0  0  0  0  0  0  0  0  0  0  0  0
  127.4017  134.6506  158.8853 H   0  0  0  0  0  0  0  0  0  0  0  0
  1  2  1  0
  1 24  1  0
  2  3  1  0
  2 25  1  0
  2 26  1  0
  3 22  1  0
  3  4  2  0
  4  5  1  0
  4 27  1  0
  5  6  1  0
  5  7  2  0
  7  8  1  0
  7 22  1  0
  8  9  1  0
  8 28  1  0
  9 21  1  0
  9 10  2  0
 10 11  1  0
 10 29  1  0
 11 12  2  0
 11 30  1  0
 12 13  1  0
 12 20  1  0
 13 14  1  0
 13 31  1  0
 14 19  1  0
 14 15  2  0
 15 16  1  0
 15 32  1  0
 16 17  2  0
 16 33  1  0
 17 18  1  0
 17 34  1  0
 18 19  2  0
 18 35  1  0
 19 36  1  0
 20 21  2  0
 20 37  1  0
 21 38  1  0
 22 23  1  0
M  CHG  1   5   1
M  END
>  <DOCK_score>  (1) 
-43.81197

>  <SMILES>  (1) 
OCc1c[nH+]c(Nc2ccc(Nc3ccccc3)cc2)[nH]1

$$$$
