CC1(C)C([NH2+]C2c3ccccc3-c3ccc(O)cc32)C[C@H]1Oc1c[nH]c2ccccc12
     RDKit          3D

 58 63  0  0  1  0  0  0  0  0999 V2000
  132.4375  134.8946  160.5327 C   0  0  0  0  0  0  0  0  0  0  0  0
  131.9184  135.5895  161.7930 C   0  0  0  0  0  0  0  0  0  0  0  0
  132.5522  135.0477  163.0758 C   0  0  0  0  0  0  0  0  0  0  0  0
  131.9317  137.1244  161.7000 C   0  0  2  0  0  0  0  0  0  0  0  0
  133.0053  137.7521  162.4819 N   0  0  0  0  0  0  0  0  0  0  0  0
  133.8488  137.2055  162.3942 H   0  0  0  0  0  0  0  0  0  0  0  0
  132.7328  137.7965  163.4524 H   0  0  0  0  0  0  0  0  0  0  0  0
  133.2476  139.1107  161.9786 C   0  0  1  0  0  0  0  0  0  0  0  0
  134.0323  139.9078  162.9915 C   0  0  0  0  0  0  0  0  0  0  0  0
  133.7589  140.2777  164.2915 C   0  0  0  0  0  0  0  0  0  0  0  0
  134.6770  141.0260  165.0064 C   0  0  0  0  0  0  0  0  0  0  0  0
  135.8708  141.4052  164.4189 C   0  0  0  0  0  0  0  0  0  0  0  0
  136.1525  141.0403  163.1190 C   0  0  0  0  0  0  0  0  0  0  0  0
  135.2309  140.2842  162.3918 C   0  0  0  0  0  0  0  0  0  0  0  0
  135.2742  139.7623  161.0034 C   0  0  0  0  0  0  0  0  0  0  0  0
  136.2509  139.8721  160.0109 C   0  0  0  0  0  0  0  0  0  0  0  0
  136.0511  139.2880  158.7789 C   0  0  0  0  0  0  0  0  0  0  0  0
  134.8799  138.5889  158.5190 C   0  0  0  0  0  0  0  0  0  0  0  0
  134.6865  138.0149  157.3029 O   0  0  0  0  0  0  0  0  0  0  0  0
  133.9060  138.4770  159.5026 C   0  0  0  0  0  0  0  0  0  0  0  0
  134.1022  139.0597  160.7357 C   0  0  0  0  0  0  0  0  0  0  0  0
  130.5751  137.1016  162.4241 C   0  0  0  0  0  0  0  0  0  0  0  0
  130.3848  135.6852  161.8564 C   0  0  1  0  0  0  0  0  0  0  0  0
  129.9328  134.9888  162.5626 H   0  0  0  0  0  0  0  0  0  0  0  0
  129.7563  135.6622  160.5733 O   0  0  0  0  0  0  0  0  0  0  0  0
  128.3967  135.7433  160.5490 C   0  0  0  0  0  0  0  0  0  0  0  0
  127.5821  135.8429  161.6141 C   0  0  0  0  0  0  0  0  0  0  0  0
  126.2740  135.9031  161.1957 N   0  0  0  0  0  0  0  0  0  0  0  0
  125.5042  135.9779  161.7811 H   0  0  0  0  0  0  0  0  0  0  0  0
  126.2199  135.8418  159.8215 C   0  0  0  0  0  0  0  0  0  0  0  0
  125.1741  135.8624  158.9036 C   0  0  0  0  0  0  0  0  0  0  0  0
  125.4464  135.7975  157.5549 C   0  0  0  0  0  0  0  0  0  0  0  0
  126.7547  135.6986  157.1005 C   0  0  0  0  0  0  0  0  0  0  0  0
  127.7960  135.6721  157.9843 C   0  0  0  0  0  0  0  0  0  0  0  0
  127.5438  135.7448  159.3557 C   0  0  0  0  0  0  0  0  0  0  0  0
  133.4672  135.2004  160.3473 H   0  0  0  0  0  0  0  0  0  0  0  0
  132.3986  133.8142  160.6713 H   0  0  0  0  0  0  0  0  0  0  0  0
  131.8166  135.1744  159.6816 H   0  0  0  0  0  0  0  0  0  0  0  0
  132.0084  135.4306  163.9396 H   0  0  0  0  0  0  0  0  0  0  0  0
  132.5068  133.9587  163.0717 H   0  0  0  0  0  0  0  0  0  0  0  0
  133.5926  135.3678  163.1303 H   0  0  0  0  0  0  0  0  0  0  0  0
  131.8766  137.5005  160.6784 H   0  0  0  0  0  0  0  0  0  0  0  0
  132.3004  139.6051  161.7627 H   0  0  0  0  0  0  0  0  0  0  0  0
  132.8275  139.9827  164.7520 H   0  0  0  0  0  0  0  0  0  0  0  0
  134.4614  141.3149  166.0245 H   0  0  0  0  0  0  0  0  0  0  0  0
  136.5847  141.9897  164.9802 H   0  0  0  0  0  0  0  0  0  0  0  0
  137.0853  141.3389  162.6640 H   0  0  0  0  0  0  0  0  0  0  0  0
  137.1613  140.4188  160.2076 H   0  0  0  0  0  0  0  0  0  0  0  0
  136.8077  139.3741  158.0132 H   0  0  0  0  0  0  0  0  0  0  0  0
  133.8425  137.5507  157.2166 H   0  0  0  0  0  0  0  0  0  0  0  0
  132.9947  137.9337  159.3009 H   0  0  0  0  0  0  0  0  0  0  0  0
  130.6593  137.1291  163.5104 H   0  0  0  0  0  0  0  0  0  0  0  0
  129.8605  137.8273  162.0355 H   0  0  0  0  0  0  0  0  0  0  0  0
  127.9068  135.8721  162.6438 H   0  0  0  0  0  0  0  0  0  0  0  0
  124.1533  135.9408  159.2471 H   0  0  0  0  0  0  0  0  0  0  0  0
  124.6336  135.8174  156.8441 H   0  0  0  0  0  0  0  0  0  0  0  0
  126.9505  135.6420  156.0400 H   0  0  0  0  0  0  0  0  0  0  0  0
  128.8111  135.5947  157.6235 H   0  0  0  0  0  0  0  0  0  0  0  0
  1  2  1  0
  1 36  1  0
  1 37  1  0
  1 38  1  0
  2 23  1  0
  2  3  1  0
  2  4  1  0
  3 39  1  0
  3 40  1  0
  3 41  1  0
  4  5  1  0
  4 22  1  0
  4 42  1  6
  5  6  1  0
  5  7  1  0
  5  8  1  0
  8 21  1  0
  8  9  1  0
  8 43  1  6
  9 14  1  0
  9 10  2  0
 10 11  1  0
 10 44  1  0
 11 12  2  0
 11 45  1  0
 12 13  1  0
 12 46  1  0
 13 14  2  0
 13 47  1  0
 14 15  1  0
 15 21  2  0
 15 16  1  0
 16 17  2  0
 16 48  1  0
 17 18  1  0
 17 49  1  0
 18 19  1  0
 18 20  2  0
 19 50  1  0
 20 21  1  0
 20 51  1  0
 22 23  1  0
 22 52  1  0
 22 53  1  0
 23 24  1  1
 23 25  1  0
 25 26  1  0
 26 35  1  0
 26 27  2  0
 27 28  1  0
 27 54  1  0
 28 29  1  0
 28 30  1  0
 30 35  2  0
 30 31  1  0
 31 32  2  0
 31 55  1  0
 32 33  1  0
 32 56  1  0
 33 34  2  0
 33 57  1  0
 34 35  1  0
 34 58  1  0
M  CHG  1   5   1
M  END
>  <DOCK_score>  (1) 
-45.50177

>  <SMILES>  (1) 
CC1(C)C([NH2+]C2c3ccccc3-c3ccc(O)cc32)C[C@H]1Oc1c[nH]c2ccccc12

$$$$
