C=CCc1c(C2=CCC=CC2)cccc1N1CC[NH+](C(c2ccccc2)c2ccccc2)CC1
     RDKit          3D

 69 73  0  0  1  0  0  0  0  0999 V2000
  131.5204  134.5128  163.5605 C   0  0  0  0  0  0  0  0  0  0  0  0
  132.1593  135.6256  163.8241 C   0  0  0  0  0  0  0  0  0  0  0  0
  133.6621  135.6234  163.9357 C   0  0  0  0  0  0  0  0  0  0  0  0
  134.2439  136.5541  162.9029 C   0  0  0  0  0  0  0  0  0  0  0  0
  135.2552  137.4466  163.2563 C   0  0  0  0  0  0  0  0  0  0  0  0
  135.7602  137.4830  164.6451 C   0  0  0  0  0  0  0  0  0  0  0  0
  136.7658  136.7015  164.9716 C   0  0  0  0  0  0  0  0  0  0  0  0
  137.3509  136.6709  166.3518 C   0  0  0  0  0  0  0  0  0  0  0  0
  136.3896  137.2265  167.3588 C   0  0  0  0  0  0  0  0  0  0  0  0
  135.3940  137.9939  167.0376 C   0  0  0  0  0  0  0  0  0  0  0  0
  135.1012  138.4053  165.6264 C   0  0  0  0  0  0  0  0  0  0  0  0
  135.7935  138.3011  162.2931 C   0  0  0  0  0  0  0  0  0  0  0  0
  135.3161  138.2697  160.9982 C   0  0  0  0  0  0  0  0  0  0  0  0
  134.3099  137.3893  160.6490 C   0  0  0  0  0  0  0  0  0  0  0  0
  133.7713  136.5297  161.5997 C   0  0  0  0  0  0  0  0  0  0  0  0
  132.7545  135.6411  161.2419 N   0  0  0  0  0  0  0  0  0  0  0  0
  133.2303  134.6692  160.2474 C   0  0  0  0  0  0  0  0  0  0  0  0
  132.1073  133.6800  159.9274 C   0  0  0  0  0  0  0  0  0  0  0  0
  130.9447  134.4108  159.4060 N   0  0  0  0  0  0  0  0  0  0  0  0
  131.2100  134.9142  158.5728 H   0  0  0  0  0  0  0  0  0  0  0  0
  129.8736  133.4591  159.0822 C   0  0  0  0  0  0  0  0  0  0  0  0
  128.6806  134.2086  158.5473 C   0  0  0  0  0  0  0  0  0  0  0  0
  127.4064  133.7084  158.7405 C   0  0  0  0  0  0  0  0  0  0  0  0
  126.3120  134.3985  158.2541 C   0  0  0  0  0  0  0  0  0  0  0  0
  126.4921  135.5834  157.5652 C   0  0  0  0  0  0  0  0  0  0  0  0
  127.7665  136.0808  157.3673 C   0  0  0  0  0  0  0  0  0  0  0  0
  128.8609  135.3935  157.8584 C   0  0  0  0  0  0  0  0  0  0  0  0
  130.3638  132.4862  158.0410 C   0  0  0  0  0  0  0  0  0  0  0  0
  130.1961  132.7683  156.6981 C   0  0  0  0  0  0  0  0  0  0  0  0
  130.6501  131.8780  155.7429 C   0  0  0  0  0  0  0  0  0  0  0  0
  131.2625  130.7010  156.1308 C   0  0  0  0  0  0  0  0  0  0  0  0
  131.4256  130.4165  157.4737 C   0  0  0  0  0  0  0  0  0  0  0  0
  130.9763  131.3092  158.4288 C   0  0  0  0  0  0  0  0  0  0  0  0
  130.4660  135.3600  160.4197 C   0  0  0  0  0  0  0  0  0  0  0  0
  131.5753  136.3630  160.7437 C   0  0  0  0  0  0  0  0  0  0  0  0
  132.0707  133.5938  163.4231 H   0  0  0  0  0  0  0  0  0  0  0  0
  130.4430  134.5135  163.4849 H   0  0  0  0  0  0  0  0  0  0  0  0
  131.6090  136.5447  163.9615 H   0  0  0  0  0  0  0  0  0  0  0  0
  133.9529  135.9584  164.9313 H   0  0  0  0  0  0  0  0  0  0  0  0
  134.0375  134.6141  163.7677 H   0  0  0  0  0  0  0  0  0  0  0  0
  137.1900  136.0589  164.2144 H   0  0  0  0  0  0  0  0  0  0  0  0
  138.2667  137.2619  166.3683 H   0  0  0  0  0  0  0  0  0  0  0  0
  137.5866  135.6396  166.6140 H   0  0  0  0  0  0  0  0  0  0  0  0
  136.5324  136.9762  168.3997 H   0  0  0  0  0  0  0  0  0  0  0  0
  134.7462  138.3531  167.8238 H   0  0  0  0  0  0  0  0  0  0  0  0
  135.4686  139.4189  165.4663 H   0  0  0  0  0  0  0  0  0  0  0  0
  134.0234  138.3865  165.4660 H   0  0  0  0  0  0  0  0  0  0  0  0
  136.5800  138.9906  162.5620 H   0  0  0  0  0  0  0  0  0  0  0  0
  135.7308  138.9352  160.2555 H   0  0  0  0  0  0  0  0  0  0  0  0
  133.9404  137.3692  159.6344 H   0  0  0  0  0  0  0  0  0  0  0  0
  133.5233  135.1935  159.3378 H   0  0  0  0  0  0  0  0  0  0  0  0
  134.0877  134.1287  160.6482 H   0  0  0  0  0  0  0  0  0  0  0  0
  131.8240  133.1463  160.8345 H   0  0  0  0  0  0  0  0  0  0  0  0
  132.4535  132.9669  159.1793 H   0  0  0  0  0  0  0  0  0  0  0  0
  129.5870  132.9146  159.9819 H   0  0  0  0  0  0  0  0  0  0  0  0
  127.2660  132.7805  159.2749 H   0  0  0  0  0  0  0  0  0  0  0  0
  125.3162  134.0095  158.4083 H   0  0  0  0  0  0  0  0  0  0  0  0
  125.6372  136.1200  157.1812 H   0  0  0  0  0  0  0  0  0  0  0  0
  127.9073  137.0063  156.8287 H   0  0  0  0  0  0  0  0  0  0  0  0
  129.8566  135.7819  157.7033 H   0  0  0  0  0  0  0  0  0  0  0  0
  129.7136  133.6857  156.3952 H   0  0  0  0  0  0  0  0  0  0  0  0
  130.5224  132.1000  154.6938 H   0  0  0  0  0  0  0  0  0  0  0  0
  131.6133  130.0034  155.3846 H   0  0  0  0  0  0  0  0  0  0  0  0
  131.9038  129.4968  157.7767 H   0  0  0  0  0  0  0  0  0  0  0  0
  131.1034  131.0868  159.4780 H   0  0  0  0  0  0  0  0  0  0  0  0
  130.1911  134.8176  161.3243 H   0  0  0  0  0  0  0  0  0  0  0  0
  129.5954  135.8922  160.0366 H   0  0  0  0  0  0  0  0  0  0  0  0
  131.2254  137.0585  161.5066 H   0  0  0  0  0  0  0  0  0  0  0  0
  131.8410  136.9153  159.8421 H   0  0  0  0  0  0  0  0  0  0  0  0
  1  2  2  0
  1 36  1  0
  1 37  1  0
  2  3  1  0
  2 38  1  0
  3  4  1  0
  3 39  1  0
  3 40  1  0
  4 15  2  0
  4  5  1  0
  5  6  1  0
  5 12  2  0
  6 11  1  0
  6  7  2  0
  7  8  1  0
  7 41  1  0
  8  9  1  0
  8 42  1  0
  8 43  1  0
  9 10  2  0
  9 44  1  0
 10 11  1  0
 10 45  1  0
 11 46  1  0
 11 47  1  0
 12 13  1  0
 12 48  1  0
 13 14  2  0
 13 49  1  0
 14 15  1  0
 14 50  1  0
 15 16  1  0
 16 35  1  0
 16 17  1  0
 17 18  1  0
 17 51  1  0
 17 52  1  0
 18 19  1  0
 18 53  1  0
 18 54  1  0
 19 20  1  0
 19 21  1  0
 19 34  1  0
 21 22  1  0
 21 28  1  0
 21 55  1  0
 22 27  1  0
 22 23  2  0
 23 24  1  0
 23 56  1  0
 24 25  2  0
 24 57  1  0
 25 26  1  0
 25 58  1  0
 26 27  2  0
 26 59  1  0
 27 60  1  0
 28 33  1  0
 28 29  2  0
 29 30  1  0
 29 61  1  0
 30 31  2  0
 30 62  1  0
 31 32  1  0
 31 63  1  0
 32 33  2  0
 32 64  1  0
 33 65  1  0
 34 35  1  0
 34 66  1  0
 34 67  1  0
 35 68  1  0
 35 69  1  0
M  CHG  1  19   1
M  END
>  <DOCK_score>  (1) 
-55.954517

>  <SMILES>  (1) 
C=CCc1c(C2=CCC=CC2)cccc1N1CC[NH+](C(c2ccccc2)c2ccccc2)CC1

$$$$
