Cc1ccccc1C[C@H](C)[NH2+]C1=CCN(Cc2cnn3ccccc23)CC1
     RDKit          3D

 56 59  0  0  1  0  0  0  0  0999 V2000
  131.0447  132.1348  154.9749 C   0  0  0  0  0  0  0  0  0  0  0  0
  130.9190  131.5565  156.3609 C   0  0  0  0  0  0  0  0  0  0  0  0
  131.4931  130.3334  156.6541 C   0  0  0  0  0  0  0  0  0  0  0  0
  131.3730  129.8003  157.9237 C   0  0  0  0  0  0  0  0  0  0  0  0
  130.6833  130.4926  158.9017 C   0  0  0  0  0  0  0  0  0  0  0  0
  130.1144  131.7180  158.6101 C   0  0  0  0  0  0  0  0  0  0  0  0
  130.2345  132.2512  157.3401 C   0  0  0  0  0  0  0  0  0  0  0  0
  129.6137  133.5871  157.0220 C   0  0  0  0  0  0  0  0  0  0  0  0
  129.5978  134.4551  158.2819 C   0  0  2  0  0  0  0  0  0  0  0  0
  129.0146  133.9588  159.0575 H   0  0  0  0  0  0  0  0  0  0  0  0
  128.9675  135.8112  157.9588 C   0  0  0  0  0  0  0  0  0  0  0  0
  130.9736  134.6550  158.7561 N   0  0  0  0  0  0  0  0  0  0  0  0
  131.4158  135.3790  158.2099 H   0  0  0  0  0  0  0  0  0  0  0  0
  131.4919  133.7950  158.6570 H   0  0  0  0  0  0  0  0  0  0  0  0
  130.9523  135.0338  160.1017 C   0  0  0  0  0  0  0  0  0  0  0  0
  130.8902  136.2982  160.3896 C   0  0  0  0  0  0  0  0  0  0  0  0
  130.8705  136.8231  161.7961 C   0  0  0  0  0  0  0  0  0  0  0  0
  130.5234  135.7488  162.7351 N   0  0  0  0  0  0  0  0  0  0  0  0
  129.1018  135.3946  162.6278 C   0  0  0  0  0  0  0  0  0  0  0  0
  128.2580  136.6029  162.9426 C   0  0  0  0  0  0  0  0  0  0  0  0
  127.8100  137.5477  162.0336 C   0  0  0  0  0  0  0  0  0  0  0  0
  127.1037  138.4546  162.6718 N   0  0  0  0  0  0  0  0  0  0  0  0
  127.0677  138.1271  164.0329 N   0  0  0  0  0  0  0  0  0  0  0  0
  126.4807  138.7271  165.1098 C   0  0  0  0  0  0  0  0  0  0  0  0
  126.6007  138.1953  166.3440 C   0  0  0  0  0  0  0  0  0  0  0  0
  127.3333  137.0131  166.5412 C   0  0  0  0  0  0  0  0  0  0  0  0
  127.9241  136.4035  165.4778 C   0  0  0  0  0  0  0  0  0  0  0  0
  127.7886  136.9722  164.1969 C   0  0  0  0  0  0  0  0  0  0  0  0
  131.3792  134.5734  162.5020 C   0  0  0  0  0  0  0  0  0  0  0  0
  131.0020  133.9591  161.1514 C   0  0  0  0  0  0  0  0  0  0  0  0
  131.9462  132.7447  154.9160 H   0  0  0  0  0  0  0  0  0  0  0  0
  131.1055  131.3253  154.2475 H   0  0  0  0  0  0  0  0  0  0  0  0
  130.1732  132.7528  154.7587 H   0  0  0  0  0  0  0  0  0  0  0  0
  132.0321  129.7928  155.8902 H   0  0  0  0  0  0  0  0  0  0  0  0
  131.8182  128.8432  158.1518 H   0  0  0  0  0  0  0  0  0  0  0  0
  130.5895  130.0761  159.8938 H   0  0  0  0  0  0  0  0  0  0  0  0
  129.5758  132.2588  159.3742 H   0  0  0  0  0  0  0  0  0  0  0  0
  128.5927  133.4386  156.6701 H   0  0  0  0  0  0  0  0  0  0  0  0
  130.1969  134.0832  156.2462 H   0  0  0  0  0  0  0  0  0  0  0  0
  129.6268  136.3691  157.2937 H   0  0  0  0  0  0  0  0  0  0  0  0
  128.0047  135.6577  157.4714 H   0  0  0  0  0  0  0  0  0  0  0  0
  128.8221  136.3733  158.8813 H   0  0  0  0  0  0  0  0  0  0  0  0
  130.8508  137.0080  159.5765 H   0  0  0  0  0  0  0  0  0  0  0  0
  130.1327  137.6217  161.8727 H   0  0  0  0  0  0  0  0  0  0  0  0
  131.8545  137.2186  162.0479 H   0  0  0  0  0  0  0  0  0  0  0  0
  128.8717  134.5968  163.3340 H   0  0  0  0  0  0  0  0  0  0  0  0
  128.8873  135.0557  161.6143 H   0  0  0  0  0  0  0  0  0  0  0  0
  128.0088  137.5404  160.9721 H   0  0  0  0  0  0  0  0  0  0  0  0
  125.9145  139.6365  164.9722 H   0  0  0  0  0  0  0  0  0  0  0  0
  126.1267  138.6793  167.1851 H   0  0  0  0  0  0  0  0  0  0  0  0
  127.4273  136.5908  167.5307 H   0  0  0  0  0  0  0  0  0  0  0  0
  128.4906  135.4943  165.6148 H   0  0  0  0  0  0  0  0  0  0  0  0
  132.4251  134.8793  162.4859 H   0  0  0  0  0  0  0  0  0  0  0  0
  131.2203  133.8418  163.2942 H   0  0  0  0  0  0  0  0  0  0  0  0
  131.7460  133.2133  160.8718 H   0  0  0  0  0  0  0  0  0  0  0  0
  130.0244  133.4835  161.2297 H   0  0  0  0  0  0  0  0  0  0  0  0
  1  2  1  0
  1 31  1  0
  1 32  1  0
  1 33  1  0
  2  7  2  0
  2  3  1  0
  3  4  2  0
  3 34  1  0
  4  5  1  0
  4 35  1  0
  5  6  2  0
  5 36  1  0
  6  7  1  0
  6 37  1  0
  7  8  1  0
  8  9  1  0
  8 38  1  0
  8 39  1  0
  9 10  1  1
  9 11  1  0
  9 12  1  0
 11 40  1  0
 11 41  1  0
 11 42  1  0
 12 13  1  0
 12 14  1  0
 12 15  1  0
 15 30  1  0
 15 16  2  0
 16 17  1  0
 16 43  1  0
 17 18  1  0
 17 44  1  0
 17 45  1  0
 18 19  1  0
 18 29  1  0
 19 20  1  0
 19 46  1  0
 19 47  1  0
 20 28  2  0
 20 21  1  0
 21 22  2  0
 21 48  1  0
 22 23  1  0
 23 28  1  0
 23 24  1  0
 24 25  2  0
 24 49  1  0
 25 26  1  0
 25 50  1  0
 26 27  2  0
 26 51  1  0
 27 28  1  0
 27 52  1  0
 29 30  1  0
 29 53  1  0
 29 54  1  0
 30 55  1  0
 30 56  1  0
M  CHG  1  12   1
M  END
>  <DOCK_score>  (1) 
-43.723862

>  <SMILES>  (1) 
Cc1ccccc1C[C@H](C)[NH2+]C1=CCN(Cc2cnn3ccccc23)CC1

$$$$
