CC(F)(F)c1ccc(Nc2ccc(Nc3[nH]cc(-c4ccc(N)cc4)[nH+]3)cc2)cc1
     RDKit          3D

 52 55  0  0  1  0  0  0  0  0999 V2000
  129.5309  137.4810  167.4264 C   0  0  0  0  0  0  0  0  0  0  0  0
  128.2548  138.2487  167.0745 C   0  0  0  0  0  0  0  0  0  0  0  0
  128.5214  139.6217  167.0748 F   0  0  0  0  0  0  0  0  0  0  0  0
  127.2645  137.9654  168.0215 F   0  0  0  0  0  0  0  0  0  0  0  0
  127.7769  137.8295  165.7082 C   0  0  0  0  0  0  0  0  0  0  0  0
  127.4507  136.5076  165.4666 C   0  0  0  0  0  0  0  0  0  0  0  0
  127.0133  136.1201  164.2155 C   0  0  0  0  0  0  0  0  0  0  0  0
  126.9010  137.0602  163.1986 C   0  0  0  0  0  0  0  0  0  0  0  0
  126.4587  136.6726  161.9314 N   0  0  0  0  0  0  0  0  0  0  0  0
  127.3817  136.2560  160.9651 C   0  0  0  0  0  0  0  0  0  0  0  0
  127.0067  135.3299  160.0000 C   0  0  0  0  0  0  0  0  0  0  0  0
  127.9185  134.9155  159.0498 C   0  0  0  0  0  0  0  0  0  0  0  0
  129.2081  135.4314  159.0534 C   0  0  0  0  0  0  0  0  0  0  0  0
  130.1315  135.0147  158.0867 N   0  0  0  0  0  0  0  0  0  0  0  0
  130.0470  133.7396  157.5525 C   0  0  0  0  0  0  0  0  0  0  0  0
  129.5734  132.6391  158.1984 N   0  0  0  0  0  0  0  0  0  0  0  0
  129.2368  132.6069  159.1076 H   0  0  0  0  0  0  0  0  0  0  0  0
  129.6575  131.5826  157.3233 C   0  0  0  0  0  0  0  0  0  0  0  0
  130.1869  132.0665  156.1723 C   0  0  0  0  0  0  0  0  0  0  0  0
  130.4667  131.2838  154.9435 C   0  0  0  0  0  0  0  0  0  0  0  0
  129.8418  131.6207  153.7439 C   0  0  0  0  0  0  0  0  0  0  0  0
  130.1074  130.8950  152.6018 C   0  0  0  0  0  0  0  0  0  0  0  0
  130.9883  129.8216  152.6484 C   0  0  0  0  0  0  0  0  0  0  0  0
  131.2514  129.0845  151.4913 N   0  0  0  0  0  0  0  0  0  0  0  0
  131.6088  129.4804  153.8449 C   0  0  0  0  0  0  0  0  0  0  0  0
  131.3506  130.2066  154.9881 C   0  0  0  0  0  0  0  0  0  0  0  0
  130.4153  133.3923  156.3431 N   0  0  0  0  0  0  0  0  0  0  0  0
  130.7915  133.9886  155.6768 H   0  0  0  0  0  0  0  0  0  0  0  0
  129.5819  136.3603  160.0160 C   0  0  0  0  0  0  0  0  0  0  0  0
  128.6714  136.7711  160.9690 C   0  0  0  0  0  0  0  0  0  0  0  0
  127.2351  138.3865  163.4432 C   0  0  0  0  0  0  0  0  0  0  0  0
  127.6673  138.7677  164.6979 C   0  0  0  0  0  0  0  0  0  0  0  0
  130.3024  137.7015  166.6886 H   0  0  0  0  0  0  0  0  0  0  0  0
  129.8762  137.7840  168.4149 H   0  0  0  0  0  0  0  0  0  0  0  0
  129.3231  136.4111  167.4263 H   0  0  0  0  0  0  0  0  0  0  0  0
  127.5382  135.7773  166.2575 H   0  0  0  0  0  0  0  0  0  0  0  0
  126.7590  135.0874  164.0274 H   0  0  0  0  0  0  0  0  0  0  0  0
  125.5120  136.6908  161.7218 H   0  0  0  0  0  0  0  0  0  0  0  0
  126.0026  134.9321  159.9945 H   0  0  0  0  0  0  0  0  0  0  0  0
  127.6279  134.1935  158.3011 H   0  0  0  0  0  0  0  0  0  0  0  0
  130.8303  135.6190  157.7912 H   0  0  0  0  0  0  0  0  0  0  0  0
  129.3622  130.5620  157.5166 H   0  0  0  0  0  0  0  0  0  0  0  0
  129.1534  132.4520  153.7080 H   0  0  0  0  0  0  0  0  0  0  0  0
  129.6272  131.1586  151.6711 H   0  0  0  0  0  0  0  0  0  0  0  0
  131.8669  128.3346  151.5235 H   0  0  0  0  0  0  0  0  0  0  0  0
  130.8193  129.3212  150.6565 H   0  0  0  0  0  0  0  0  0  0  0  0
  132.2932  128.6456  153.8790 H   0  0  0  0  0  0  0  0  0  0  0  0
  131.8330  129.9416  155.9173 H   0  0  0  0  0  0  0  0  0  0  0  0
  130.5845  136.7614  160.0186 H   0  0  0  0  0  0  0  0  0  0  0  0
  128.9620  137.4934  161.7175 H   0  0  0  0  0  0  0  0  0  0  0  0
  127.1532  139.1189  162.6538 H   0  0  0  0  0  0  0  0  0  0  0  0
  127.9235  139.7992  164.8899 H   0  0  0  0  0  0  0  0  0  0  0  0
  1  2  1  0
  1 33  1  0
  1 34  1  0
  1 35  1  0
  2  3  1  0
  2  4  1  0
  2  5  1  0
  5 32  2  0
  5  6  1  0
  6  7  2  0
  6 36  1  0
  7  8  1  0
  7 37  1  0
  8  9  1  0
  8 31  2  0
  9 10  1  0
  9 38  1  0
 10 30  1  0
 10 11  2  0
 11 12  1  0
 11 39  1  0
 12 13  2  0
 12 40  1  0
 13 14  1  0
 13 29  1  0
 14 41  1  0
 15 14  1  0
 15 27  2  0
 15 16  1  0
 16 17  1  0
 16 18  1  0
 18 19  2  0
 18 42  1  0
 19 20  1  0
 19 27  1  0
 20 26  1  0
 20 21  2  0
 21 22  1  0
 21 43  1  0
 22 23  2  0
 22 44  1  0
 23 24  1  0
 23 25  1  0
 24 45  1  0
 24 46  1  0
 25 26  2  0
 25 47  1  0
 26 48  1  0
 27 28  1  0
 29 30  2  0
 29 49  1  0
 30 50  1  0
 31 32  1  0
 31 51  1  0
 32 52  1  0
M  CHG  1  27   1
M  END
>  <DOCK_score>  (1) 
-56.299274

>  <SMILES>  (1) 
CC(F)(F)c1ccc(Nc2ccc(Nc3[nH]cc(-c4ccc(N)cc4)[nH+]3)cc2)cc1

$$$$
