CCc1ccc(-c2c[nH]c(Nc3ccc(Nc4ccc(C)cc4)cc3)[nH+]2)cc1
     RDKit          3D

 53 56  0  0  1  0  0  0  0  0999 V2000
  130.2244  128.1263  151.5791 C   0  0  0  0  0  0  0  0  0  0  0  0
  131.2201  129.2831  151.6844 C   0  0  0  0  0  0  0  0  0  0  0  0
  130.9436  130.0715  152.9386 C   0  0  0  0  0  0  0  0  0  0  0  0
  131.5723  129.7271  154.1214 C   0  0  0  0  0  0  0  0  0  0  0  0
  131.3274  130.4489  155.2719 C   0  0  0  0  0  0  0  0  0  0  0  0
  130.4358  131.5198  155.2429 C   0  0  0  0  0  0  0  0  0  0  0  0
  130.1640  132.2960  156.4774 C   0  0  0  0  0  0  0  0  0  0  0  0
  129.6563  131.8032  157.6345 C   0  0  0  0  0  0  0  0  0  0  0  0
  129.5677  132.8563  158.5115 N   0  0  0  0  0  0  0  0  0  0  0  0
  129.2402  132.8183  159.4237 H   0  0  0  0  0  0  0  0  0  0  0  0
  130.0243  133.9634  157.8642 C   0  0  0  0  0  0  0  0  0  0  0  0
  130.1015  135.2377  158.4012 N   0  0  0  0  0  0  0  0  0  0  0  0
  129.1875  135.6404  159.3826 C   0  0  0  0  0  0  0  0  0  0  0  0
  129.6405  136.0223  160.6387 C   0  0  0  0  0  0  0  0  0  0  0  0
  128.7396  136.4247  161.6044 C   0  0  0  0  0  0  0  0  0  0  0  0
  127.3795  136.4368  161.3235 C   0  0  0  0  0  0  0  0  0  0  0  0
  126.4655  136.8396  162.3041 N   0  0  0  0  0  0  0  0  0  0  0  0
  126.9213  137.2295  163.5656 C   0  0  0  0  0  0  0  0  0  0  0  0
  126.5009  136.5469  164.7001 C   0  0  0  0  0  0  0  0  0  0  0  0
  126.9583  136.9315  165.9449 C   0  0  0  0  0  0  0  0  0  0  0  0
  127.8244  138.0022  166.0645 C   0  0  0  0  0  0  0  0  0  0  0  0
  128.3166  138.4232  167.4252 C   0  0  0  0  0  0  0  0  0  0  0  0
  128.2418  138.6880  164.9378 C   0  0  0  0  0  0  0  0  0  0  0  0
  127.7929  138.3051  163.6893 C   0  0  0  0  0  0  0  0  0  0  0  0
  126.9260  136.0493  160.0690 C   0  0  0  0  0  0  0  0  0  0  0  0
  127.8273  135.6523  159.1015 C   0  0  0  0  0  0  0  0  0  0  0  0
  130.3847  133.6230  156.6506 N   0  0  0  0  0  0  0  0  0  0  0  0
  130.7489  134.2246  155.9824 H   0  0  0  0  0  0  0  0  0  0  0  0
  129.8006  131.8589  154.0494 C   0  0  0  0  0  0  0  0  0  0  0  0
  130.0576  131.1336  152.9039 C   0  0  0  0  0  0  0  0  0  0  0  0
  130.4244  127.5562  150.6719 H   0  0  0  0  0  0  0  0  0  0  0  0
  130.3302  127.4761  152.4476 H   0  0  0  0  0  0  0  0  0  0  0  0
  129.2096  128.5221  151.5431 H   0  0  0  0  0  0  0  0  0  0  0  0
  132.2347  128.8875  151.7202 H   0  0  0  0  0  0  0  0  0  0  0  0
  131.1140  129.9336  150.8157 H   0  0  0  0  0  0  0  0  0  0  0  0
  132.2596  128.8943  154.1436 H   0  0  0  0  0  0  0  0  0  0  0  0
  131.8221  130.1817  156.1938 H   0  0  0  0  0  0  0  0  0  0  0  0
  129.3754  130.7787  157.8290 H   0  0  0  0  0  0  0  0  0  0  0  0
  130.7888  135.8512  158.0975 H   0  0  0  0  0  0  0  0  0  0  0  0
  130.6978  136.0087  160.8586 H   0  0  0  0  0  0  0  0  0  0  0  0
  129.0923  136.7263  162.5796 H   0  0  0  0  0  0  0  0  0  0  0  0
  125.5156  136.8479  162.1078 H   0  0  0  0  0  0  0  0  0  0  0  0
  125.8203  135.7135  164.6078 H   0  0  0  0  0  0  0  0  0  0  0  0
  126.6350  136.3984  166.8268 H   0  0  0  0  0  0  0  0  0  0  0  0
  127.6348  139.1631  167.8452 H   0  0  0  0  0  0  0  0  0  0  0  0
  128.3587  137.5543  168.0813 H   0  0  0  0  0  0  0  0  0  0  0  0
  129.3121  138.8582  167.3335 H   0  0  0  0  0  0  0  0  0  0  0  0
  128.9190  139.5237  165.0347 H   0  0  0  0  0  0  0  0  0  0  0  0
  128.1188  138.8407  162.8099 H   0  0  0  0  0  0  0  0  0  0  0  0
  125.8684  136.0591  159.8504 H   0  0  0  0  0  0  0  0  0  0  0  0
  127.4747  135.3508  158.1263 H   0  0  0  0  0  0  0  0  0  0  0  0
  129.1086  132.6877  154.0214 H   0  0  0  0  0  0  0  0  0  0  0  0
  129.5663  131.3958  151.9784 H   0  0  0  0  0  0  0  0  0  0  0  0
  1  2  1  0
  1 31  1  0
  1 32  1  0
  1 33  1  0
  2  3  1  0
  2 34  1  0
  2 35  1  0
  3 30  2  0
  3  4  1  0
  4  5  2  0
  4 36  1  0
  5  6  1  0
  5 37  1  0
  6  7  1  0
  6 29  2  0
  7 27  1  0
  7  8  2  0
  8  9  1  0
  8 38  1  0
  9 10  1  0
  9 11  1  0
 11 12  1  0
 11 27  2  0
 12 13  1  0
 12 39  1  0
 13 26  1  0
 13 14  2  0
 14 15  1  0
 14 40  1  0
 15 16  2  0
 15 41  1  0
 16 17  1  0
 16 25  1  0
 17 18  1  0
 17 42  1  0
 18 24  1  0
 18 19  2  0
 19 20  1  0
 19 43  1  0
 20 21  2  0
 20 44  1  0
 21 22  1  0
 21 23  1  0
 22 45  1  0
 22 46  1  0
 22 47  1  0
 23 24  2  0
 23 48  1  0
 24 49  1  0
 25 26  2  0
 25 50  1  0
 26 51  1  0
 27 28  1  0
 29 30  1  0
 29 52  1  0
 30 53  1  0
M  CHG  1  27   1
M  END
>  <DOCK_score>  (1) 
-57.30294

>  <SMILES>  (1) 
CCc1ccc(-c2c[nH]c(Nc3ccc(Nc4ccc(C)cc4)cc3)[nH+]2)cc1

$$$$
