Brc1ccc(Nc2ccc(NC3=[NH+]CCN3)cc2)cc1
     RDKit          3D

 36 38  0  0  0  0  0  0  0  0999 V2000
  127.3178  138.1032  168.1392 Br  0  0  0  0  0  0  0  0  0  0  0  0
  126.9230  137.6140  166.3557 C   0  0  0  0  0  0  0  0  0  0  0  0
  127.2634  136.3551  165.8937 C   0  0  0  0  0  0  0  0  0  0  0  0
  126.9720  135.9933  164.5931 C   0  0  0  0  0  0  0  0  0  0  0  0
  126.3463  136.8987  163.7453 C   0  0  0  0  0  0  0  0  0  0  0  0
  126.0549  136.5382  162.4269 N   0  0  0  0  0  0  0  0  0  0  0  0
  127.0882  136.1704  161.5579 C   0  0  0  0  0  0  0  0  0  0  0  0
  126.8472  135.2570  160.5393 C   0  0  0  0  0  0  0  0  0  0  0  0
  127.8654  134.8989  159.6783 C   0  0  0  0  0  0  0  0  0  0  0  0
  129.1328  135.4431  159.8375 C   0  0  0  0  0  0  0  0  0  0  0  0
  130.1678  135.0750  158.9668 N   0  0  0  0  0  0  0  0  0  0  0  0
  130.1746  133.8287  158.3996 C   0  0  0  0  0  0  0  0  0  0  0  0
  129.6573  132.7680  158.9982 N   0  0  0  0  0  0  0  0  0  0  0  0
  129.2347  132.7662  159.8712 H   0  0  0  0  0  0  0  0  0  0  0  0
  129.8220  131.5924  158.1289 C   0  0  0  0  0  0  0  0  0  0  0  0
  130.5499  132.1588  156.8931 C   0  0  0  0  0  0  0  0  0  0  0  0
  130.7040  133.5871  157.2112 N   0  0  0  0  0  0  0  0  0  0  0  0
  129.3752  136.3521  160.8587 C   0  0  0  0  0  0  0  0  0  0  0  0
  128.3559  136.7148  161.7165 C   0  0  0  0  0  0  0  0  0  0  0  0
  126.0106  138.1639  164.2106 C   0  0  0  0  0  0  0  0  0  0  0  0
  126.2994  138.5179  165.5138 C   0  0  0  0  0  0  0  0  0  0  0  0
  127.7537  135.6532  166.5519 H   0  0  0  0  0  0  0  0  0  0  0  0
  127.2342  135.0090  164.2342 H   0  0  0  0  0  0  0  0  0  0  0  0
  125.1366  136.5413  162.1151 H   0  0  0  0  0  0  0  0  0  0  0  0
  125.8624  134.8303  160.4182 H   0  0  0  0  0  0  0  0  0  0  0  0
  127.6771  134.1918  158.8840 H   0  0  0  0  0  0  0  0  0  0  0  0
  130.8792  135.7031  158.7662 H   0  0  0  0  0  0  0  0  0  0  0  0
  128.8529  131.1798  157.8481 H   0  0  0  0  0  0  0  0  0  0  0  0
  130.4337  130.8369  158.6220 H   0  0  0  0  0  0  0  0  0  0  0  0
  129.9433  132.0284  155.9970 H   0  0  0  0  0  0  0  0  0  0  0  0
  131.5240  131.6861  156.7681 H   0  0  0  0  0  0  0  0  0  0  0  0
  131.1271  134.2472  156.6401 H   0  0  0  0  0  0  0  0  0  0  0  0
  130.3609  136.7757  160.9819 H   0  0  0  0  0  0  0  0  0  0  0  0
  128.5445  137.4222  162.5105 H   0  0  0  0  0  0  0  0  0  0  0  0
  125.5244  138.8701  163.5538 H   0  0  0  0  0  0  0  0  0  0  0  0
  126.0386  139.5013  165.8762 H   0  0  0  0  0  0  0  0  0  0  0  0
  1  2  1  0
  2 21  2  0
  2  3  1  0
  3  4  2  0
  3 22  1  0
  4  5  1  0
  4 23  1  0
  5  6  1  0
  5 20  2  0
  6  7  1  0
  6 24  1  0
  7 19  1  0
  7  8  2  0
  8  9  1  0
  8 25  1  0
  9 10  2  0
  9 26  1  0
 10 11  1  0
 10 18  1  0
 11 12  1  0
 11 27  1  0
 12 17  2  0
 12 13  1  0
 13 14  1  0
 13 15  1  0
 15 16  1  0
 15 28  1  0
 15 29  1  0
 16 17  1  0
 16 30  1  0
 16 31  1  0
 17 32  1  0
 18 19  2  0
 18 33  1  0
 19 34  1  0
 20 21  1  0
 20 35  1  0
 21 36  1  0
M  CHG  1  17   1
M  END
>  <DOCK_score>  (1) 
-41.224827

>  <SMILES>  (1) 
Brc1ccc(Nc2ccc(NC3=[NH+]CCN3)cc2)cc1

$$$$
