CCc1ccc(-c2c[nH]c(N[C@@H](CF)c3cccc4ccccc34)[nH+]2)cc1
     RDKit          3D

 50 53  0  0  1  0  0  0  0  0999 V2000
  130.5556  128.8862  151.9021 C   0  0  0  0  0  0  0  0  0  0  0  0
  131.7927  129.6051  152.4439 C   0  0  0  0  0  0  0  0  0  0  0  0
  131.4143  130.4070  153.6625 C   0  0  0  0  0  0  0  0  0  0  0  0
  131.4849  129.8287  154.9172 C   0  0  0  0  0  0  0  0  0  0  0  0
  131.1442  130.5598  156.0370 C   0  0  0  0  0  0  0  0  0  0  0  0
  130.7181  131.8799  155.9010 C   0  0  0  0  0  0  0  0  0  0  0  0
  130.3457  132.6693  157.1003 C   0  0  0  0  0  0  0  0  0  0  0  0
  129.8297  132.1746  158.2527 C   0  0  0  0  0  0  0  0  0  0  0  0
  129.6347  133.2434  159.0933 N   0  0  0  0  0  0  0  0  0  0  0  0
  129.2757  133.2080  159.9937 H   0  0  0  0  0  0  0  0  0  0  0  0
  130.0375  134.3610  158.4294 C   0  0  0  0  0  0  0  0  0  0  0  0
  130.0041  135.6516  158.9290 N   0  0  0  0  0  0  0  0  0  0  0  0
  129.5024  135.9003  160.2827 C   0  0  1  0  0  0  0  0  0  0  0  0
  128.4684  135.5633  160.3548 H   0  0  0  0  0  0  0  0  0  0  0  0
  130.3597  135.1352  161.2930 C   0  0  0  0  0  0  0  0  0  0  0  0
  129.9583  133.7954  161.3249 F   0  0  0  0  0  0  0  0  0  0  0  0
  129.5718  137.3760  160.5809 C   0  0  0  0  0  0  0  0  0  0  0  0
  130.5336  138.1464  160.0028 C   0  0  0  0  0  0  0  0  0  0  0  0
  130.6131  139.5123  160.2661 C   0  0  0  0  0  0  0  0  0  0  0  0
  129.7311  140.1161  161.1091 C   0  0  0  0  0  0  0  0  0  0  0  0
  128.7245  139.3534  161.7247 C   0  0  0  0  0  0  0  0  0  0  0  0
  127.7957  139.9414  162.6004 C   0  0  0  0  0  0  0  0  0  0  0  0
  126.8238  139.1741  163.1653 C   0  0  0  0  0  0  0  0  0  0  0  0
  126.7445  137.8076  162.9023 C   0  0  0  0  0  0  0  0  0  0  0  0
  127.6297  137.2030  162.0638 C   0  0  0  0  0  0  0  0  0  0  0  0
  128.6404  137.9648  161.4526 C   0  0  0  0  0  0  0  0  0  0  0  0
  130.4665  134.0134  157.2407 N   0  0  0  0  0  0  0  0  0  0  0  0
  130.8132  134.6202  156.5681 H   0  0  0  0  0  0  0  0  0  0  0  0
  130.6439  132.4557  154.6339 C   0  0  0  0  0  0  0  0  0  0  0  0
  130.9922  131.7167  153.5216 C   0  0  0  0  0  0  0  0  0  0  0  0
  130.1589  128.2190  152.6673 H   0  0  0  0  0  0  0  0  0  0  0  0
  129.7973  129.6212  151.6324 H   0  0  0  0  0  0  0  0  0  0  0  0
  130.8294  128.3063  151.0208 H   0  0  0  0  0  0  0  0  0  0  0  0
  132.5511  128.8701  152.7138 H   0  0  0  0  0  0  0  0  0  0  0  0
  132.1894  130.2724  151.6788 H   0  0  0  0  0  0  0  0  0  0  0  0
  131.8109  128.8043  155.0208 H   0  0  0  0  0  0  0  0  0  0  0  0
  131.2038  130.1088  157.0164 H   0  0  0  0  0  0  0  0  0  0  0  0
  129.6133  131.1387  158.4682 H   0  0  0  0  0  0  0  0  0  0  0  0
  130.3126  136.3913  158.3826 H   0  0  0  0  0  0  0  0  0  0  0  0
  131.4076  135.1936  160.9983 H   0  0  0  0  0  0  0  0  0  0  0  0
  130.2354  135.5754  162.2822 H   0  0  0  0  0  0  0  0  0  0  0  0
  131.2461  137.6920  159.3302 H   0  0  0  0  0  0  0  0  0  0  0  0
  131.3862  140.1008  159.7946 H   0  0  0  0  0  0  0  0  0  0  0  0
  129.8047  141.1759  161.3035 H   0  0  0  0  0  0  0  0  0  0  0  0
  127.8452  140.9988  162.8142 H   0  0  0  0  0  0  0  0  0  0  0  0
  126.1086  139.6293  163.8345 H   0  0  0  0  0  0  0  0  0  0  0  0
  125.9689  137.2200  163.3706 H   0  0  0  0  0  0  0  0  0  0  0  0
  127.5556  136.1433  161.8687 H   0  0  0  0  0  0  0  0  0  0  0  0
  130.3142  133.4781  154.5226 H   0  0  0  0  0  0  0  0  0  0  0  0
  130.9347  132.1618  152.5391 H   0  0  0  0  0  0  0  0  0  0  0  0
  1  2  1  0
  1 31  1  0
  1 32  1  0
  1 33  1  0
  2  3  1  0
  2 34  1  0
  2 35  1  0
  3 30  2  0
  3  4  1  0
  4  5  2  0
  4 36  1  0
  5  6  1  0
  5 37  1  0
  6  7  1  0
  6 29  2  0
  7 27  1  0
  7  8  2  0
  8  9  1  0
  8 38  1  0
  9 10  1  0
  9 11  1  0
 11 12  1  0
 11 27  2  0
 12 13  1  0
 12 39  1  0
 13 14  1  6
 13 15  1  0
 13 17  1  0
 15 16  1  0
 15 40  1  0
 15 41  1  0
 17 26  1  0
 17 18  2  0
 18 19  1  0
 18 42  1  0
 19 20  2  0
 19 43  1  0
 20 21  1  0
 20 44  1  0
 21 26  2  0
 21 22  1  0
 22 23  2  0
 22 45  1  0
 23 24  1  0
 23 46  1  0
 24 25  2  0
 24 47  1  0
 25 26  1  0
 25 48  1  0
 27 28  1  0
 29 30  1  0
 29 49  1  0
 30 50  1  0
M  CHG  1  27   1
M  END
>  <DOCK_score>  (1) 
-56.059719

>  <SMILES>  (1) 
CCc1ccc(-c2c[nH]c(N[C@@H](CF)c3cccc4ccccc34)[nH+]2)cc1

$$$$
