CSC1CCCC[N@@H+](Cc2cnccc2NC2=C(Cc3ccccc3)C(=O)OC2=O)C1
     RDKit          3D

 59 62  0  0  1  0  0  0  0  0999 V2000
  125.9684  131.2904  160.0279 C   0  0  0  0  0  0  0  0  0  0  0  0
  127.3097  131.3629  161.2472 S   0  0  0  0  0  0  0  0  0  0  0  0
  128.7083  131.9920  160.2785 C   0  0  1  0  0  0  0  0  0  0  0  0
  128.9989  131.0472  159.1404 C   0  0  0  0  0  0  0  0  0  0  0  0
  130.5000  130.9920  158.7916 C   0  0  0  0  0  0  0  0  0  0  0  0
  131.1461  132.3897  158.8244 C   0  0  0  0  0  0  0  0  0  0  0  0
  130.2396  133.4311  158.2177 C   0  0  0  0  0  0  0  0  0  0  0  0
  129.4919  134.0870  159.3082 N   0  0  1  0  0  0  0  0  0  0  0  0
  130.1042  134.1861  160.1040 H   0  0  0  0  0  0  0  0  0  0  0  0
  129.0823  135.4247  158.8605 C   0  0  0  0  0  0  0  0  0  0  0  0
  128.7689  136.2817  160.0599 C   0  0  0  0  0  0  0  0  0  0  0  0
  127.4908  136.3201  160.5775 C   0  0  0  0  0  0  0  0  0  0  0  0
  127.2082  137.0677  161.6275 N   0  0  0  0  0  0  0  0  0  0  0  0
  128.1243  137.8065  162.2252 C   0  0  0  0  0  0  0  0  0  0  0  0
  129.4270  137.8204  161.7728 C   0  0  0  0  0  0  0  0  0  0  0  0
  129.7670  137.0477  160.6621 C   0  0  0  0  0  0  0  0  0  0  0  0
  131.0695  137.0370  160.1711 N   0  0  0  0  0  0  0  0  0  0  0  0
  132.1072  136.6258  160.9796 C   0  0  0  0  0  0  0  0  0  0  0  0
  133.3971  137.0472  160.9235 C   0  0  0  0  0  0  0  0  0  0  0  0
  133.9703  138.0565  159.9624 C   0  0  0  0  0  0  0  0  0  0  0  0
  134.5401  139.2184  160.7348 C   0  0  0  0  0  0  0  0  0  0  0  0
  133.7411  140.3048  161.0387 C   0  0  0  0  0  0  0  0  0  0  0  0
  134.2637  141.3703  161.7476 C   0  0  0  0  0  0  0  0  0  0  0  0
  135.5856  141.3501  162.1511 C   0  0  0  0  0  0  0  0  0  0  0  0
  136.3843  140.2633  161.8481 C   0  0  0  0  0  0  0  0  0  0  0  0
  135.8617  139.1976  161.1397 C   0  0  0  0  0  0  0  0  0  0  0  0
  134.1234  136.3387  161.9790 C   0  0  0  0  0  0  0  0  0  0  0  0
  135.3050  136.4664  162.2324 O   0  0  0  0  0  0  0  0  0  0  0  0
  133.2655  135.5208  162.6249 O   0  0  0  0  0  0  0  0  0  0  0  0
  132.0355  135.6322  162.0824 C   0  0  0  0  0  0  0  0  0  0  0  0
  131.0434  135.0308  162.4365 O   0  0  0  0  0  0  0  0  0  0  0  0
  128.3552  133.3795  159.7032 C   0  0  0  0  0  0  0  0  0  0  0  0
  125.7863  132.2881  159.6284 H   0  0  0  0  0  0  0  0  0  0  0  0
  126.2511  130.6201  159.2163 H   0  0  0  0  0  0  0  0  0  0  0  0
  125.0620  130.9196  160.5065 H   0  0  0  0  0  0  0  0  0  0  0  0
  129.5868  132.0753  160.9183 H   0  0  0  0  0  0  0  0  0  0  0  0
  128.6637  130.0476  159.4170 H   0  0  0  0  0  0  0  0  0  0  0  0
  128.4438  131.3729  158.2607 H   0  0  0  0  0  0  0  0  0  0  0  0
  131.0082  130.3487  159.5100 H   0  0  0  0  0  0  0  0  0  0  0  0
  130.6174  130.5697  157.7936 H   0  0  0  0  0  0  0  0  0  0  0  0
  131.3576  132.6603  159.8589 H   0  0  0  0  0  0  0  0  0  0  0  0
  132.0819  132.3628  158.2660 H   0  0  0  0  0  0  0  0  0  0  0  0
  129.5421  132.9547  157.5288 H   0  0  0  0  0  0  0  0  0  0  0  0
  130.8360  134.1713  157.6842 H   0  0  0  0  0  0  0  0  0  0  0  0
  128.1959  135.3419  158.2316 H   0  0  0  0  0  0  0  0  0  0  0  0
  129.8914  135.8805  158.2897 H   0  0  0  0  0  0  0  0  0  0  0  0
  126.7117  135.7302  160.1178 H   0  0  0  0  0  0  0  0  0  0  0  0
  127.8513  138.4041  163.0823 H   0  0  0  0  0  0  0  0  0  0  0  0
  130.1726  138.4239  162.2691 H   0  0  0  0  0  0  0  0  0  0  0  0
  131.2467  137.3188  159.2601 H   0  0  0  0  0  0  0  0  0  0  0  0
  133.1832  138.4131  159.2978 H   0  0  0  0  0  0  0  0  0  0  0  0
  134.7596  137.5898  159.3732 H   0  0  0  0  0  0  0  0  0  0  0  0
  132.7099  140.3229  160.7184 H   0  0  0  0  0  0  0  0  0  0  0  0
  133.6395  142.2192  161.9846 H   0  0  0  0  0  0  0  0  0  0  0  0
  135.9939  142.1824  162.7053 H   0  0  0  0  0  0  0  0  0  0  0  0
  137.4167  140.2467  162.1651 H   0  0  0  0  0  0  0  0  0  0  0  0
  136.4856  138.3484  160.9028 H   0  0  0  0  0  0  0  0  0  0  0  0
  127.8266  133.9543  160.4637 H   0  0  0  0  0  0  0  0  0  0  0  0
  127.7012  133.2497  158.8410 H   0  0  0  0  0  0  0  0  0  0  0  0
  1  2  1  0
  1 33  1  0
  1 34  1  0
  1 35  1  0
  2  3  1  0
  3 32  1  0
  3  4  1  0
  3 36  1  1
  4  5  1  0
  4 37  1  0
  4 38  1  0
  5  6  1  0
  5 39  1  0
  5 40  1  0
  6  7  1  0
  6 41  1  0
  6 42  1  0
  7  8  1  0
  7 43  1  0
  7 44  1  0
  8  9  1  1
  8 10  1  0
  8 32  1  0
 10 11  1  0
 10 45  1  0
 10 46  1  0
 11 16  1  0
 11 12  2  0
 12 13  1  0
 12 47  1  0
 13 14  2  0
 14 15  1  0
 14 48  1  0
 15 16  2  0
 15 49  1  0
 16 17  1  0
 17 18  1  0
 17 50  1  0
 18 30  1  0
 18 19  2  0
 19 20  1  0
 19 27  1  0
 20 21  1  0
 20 51  1  0
 20 52  1  0
 21 26  1  0
 21 22  2  0
 22 23  1  0
 22 53  1  0
 23 24  2  0
 23 54  1  0
 24 25  1  0
 24 55  1  0
 25 26  2  0
 25 56  1  0
 26 57  1  0
 27 28  2  0
 27 29  1  0
 29 30  1  0
 30 31  2  0
 32 58  1  0
 32 59  1  0
M  CHG  1   8   1
M  END
>  <DOCK_score>  (1) 
-46.664082

>  <SMILES>  (1) 
CSC1CCCC[N@@H+](Cc2cnccc2NC2=C(Cc3ccccc3)C(=O)OC2=O)C1

$$$$
