
     RDKit          2D

 30 34  0  0  0  0  0  0  0  0999 V2000
    2.7760    0.0000    0.0000 C   0  0  0  0  0  0  0  0  0  0  0  0
    1.2760    0.0000    0.0000 C   0  0  0  0  0  0  0  0  0  0  0  0
    0.3943    1.2135    0.0000 N   0  0  0  0  0  0  0  0  0  0  0  0
   -1.0323    0.7500    0.0000 N   0  0  0  0  0  0  0  0  0  0  0  0
   -1.0323   -0.7500    0.0000 C   0  0  0  0  0  0  0  0  0  0  0  0
    0.3943   -1.2135    0.0000 C   0  0  0  0  0  0  0  0  0  0  0  0
    0.8578   -2.6401    0.0000 C   0  0  0  0  0  0  0  0  0  0  0  0
    2.3250   -2.9520    0.0000 O   0  0  0  0  0  0  0  0  0  0  0  0
   -0.1459   -3.7548    0.0000 C   0  0  0  0  0  0  0  0  0  0  0  0
   -1.6438   -3.8333    0.0000 C   0  0  0  0  0  0  0  0  0  0  0  0
   -1.5653   -5.3313    0.0000 C   0  0  0  0  0  0  0  0  0  0  0  0
   -2.5690   -6.4460    0.0000 N   0  0  0  0  0  0  0  0  0  0  0  0
   -4.0362   -6.1341    0.0000 C   0  0  0  0  0  0  0  0  0  0  0  0
   -5.1509   -7.1378    0.0000 C   0  0  0  0  0  0  0  0  0  0  0  0
   -6.4500   -6.3878    0.0000 C   0  0  0  0  0  0  0  0  0  0  0  0
   -6.1381   -4.9206    0.0000 C   0  0  0  0  0  0  0  0  0  0  0  0
   -7.1418   -3.8059    0.0000 C   0  0  0  0  0  0  0  0  0  0  0  0
   -8.6336   -3.9627    0.0000 N   0  0  0  0  0  0  0  0  0  0  0  0
   -9.2437   -2.5924    0.0000 N   0  0  0  0  0  0  0  0  0  0  0  0
   -8.1290   -1.5887    0.0000 C   0  0  0  0  0  0  0  0  0  0  0  0
   -6.8299   -2.3387    0.0000 C   0  0  0  0  0  0  0  0  0  0  0  0
   -5.4596   -1.7286    0.0000 C   0  0  0  0  0  0  0  0  0  0  0  0
   -5.3028   -0.2368    0.0000 N   0  0  0  0  0  0  0  0  0  0  0  0
   -6.5164    0.6449    0.0000 C   0  0  0  0  0  0  0  0  0  0  0  0
   -6.5164    2.1449    0.0000 C   0  0  0  0  0  0  0  0  0  0  0  0
   -7.9429    2.6084    0.0000 C   0  0  0  0  0  0  0  0  0  0  0  0
   -8.8246    1.3949    0.0000 C   0  0  0  0  0  0  0  0  0  0  0  0
   -7.9429    0.1814    0.0000 C   0  0  0  0  0  0  0  0  0  0  0  0
   -4.6463   -4.7638    0.0000 O   0  0  0  0  0  0  0  0  0  0  0  0
   -0.0674   -5.2528    0.0000 C   0  0  0  0  0  0  0  0  0  0  0  0
  1  2  1  0
  2  3  2  0
  3  4  1  0
  4  5  1  0
  5  6  2  0
  6  7  1  0
  7  8  1  0
  9  7  1  6
  9 10  1  0
 10 11  1  0
 11 12  1  6
 12 13  1  0
 13 14  2  0
 14 15  1  0
 15 16  2  0
 16 17  1  0
 17 18  2  0
 18 19  1  0
 19 20  1  0
 20 21  2  0
 21 22  1  0
 22 23  1  0
 23 24  1  0
 24 25  1  0
 25 26  1  0
 26 27  2  0
 27 28  1  0
 16 29  1  0
 11 30  1  0
  6  2  1  0
 30  9  1  0
 29 13  1  0
 21 17  1  0
 28 24  1  0
M  END
$$$$
