Nc1ccc(-c2c[nH]c(Nc3ccccc3-c3nc(-c4ccccc4)c[nH]3)[nH+]2)cc1
     RDKit          3D

 51 55  0  0  1  0  0  0  0  0999 V2000
  131.4956  129.6642  152.1588 N   0  0  0  0  0  0  0  0  0  0  0  0
  131.2016  130.4001  153.3092 C   0  0  0  0  0  0  0  0  0  0  0  0
  130.7987  131.7265  153.2004 C   0  0  0  0  0  0  0  0  0  0  0  0
  130.5075  132.4547  154.3344 C   0  0  0  0  0  0  0  0  0  0  0  0
  130.6177  131.8603  155.5905 C   0  0  0  0  0  0  0  0  0  0  0  0
  130.3055  132.6419  156.8123 C   0  0  0  0  0  0  0  0  0  0  0  0
  129.8121  132.1443  157.9736 C   0  0  0  0  0  0  0  0  0  0  0  0
  129.6736  133.2059  158.8351 N   0  0  0  0  0  0  0  0  0  0  0  0
  129.3431  133.1673  159.7462 H   0  0  0  0  0  0  0  0  0  0  0  0
  130.0868  134.3215  158.1740 C   0  0  0  0  0  0  0  0  0  0  0  0
  130.1062  135.6061  158.6923 N   0  0  0  0  0  0  0  0  0  0  0  0
  129.1733  135.9824  159.6580 C   0  0  0  0  0  0  0  0  0  0  0  0
  127.9138  135.3993  159.6751 C   0  0  0  0  0  0  0  0  0  0  0  0
  126.9916  135.7726  160.6330 C   0  0  0  0  0  0  0  0  0  0  0  0
  127.3147  136.7291  161.5810 C   0  0  0  0  0  0  0  0  0  0  0  0
  128.5616  137.3188  161.5778 C   0  0  0  0  0  0  0  0  0  0  0  0
  129.5032  136.9509  160.6164 C   0  0  0  0  0  0  0  0  0  0  0  0
  130.8407  137.5789  160.6078 C   0  0  0  0  0  0  0  0  0  0  0  0
  131.8966  137.1426  161.2564 N   0  0  0  0  0  0  0  0  0  0  0  0
  132.9354  137.9633  161.0127 C   0  0  0  0  0  0  0  0  0  0  0  0
  134.3080  137.8161  161.5562 C   0  0  0  0  0  0  0  0  0  0  0  0
  135.2968  138.7382  161.2178 C   0  0  0  0  0  0  0  0  0  0  0  0
  136.5705  138.5996  161.7307 C   0  0  0  0  0  0  0  0  0  0  0  0
  136.8696  137.5415  162.5701 C   0  0  0  0  0  0  0  0  0  0  0  0
  135.8936  136.6203  162.9046 C   0  0  0  0  0  0  0  0  0  0  0  0
  134.6151  136.7521  162.4021 C   0  0  0  0  0  0  0  0  0  0  0  0
  132.5057  138.9538  160.1861 C   0  0  0  0  0  0  0  0  0  0  0  0
  131.1841  138.7129  159.9295 N   0  0  0  0  0  0  0  0  0  0  0  0
  130.5997  139.2477  159.3696 H   0  0  0  0  0  0  0  0  0  0  0  0
  130.4582  133.9807  156.9638 N   0  0  0  0  0  0  0  0  0  0  0  0
  130.7914  134.5891  156.2856 H   0  0  0  0  0  0  0  0  0  0  0  0
  131.0273  130.5322  155.6973 C   0  0  0  0  0  0  0  0  0  0  0  0
  131.3125  129.8061  154.5601 C   0  0  0  0  0  0  0  0  0  0  0  0
  131.4187  130.0791  151.2847 H   0  0  0  0  0  0  0  0  0  0  0  0
  131.7775  128.7397  152.2333 H   0  0  0  0  0  0  0  0  0  0  0  0
  130.7138  132.1867  152.2269 H   0  0  0  0  0  0  0  0  0  0  0  0
  130.1938  133.4847  154.2496 H   0  0  0  0  0  0  0  0  0  0  0  0
  129.5736  131.1116  158.1813 H   0  0  0  0  0  0  0  0  0  0  0  0
  130.7686  136.2438  158.3836 H   0  0  0  0  0  0  0  0  0  0  0  0
  127.6549  134.6527  158.9390 H   0  0  0  0  0  0  0  0  0  0  0  0
  126.0114  135.3195  160.6401 H   0  0  0  0  0  0  0  0  0  0  0  0
  126.5870  137.0146  162.3262 H   0  0  0  0  0  0  0  0  0  0  0  0
  128.8088  138.0645  162.3190 H   0  0  0  0  0  0  0  0  0  0  0  0
  135.0654  139.5622  160.5590 H   0  0  0  0  0  0  0  0  0  0  0  0
  137.3362  139.3164  161.4731 H   0  0  0  0  0  0  0  0  0  0  0  0
  137.8690  137.4343  162.9653 H   0  0  0  0  0  0  0  0  0  0  0  0
  136.1326  135.7962  163.5607 H   0  0  0  0  0  0  0  0  0  0  0  0
  133.8538  136.0323  162.6642 H   0  0  0  0  0  0  0  0  0  0  0  0
  133.0954  139.7745  159.8053 H   0  0  0  0  0  0  0  0  0  0  0  0
  131.1178  130.0710  156.6696 H   0  0  0  0  0  0  0  0  0  0  0  0
  131.6263  128.7760  154.6422 H   0  0  0  0  0  0  0  0  0  0  0  0
  1  2  1  0
  1 34  1  0
  1 35  1  0
  2 33  2  0
  2  3  1  0
  3  4  2  0
  3 36  1  0
  4  5  1  0
  4 37  1  0
  5  6  1  0
  5 32  2  0
  6 30  1  0
  6  7  2  0
  7  8  1  0
  7 38  1  0
  8  9  1  0
  8 10  1  0
 10 11  1  0
 10 30  2  0
 11 12  1  0
 11 39  1  0
 12 17  1  0
 12 13  2  0
 13 14  1  0
 13 40  1  0
 14 15  2  0
 14 41  1  0
 15 16  1  0
 15 42  1  0
 16 17  2  0
 16 43  1  0
 17 18  1  0
 18 28  1  0
 18 19  2  0
 19 20  1  0
 20 21  1  0
 20 27  2  0
 21 26  1  0
 21 22  2  0
 22 23  1  0
 22 44  1  0
 23 24  2  0
 23 45  1  0
 24 25  1  0
 24 46  1  0
 25 26  2  0
 25 47  1  0
 26 48  1  0
 27 28  1  0
 27 49  1  0
 28 29  1  0
 30 31  1  0
 32 33  1  0
 32 50  1  0
 33 51  1  0
M  CHG  1  30   1
M  END
>  <DOCK_score>  (1) 
-62.158051

>  <SMILES>  (1) 
Nc1ccc(-c2c[nH]c(Nc3ccccc3-c3nc(-c4ccccc4)c[nH]3)[nH+]2)cc1

$$$$
