CC=CC(C[C@@H](O)c1ccccc1)Nc1[nH]cc(-c2ccc(N)cc2)[nH+]1
     RDKit          3D

 51 53  0  0  1  0  0  0  0  0999 V2000
  126.1077  134.7717  160.6478 C   0  0  0  0  0  0  0  0  0  0  0  0
  127.6108  134.7662  160.7558 C   0  0  0  0  0  0  0  0  0  0  0  0
  128.3213  135.6102  160.0495 C   0  0  0  0  0  0  0  0  0  0  0  0
  129.8245  135.6047  160.1575 C   0  0  2  0  0  0  0  0  0  0  0  0
  130.3057  136.9726  160.6451 C   0  0  0  0  0  0  0  0  0  0  0  0
  131.7154  136.8404  161.2252 C   0  0  1  0  0  0  0  0  0  0  0  0
  131.6551  136.4472  162.2400 H   0  0  0  0  0  0  0  0  0  0  0  0
  132.4827  135.9490  160.4137 O   0  0  0  0  0  0  0  0  0  0  0  0
  132.3777  138.1939  161.2493 C   0  0  0  0  0  0  0  0  0  0  0  0
  133.1203  138.6194  160.1638 C   0  0  0  0  0  0  0  0  0  0  0  0
  133.7246  139.8625  160.1843 C   0  0  0  0  0  0  0  0  0  0  0  0
  133.5928  140.6768  161.2940 C   0  0  0  0  0  0  0  0  0  0  0  0
  132.8548  140.2489  162.3814 C   0  0  0  0  0  0  0  0  0  0  0  0
  132.2473  139.0075  162.3593 C   0  0  0  0  0  0  0  0  0  0  0  0
  130.4074  135.3217  158.8436 N   0  0  0  0  0  0  0  0  0  0  0  0
  130.1141  134.1327  158.1978 C   0  0  0  0  0  0  0  0  0  0  0  0
  129.3074  133.1478  158.6782 N   0  0  0  0  0  0  0  0  0  0  0  0
  128.8357  133.1537  159.5258 H   0  0  0  0  0  0  0  0  0  0  0  0
  129.2847  132.1428  157.7404 C   0  0  0  0  0  0  0  0  0  0  0  0
  130.0774  132.5431  156.7159 C   0  0  0  0  0  0  0  0  0  0  0  0
  130.3546  131.7773  155.4759 C   0  0  0  0  0  0  0  0  0  0  0  0
  130.0111  132.3104  154.2346 C   0  0  0  0  0  0  0  0  0  0  0  0
  130.2748  131.5993  153.0829 C   0  0  0  0  0  0  0  0  0  0  0  0
  130.8722  130.3472  153.1596 C   0  0  0  0  0  0  0  0  0  0  0  0
  131.1328  129.6254  151.9924 N   0  0  0  0  0  0  0  0  0  0  0  0
  131.2106  129.8108  154.3969 C   0  0  0  0  0  0  0  0  0  0  0  0
  130.9539  130.5209  155.5506 C   0  0  0  0  0  0  0  0  0  0  0  0
  130.5723  133.7677  157.0251 N   0  0  0  0  0  0  0  0  0  0  0  0
  131.1699  134.2900  156.4674 H   0  0  0  0  0  0  0  0  0  0  0  0
  125.6935  134.0063  161.3040 H   0  0  0  0  0  0  0  0  0  0  0  0
  125.7258  135.7490  160.9431 H   0  0  0  0  0  0  0  0  0  0  0  0
  125.8167  134.5638  159.6182 H   0  0  0  0  0  0  0  0  0  0  0  0
  128.1022  134.0663  161.4155 H   0  0  0  0  0  0  0  0  0  0  0  0
  127.8299  136.3102  159.3899 H   0  0  0  0  0  0  0  0  0  0  0  0
  130.1351  134.8367  160.8659 H   0  0  0  0  0  0  0  0  0  0  0  0
  130.3212  137.6717  159.8088 H   0  0  0  0  0  0  0  0  0  0  0  0
  129.6290  137.3426  161.4153 H   0  0  0  0  0  0  0  0  0  0  0  0
  132.5779  136.2365  159.4953 H   0  0  0  0  0  0  0  0  0  0  0  0
  133.2258  137.9819  159.2985 H   0  0  0  0  0  0  0  0  0  0  0  0
  134.3016  140.1966  159.3347 H   0  0  0  0  0  0  0  0  0  0  0  0
  134.0675  141.6467  161.3110 H   0  0  0  0  0  0  0  0  0  0  0  0
  132.7524  140.8849  163.2483 H   0  0  0  0  0  0  0  0  0  0  0  0
  131.6705  138.6733  163.2090 H   0  0  0  0  0  0  0  0  0  0  0  0
  130.9988  135.9673  158.4262 H   0  0  0  0  0  0  0  0  0  0  0  0
  128.7396  131.2129  157.8069 H   0  0  0  0  0  0  0  0  0  0  0  0
  129.5426  133.2818  154.1745 H   0  0  0  0  0  0  0  0  0  0  0  0
  130.0132  132.0141  152.1208 H   0  0  0  0  0  0  0  0  0  0  0  0
  131.5498  128.7511  152.0453 H   0  0  0  0  0  0  0  0  0  0  0  0
  130.8967  129.9987  151.1288 H   0  0  0  0  0  0  0  0  0  0  0  0
  131.6750  128.8374  154.4543 H   0  0  0  0  0  0  0  0  0  0  0  0
  131.2172  130.1041  156.5116 H   0  0  0  0  0  0  0  0  0  0  0  0
  1  2  1  0
  1 30  1  0
  1 31  1  0
  1 32  1  0
  2  3  2  0
  2 33  1  0
  3  4  1  0
  3 34  1  0
  4  5  1  0
  4 15  1  0
  4 35  1  1
  5  6  1  0
  5 36  1  0
  5 37  1  0
  6  7  1  1
  6  8  1  0
  6  9  1  0
  8 38  1  0
  9 14  1  0
  9 10  2  0
 10 11  1  0
 10 39  1  0
 11 12  2  0
 11 40  1  0
 12 13  1  0
 12 41  1  0
 13 14  2  0
 13 42  1  0
 14 43  1  0
 15 44  1  0
 16 15  1  0
 16 28  2  0
 16 17  1  0
 17 18  1  0
 17 19  1  0
 19 20  2  0
 19 45  1  0
 20 21  1  0
 20 28  1  0
 21 27  1  0
 21 22  2  0
 22 23  1  0
 22 46  1  0
 23 24  2  0
 23 47  1  0
 24 25  1  0
 24 26  1  0
 25 48  1  0
 25 49  1  0
 26 27  2  0
 26 50  1  0
 27 51  1  0
 28 29  1  0
M  CHG  1  28   1
M  END
>  <DOCK_score>  (1) 
-65.876656

>  <SMILES>  (1) 
CC=CC(C[C@@H](O)c1ccccc1)Nc1[nH]cc(-c2ccc(N)cc2)[nH+]1

$$$$
