Oc1cccc(-c2cccc(C3=CCC[N@@H+](Cc4ccc(-c5ccccc5)[nH]4)C3)c2)c1
     RDKit          3D

 58 62  0  0  1  0  0  0  0  0999 V2000
  134.7844  141.6295  166.9004 O   0  0  0  0  0  0  0  0  0  0  0  0
  135.4834  141.8091  165.7487 C   0  0  0  0  0  0  0  0  0  0  0  0
  136.5659  142.6779  165.7223 C   0  0  0  0  0  0  0  0  0  0  0  0
  137.2796  142.8636  164.5534 C   0  0  0  0  0  0  0  0  0  0  0  0
  136.9195  142.1864  163.4052 C   0  0  0  0  0  0  0  0  0  0  0  0
  135.8342  141.3128  163.4234 C   0  0  0  0  0  0  0  0  0  0  0  0
  135.4447  140.5840  162.1906 C   0  0  0  0  0  0  0  0  0  0  0  0
  135.6762  141.1546  160.9395 C   0  0  0  0  0  0  0  0  0  0  0  0
  135.3155  140.4782  159.7908 C   0  0  0  0  0  0  0  0  0  0  0  0
  134.7278  139.2313  159.8728 C   0  0  0  0  0  0  0  0  0  0  0  0
  134.4863  138.6519  161.1194 C   0  0  0  0  0  0  0  0  0  0  0  0
  133.8529  137.3190  161.2069 C   0  0  0  0  0  0  0  0  0  0  0  0
  134.5145  136.3466  161.7959 C   0  0  0  0  0  0  0  0  0  0  0  0
  133.9547  134.9569  161.9278 C   0  0  0  0  0  0  0  0  0  0  0  0
  132.4469  134.9846  161.6650 C   0  0  0  0  0  0  0  0  0  0  0  0
  132.2024  135.7114  160.4092 N   0  0  1  0  0  0  0  0  0  0  0  0
  132.8070  135.3501  159.6867 H   0  0  0  0  0  0  0  0  0  0  0  0
  130.7998  135.5407  160.0074 C   0  0  0  0  0  0  0  0  0  0  0  0
  130.6279  134.2003  159.3405 C   0  0  0  0  0  0  0  0  0  0  0  0
  130.3092  133.0445  159.9622 C   0  0  0  0  0  0  0  0  0  0  0  0
  130.2477  132.0373  158.9854 C   0  0  0  0  0  0  0  0  0  0  0  0
  130.5340  132.6170  157.7862 C   0  0  0  0  0  0  0  0  0  0  0  0
  130.5837  131.9305  156.4774 C   0  0  0  0  0  0  0  0  0  0  0  0
  130.2617  132.6237  155.3098 C   0  0  0  0  0  0  0  0  0  0  0  0
  130.3153  131.9787  154.0913 C   0  0  0  0  0  0  0  0  0  0  0  0
  130.6767  130.6448  154.0266 C   0  0  0  0  0  0  0  0  0  0  0  0
  130.9919  129.9503  155.1811 C   0  0  0  0  0  0  0  0  0  0  0  0
  130.9473  130.5850  156.4053 C   0  0  0  0  0  0  0  0  0  0  0  0
  130.7621  133.9510  158.0071 N   0  0  0  0  0  0  0  0  0  0  0  0
  130.9844  134.6073  157.3281 H   0  0  0  0  0  0  0  0  0  0  0  0
  132.4830  137.1364  160.6199 C   0  0  0  0  0  0  0  0  0  0  0  0
  134.8489  139.3306  162.2813 C   0  0  0  0  0  0  0  0  0  0  0  0
  135.1125  141.1295  164.6003 C   0  0  0  0  0  0  0  0  0  0  0  0
  134.0466  141.0096  166.8201 H   0  0  0  0  0  0  0  0  0  0  0  0
  136.8510  143.2104  166.6176 H   0  0  0  0  0  0  0  0  0  0  0  0
  138.1210  143.5405  164.5378 H   0  0  0  0  0  0  0  0  0  0  0  0
  137.4786  142.3342  162.4932 H   0  0  0  0  0  0  0  0  0  0  0  0
  136.1389  142.1279  160.8687 H   0  0  0  0  0  0  0  0  0  0  0  0
  135.4973  140.9245  158.8243 H   0  0  0  0  0  0  0  0  0  0  0  0
  134.4513  138.7052  158.9709 H   0  0  0  0  0  0  0  0  0  0  0  0
  135.4949  136.5535  162.1990 H   0  0  0  0  0  0  0  0  0  0  0  0
  134.1410  134.5846  162.9352 H   0  0  0  0  0  0  0  0  0  0  0  0
  134.4375  134.3007  161.2036 H   0  0  0  0  0  0  0  0  0  0  0  0
  131.9416  135.4927  162.4864 H   0  0  0  0  0  0  0  0  0  0  0  0
  132.0721  133.9648  161.5766 H   0  0  0  0  0  0  0  0  0  0  0  0
  130.1605  135.5927  160.8887 H   0  0  0  0  0  0  0  0  0  0  0  0
  130.5227  136.3315  159.3104 H   0  0  0  0  0  0  0  0  0  0  0  0
  130.1337  132.9176  161.0203 H   0  0  0  0  0  0  0  0  0  0  0  0
  130.0166  130.9959  159.1538 H   0  0  0  0  0  0  0  0  0  0  0  0
  129.9749  133.6637  155.3595 H   0  0  0  0  0  0  0  0  0  0  0  0
  130.0703  132.5151  153.1866 H   0  0  0  0  0  0  0  0  0  0  0  0
  130.7130  130.1434  153.0707 H   0  0  0  0  0  0  0  0  0  0  0  0
  131.2734  128.9093  155.1238 H   0  0  0  0  0  0  0  0  0  0  0  0
  131.1930  130.0417  157.3058 H   0  0  0  0  0  0  0  0  0  0  0  0
  132.4271  137.6597  159.6653 H   0  0  0  0  0  0  0  0  0  0  0  0
  131.7407  137.5533  161.3004 H   0  0  0  0  0  0  0  0  0  0  0  0
  134.6682  138.8849  163.2484 H   0  0  0  0  0  0  0  0  0  0  0  0
  134.2679  140.4564  164.6183 H   0  0  0  0  0  0  0  0  0  0  0  0
  1  2  1  0
  1 34  1  0
  2 33  2  0
  2  3  1  0
  3  4  2  0
  3 35  1  0
  4  5  1  0
  4 36  1  0
  5  6  2  0
  5 37  1  0
  6  7  1  0
  6 33  1  0
  7 32  1  0
  7  8  2  0
  8  9  1  0
  8 38  1  0
  9 10  2  0
  9 39  1  0
 10 11  1  0
 10 40  1  0
 11 12  1  0
 11 32  2  0
 12 31  1  0
 12 13  2  0
 13 14  1  0
 13 41  1  0
 14 15  1  0
 14 42  1  0
 14 43  1  0
 15 16  1  0
 15 44  1  0
 15 45  1  0
 16 17  1  6
 16 18  1  0
 16 31  1  0
 18 19  1  0
 18 46  1  0
 18 47  1  0
 19 29  1  0
 19 20  2  0
 20 21  1  0
 20 48  1  0
 21 22  2  0
 21 49  1  0
 22 23  1  0
 22 29  1  0
 23 28  1  0
 23 24  2  0
 24 25  1  0
 24 50  1  0
 25 26  2  0
 25 51  1  0
 26 27  1  0
 26 52  1  0
 27 28  2  0
 27 53  1  0
 28 54  1  0
 29 30  1  0
 31 55  1  0
 31 56  1  0
 32 57  1  0
 33 58  1  0
M  CHG  1  16   1
M  END
>  <DOCK_score>  (1) 
-59.909161

>  <SMILES>  (1) 
Oc1cccc(-c2cccc(C3=CCC[N@@H+](Cc4ccc(-c5ccccc5)[nH]4)C3)c2)c1

$$$$
