CC1(C)C([NH2+]Cc2c[nH]nc2-c2ccc(Nc3ccccc3)o2)C[C@@H]1O
     RDKit          3D

 51 54  0  0  1  0  0  0  0  0999 V2000
  130.4119  138.5511  159.4377 C   0  0  0  0  0  0  0  0  0  0  0  0
  131.2220  138.6519  160.7317 C   0  0  0  0  0  0  0  0  0  0  0  0
  130.3451  138.6435  161.9855 C   0  0  0  0  0  0  0  0  0  0  0  0
  132.4014  137.6674  160.7984 C   0  0  1  0  0  0  0  0  0  0  0  0
  132.2145  136.4683  159.9705 N   0  0  0  0  0  0  0  0  0  0  0  0
  133.1104  136.0398  159.7923 H   0  0  0  0  0  0  0  0  0  0  0  0
  131.7856  136.7276  159.0948 H   0  0  0  0  0  0  0  0  0  0  0  0
  131.3479  135.5157  160.6772 C   0  0  0  0  0  0  0  0  0  0  0  0
  131.1562  134.2856  159.8280 C   0  0  0  0  0  0  0  0  0  0  0  0
  132.1235  133.6220  159.1594 C   0  0  0  0  0  0  0  0  0  0  0  0
  131.5505  132.5789  158.5206 N   0  0  0  0  0  0  0  0  0  0  0  0
  132.0098  131.9313  157.9635 H   0  0  0  0  0  0  0  0  0  0  0  0
  130.1792  132.5914  158.8058 N   0  0  0  0  0  0  0  0  0  0  0  0
  129.9338  133.6221  159.5907 C   0  0  0  0  0  0  0  0  0  0  0  0
  128.6144  134.0096  160.1307 C   0  0  0  0  0  0  0  0  0  0  0  0
  127.4384  133.3701  159.8947 C   0  0  0  0  0  0  0  0  0  0  0  0
  126.4426  134.0728  160.6010 C   0  0  0  0  0  0  0  0  0  0  0  0
  127.0580  135.1041  161.2319 C   0  0  0  0  0  0  0  0  0  0  0  0
  126.4362  136.0486  162.0408 N   0  0  0  0  0  0  0  0  0  0  0  0
  127.1409  136.6404  163.0917 C   0  0  0  0  0  0  0  0  0  0  0  0
  126.8353  137.9350  163.4931 C   0  0  0  0  0  0  0  0  0  0  0  0
  127.5343  138.5172  164.5321 C   0  0  0  0  0  0  0  0  0  0  0  0
  128.5378  137.8134  165.1725 C   0  0  0  0  0  0  0  0  0  0  0  0
  128.8482  136.5266  164.7722 C   0  0  0  0  0  0  0  0  0  0  0  0
  128.1495  135.9361  163.7377 C   0  0  0  0  0  0  0  0  0  0  0  0
  128.3691  135.0623  160.9386 O   0  0  0  0  0  0  0  0  0  0  0  0
  133.2478  138.7579  160.1208 C   0  0  0  0  0  0  0  0  0  0  0  0
  132.2667  139.7803  160.7181 C   0  0  2  0  0  0  0  0  0  0  0  0
  132.0203  140.5971  160.0397 H   0  0  0  0  0  0  0  0  0  0  0  0
  132.6361  140.2340  162.0218 O   0  0  0  0  0  0  0  0  0  0  0  0
  129.9203  137.5793  159.3913 H   0  0  0  0  0  0  0  0  0  0  0  0
  129.6597  139.3398  159.4175 H   0  0  0  0  0  0  0  0  0  0  0  0
  131.0781  138.6626  158.5823 H   0  0  0  0  0  0  0  0  0  0  0  0
  130.9476  138.9160  162.8521 H   0  0  0  0  0  0  0  0  0  0  0  0
  129.5340  139.3621  161.8665 H   0  0  0  0  0  0  0  0  0  0  0  0
  129.9289  137.6468  162.1312 H   0  0  0  0  0  0  0  0  0  0  0  0
  132.7209  137.4349  161.8142 H   0  0  0  0  0  0  0  0  0  0  0  0
  130.3801  135.9787  160.8698 H   0  0  0  0  0  0  0  0  0  0  0  0
  131.8113  135.2355  161.6231 H   0  0  0  0  0  0  0  0  0  0  0  0
  133.1720  133.8804  159.1387 H   0  0  0  0  0  0  0  0  0  0  0  0
  127.2950  132.4914  159.2834 H   0  0  0  0  0  0  0  0  0  0  0  0
  125.3896  133.8354  160.6344 H   0  0  0  0  0  0  0  0  0  0  0  0
  125.5132  136.2966  161.8754 H   0  0  0  0  0  0  0  0  0  0  0  0
  126.0522  138.4855  162.9930 H   0  0  0  0  0  0  0  0  0  0  0  0
  127.2972  139.5235  164.8446 H   0  0  0  0  0  0  0  0  0  0  0  0
  129.0834  138.2713  165.9843 H   0  0  0  0  0  0  0  0  0  0  0  0
  129.6352  135.9812  165.2718 H   0  0  0  0  0  0  0  0  0  0  0  0
  128.3896  134.9297  163.4283 H   0  0  0  0  0  0  0  0  0  0  0  0
  134.2587  138.8376  160.5206 H   0  0  0  0  0  0  0  0  0  0  0  0
  133.2257  138.7143  159.0318 H   0  0  0  0  0  0  0  0  0  0  0  0
  132.9791  139.5375  162.5982 H   0  0  0  0  0  0  0  0  0  0  0  0
  1  2  1  0
  1 31  1  0
  1 32  1  0
  1 33  1  0
  2 28  1  0
  2  3  1  0
  2  4  1  0
  3 34  1  0
  3 35  1  0
  3 36  1  0
  4  5  1  0
  4 27  1  0
  4 37  1  1
  5  6  1  0
  5  7  1  0
  5  8  1  0
  8  9  1  0
  8 38  1  0
  8 39  1  0
  9 14  1  0
  9 10  2  0
 10 11  1  0
 10 40  1  0
 11 12  1  0
 11 13  1  0
 13 14  2  0
 14 15  1  0
 15 26  1  0
 15 16  2  0
 16 17  1  0
 16 41  1  0
 17 18  2  0
 17 42  1  0
 18 19  1  0
 18 26  1  0
 19 20  1  0
 19 43  1  0
 20 25  1  0
 20 21  2  0
 21 22  1  0
 21 44  1  0
 22 23  2  0
 22 45  1  0
 23 24  1  0
 23 46  1  0
 24 25  2  0
 24 47  1  0
 25 48  1  0
 27 28  1  0
 27 49  1  0
 27 50  1  0
 28 29  1  6
 28 30  1  0
 30 51  1  0
M  CHG  1   5   1
M  END
>  <DOCK_score>  (1) 
-44.112404

>  <SMILES>  (1) 
CC1(C)C([NH2+]Cc2c[nH]nc2-c2ccc(Nc3ccccc3)o2)C[C@@H]1O

$$$$
