CCc1ccc(-c2c[nH]c(N[C@H](CN3CC(F)(F)C(F)(F)C3)c3cccc4ccccc34)[nH+]2)cc1
     RDKit          3D

 62 66  0  0  1  0  0  0  0  0999 V2000
  129.7590  129.2805  151.1734 C   0  0  0  0  0  0  0  0  0  0  0  0
  131.1101  129.7035  151.7533 C   0  0  0  0  0  0  0  0  0  0  0  0
  130.8931  130.4162  153.0632 C   0  0  0  0  0  0  0  0  0  0  0  0
  130.8718  129.6974  154.2442 C   0  0  0  0  0  0  0  0  0  0  0  0
  130.6796  130.3460  155.4471 C   0  0  0  0  0  0  0  0  0  0  0  0
  130.4957  131.7275  155.4691 C   0  0  0  0  0  0  0  0  0  0  0  0
  130.2831  132.4297  156.7582 C   0  0  0  0  0  0  0  0  0  0  0  0
  129.6986  131.9072  157.8646 C   0  0  0  0  0  0  0  0  0  0  0  0
  129.7061  132.8920  158.8223 N   0  0  0  0  0  0  0  0  0  0  0  0
  129.3557  132.8193  159.7238 H   0  0  0  0  0  0  0  0  0  0  0  0
  130.2955  133.9886  158.2725 C   0  0  0  0  0  0  0  0  0  0  0  0
  130.4987  135.2001  158.9109 N   0  0  0  0  0  0  0  0  0  0  0  0
  130.0638  135.3791  160.2982 C   0  0  2  0  0  0  0  0  0  0  0  0
  130.2767  134.4731  160.8656 H   0  0  0  0  0  0  0  0  0  0  0  0
  128.5598  135.6585  160.3293 C   0  0  0  0  0  0  0  0  0  0  0  0
  127.8240  134.3943  160.1947 N   0  0  0  0  0  0  0  0  0  0  0  0
  127.6717  133.7242  161.5117 C   0  0  0  0  0  0  0  0  0  0  0  0
  126.4777  132.7637  161.3237 C   0  0  0  0  0  0  0  0  0  0  0  0
  125.7039  132.7166  162.4882 F   0  0  0  0  0  0  0  0  0  0  0  0
  126.9319  131.4836  160.9888 F   0  0  0  0  0  0  0  0  0  0  0  0
  125.6602  133.3634  160.1611 C   0  0  0  0  0  0  0  0  0  0  0  0
  124.3713  133.6940  160.5932 F   0  0  0  0  0  0  0  0  0  0  0  0
  125.5972  132.4620  159.0929 F   0  0  0  0  0  0  0  0  0  0  0  0
  126.4290  134.6357  159.7444 C   0  0  0  0  0  0  0  0  0  0  0  0
  130.8032  136.5406  160.9107 C   0  0  0  0  0  0  0  0  0  0  0  0
  130.2899  137.7987  160.8282 C   0  0  0  0  0  0  0  0  0  0  0  0
  130.9558  138.8838  161.3943 C   0  0  0  0  0  0  0  0  0  0  0  0
  132.1456  138.7194  162.0349 C   0  0  0  0  0  0  0  0  0  0  0  0
  132.7099  137.4365  162.1346 C   0  0  0  0  0  0  0  0  0  0  0  0
  133.9363  137.2275  162.7885 C   0  0  0  0  0  0  0  0  0  0  0  0
  134.4529  135.9709  162.8651 C   0  0  0  0  0  0  0  0  0  0  0  0
  133.7838  134.8844  162.3042 C   0  0  0  0  0  0  0  0  0  0  0  0
  132.5941  135.0486  161.6640 C   0  0  0  0  0  0  0  0  0  0  0  0
  132.0291  136.3316  161.5647 C   0  0  0  0  0  0  0  0  0  0  0  0
  130.6442  133.7066  157.0409 N   0  0  0  0  0  0  0  0  0  0  0  0
  131.0873  134.3146  156.4286 H   0  0  0  0  0  0  0  0  0  0  0  0
  130.5129  132.4467  154.2753 C   0  0  0  0  0  0  0  0  0  0  0  0
  130.7115  131.7881  153.0789 C   0  0  0  0  0  0  0  0  0  0  0  0
  129.9156  128.7645  150.2261 H   0  0  0  0  0  0  0  0  0  0  0  0
  129.2566  128.6120  151.8726 H   0  0  0  0  0  0  0  0  0  0  0  0
  129.1420  130.1638  151.0083 H   0  0  0  0  0  0  0  0  0  0  0  0
  131.7271  128.8202  151.9185 H   0  0  0  0  0  0  0  0  0  0  0  0
  131.6124  130.3720  151.0541 H   0  0  0  0  0  0  0  0  0  0  0  0
  131.0097  128.6263  154.2255 H   0  0  0  0  0  0  0  0  0  0  0  0
  130.6677  129.7839  156.3691 H   0  0  0  0  0  0  0  0  0  0  0  0
  129.3027  130.9081  157.9722 H   0  0  0  0  0  0  0  0  0  0  0  0
  130.9291  135.9305  158.4394 H   0  0  0  0  0  0  0  0  0  0  0  0
  128.2977  136.1326  161.2752 H   0  0  0  0  0  0  0  0  0  0  0  0
  128.2964  136.3218  159.5052 H   0  0  0  0  0  0  0  0  0  0  0  0
  128.5737  133.1651  161.7602 H   0  0  0  0  0  0  0  0  0  0  0  0
  127.4515  134.4569  162.2879 H   0  0  0  0  0  0  0  0  0  0  0  0
  126.0143  135.5111  160.2442 H   0  0  0  0  0  0  0  0  0  0  0  0
  126.3956  134.7650  158.6627 H   0  0  0  0  0  0  0  0  0  0  0  0
  129.3496  137.9572  160.3210 H   0  0  0  0  0  0  0  0  0  0  0  0
  130.5242  139.8710  161.3190 H   0  0  0  0  0  0  0  0  0  0  0  0
  132.6528  139.5705  162.4647 H   0  0  0  0  0  0  0  0  0  0  0  0
  134.4659  138.0598  163.2281 H   0  0  0  0  0  0  0  0  0  0  0  0
  135.3956  135.8130  163.3678 H   0  0  0  0  0  0  0  0  0  0  0  0
  134.2157  133.8974  162.3791 H   0  0  0  0  0  0  0  0  0  0  0  0
  132.0869  134.1974  161.2341 H   0  0  0  0  0  0  0  0  0  0  0  0
  130.3705  133.5171  154.2865 H   0  0  0  0  0  0  0  0  0  0  0  0
  130.7253  132.3443  152.1532 H   0  0  0  0  0  0  0  0  0  0  0  0
  1  2  1  0
  1 39  1  0
  1 40  1  0
  1 41  1  0
  2  3  1  0
  2 42  1  0
  2 43  1  0
  3 38  2  0
  3  4  1  0
  4  5  2  0
  4 44  1  0
  5  6  1  0
  5 45  1  0
  6  7  1  0
  6 37  2  0
  7 35  1  0
  7  8  2  0
  8  9  1  0
  8 46  1  0
  9 10  1  0
  9 11  1  0
 11 12  1  0
 11 35  2  0
 12 13  1  0
 12 47  1  0
 13 14  1  1
 13 15  1  0
 13 25  1  0
 15 16  1  0
 15 48  1  0
 15 49  1  0
 16 24  1  0
 16 17  1  0
 17 18  1  0
 17 50  1  0
 17 51  1  0
 18 19  1  0
 18 20  1  0
 18 21  1  0
 21 22  1  0
 21 23  1  0
 21 24  1  0
 24 52  1  0
 24 53  1  0
 25 34  1  0
 25 26  2  0
 26 27  1  0
 26 54  1  0
 27 28  2  0
 27 55  1  0
 28 29  1  0
 28 56  1  0
 29 34  2  0
 29 30  1  0
 30 31  2  0
 30 57  1  0
 31 32  1  0
 31 58  1  0
 32 33  2  0
 32 59  1  0
 33 34  1  0
 33 60  1  0
 35 36  1  0
 37 38  1  0
 37 61  1  0
 38 62  1  0
M  CHG  1  35   1
M  END
>  <DOCK_score>  (1) 
-58.012764

>  <SMILES>  (1) 
CCc1ccc(-c2c[nH]c(N[C@H](CN3CC(F)(F)C(F)(F)C3)c3cccc4ccccc34)[nH+]2)cc1

$$$$
