CCc1ccc(-c2c[nH]c(N[C@@H](CC3=C[C@H]4C[C@@H]3[C@@H](O)[C@H]4O)c3ccccc3)[nH+]2)cc1
     RDKit          3D

 61 65  0  0  1  0  0  0  0  0999 V2000
  130.1987  128.1732  151.9255 C   0  0  0  0  0  0  0  0  0  0  0  0
  131.1474  129.3647  152.0716 C   0  0  0  0  0  0  0  0  0  0  0  0
  130.8529  130.0861  153.3615 C   0  0  0  0  0  0  0  0  0  0  0  0
  131.5081  129.7170  154.5224 C   0  0  0  0  0  0  0  0  0  0  0  0
  131.2470  130.3783  155.7054 C   0  0  0  0  0  0  0  0  0  0  0  0
  130.3167  131.4159  155.7298 C   0  0  0  0  0  0  0  0  0  0  0  0
  130.0314  132.1300  156.9982 C   0  0  0  0  0  0  0  0  0  0  0  0
  129.5557  131.5717  158.1388 C   0  0  0  0  0  0  0  0  0  0  0  0
  129.4396  132.5843  159.0599 N   0  0  0  0  0  0  0  0  0  0  0  0
  129.1246  132.4968  159.9731 H   0  0  0  0  0  0  0  0  0  0  0  0
  129.8481  133.7327  158.4546 C   0  0  0  0  0  0  0  0  0  0  0  0
  129.8848  134.9853  159.0430 N   0  0  0  0  0  0  0  0  0  0  0  0
  129.4599  135.1536  160.4348 C   0  0  1  0  0  0  0  0  0  0  0  0
  129.8170  134.3117  161.0281 H   0  0  0  0  0  0  0  0  0  0  0  0
  130.0424  136.4539  160.9925 C   0  0  0  0  0  0  0  0  0  0  0  0
  131.4789  136.2311  161.3894 C   0  0  0  0  0  0  0  0  0  0  0  0
  131.9765  136.3843  162.6001 C   0  0  0  0  0  0  0  0  0  0  0  0
  133.4734  136.0536  162.5544 C   0  0  1  0  0  0  0  0  0  0  0  0
  133.9425  135.8035  163.5059 H   0  0  0  0  0  0  0  0  0  0  0  0
  133.4655  134.9293  161.4550 C   0  0  0  0  0  0  0  0  0  0  0  0
  132.6083  135.7812  160.4545 C   0  0  2  0  0  0  0  0  0  0  0  0
  132.3041  135.2891  159.5307 H   0  0  0  0  0  0  0  0  0  0  0  0
  133.5145  137.0460  160.3174 C   0  0  1  0  0  0  0  0  0  0  0  0
  134.3111  136.8701  159.5945 H   0  0  0  0  0  0  0  0  0  0  0  0
  132.7363  138.1829  159.9385 O   0  0  0  0  0  0  0  0  0  0  0  0
  134.0989  137.2344  161.7456 C   0  0  1  0  0  0  0  0  0  0  0  0
  135.1856  137.1524  161.7265 H   0  0  0  0  0  0  0  0  0  0  0  0
  133.6982  138.4898  162.2982 O   0  0  0  0  0  0  0  0  0  0  0  0
  127.9553  135.2098  160.4974 C   0  0  0  0  0  0  0  0  0  0  0  0
  127.2924  134.7483  161.6193 C   0  0  0  0  0  0  0  0  0  0  0  0
  125.9124  134.8044  161.6785 C   0  0  0  0  0  0  0  0  0  0  0  0
  125.1948  135.3120  160.6118 C   0  0  0  0  0  0  0  0  0  0  0  0
  125.8573  135.7686  159.4877 C   0  0  0  0  0  0  0  0  0  0  0  0
  127.2375  135.7175  159.4305 C   0  0  0  0  0  0  0  0  0  0  0  0
  130.2058  133.4564  157.2244 N   0  0  0  0  0  0  0  0  0  0  0  0
  130.5395  134.0981  156.5780 H   0  0  0  0  0  0  0  0  0  0  0  0
  129.6553  131.7796  154.5582 C   0  0  0  0  0  0  0  0  0  0  0  0
  129.9245  131.1115  153.3811 C   0  0  0  0  0  0  0  0  0  0  0  0
  129.1682  128.5282  151.9162 H   0  0  0  0  0  0  0  0  0  0  0  0
  130.4117  127.6514  150.9926 H   0  0  0  0  0  0  0  0  0  0  0  0
  130.3404  127.4911  152.7638 H   0  0  0  0  0  0  0  0  0  0  0  0
  131.0056  130.0468  151.2333 H   0  0  0  0  0  0  0  0  0  0  0  0
  132.1778  129.0097  152.0809 H   0  0  0  0  0  0  0  0  0  0  0  0
  132.2288  128.9128  154.5022 H   0  0  0  0  0  0  0  0  0  0  0  0
  131.7627  130.0925  156.6102 H   0  0  0  0  0  0  0  0  0  0  0  0
  129.3139  130.5306  158.2933 H   0  0  0  0  0  0  0  0  0  0  0  0
  130.1920  135.7516  158.5338 H   0  0  0  0  0  0  0  0  0  0  0  0
  129.9925  137.2307  160.2295 H   0  0  0  0  0  0  0  0  0  0  0  0
  129.4682  136.7644  161.8653 H   0  0  0  0  0  0  0  0  0  0  0  0
  131.4240  136.6909  163.4760 H   0  0  0  0  0  0  0  0  0  0  0  0
  134.4629  134.7123  161.0725 H   0  0  0  0  0  0  0  0  0  0  0  0
  132.9475  134.0280  161.7831 H   0  0  0  0  0  0  0  0  0  0  0  0
  132.2764  138.0810  159.0940 H   0  0  0  0  0  0  0  0  0  0  0  0
  133.9630  138.6165  163.2195 H   0  0  0  0  0  0  0  0  0  0  0  0
  127.8529  134.3475  162.4509 H   0  0  0  0  0  0  0  0  0  0  0  0
  125.3949  134.4471  162.5566 H   0  0  0  0  0  0  0  0  0  0  0  0
  124.1165  135.3517  160.6564 H   0  0  0  0  0  0  0  0  0  0  0  0
  125.2966  136.1650  158.6541 H   0  0  0  0  0  0  0  0  0  0  0  0
  127.7552  136.0739  158.5522 H   0  0  0  0  0  0  0  0  0  0  0  0
  128.9339  132.5832  154.5713 H   0  0  0  0  0  0  0  0  0  0  0  0
  129.4126  131.3924  152.4725 H   0  0  0  0  0  0  0  0  0  0  0  0
  1  2  1  0
  1 39  1  0
  1 40  1  0
  1 41  1  0
  2  3  1  0
  2 42  1  0
  2 43  1  0
  3 38  2  0
  3  4  1  0
  4  5  2  0
  4 44  1  0
  5  6  1  0
  5 45  1  0
  6  7  1  0
  6 37  2  0
  7 35  1  0
  7  8  2  0
  8  9  1  0
  8 46  1  0
  9 10  1  0
  9 11  1  0
 11 12  1  0
 11 35  2  0
 12 13  1  0
 12 47  1  0
 13 14  1  1
 13 15  1  0
 13 29  1  0
 15 16  1  0
 15 48  1  0
 15 49  1  0
 16 21  1  0
 16 17  2  0
 17 18  1  0
 17 50  1  0
 18 19  1  1
 18 26  1  0
 18 20  1  0
 20 21  1  0
 20 51  1  0
 20 52  1  0
 21 22  1  6
 21 23  1  0
 23 24  1  6
 23 25  1  0
 23 26  1  0
 25 53  1  0
 26 27  1  6
 26 28  1  0
 28 54  1  0
 29 34  1  0
 29 30  2  0
 30 31  1  0
 30 55  1  0
 31 32  2  0
 31 56  1  0
 32 33  1  0
 32 57  1  0
 33 34  2  0
 33 58  1  0
 34 59  1  0
 35 36  1  0
 37 38  1  0
 37 60  1  0
 38 61  1  0
M  CHG  1  35   1
M  END
>  <DOCK_score>  (1) 
-62.274601

>  <SMILES>  (1) 
CCc1ccc(-c2c[nH]c(N[C@@H](CC3=C[C@H]4C[C@@H]3[C@@H](O)[C@H]4O)c3ccccc3)[nH+]2)cc1

$$$$
