C#CC1CC(Nc2ccc(-c3n[nH]cc3C[NH2+]Cc3cccc(Cl)c3)o2)C1
     RDKit          3D

 49 52  0  0  1  0  0  0  0  0999 V2000
  129.1270  139.0549  165.4393 C   0  0  0  0  0  0  0  0  0  0  0  0
  128.1465  138.4377  165.2496 C   0  0  0  0  0  0  0  0  0  0  0  0
  126.9171  137.6640  165.0117 C   0  0  1  0  0  0  0  0  0  0  0  0
  126.1701  138.0727  163.7312 C   0  0  0  0  0  0  0  0  0  0  0  0
  127.0302  137.0342  162.9920 C   0  0  2  0  0  0  0  0  0  0  0  0
  126.2914  136.2717  161.9826 N   0  0  0  0  0  0  0  0  0  0  0  0
  126.9411  135.2966  161.2347 C   0  0  0  0  0  0  0  0  0  0  0  0
  126.3697  134.1768  160.7256 C   0  0  0  0  0  0  0  0  0  0  0  0
  127.3811  133.4736  160.0420 C   0  0  0  0  0  0  0  0  0  0  0  0
  128.5217  134.2017  160.1690 C   0  0  0  0  0  0  0  0  0  0  0  0
  129.8421  133.8468  159.6090 C   0  0  0  0  0  0  0  0  0  0  0  0
  130.1209  132.7705  158.9003 N   0  0  0  0  0  0  0  0  0  0  0  0
  131.4800  132.8115  158.5641 N   0  0  0  0  0  0  0  0  0  0  0  0
  131.9578  132.1462  158.0444 H   0  0  0  0  0  0  0  0  0  0  0  0
  132.0089  133.9407  159.0834 C   0  0  0  0  0  0  0  0  0  0  0  0
  131.0286  134.5990  159.7380 C   0  0  0  0  0  0  0  0  0  0  0  0
  131.1745  135.9078  160.4707 C   0  0  0  0  0  0  0  0  0  0  0  0
  130.9137  137.0187  159.5457 N   0  0  0  0  0  0  0  0  0  0  0  0
  129.9762  136.9400  159.1813 H   0  0  0  0  0  0  0  0  0  0  0  0
  131.5744  136.9842  158.7839 H   0  0  0  0  0  0  0  0  0  0  0  0
  131.0560  138.2945  160.2599 C   0  0  0  0  0  0  0  0  0  0  0  0
  132.4564  138.4122  160.8040 C   0  0  0  0  0  0  0  0  0  0  0  0
  132.7473  137.9418  162.0713 C   0  0  0  0  0  0  0  0  0  0  0  0
  134.0326  138.0450  162.5690 C   0  0  0  0  0  0  0  0  0  0  0  0
  135.0256  138.6282  161.8043 C   0  0  0  0  0  0  0  0  0  0  0  0
  134.7339  139.1038  160.5385 C   0  0  0  0  0  0  0  0  0  0  0  0
  135.9805  139.8357  159.5773 Cl  0  0  0  0  0  0  0  0  0  0  0  0
  133.4483  138.9953  160.0385 C   0  0  0  0  0  0  0  0  0  0  0  0
  128.2425  135.3019  160.8993 O   0  0  0  0  0  0  0  0  0  0  0  0
  127.1681  136.3028  164.3376 C   0  0  0  0  0  0  0  0  0  0  0  0
  130.0041  139.6067  165.6089 H   0  0  0  0  0  0  0  0  0  0  0  0
  126.2763  137.6064  165.8915 H   0  0  0  0  0  0  0  0  0  0  0  0
  126.3636  139.0997  163.4219 H   0  0  0  0  0  0  0  0  0  0  0  0
  125.1079  137.8283  163.7469 H   0  0  0  0  0  0  0  0  0  0  0  0
  127.9709  137.4353  162.6146 H   0  0  0  0  0  0  0  0  0  0  0  0
  125.3486  136.4473  161.8361 H   0  0  0  0  0  0  0  0  0  0  0  0
  125.3359  133.8804  160.8254 H   0  0  0  0  0  0  0  0  0  0  0  0
  127.2713  132.5359  159.5174 H   0  0  0  0  0  0  0  0  0  0  0  0
  133.0366  134.2599  158.9926 H   0  0  0  0  0  0  0  0  0  0  0  0
  132.1874  135.9929  160.8644 H   0  0  0  0  0  0  0  0  0  0  0  0
  130.4607  135.9451  161.2936 H   0  0  0  0  0  0  0  0  0  0  0  0
  130.3422  138.3318  161.0828 H   0  0  0  0  0  0  0  0  0  0  0  0
  130.8625  139.1186  159.5734 H   0  0  0  0  0  0  0  0  0  0  0  0
  131.9708  137.4902  162.6708 H   0  0  0  0  0  0  0  0  0  0  0  0
  134.2602  137.6737  163.5574 H   0  0  0  0  0  0  0  0  0  0  0  0
  136.0290  138.7122  162.1949 H   0  0  0  0  0  0  0  0  0  0  0  0
  133.2200  139.3661  159.0502 H   0  0  0  0  0  0  0  0  0  0  0  0
  126.3795  135.5729  164.5207 H   0  0  0  0  0  0  0  0  0  0  0  0
  128.1662  135.9029  164.5171 H   0  0  0  0  0  0  0  0  0  0  0  0
  1  2  3  0
  1 31  1  0
  2  3  1  0
  3 30  1  0
  3  4  1  0
  3 32  1  1
  4  5  1  0
  4 33  1  0
  4 34  1  0
  5  6  1  0
  5 30  1  0
  5 35  1  6
  6  7  1  0
  6 36  1  0
  7 29  1  0
  7  8  2  0
  8  9  1  0
  8 37  1  0
  9 10  2  0
  9 38  1  0
 10 11  1  0
 10 29  1  0
 11 16  1  0
 11 12  2  0
 12 13  1  0
 13 14  1  0
 13 15  1  0
 15 16  2  0
 15 39  1  0
 16 17  1  0
 17 18  1  0
 17 40  1  0
 17 41  1  0
 18 19  1  0
 18 20  1  0
 18 21  1  0
 21 22  1  0
 21 42  1  0
 21 43  1  0
 22 28  1  0
 22 23  2  0
 23 24  1  0
 23 44  1  0
 24 25  2  0
 24 45  1  0
 25 26  1  0
 25 46  1  0
 26 27  1  0
 26 28  2  0
 28 47  1  0
 30 48  1  0
 30 49  1  0
M  CHG  1  18   1
M  END
>  <DOCK_score>  (1) 
-43.302486

>  <SMILES>  (1) 
C#CC1CC(Nc2ccc(-c3n[nH]cc3C[NH2+]Cc3cccc(Cl)c3)o2)C1

$$$$
