COc1ccc2c(c1)OC[C@@H]([NH+]=C(NC1CCCCC1)N[C@H]1CCC(=O)NC1)C2
     RDKit          3D

 62 65  0  0  1  0  0  0  0  0999 V2000
  136.0652  137.7548  164.9819 C   0  0  0  0  0  0  0  0  0  0  0  0
  134.9236  137.1178  165.5590 O   0  0  0  0  0  0  0  0  0  0  0  0
  134.0861  136.4657  164.7104 C   0  0  0  0  0  0  0  0  0  0  0  0
  132.9573  135.8251  165.2025 C   0  0  0  0  0  0  0  0  0  0  0  0
  132.1096  135.1630  164.3380 C   0  0  0  0  0  0  0  0  0  0  0  0
  132.3775  135.1335  162.9789 C   0  0  0  0  0  0  0  0  0  0  0  0
  133.5004  135.7731  162.4826 C   0  0  0  0  0  0  0  0  0  0  0  0
  134.3563  136.4391  163.3528 C   0  0  0  0  0  0  0  0  0  0  0  0
  133.7945  135.7769  161.1564 O   0  0  0  0  0  0  0  0  0  0  0  0
  133.1485  134.8106  160.3265 C   0  0  0  0  0  0  0  0  0  0  0  0
  131.6438  134.8475  160.6227 C   0  0  1  0  0  0  0  0  0  0  0  0
  131.2684  135.8627  160.4944 H   0  0  0  0  0  0  0  0  0  0  0  0
  130.9390  133.9417  159.7122 N   0  0  0  0  0  0  0  0  0  0  0  0
  131.3849  133.1488  159.3754 H   0  0  0  0  0  0  0  0  0  0  0  0
  129.7127  134.2013  159.3546 C   0  0  0  0  0  0  0  0  0  0  0  0
  129.2548  133.7947  158.1236 N   0  0  0  0  0  0  0  0  0  0  0  0
  130.1453  133.0697  157.2139 C   0  0  0  0  0  0  0  0  0  0  0  0
  129.7525  133.3732  155.7665 C   0  0  0  0  0  0  0  0  0  0  0  0
  130.6825  132.6160  154.8164 C   0  0  0  0  0  0  0  0  0  0  0  0
  130.5604  131.1127  155.0734 C   0  0  0  0  0  0  0  0  0  0  0  0
  130.9532  130.8094  156.5208 C   0  0  0  0  0  0  0  0  0  0  0  0
  130.0232  131.5665  157.4710 C   0  0  0  0  0  0  0  0  0  0  0  0
  128.8771  134.8816  160.2084 N   0  0  0  0  0  0  0  0  0  0  0  0
  127.4338  134.6328  160.1737 C   0  0  1  0  0  0  0  0  0  0  0  0
  127.0456  134.8699  159.1832 H   0  0  0  0  0  0  0  0  0  0  0  0
  127.1579  133.1590  160.4951 C   0  0  0  0  0  0  0  0  0  0  0  0
  125.6680  132.8864  160.2780 C   0  0  0  0  0  0  0  0  0  0  0  0
  124.8476  133.9406  160.9641 C   0  0  0  0  0  0  0  0  0  0  0  0
  123.6744  133.7117  161.1692 O   0  0  0  0  0  0  0  0  0  0  0  0
  125.3399  135.1151  161.3595 N   0  0  0  0  0  0  0  0  0  0  0  0
  126.7376  135.5042  161.2199 C   0  0  0  0  0  0  0  0  0  0  0  0
  131.4275  134.3961  162.0692 C   0  0  0  0  0  0  0  0  0  0  0  0
  136.6809  137.0098  164.4777 H   0  0  0  0  0  0  0  0  0  0  0  0
  135.7376  138.5035  164.2608 H   0  0  0  0  0  0  0  0  0  0  0  0
  136.6479  138.2367  165.7668 H   0  0  0  0  0  0  0  0  0  0  0  0
  132.7431  135.8445  166.2608 H   0  0  0  0  0  0  0  0  0  0  0  0
  131.2319  134.6652  164.7230 H   0  0  0  0  0  0  0  0  0  0  0  0
  135.2344  136.9369  162.9687 H   0  0  0  0  0  0  0  0  0  0  0  0
  133.5415  133.8177  160.5450 H   0  0  0  0  0  0  0  0  0  0  0  0
  133.3223  135.0521  159.2779 H   0  0  0  0  0  0  0  0  0  0  0  0
  128.3422  133.9878  157.8576 H   0  0  0  0  0  0  0  0  0  0  0  0
  131.1745  133.3852  157.3848 H   0  0  0  0  0  0  0  0  0  0  0  0
  129.8396  134.4442  155.5834 H   0  0  0  0  0  0  0  0  0  0  0  0
  128.7233  133.0578  155.5956 H   0  0  0  0  0  0  0  0  0  0  0  0
  130.4028  132.8322  153.7854 H   0  0  0  0  0  0  0  0  0  0  0  0
  131.7117  132.9315  154.9874 H   0  0  0  0  0  0  0  0  0  0  0  0
  129.5312  130.7973  154.9025 H   0  0  0  0  0  0  0  0  0  0  0  0
  131.2230  130.5733  154.3965 H   0  0  0  0  0  0  0  0  0  0  0  0
  131.9824  131.1247  156.6918 H   0  0  0  0  0  0  0  0  0  0  0  0
  130.8661  129.7383  156.7040 H   0  0  0  0  0  0  0  0  0  0  0  0
  130.3030  131.3502  158.5021 H   0  0  0  0  0  0  0  0  0  0  0  0
  128.9939  131.2510  157.3000 H   0  0  0  0  0  0  0  0  0  0  0  0
  129.2431  135.5264  160.8338 H   0  0  0  0  0  0  0  0  0  0  0  0
  127.7494  132.5228  159.8365 H   0  0  0  0  0  0  0  0  0  0  0  0
  127.4179  132.9550  161.5338 H   0  0  0  0  0  0  0  0  0  0  0  0
  125.4152  131.9079  160.6865 H   0  0  0  0  0  0  0  0  0  0  0  0
  125.4536  132.8990  159.2095 H   0  0  0  0  0  0  0  0  0  0  0  0
  124.7297  135.7503  161.7659 H   0  0  0  0  0  0  0  0  0  0  0  0
  127.2417  135.3873  162.1793 H   0  0  0  0  0  0  0  0  0  0  0  0
  126.7887  136.5482  160.9108 H   0  0  0  0  0  0  0  0  0  0  0  0
  130.4008  134.6104  162.3663 H   0  0  0  0  0  0  0  0  0  0  0  0
  131.6104  133.3243  162.1460 H   0  0  0  0  0  0  0  0  0  0  0  0
  1  2  1  0
  1 33  1  0
  1 34  1  0
  1 35  1  0
  2  3  1  0
  3  8  2  0
  3  4  1  0
  4  5  2  0
  4 36  1  0
  5  6  1  0
  5 37  1  0
  6 32  1  0
  6  7  2  0
  7  8  1  0
  7  9  1  0
  8 38  1  0
  9 10  1  0
 10 11  1  0
 10 39  1  0
 10 40  1  0
 11 12  1  1
 11 13  1  0
 11 32  1  0
 13 14  1  0
 15 13  2  0
 15 16  1  0
 15 23  1  0
 16 17  1  0
 16 41  1  0
 17 22  1  0
 17 18  1  0
 17 42  1  0
 18 19  1  0
 18 43  1  0
 18 44  1  0
 19 20  1  0
 19 45  1  0
 19 46  1  0
 20 21  1  0
 20 47  1  0
 20 48  1  0
 21 22  1  0
 21 49  1  0
 21 50  1  0
 22 51  1  0
 22 52  1  0
 23 24  1  0
 23 53  1  0
 24 25  1  6
 24 31  1  0
 24 26  1  0
 26 27  1  0
 26 54  1  0
 26 55  1  0
 27 28  1  0
 27 56  1  0
 27 57  1  0
 28 29  2  0
 28 30  1  0
 30 31  1  0
 30 58  1  0
 31 59  1  0
 31 60  1  0
 32 61  1  0
 32 62  1  0
M  CHG  1  13   1
M  END
>  <DOCK_score>  (1) 
-41.426434

>  <SMILES>  (1) 
COc1ccc2c(c1)OC[C@@H]([NH+]=C(NC1CCCCC1)N[C@H]1CCC(=O)NC1)C2

$$$$
