O=C1CC[C@H](NC(NC2CCC2)=[NH+]C2COc3cc(Cl)ccc3C2)CN1
     RDKit          3D

 52 55  0  0  1  0  0  0  0  0999 V2000
  123.7867  133.6582  161.2712 O   0  0  0  0  0  0  0  0  0  0  0  0
  124.9581  133.8917  161.0603 C   0  0  0  0  0  0  0  0  0  0  0  0
  125.8422  132.7571  160.6284 C   0  0  0  0  0  0  0  0  0  0  0  0
  127.3113  133.1336  160.8362 C   0  0  0  0  0  0  0  0  0  0  0  0
  127.5469  134.5212  160.2275 C   0  0  2  0  0  0  0  0  0  0  0  0
  127.1902  134.5341  159.1976 H   0  0  0  0  0  0  0  0  0  0  0  0
  128.9778  134.8340  160.2560 N   0  0  0  0  0  0  0  0  0  0  0  0
  129.7787  134.4869  159.1938 C   0  0  0  0  0  0  0  0  0  0  0  0
  129.2368  133.8463  158.1047 N   0  0  0  0  0  0  0  0  0  0  0  0
  130.0545  132.9193  157.3185 C   0  0  0  0  0  0  0  0  0  0  0  0
  129.2298  131.8994  156.5156 C   0  0  0  0  0  0  0  0  0  0  0  0
  130.2932  130.8555  156.9028 C   0  0  0  0  0  0  0  0  0  0  0  0
  130.5920  131.7301  158.1319 C   0  0  0  0  0  0  0  0  0  0  0  0
  131.0518  134.7651  159.2193 N   0  0  0  0  0  0  0  0  0  0  0  0
  131.5270  134.9384  158.3917 H   0  0  0  0  0  0  0  0  0  0  0  0
  131.7650  134.8161  160.4979 C   0  0  1  0  0  0  0  0  0  0  0  0
  132.9138  133.7993  160.4899 C   0  0  0  0  0  0  0  0  0  0  0  0
  133.5234  133.7986  161.7816 O   0  0  0  0  0  0  0  0  0  0  0  0
  133.8623  134.9970  162.3239 C   0  0  0  0  0  0  0  0  0  0  0  0
  134.7690  135.0154  163.3790 C   0  0  0  0  0  0  0  0  0  0  0  0
  135.1275  136.2126  163.9660 C   0  0  0  0  0  0  0  0  0  0  0  0
  136.2555  136.2300  165.2854 Cl  0  0  0  0  0  0  0  0  0  0  0  0
  134.5911  137.3994  163.4974 C   0  0  0  0  0  0  0  0  0  0  0  0
  133.6959  137.3843  162.4462 C   0  0  0  0  0  0  0  0  0  0  0  0
  133.3309  136.1858  161.8555 C   0  0  0  0  0  0  0  0  0  0  0  0
  132.3592  136.2116  160.7030 C   0  0  0  0  0  0  0  0  0  0  0  0
  126.7792  135.5547  161.0527 C   0  0  0  0  0  0  0  0  0  0  0  0
  125.3920  135.1418  161.2248 N   0  0  0  0  0  0  0  0  0  0  0  0
  125.6687  132.5443  159.5735 H   0  0  0  0  0  0  0  0  0  0  0  0
  125.6085  131.8711  161.2185 H   0  0  0  0  0  0  0  0  0  0  0  0
  127.9509  132.4025  160.3417 H   0  0  0  0  0  0  0  0  0  0  0  0
  127.5366  133.1575  161.9024 H   0  0  0  0  0  0  0  0  0  0  0  0
  129.3603  135.2859  161.0244 H   0  0  0  0  0  0  0  0  0  0  0  0
  128.3130  134.0080  157.8569 H   0  0  0  0  0  0  0  0  0  0  0  0
  130.8183  133.4250  156.7278 H   0  0  0  0  0  0  0  0  0  0  0  0
  128.2467  131.7000  156.9421 H   0  0  0  0  0  0  0  0  0  0  0  0
  129.1936  132.1115  155.4471 H   0  0  0  0  0  0  0  0  0  0  0  0
  131.1220  130.7962  156.1973 H   0  0  0  0  0  0  0  0  0  0  0  0
  129.8788  129.8787  157.1522 H   0  0  0  0  0  0  0  0  0  0  0  0
  131.6537  131.8056  158.3663 H   0  0  0  0  0  0  0  0  0  0  0  0
  129.9819  131.4843  159.0013 H   0  0  0  0  0  0  0  0  0  0  0  0
  131.0771  134.5865  161.3117 H   0  0  0  0  0  0  0  0  0  0  0  0
  133.6493  134.0824  159.7368 H   0  0  0  0  0  0  0  0  0  0  0  0
  132.5235  132.8062  160.2675 H   0  0  0  0  0  0  0  0  0  0  0  0
  135.1910  134.0900  163.7423 H   0  0  0  0  0  0  0  0  0  0  0  0
  134.8729  138.3369  163.9537 H   0  0  0  0  0  0  0  0  0  0  0  0
  133.2785  138.3117  162.0826 H   0  0  0  0  0  0  0  0  0  0  0  0
  131.5582  136.9185  160.9195 H   0  0  0  0  0  0  0  0  0  0  0  0
  132.8798  136.5209  159.7966 H   0  0  0  0  0  0  0  0  0  0  0  0
  127.2491  135.6554  162.0311 H   0  0  0  0  0  0  0  0  0  0  0  0
  126.8080  136.5172  160.5419 H   0  0  0  0  0  0  0  0  0  0  0  0
  124.7438  135.8189  161.4744 H   0  0  0  0  0  0  0  0  0  0  0  0
  1  2  2  0
  2 28  1  0
  2  3  1  0
  3  4  1  0
  3 29  1  0
  3 30  1  0
  4  5  1  0
  4 31  1  0
  4 32  1  0
  5  6  1  6
  5  7  1  0
  5 27  1  0
  7 33  1  0
  8  7  1  0
  8  9  1  0
  8 14  2  0
  9 10  1  0
  9 34  1  0
 10 13  1  0
 10 11  1  0
 10 35  1  0
 11 12  1  0
 11 36  1  0
 11 37  1  0
 12 13  1  0
 12 38  1  0
 12 39  1  0
 13 40  1  0
 13 41  1  0
 14 15  1  0
 14 16  1  0
 16 26  1  0
 16 17  1  0
 16 42  1  1
 17 18  1  0
 17 43  1  0
 17 44  1  0
 18 19  1  0
 19 25  2  0
 19 20  1  0
 20 21  2  0
 20 45  1  0
 21 22  1  0
 21 23  1  0
 23 24  2  0
 23 46  1  0
 24 25  1  0
 24 47  1  0
 25 26  1  0
 26 48  1  0
 26 49  1  0
 27 28  1  0
 27 50  1  0
 27 51  1  0
 28 52  1  0
M  CHG  1  14   1
M  END
>  <DOCK_score>  (1) 
-47.780724

>  <SMILES>  (1) 
O=C1CC[C@H](NC(NC2CCC2)=[NH+]C2COc3cc(Cl)ccc3C2)CN1

$$$$
