Clc1nc(-c2ccc(-c3c[nH]c(N[C@@H](Cc4ccccc4Cl)c4ccccc4)[nH+]3)cc2)c[nH]1
     RDKit          3D

 55 59  0  0  1  0  0  0  0  0999 V2000
  129.8457  126.9586  150.5417 Cl  0  0  0  0  0  0  0  0  0  0  0  0
  130.1785  128.5099  151.2462 C   0  0  0  0  0  0  0  0  0  0  0  0
  130.0676  128.8083  152.5117 N   0  0  0  0  0  0  0  0  0  0  0  0
  130.4078  130.1011  152.6948 C   0  0  0  0  0  0  0  0  0  0  0  0
  130.4141  130.8278  153.9875 C   0  0  0  0  0  0  0  0  0  0  0  0
  130.1657  132.1999  154.0174 C   0  0  0  0  0  0  0  0  0  0  0  0
  130.1715  132.8749  155.2180 C   0  0  0  0  0  0  0  0  0  0  0  0
  130.4266  132.1863  156.4040 C   0  0  0  0  0  0  0  0  0  0  0  0
  130.4340  132.9131  157.6964 C   0  0  0  0  0  0  0  0  0  0  0  0
  130.1052  132.3944  158.9059 C   0  0  0  0  0  0  0  0  0  0  0  0
  130.2487  133.4051  159.8253 N   0  0  0  0  0  0  0  0  0  0  0  0
  130.0857  133.3413  160.7794 H   0  0  0  0  0  0  0  0  0  0  0  0
  130.6611  134.5126  159.1503 C   0  0  0  0  0  0  0  0  0  0  0  0
  130.9221  135.7497  159.7141 N   0  0  0  0  0  0  0  0  0  0  0  0
  130.7585  135.9467  161.1564 C   0  0  1  0  0  0  0  0  0  0  0  0
  131.4210  135.2677  161.6933 H   0  0  0  0  0  0  0  0  0  0  0  0
  131.1085  137.3919  161.5170 C   0  0  0  0  0  0  0  0  0  0  0  0
  132.6058  137.5403  161.6003 C   0  0  0  0  0  0  0  0  0  0  0  0
  133.3251  136.7903  162.5120 C   0  0  0  0  0  0  0  0  0  0  0  0
  134.6989  136.9229  162.5853 C   0  0  0  0  0  0  0  0  0  0  0  0
  135.3535  137.8136  161.7539 C   0  0  0  0  0  0  0  0  0  0  0  0
  134.6349  138.5673  160.8462 C   0  0  0  0  0  0  0  0  0  0  0  0
  133.2601  138.4312  160.7687 C   0  0  0  0  0  0  0  0  0  0  0  0
  132.3567  139.3778  159.6278 Cl  0  0  0  0  0  0  0  0  0  0  0  0
  129.3295  135.6646  161.5431 C   0  0  0  0  0  0  0  0  0  0  0  0
  129.0383  135.1718  162.8014 C   0  0  0  0  0  0  0  0  0  0  0  0
  127.7271  134.9171  163.1575 C   0  0  0  0  0  0  0  0  0  0  0  0
  126.7079  135.1466  162.2524 C   0  0  0  0  0  0  0  0  0  0  0  0
  126.9997  135.6346  160.9922 C   0  0  0  0  0  0  0  0  0  0  0  0
  128.3104  135.8933  160.6376 C   0  0  0  0  0  0  0  0  0  0  0  0
  130.7765  134.2132  157.8795 N   0  0  0  0  0  0  0  0  0  0  0  0
  131.0588  134.8242  157.1810 H   0  0  0  0  0  0  0  0  0  0  0  0
  130.6748  130.8141  156.3741 C   0  0  0  0  0  0  0  0  0  0  0  0
  130.6684  130.1390  155.1734 C   0  0  0  0  0  0  0  0  0  0  0  0
  130.7379  130.6200  151.4838 C   0  0  0  0  0  0  0  0  0  0  0  0
  130.5968  129.6103  150.5706 N   0  0  0  0  0  0  0  0  0  0  0  0
  130.7618  129.6708  149.6167 H   0  0  0  0  0  0  0  0  0  0  0  0
  129.9729  132.7337  153.0986 H   0  0  0  0  0  0  0  0  0  0  0  0
  129.9790  133.9373  155.2412 H   0  0  0  0  0  0  0  0  0  0  0  0
  129.7905  131.3811  159.1074 H   0  0  0  0  0  0  0  0  0  0  0  0
  131.2133  136.4862  159.1540 H   0  0  0  0  0  0  0  0  0  0  0  0
  130.7189  138.0620  160.7505 H   0  0  0  0  0  0  0  0  0  0  0  0
  130.6641  137.6440  162.4798 H   0  0  0  0  0  0  0  0  0  0  0  0
  132.8138  136.0979  163.1644 H   0  0  0  0  0  0  0  0  0  0  0  0
  135.2609  136.3339  163.2952 H   0  0  0  0  0  0  0  0  0  0  0  0
  136.4265  137.9197  161.8144 H   0  0  0  0  0  0  0  0  0  0  0  0
  135.1463  139.2630  160.1974 H   0  0  0  0  0  0  0  0  0  0  0  0
  129.8349  134.9889  163.5074 H   0  0  0  0  0  0  0  0  0  0  0  0
  127.4993  134.5364  164.1422 H   0  0  0  0  0  0  0  0  0  0  0  0
  125.6838  134.9453  162.5297 H   0  0  0  0  0  0  0  0  0  0  0  0
  126.2034  135.8139  160.2850 H   0  0  0  0  0  0  0  0  0  0  0  0
  128.5383  136.2744  159.6530 H   0  0  0  0  0  0  0  0  0  0  0  0
  130.8715  130.2808  157.2923 H   0  0  0  0  0  0  0  0  0  0  0  0
  130.8605  129.0766  155.1503 H   0  0  0  0  0  0  0  0  0  0  0  0
  131.0526  131.6330  151.2808 H   0  0  0  0  0  0  0  0  0  0  0  0
  1  2  1  0
  2 36  1  0
  2  3  2  0
  3  4  1  0
  4  5  1  0
  4 35  2  0
  5 34  1  0
  5  6  2  0
  6  7  1  0
  6 38  1  0
  7  8  2  0
  7 39  1  0
  8  9  1  0
  8 33  1  0
  9 31  1  0
  9 10  2  0
 10 11  1  0
 10 40  1  0
 11 12  1  0
 11 13  1  0
 13 14  1  0
 13 31  2  0
 14 15  1  0
 14 41  1  0
 15 16  1  1
 15 17  1  0
 15 25  1  0
 17 18  1  0
 17 42  1  0
 17 43  1  0
 18 23  1  0
 18 19  2  0
 19 20  1  0
 19 44  1  0
 20 21  2  0
 20 45  1  0
 21 22  1  0
 21 46  1  0
 22 23  2  0
 22 47  1  0
 23 24  1  0
 25 30  1  0
 25 26  2  0
 26 27  1  0
 26 48  1  0
 27 28  2  0
 27 49  1  0
 28 29  1  0
 28 50  1  0
 29 30  2  0
 29 51  1  0
 30 52  1  0
 31 32  1  0
 33 34  2  0
 33 53  1  0
 34 54  1  0
 35 36  1  0
 35 55  1  0
 36 37  1  0
M  CHG  1  31   1
M  END
>  <DOCK_score>  (1) 
-57.54454

>  <SMILES>  (1) 
Clc1nc(-c2ccc(-c3c[nH]c(N[C@@H](Cc4ccccc4Cl)c4ccccc4)[nH+]3)cc2)c[nH]1

$$$$
