CC(c1cnn(-c2ccccc2)c1)[N@H+]1CC=C(c2cccc(-c3ccccc3)c2)CC1
     RDKit          3D

 59 63  0  0  1  0  0  0  0  0999 V2000
  129.5972  134.2675  161.2345 C   0  0  0  0  0  0  0  0  0  0  0  0
  129.8197  134.6690  159.7749 C   0  0  2  0  0  0  0  0  0  0  0  0
  130.1388  133.4423  158.9596 C   0  0  0  0  0  0  0  0  0  0  0  0
  130.2232  132.1319  159.4427 C   0  0  0  0  0  0  0  0  0  0  0  0
  130.5131  131.3432  158.4394 N   0  0  0  0  0  0  0  0  0  0  0  0
  130.6229  132.1271  157.2836 N   0  0  0  0  0  0  0  0  0  0  0  0
  130.9231  131.6611  155.9961 C   0  0  0  0  0  0  0  0  0  0  0  0
  130.9953  132.5516  154.9333 C   0  0  0  0  0  0  0  0  0  0  0  0
  131.2965  132.0901  153.6668 C   0  0  0  0  0  0  0  0  0  0  0  0
  131.5145  130.7411  153.4546 C   0  0  0  0  0  0  0  0  0  0  0  0
  131.4380  129.8512  154.5102 C   0  0  0  0  0  0  0  0  0  0  0  0
  131.1429  130.3074  155.7800 C   0  0  0  0  0  0  0  0  0  0  0  0
  130.3884  133.4131  157.6300 C   0  0  0  0  0  0  0  0  0  0  0  0
  130.9393  135.6164  159.6929 N   0  0  1  0  0  0  0  0  0  0  0  0
  131.3009  135.6311  158.7509 H   0  0  0  0  0  0  0  0  0  0  0  0
  130.4754  136.9582  160.0639 C   0  0  0  0  0  0  0  0  0  0  0  0
  131.6369  137.9043  160.1656 C   0  0  0  0  0  0  0  0  0  0  0  0
  132.8818  137.4982  160.2910 C   0  0  0  0  0  0  0  0  0  0  0  0
  133.9551  138.5099  160.3890 C   0  0  0  0  0  0  0  0  0  0  0  0
  134.5853  138.9757  159.2334 C   0  0  0  0  0  0  0  0  0  0  0  0
  135.5836  139.9248  159.3240 C   0  0  0  0  0  0  0  0  0  0  0  0
  135.9728  140.4104  160.5572 C   0  0  0  0  0  0  0  0  0  0  0  0
  135.3552  139.9489  161.7186 C   0  0  0  0  0  0  0  0  0  0  0  0
  135.7749  140.4728  163.0422 C   0  0  0  0  0  0  0  0  0  0  0  0
  135.6726  139.6700  164.1763 C   0  0  0  0  0  0  0  0  0  0  0  0
  136.0685  140.1608  165.4041 C   0  0  0  0  0  0  0  0  0  0  0  0
  136.5578  141.4509  165.5109 C   0  0  0  0  0  0  0  0  0  0  0  0
  136.6562  142.2534  164.3894 C   0  0  0  0  0  0  0  0  0  0  0  0
  136.2676  141.7711  163.1559 C   0  0  0  0  0  0  0  0  0  0  0  0
  134.3443  138.9968  161.6349 C   0  0  0  0  0  0  0  0  0  0  0  0
  133.2522  136.0412  160.3378 C   0  0  0  0  0  0  0  0  0  0  0  0
  132.0029  135.2034  160.6222 C   0  0  0  0  0  0  0  0  0  0  0  0
  128.7664  133.5644  161.2953 H   0  0  0  0  0  0  0  0  0  0  0  0
  130.5003  133.7972  161.6237 H   0  0  0  0  0  0  0  0  0  0  0  0
  129.3663  135.1547  161.8242 H   0  0  0  0  0  0  0  0  0  0  0  0
  128.9166  135.1391  159.3857 H   0  0  0  0  0  0  0  0  0  0  0  0
  130.0742  131.8242  160.4672 H   0  0  0  0  0  0  0  0  0  0  0  0
  130.8208  133.6046  155.0975 H   0  0  0  0  0  0  0  0  0  0  0  0
  131.3570  132.7828  152.8404 H   0  0  0  0  0  0  0  0  0  0  0  0
  131.7454  130.3820  152.4626 H   0  0  0  0  0  0  0  0  0  0  0  0
  131.6088  128.7981  154.3415 H   0  0  0  0  0  0  0  0  0  0  0  0
  131.0836  129.6119  156.6041 H   0  0  0  0  0  0  0  0  0  0  0  0
  130.3986  134.2639  156.9648 H   0  0  0  0  0  0  0  0  0  0  0  0
  129.7799  137.3213  159.3072 H   0  0  0  0  0  0  0  0  0  0  0  0
  129.9645  136.9100  161.0255 H   0  0  0  0  0  0  0  0  0  0  0  0
  131.4416  138.9661  160.1340 H   0  0  0  0  0  0  0  0  0  0  0  0
  134.2884  138.5961  158.2669 H   0  0  0  0  0  0  0  0  0  0  0  0
  136.0656  140.2854  158.4273 H   0  0  0  0  0  0  0  0  0  0  0  0
  136.7574  141.1499  160.6219 H   0  0  0  0  0  0  0  0  0  0  0  0
  135.2872  138.6644  164.0943 H   0  0  0  0  0  0  0  0  0  0  0  0
  135.9931  139.5382  166.2832 H   0  0  0  0  0  0  0  0  0  0  0  0
  136.8624  141.8318  166.4744 H   0  0  0  0  0  0  0  0  0  0  0  0
  137.0385  143.2596  164.4787 H   0  0  0  0  0  0  0  0  0  0  0  0
  136.3449  142.3991  162.2806 H   0  0  0  0  0  0  0  0  0  0  0  0
  133.8634  138.6362  162.5322 H   0  0  0  0  0  0  0  0  0  0  0  0
  133.9859  135.8783  161.1273 H   0  0  0  0  0  0  0  0  0  0  0  0
  133.6781  135.7442  159.3795 H   0  0  0  0  0  0  0  0  0  0  0  0
  131.6767  135.3698  161.6488 H   0  0  0  0  0  0  0  0  0  0  0  0
  132.2289  134.1475  160.4738 H   0  0  0  0  0  0  0  0  0  0  0  0
  1  2  1  0
  1 33  1  0
  1 34  1  0
  1 35  1  0
  2  3  1  0
  2 14  1  0
  2 36  1  6
  3 13  2  0
  3  4  1  0
  4  5  2  0
  4 37  1  0
  5  6  1  0
  6  7  1  0
  6 13  1  0
  7 12  1  0
  7  8  2  0
  8  9  1  0
  8 38  1  0
  9 10  2  0
  9 39  1  0
 10 11  1  0
 10 40  1  0
 11 12  2  0
 11 41  1  0
 12 42  1  0
 13 43  1  0
 14 15  1  6
 14 32  1  0
 14 16  1  0
 16 17  1  0
 16 44  1  0
 16 45  1  0
 17 18  2  0
 17 46  1  0
 18 19  1  0
 18 31  1  0
 19 30  1  0
 19 20  2  0
 20 21  1  0
 20 47  1  0
 21 22  2  0
 21 48  1  0
 22 23  1  0
 22 49  1  0
 23 24  1  0
 23 30  2  0
 24 29  1  0
 24 25  2  0
 25 26  1  0
 25 50  1  0
 26 27  2  0
 26 51  1  0
 27 28  1  0
 27 52  1  0
 28 29  2  0
 28 53  1  0
 29 54  1  0
 30 55  1  0
 31 32  1  0
 31 56  1  0
 31 57  1  0
 32 58  1  0
 32 59  1  0
M  CHG  1  14   1
M  END
>  <DOCK_score>  (1) 
-60.311768

>  <SMILES>  (1) 
CC(c1cnn(-c2ccccc2)c1)[N@H+]1CC=C(c2cccc(-c3ccccc3)c2)CC1

$$$$
