Nc1ccc(-c2c[nH]c(N[C@@H](SCc3ccccc3CBr)C3=CCC=CC3)[nH+]2)cc1
     RDKit          3D

 56 59  0  0  1  0  0  0  0  0999 V2000
  131.0098  129.2414  152.3011 N   0  0  0  0  0  0  0  0  0  0  0  0
  130.7985  130.0218  153.4403 C   0  0  0  0  0  0  0  0  0  0  0  0
  129.9854  131.1469  153.3696 C   0  0  0  0  0  0  0  0  0  0  0  0
  129.7754  131.9186  154.4928 C   0  0  0  0  0  0  0  0  0  0  0  0
  130.3792  131.5698  155.6999 C   0  0  0  0  0  0  0  0  0  0  0  0
  130.1548  132.3985  156.9097 C   0  0  0  0  0  0  0  0  0  0  0  0
  129.6046  131.9766  158.0749 C   0  0  0  0  0  0  0  0  0  0  0  0
  129.5804  133.0609  158.9199 N   0  0  0  0  0  0  0  0  0  0  0  0
  129.2405  133.0740  159.8283 H   0  0  0  0  0  0  0  0  0  0  0  0
  130.1215  134.1121  158.2465 C   0  0  0  0  0  0  0  0  0  0  0  0
  130.2819  135.3933  158.7460 N   0  0  0  0  0  0  0  0  0  0  0  0
  129.8515  135.7066  160.1109 C   0  0  1  0  0  0  0  0  0  0  0  0
  130.3956  135.0787  160.8166 H   0  0  0  0  0  0  0  0  0  0  0  0
  130.1932  137.4522  160.4669 S   0  0  0  0  0  0  0  0  0  0  0  0
  130.1899  137.5071  162.2801 C   0  0  0  0  0  0  0  0  0  0  0  0
  130.4642  138.9155  162.7404 C   0  0  0  0  0  0  0  0  0  0  0  0
  131.4730  139.6523  162.1481 C   0  0  0  0  0  0  0  0  0  0  0  0
  131.7246  140.9441  162.5703 C   0  0  0  0  0  0  0  0  0  0  0  0
  130.9675  141.4996  163.5846 C   0  0  0  0  0  0  0  0  0  0  0  0
  129.9581  140.7636  164.1762 C   0  0  0  0  0  0  0  0  0  0  0  0
  129.7035  139.4730  163.7510 C   0  0  0  0  0  0  0  0  0  0  0  0
  128.5997  138.6721  164.3923 C   0  0  0  0  0  0  0  0  0  0  0  0
  126.9208  138.9686  163.4131 Br  0  0  0  0  0  0  0  0  0  0  0  0
  128.3730  135.4469  160.2436 C   0  0  0  0  0  0  0  0  0  0  0  0
  127.6204  135.5927  159.1959 C   0  0  0  0  0  0  0  0  0  0  0  0
  126.1397  135.3598  159.2198 C   0  0  0  0  0  0  0  0  0  0  0  0
  125.7425  134.5186  160.3953 C   0  0  0  0  0  0  0  0  0  0  0  0
  126.4949  134.3731  161.4432 C   0  0  0  0  0  0  0  0  0  0  0  0
  127.8358  135.0254  161.5781 C   0  0  0  0  0  0  0  0  0  0  0  0
  130.4663  133.7117  157.0468 N   0  0  0  0  0  0  0  0  0  0  0  0
  130.8751  134.2669  156.3646 H   0  0  0  0  0  0  0  0  0  0  0  0
  131.1990  130.4443  155.7670 C   0  0  0  0  0  0  0  0  0  0  0  0
  131.4013  129.6719  154.6427 C   0  0  0  0  0  0  0  0  0  0  0  0
  130.5894  129.4848  151.4615 H   0  0  0  0  0  0  0  0  0  0  0  0
  131.5772  128.4562  152.3495 H   0  0  0  0  0  0  0  0  0  0  0  0
  129.5181  131.4168  152.4342 H   0  0  0  0  0  0  0  0  0  0  0  0
  129.1431  132.7925  154.4375 H   0  0  0  0  0  0  0  0  0  0  0  0
  129.2493  130.9808  158.2954 H   0  0  0  0  0  0  0  0  0  0  0  0
  130.6792  136.0835  158.1924 H   0  0  0  0  0  0  0  0  0  0  0  0
  129.2166  137.1865  162.6515 H   0  0  0  0  0  0  0  0  0  0  0  0
  130.9628  136.8420  162.6651 H   0  0  0  0  0  0  0  0  0  0  0  0
  132.0648  139.2182  161.3557 H   0  0  0  0  0  0  0  0  0  0  0  0
  132.5132  141.5193  162.1081 H   0  0  0  0  0  0  0  0  0  0  0  0
  131.1641  142.5089  163.9152 H   0  0  0  0  0  0  0  0  0  0  0  0
  129.3666  141.1976  164.9688 H   0  0  0  0  0  0  0  0  0  0  0  0
  128.8552  137.6129  164.3630 H   0  0  0  0  0  0  0  0  0  0  0  0
  128.4767  138.9876  165.4284 H   0  0  0  0  0  0  0  0  0  0  0  0
  128.0810  135.8947  158.2667 H   0  0  0  0  0  0  0  0  0  0  0  0
  125.6279  136.3203  159.2785 H   0  0  0  0  0  0  0  0  0  0  0  0
  125.8430  134.8525  158.3019 H   0  0  0  0  0  0  0  0  0  0  0  0
  124.7890  134.0120  160.3696 H   0  0  0  0  0  0  0  0  0  0  0  0
  126.1405  133.7506  162.2515 H   0  0  0  0  0  0  0  0  0  0  0  0
  128.5320  134.3240  162.0382 H   0  0  0  0  0  0  0  0  0  0  0  0
  127.7391  135.9027  162.2176 H   0  0  0  0  0  0  0  0  0  0  0  0
  131.6717  130.1748  156.6999 H   0  0  0  0  0  0  0  0  0  0  0  0
  132.0324  128.7971  154.6954 H   0  0  0  0  0  0  0  0  0  0  0  0
  1  2  1  0
  1 34  1  0
  1 35  1  0
  2 33  2  0
  2  3  1  0
  3  4  2  0
  3 36  1  0
  4  5  1  0
  4 37  1  0
  5  6  1  0
  5 32  2  0
  6 30  1  0
  6  7  2  0
  7  8  1  0
  7 38  1  0
  8  9  1  0
  8 10  1  0
 10 11  1  0
 10 30  2  0
 11 12  1  0
 11 39  1  0
 12 13  1  1
 12 14  1  0
 12 24  1  0
 14 15  1  0
 15 16  1  0
 15 40  1  0
 15 41  1  0
 16 21  1  0
 16 17  2  0
 17 18  1  0
 17 42  1  0
 18 19  2  0
 18 43  1  0
 19 20  1  0
 19 44  1  0
 20 21  2  0
 20 45  1  0
 21 22  1  0
 22 23  1  0
 22 46  1  0
 22 47  1  0
 24 29  1  0
 24 25  2  0
 25 26  1  0
 25 48  1  0
 26 27  1  0
 26 49  1  0
 26 50  1  0
 27 28  2  0
 27 51  1  0
 28 29  1  0
 28 52  1  0
 29 53  1  0
 29 54  1  0
 30 31  1  0
 32 33  1  0
 32 55  1  0
 33 56  1  0
M  CHG  1  30   1
M  END
>  <DOCK_score>  (1) 
-59.00618

>  <SMILES>  (1) 
Nc1ccc(-c2c[nH]c(N[C@@H](SCc3ccccc3CBr)C3=CCC=CC3)[nH+]2)cc1

$$$$
