C[C@H](Cc1ccc(-c2ccccc2)cc1)Nc1[nH]cc(-c2ccccc2)[nH+]1
     RDKit          3D

 51 54  0  0  1  0  0  0  0  0999 V2000
  128.5768  136.8379  160.4226 C   0  0  0  0  0  0  0  0  0  0  0  0
  129.0958  135.4043  160.2958 C   0  0  2  0  0  0  0  0  0  0  0  0
  128.2707  134.7057  160.4338 H   0  0  0  0  0  0  0  0  0  0  0  0
  130.1619  135.1516  161.3636 C   0  0  0  0  0  0  0  0  0  0  0  0
  131.3029  136.1175  161.1729 C   0  0  0  0  0  0  0  0  0  0  0  0
  131.2819  137.3436  161.8132 C   0  0  0  0  0  0  0  0  0  0  0  0
  132.3244  138.2318  161.6424 C   0  0  0  0  0  0  0  0  0  0  0  0
  133.3992  137.8917  160.8235 C   0  0  0  0  0  0  0  0  0  0  0  0
  134.5225  138.8429  160.6356 C   0  0  0  0  0  0  0  0  0  0  0  0
  135.2406  138.8499  159.4416 C   0  0  0  0  0  0  0  0  0  0  0  0
  136.2849  139.7363  159.2725 C   0  0  0  0  0  0  0  0  0  0  0  0
  136.6190  140.6167  160.2857 C   0  0  0  0  0  0  0  0  0  0  0  0
  135.9130  140.6104  161.4751 C   0  0  0  0  0  0  0  0  0  0  0  0
  134.8636  139.7318  161.6530 C   0  0  0  0  0  0  0  0  0  0  0  0
  133.4125  136.6573  160.1769 C   0  0  0  0  0  0  0  0  0  0  0  0
  132.3673  135.7747  160.3589 C   0  0  0  0  0  0  0  0  0  0  0  0
  129.6810  135.2125  158.9666 N   0  0  0  0  0  0  0  0  0  0  0  0
  129.6507  133.9633  158.3707 C   0  0  0  0  0  0  0  0  0  0  0  0
  129.1145  132.8376  158.9162 N   0  0  0  0  0  0  0  0  0  0  0  0
  128.6882  132.7669  159.7846 H   0  0  0  0  0  0  0  0  0  0  0  0
  129.2854  131.8207  158.0085 C   0  0  0  0  0  0  0  0  0  0  0  0
  129.9281  132.3518  156.9391 C   0  0  0  0  0  0  0  0  0  0  0  0
  130.3292  131.6226  155.7112 C   0  0  0  0  0  0  0  0  0  0  0  0
  129.8295  132.0142  154.4704 C   0  0  0  0  0  0  0  0  0  0  0  0
  130.2109  131.3362  153.3305 C   0  0  0  0  0  0  0  0  0  0  0  0
  131.0777  130.2616  153.4194 C   0  0  0  0  0  0  0  0  0  0  0  0
  131.5726  129.8651  154.6486 C   0  0  0  0  0  0  0  0  0  0  0  0
  131.2028  130.5398  155.7944 C   0  0  0  0  0  0  0  0  0  0  0  0
  130.1388  133.6683  157.1906 N   0  0  0  0  0  0  0  0  0  0  0  0
  130.5802  134.2916  156.5927 H   0  0  0  0  0  0  0  0  0  0  0  0
  128.1414  136.9807  161.4115 H   0  0  0  0  0  0  0  0  0  0  0  0
  129.4020  137.5366  160.2846 H   0  0  0  0  0  0  0  0  0  0  0  0
  127.8173  137.0181  159.6618 H   0  0  0  0  0  0  0  0  0  0  0  0
  130.5317  134.1301  161.2733 H   0  0  0  0  0  0  0  0  0  0  0  0
  129.7266  135.2941  162.3527 H   0  0  0  0  0  0  0  0  0  0  0  0
  130.4482  137.6063  162.4473 H   0  0  0  0  0  0  0  0  0  0  0  0
  132.3069  139.1890  162.1423 H   0  0  0  0  0  0  0  0  0  0  0  0
  134.9807  138.1626  158.6501 H   0  0  0  0  0  0  0  0  0  0  0  0
  136.8420  139.7428  158.3472 H   0  0  0  0  0  0  0  0  0  0  0  0
  137.4372  141.3084  160.1493 H   0  0  0  0  0  0  0  0  0  0  0  0
  136.1806  141.2972  162.2645 H   0  0  0  0  0  0  0  0  0  0  0  0
  134.3104  139.7305  162.5806 H   0  0  0  0  0  0  0  0  0  0  0  0
  134.2411  136.3904  159.5378 H   0  0  0  0  0  0  0  0  0  0  0  0
  132.3785  134.8160  159.8615 H   0  0  0  0  0  0  0  0  0  0  0  0
  130.0895  135.9607  158.5039 H   0  0  0  0  0  0  0  0  0  0  0  0
  128.9713  130.7941  158.1258 H   0  0  0  0  0  0  0  0  0  0  0  0
  129.1488  132.8498  154.4005 H   0  0  0  0  0  0  0  0  0  0  0  0
  129.8283  131.6419  152.3680 H   0  0  0  0  0  0  0  0  0  0  0  0
  131.3698  129.7306  152.5254 H   0  0  0  0  0  0  0  0  0  0  0  0
  132.2497  129.0262  154.7120 H   0  0  0  0  0  0  0  0  0  0  0  0
  131.5898  130.2295  156.7538 H   0  0  0  0  0  0  0  0  0  0  0  0
  1  2  1  0
  1 31  1  0
  1 32  1  0
  1 33  1  0
  2  3  1  1
  2  4  1  0
  2 17  1  0
  4  5  1  0
  4 34  1  0
  4 35  1  0
  5 16  1  0
  5  6  2  0
  6  7  1  0
  6 36  1  0
  7  8  2  0
  7 37  1  0
  8  9  1  0
  8 15  1  0
  9 14  1  0
  9 10  2  0
 10 11  1  0
 10 38  1  0
 11 12  2  0
 11 39  1  0
 12 13  1  0
 12 40  1  0
 13 14  2  0
 13 41  1  0
 14 42  1  0
 15 16  2  0
 15 43  1  0
 16 44  1  0
 17 45  1  0
 18 17  1  0
 18 29  2  0
 18 19  1  0
 19 20  1  0
 19 21  1  0
 21 22  2  0
 21 46  1  0
 22 23  1  0
 22 29  1  0
 23 28  1  0
 23 24  2  0
 24 25  1  0
 24 47  1  0
 25 26  2  0
 25 48  1  0
 26 27  1  0
 26 49  1  0
 27 28  2  0
 27 50  1  0
 28 51  1  0
 29 30  1  0
M  CHG  1  29   1
M  END
>  <DOCK_score>  (1) 
-56.23402

>  <SMILES>  (1) 
C[C@H](Cc1ccc(-c2ccccc2)cc1)Nc1[nH]cc(-c2ccccc2)[nH+]1

$$$$
