Oc1ccc(Nc2ccc(Nc3[nH]cc(-c4cccnc4)[nH+]3)cc2)cc1
     RDKit          3D

 44 47  0  0  1  0  0  0  0  0999 V2000
  127.8717  138.8586  167.0038 O   0  0  0  0  0  0  0  0  0  0  0  0
  127.4782  138.3551  165.8033 C   0  0  0  0  0  0  0  0  0  0  0  0
  127.8654  137.0775  165.4270 C   0  0  0  0  0  0  0  0  0  0  0  0
  127.4671  136.5658  164.2079 C   0  0  0  0  0  0  0  0  0  0  0  0
  126.6780  137.3306  163.3586 C   0  0  0  0  0  0  0  0  0  0  0  0
  126.2742  136.8130  162.1228 N   0  0  0  0  0  0  0  0  0  0  0  0
  127.2329  136.4328  161.1766 C   0  0  0  0  0  0  0  0  0  0  0  0
  126.9551  135.4111  160.2779 C   0  0  0  0  0  0  0  0  0  0  0  0
  127.9026  135.0336  159.3474 C   0  0  0  0  0  0  0  0  0  0  0  0
  129.1293  135.6830  159.3028 C   0  0  0  0  0  0  0  0  0  0  0  0
  130.0883  135.3038  158.3553 N   0  0  0  0  0  0  0  0  0  0  0  0
  130.1389  133.9943  157.9071 C   0  0  0  0  0  0  0  0  0  0  0  0
  129.7774  132.8958  158.6253 N   0  0  0  0  0  0  0  0  0  0  0  0
  129.4415  132.8893  159.5352 H   0  0  0  0  0  0  0  0  0  0  0  0
  129.9770  131.7985  157.8239 C   0  0  0  0  0  0  0  0  0  0  0  0
  130.4542  132.2571  156.6401 C   0  0  0  0  0  0  0  0  0  0  0  0
  130.8161  131.4277  155.4647 C   0  0  0  0  0  0  0  0  0  0  0  0
  130.6896  131.9378  154.1693 C   0  0  0  0  0  0  0  0  0  0  0  0
  131.0457  131.1258  153.1065 C   0  0  0  0  0  0  0  0  0  0  0  0
  131.5003  129.8438  153.3571 C   0  0  0  0  0  0  0  0  0  0  0  0
  131.6039  129.3879  154.5903 N   0  0  0  0  0  0  0  0  0  0  0  0
  131.2821  130.1253  155.6336 C   0  0  0  0  0  0  0  0  0  0  0  0
  130.5374  133.6086  156.7194 N   0  0  0  0  0  0  0  0  0  0  0  0
  130.8451  134.1956  156.0111 H   0  0  0  0  0  0  0  0  0  0  0  0
  129.4055  136.7085  160.1979 C   0  0  0  0  0  0  0  0  0  0  0  0
  128.4599  137.0828  161.1318 C   0  0  0  0  0  0  0  0  0  0  0  0
  126.2947  138.6116  163.7341 C   0  0  0  0  0  0  0  0  0  0  0  0
  126.6901  139.1198  164.9559 C   0  0  0  0  0  0  0  0  0  0  0  0
  128.4176  138.2534  167.5243 H   0  0  0  0  0  0  0  0  0  0  0  0
  128.4790  136.4829  166.0877 H   0  0  0  0  0  0  0  0  0  0  0  0
  127.7693  135.5711  163.9148 H   0  0  0  0  0  0  0  0  0  0  0  0
  125.3301  136.7171  161.9221 H   0  0  0  0  0  0  0  0  0  0  0  0
  125.9994  134.9091  160.3098 H   0  0  0  0  0  0  0  0  0  0  0  0
  127.6880  134.2363  158.6512 H   0  0  0  0  0  0  0  0  0  0  0  0
  130.7172  135.9583  158.0130 H   0  0  0  0  0  0  0  0  0  0  0  0
  129.7892  130.7678  158.0859 H   0  0  0  0  0  0  0  0  0  0  0  0
  130.3275  132.9414  154.0022 H   0  0  0  0  0  0  0  0  0  0  0  0
  130.9649  131.4878  152.0922 H   0  0  0  0  0  0  0  0  0  0  0  0
  131.7750  129.2060  152.5299 H   0  0  0  0  0  0  0  0  0  0  0  0
  131.3808  129.7171  156.6285 H   0  0  0  0  0  0  0  0  0  0  0  0
  130.3596  137.2132  160.1634 H   0  0  0  0  0  0  0  0  0  0  0  0
  128.6747  137.8801  161.8279 H   0  0  0  0  0  0  0  0  0  0  0  0
  125.6845  139.2086  163.0726 H   0  0  0  0  0  0  0  0  0  0  0  0
  126.3894  140.1146  165.2494 H   0  0  0  0  0  0  0  0  0  0  0  0
  1  2  1  0
  1 29  1  0
  2 28  2  0
  2  3  1  0
  3  4  2  0
  3 30  1  0
  4  5  1  0
  4 31  1  0
  5  6  1  0
  5 27  2  0
  6  7  1  0
  6 32  1  0
  7 26  1  0
  7  8  2  0
  8  9  1  0
  8 33  1  0
  9 10  2  0
  9 34  1  0
 10 11  1  0
 10 25  1  0
 11 35  1  0
 12 11  1  0
 12 23  2  0
 12 13  1  0
 13 14  1  0
 13 15  1  0
 15 16  2  0
 15 36  1  0
 16 17  1  0
 16 23  1  0
 17 22  1  0
 17 18  2  0
 18 19  1  0
 18 37  1  0
 19 20  2  0
 19 38  1  0
 20 21  1  0
 20 39  1  0
 21 22  2  0
 22 40  1  0
 23 24  1  0
 25 26  2  0
 25 41  1  0
 26 42  1  0
 27 28  1  0
 27 43  1  0
 28 44  1  0
M  CHG  1  23   1
M  END
>  <DOCK_score>  (1) 
-51.75536

>  <SMILES>  (1) 
Oc1ccc(Nc2ccc(Nc3[nH]cc(-c4cccnc4)[nH+]3)cc2)cc1

$$$$
