COC1=Cc2[nH]c3cc(Nc4[nH]cc(-c5ccncc5)[nH+]4)c(OC)cc3c2C1
     RDKit          3D

 48 52  0  0  1  0  0  0  0  0999 V2000
  127.6653  136.1571  168.5032 C   0  0  0  0  0  0  0  0  0  0  0  0
  126.6669  136.3806  167.5056 O   0  0  0  0  0  0  0  0  0  0  0  0
  127.0425  136.2232  166.2133 C   0  0  0  0  0  0  0  0  0  0  0  0
  126.2678  136.3834  165.1400 C   0  0  0  0  0  0  0  0  0  0  0  0
  127.0226  136.1279  163.9048 C   0  0  0  0  0  0  0  0  0  0  0  0
  126.8808  136.1060  162.5281 N   0  0  0  0  0  0  0  0  0  0  0  0
  126.0607  136.3050  162.0496 H   0  0  0  0  0  0  0  0  0  0  0  0
  128.0789  135.7599  161.9367 C   0  0  0  0  0  0  0  0  0  0  0  0
  128.4697  135.5925  160.6129 C   0  0  0  0  0  0  0  0  0  0  0  0
  129.7724  135.2352  160.3159 C   0  0  0  0  0  0  0  0  0  0  0  0
  130.1613  135.0717  158.9803 N   0  0  0  0  0  0  0  0  0  0  0  0
  130.0479  133.8326  158.3730 C   0  0  0  0  0  0  0  0  0  0  0  0
  129.5702  132.7014  158.9617 N   0  0  0  0  0  0  0  0  0  0  0  0
  129.2516  132.6195  159.8744 H   0  0  0  0  0  0  0  0  0  0  0  0
  129.6230  131.6990  158.0269 C   0  0  0  0  0  0  0  0  0  0  0  0
  130.1313  132.2440  156.8927 C   0  0  0  0  0  0  0  0  0  0  0  0
  130.3696  131.5331  155.6141 C   0  0  0  0  0  0  0  0  0  0  0  0
  129.7278  131.9352  154.4382 C   0  0  0  0  0  0  0  0  0  0  0  0
  129.9820  131.2490  153.2693 C   0  0  0  0  0  0  0  0  0  0  0  0
  130.8089  130.2208  153.2535 N   0  0  0  0  0  0  0  0  0  0  0  0
  131.4303  129.8056  154.3415 C   0  0  0  0  0  0  0  0  0  0  0  0
  131.2378  130.4385  155.5516 C   0  0  0  0  0  0  0  0  0  0  0  0
  130.3773  133.5562  157.1349 N   0  0  0  0  0  0  0  0  0  0  0  0
  130.7404  134.1881  156.4947 H   0  0  0  0  0  0  0  0  0  0  0  0
  130.7030  135.0315  161.3397 C   0  0  0  0  0  0  0  0  0  0  0  0
  131.9804  134.6764  161.0342 O   0  0  0  0  0  0  0  0  0  0  0  0
  132.9182  135.7358  160.8342 C   0  0  0  0  0  0  0  0  0  0  0  0
  130.3303  135.1891  162.6571 C   0  0  0  0  0  0  0  0  0  0  0  0
  129.0150  135.5546  162.9676 C   0  0  0  0  0  0  0  0  0  0  0  0
  128.3043  135.7991  164.2175 C   0  0  0  0  0  0  0  0  0  0  0  0
  128.4181  135.8342  165.7213 C   0  0  0  0  0  0  0  0  0  0  0  0
  128.0322  135.1335  168.4273 H   0  0  0  0  0  0  0  0  0  0  0  0
  128.4919  136.8513  168.3519 H   0  0  0  0  0  0  0  0  0  0  0  0
  127.2336  136.3161  169.4914 H   0  0  0  0  0  0  0  0  0  0  0  0
  125.2256  136.6640  165.1738 H   0  0  0  0  0  0  0  0  0  0  0  0
  127.7560  135.7429  159.8162 H   0  0  0  0  0  0  0  0  0  0  0  0
  130.5101  135.8266  158.4808 H   0  0  0  0  0  0  0  0  0  0  0  0
  129.3188  130.6723  158.1669 H   0  0  0  0  0  0  0  0  0  0  0  0
  129.0466  132.7732  154.4446 H   0  0  0  0  0  0  0  0  0  0  0  0
  129.4946  131.5546  152.3553 H   0  0  0  0  0  0  0  0  0  0  0  0
  132.0989  128.9595  154.2832 H   0  0  0  0  0  0  0  0  0  0  0  0
  131.7502  130.0940  156.4378 H   0  0  0  0  0  0  0  0  0  0  0  0
  132.9897  136.3340  161.7427 H   0  0  0  0  0  0  0  0  0  0  0  0
  133.8960  135.3160  160.5978 H   0  0  0  0  0  0  0  0  0  0  0  0
  132.5843  136.3660  160.0098 H   0  0  0  0  0  0  0  0  0  0  0  0
  131.0500  135.0314  163.4467 H   0  0  0  0  0  0  0  0  0  0  0  0
  129.1536  136.5781  166.0276 H   0  0  0  0  0  0  0  0  0  0  0  0
  128.6928  134.8514  166.1044 H   0  0  0  0  0  0  0  0  0  0  0  0
  1  2  1  0
  1 32  1  0
  1 33  1  0
  1 34  1  0
  2  3  1  0
  3 31  1  0
  3  4  2  0
  4  5  1  0
  4 35  1  0
  5 30  2  0
  5  6  1  0
  6  7  1  0
  6  8  1  0
  8 29  2  0
  8  9  1  0
  9 10  2  0
  9 36  1  0
 10 11  1  0
 10 25  1  0
 11 37  1  0
 12 11  1  0
 12 23  2  0
 12 13  1  0
 13 14  1  0
 13 15  1  0
 15 16  2  0
 15 38  1  0
 16 17  1  0
 16 23  1  0
 17 22  1  0
 17 18  2  0
 18 19  1  0
 18 39  1  0
 19 20  2  0
 19 40  1  0
 20 21  1  0
 21 22  2  0
 21 41  1  0
 22 42  1  0
 23 24  1  0
 25 26  1  0
 25 28  2  0
 26 27  1  0
 27 43  1  0
 27 44  1  0
 27 45  1  0
 28 29  1  0
 28 46  1  0
 29 30  1  0
 30 31  1  0
 31 47  1  0
 31 48  1  0
M  CHG  1  23   1
M  END
>  <DOCK_score>  (1) 
-48.165108

>  <SMILES>  (1) 
COC1=Cc2[nH]c3cc(Nc4[nH]cc(-c5ccncc5)[nH+]4)c(OC)cc3c2C1

$$$$
