CCc1cccc(-c2cccc([C@H](CC3=CCC=CC3)Nc3[nH]cc(-c4ccc(F)cc4)[nH+]3)c2)c1
     RDKit          3D

 66 70  0  0  1  0  0  0  0  0999 V2000
  129.5122  128.7103  151.1485 C   0  0  0  0  0  0  0  0  0  0  0  0
  130.9144  129.1799  151.5414 C   0  0  0  0  0  0  0  0  0  0  0  0
  130.8079  130.4008  152.4184 C   0  0  0  0  0  0  0  0  0  0  0  0
  130.7965  131.6615  151.8486 C   0  0  0  0  0  0  0  0  0  0  0  0
  130.6986  132.7861  152.6475 C   0  0  0  0  0  0  0  0  0  0  0  0
  130.6062  132.6560  154.0186 C   0  0  0  0  0  0  0  0  0  0  0  0
  130.6227  131.3891  154.5981 C   0  0  0  0  0  0  0  0  0  0  0  0
  130.5289  131.2431  156.0719 C   0  0  0  0  0  0  0  0  0  0  0  0
  131.1331  130.1599  156.7071 C   0  0  0  0  0  0  0  0  0  0  0  0
  131.0427  130.0291  158.0779 C   0  0  0  0  0  0  0  0  0  0  0  0
  130.3536  130.9706  158.8213 C   0  0  0  0  0  0  0  0  0  0  0  0
  129.7521  132.0476  158.1960 C   0  0  0  0  0  0  0  0  0  0  0  0
  129.0030  133.0690  159.0124 C   0  0  2  0  0  0  0  0  0  0  0  0
  129.0440  132.7929  160.0661 H   0  0  0  0  0  0  0  0  0  0  0  0
  127.5440  133.1175  158.5543 C   0  0  0  0  0  0  0  0  0  0  0  0
  126.6976  133.7353  159.6375 C   0  0  0  0  0  0  0  0  0  0  0  0
  126.5248  135.0220  159.6326 C   0  0  0  0  0  0  0  0  0  0  0  0
  125.6973  135.7351  160.6597 C   0  0  0  0  0  0  0  0  0  0  0  0
  125.5281  134.8986  161.8922 C   0  0  0  0  0  0  0  0  0  0  0  0
  125.7053  133.6125  161.9001 C   0  0  0  0  0  0  0  0  0  0  0  0
  126.0967  132.8384  160.6775 C   0  0  0  0  0  0  0  0  0  0  0  0
  129.6165  134.3865  158.8286 N   0  0  0  0  0  0  0  0  0  0  0  0
  129.5692  135.3206  159.8493 C   0  0  0  0  0  0  0  0  0  0  0  0
  128.9846  135.1379  161.0645 N   0  0  0  0  0  0  0  0  0  0  0  0
  128.5303  134.3368  161.3689 H   0  0  0  0  0  0  0  0  0  0  0  0
  129.1566  136.2981  161.7807 C   0  0  0  0  0  0  0  0  0  0  0  0
  129.8452  137.1532  160.9849 C   0  0  0  0  0  0  0  0  0  0  0  0
  130.2650  138.5309  161.3408 C   0  0  0  0  0  0  0  0  0  0  0  0
  131.4258  139.0718  160.7912 C   0  0  0  0  0  0  0  0  0  0  0  0
  131.8097  140.3554  161.1215 C   0  0  0  0  0  0  0  0  0  0  0  0
  131.0491  141.1021  162.0063 C   0  0  0  0  0  0  0  0  0  0  0  0
  131.4318  142.3564  162.3312 F   0  0  0  0  0  0  0  0  0  0  0  0
  129.8969  140.5668  162.5587 C   0  0  0  0  0  0  0  0  0  0  0  0
  129.5025  139.2859  162.2302 C   0  0  0  0  0  0  0  0  0  0  0  0
  130.0794  136.5272  159.8042 N   0  0  0  0  0  0  0  0  0  0  0  0
  130.5527  136.9099  159.0490 H   0  0  0  0  0  0  0  0  0  0  0  0
  129.8317  132.1854  156.8248 C   0  0  0  0  0  0  0  0  0  0  0  0
  130.7215  130.2592  153.7884 C   0  0  0  0  0  0  0  0  0  0  0  0
  129.5892  127.8274  150.5141 H   0  0  0  0  0  0  0  0  0  0  0  0
  128.9465  128.4641  152.0470 H   0  0  0  0  0  0  0  0  0  0  0  0
  129.0020  129.5052  150.6044 H   0  0  0  0  0  0  0  0  0  0  0  0
  131.4801  129.4262  150.6428 H   0  0  0  0  0  0  0  0  0  0  0  0
  131.4246  128.3851  152.0854 H   0  0  0  0  0  0  0  0  0  0  0  0
  130.8640  131.7676  150.7760 H   0  0  0  0  0  0  0  0  0  0  0  0
  130.6901  133.7677  152.1974 H   0  0  0  0  0  0  0  0  0  0  0  0
  130.5253  133.5346  154.6413 H   0  0  0  0  0  0  0  0  0  0  0  0
  131.6708  129.4240  156.1278 H   0  0  0  0  0  0  0  0  0  0  0  0
  131.5107  129.1900  158.5713 H   0  0  0  0  0  0  0  0  0  0  0  0
  130.2853  130.8643  159.8939 H   0  0  0  0  0  0  0  0  0  0  0  0
  127.4677  133.7170  157.6472 H   0  0  0  0  0  0  0  0  0  0  0  0
  127.1930  132.1057  158.3517 H   0  0  0  0  0  0  0  0  0  0  0  0
  126.9937  135.6034  158.8525 H   0  0  0  0  0  0  0  0  0  0  0  0
  124.7157  135.9576  160.2413 H   0  0  0  0  0  0  0  0  0  0  0  0
  126.1920  136.6688  160.9267 H   0  0  0  0  0  0  0  0  0  0  0  0
  125.2463  135.3869  162.8134 H   0  0  0  0  0  0  0  0  0  0  0  0
  125.5640  133.0772  162.8274 H   0  0  0  0  0  0  0  0  0  0  0  0
  125.2128  132.3533  160.2634 H   0  0  0  0  0  0  0  0  0  0  0  0
  126.8247  132.0764  160.9561 H   0  0  0  0  0  0  0  0  0  0  0  0
  130.0562  134.6043  157.9918 H   0  0  0  0  0  0  0  0  0  0  0  0
  128.8129  136.4904  162.7863 H   0  0  0  0  0  0  0  0  0  0  0  0
  132.0219  138.4886  160.1049 H   0  0  0  0  0  0  0  0  0  0  0  0
  132.7070  140.7769  160.6929 H   0  0  0  0  0  0  0  0  0  0  0  0
  129.3066  141.1525  163.2478 H   0  0  0  0  0  0  0  0  0  0  0  0
  128.6040  138.8693  162.6613 H   0  0  0  0  0  0  0  0  0  0  0  0
  129.3578  133.0244  156.3371 H   0  0  0  0  0  0  0  0  0  0  0  0
  130.7300  129.2747  154.2321 H   0  0  0  0  0  0  0  0  0  0  0  0
  1  2  1  0
  1 39  1  0
  1 40  1  0
  1 41  1  0
  2  3  1  0
  2 42  1  0
  2 43  1  0
  3 38  2  0
  3  4  1  0
  4  5  2  0
  4 44  1  0
  5  6  1  0
  5 45  1  0
  6  7  2  0
  6 46  1  0
  7  8  1  0
  7 38  1  0
  8 37  1  0
  8  9  2  0
  9 10  1  0
  9 47  1  0
 10 11  2  0
 10 48  1  0
 11 12  1  0
 11 49  1  0
 12 13  1  0
 12 37  2  0
 13 14  1  1
 13 15  1  0
 13 22  1  0
 15 16  1  0
 15 50  1  0
 15 51  1  0
 16 21  1  0
 16 17  2  0
 17 18  1  0
 17 52  1  0
 18 19  1  0
 18 53  1  0
 18 54  1  0
 19 20  2  0
 19 55  1  0
 20 21  1  0
 20 56  1  0
 21 57  1  0
 21 58  1  0
 22 59  1  0
 23 22  1  0
 23 35  2  0
 23 24  1  0
 24 25  1  0
 24 26  1  0
 26 27  2  0
 26 60  1  0
 27 28  1  0
 27 35  1  0
 28 34  1  0
 28 29  2  0
 29 30  1  0
 29 61  1  0
 30 31  2  0
 30 62  1  0
 31 32  1  0
 31 33  1  0
 33 34  2  0
 33 63  1  0
 34 64  1  0
 35 36  1  0
 37 65  1  0
 38 66  1  0
M  CHG  1  35   1
M  END
>  <DOCK_score>  (1) 
-61.67572

>  <SMILES>  (1) 
CCc1cccc(-c2cccc([C@H](CC3=CCC=CC3)Nc3[nH]cc(-c4ccc(F)cc4)[nH+]3)c2)c1

$$$$
