Clc1ccc(N[C@H]2C=CCC2)c(C[NH+]=C(NC2CC=CC2)N[C@@H]2CCO[C@H]2c2cccnc2)n1
     RDKit          3D

 66 70  0  0  1  0  0  0  0  0999 V2000
  126.5338  136.7415  163.1736 Cl  0  0  0  0  0  0  0  0  0  0  0  0
  127.3242  136.1260  161.7559 C   0  0  0  0  0  0  0  0  0  0  0  0
  126.7951  135.0264  161.1024 C   0  0  0  0  0  0  0  0  0  0  0  0
  127.4283  134.5439  159.9697 C   0  0  0  0  0  0  0  0  0  0  0  0
  128.5874  135.1838  159.5357 C   0  0  0  0  0  0  0  0  0  0  0  0
  129.2648  134.7305  158.4001 N   0  0  0  0  0  0  0  0  0  0  0  0
  129.2265  133.3104  158.0425 C   0  0  1  0  0  0  0  0  0  0  0  0
  128.1989  132.9909  157.8686 H   0  0  0  0  0  0  0  0  0  0  0  0
  130.0722  133.0531  156.8170 C   0  0  0  0  0  0  0  0  0  0  0  0
  130.8105  131.9878  156.9706 C   0  0  0  0  0  0  0  0  0  0  0  0
  130.5803  131.3569  158.3243 C   0  0  0  0  0  0  0  0  0  0  0  0
  129.8757  132.4545  159.1548 C   0  0  0  0  0  0  0  0  0  0  0  0
  129.0569  136.2816  160.2442 C   0  0  0  0  0  0  0  0  0  0  0  0
  130.3061  136.9877  159.7839 C   0  0  0  0  0  0  0  0  0  0  0  0
  130.5962  138.1049  160.6861 N   0  0  0  0  0  0  0  0  0  0  0  0
  130.0124  138.2836  161.4398 H   0  0  0  0  0  0  0  0  0  0  0  0
  131.6386  138.8585  160.4761 C   0  0  0  0  0  0  0  0  0  0  0  0
  131.9109  139.9069  161.3228 N   0  0  0  0  0  0  0  0  0  0  0  0
  131.0295  140.1772  162.4612 C   0  0  0  0  0  0  0  0  0  0  0  0
  129.6436  140.6709  161.9853 C   0  0  0  0  0  0  0  0  0  0  0  0
  129.2402  141.7176  162.9975 C   0  0  0  0  0  0  0  0  0  0  0  0
  130.2674  142.1135  163.6988 C   0  0  0  0  0  0  0  0  0  0  0  0
  131.5269  141.3967  163.2713 C   0  0  0  0  0  0  0  0  0  0  0  0
  132.4660  138.6050  159.4077 N   0  0  0  0  0  0  0  0  0  0  0  0
  133.6377  139.4521  159.1715 C   0  0  2  0  0  0  0  0  0  0  0  0
  133.4534  140.4650  159.5294 H   0  0  0  0  0  0  0  0  0  0  0  0
  134.0012  139.4668  157.6667 C   0  0  0  0  0  0  0  0  0  0  0  0
  135.1334  138.4106  157.5958 C   0  0  0  0  0  0  0  0  0  0  0  0
  135.8587  138.6110  158.8280 O   0  0  0  0  0  0  0  0  0  0  0  0
  134.8825  138.8535  159.8549 C   0  0  1  0  0  0  0  0  0  0  0  0
  134.6209  137.9165  160.3464 H   0  0  0  0  0  0  0  0  0  0  0  0
  135.4317  139.8288  160.8639 C   0  0  0  0  0  0  0  0  0  0  0  0
  135.5199  139.4788  162.2030 C   0  0  0  0  0  0  0  0  0  0  0  0
  136.0316  140.4079  163.0954 C   0  0  0  0  0  0  0  0  0  0  0  0
  136.4340  141.6437  162.6245 C   0  0  0  0  0  0  0  0  0  0  0  0
  136.3355  141.9421  161.3440 N   0  0  0  0  0  0  0  0  0  0  0  0
  135.8590  141.0811  160.4659 C   0  0  0  0  0  0  0  0  0  0  0  0
  128.4211  136.7124  161.3160 N   0  0  0  0  0  0  0  0  0  0  0  0
  125.8967  134.5527  161.4696 H   0  0  0  0  0  0  0  0  0  0  0  0
  127.0358  133.6898  159.4377 H   0  0  0  0  0  0  0  0  0  0  0  0
  129.7602  135.3563  157.8488 H   0  0  0  0  0  0  0  0  0  0  0  0
  130.0662  133.6695  155.9302 H   0  0  0  0  0  0  0  0  0  0  0  0
  131.4957  131.6070  156.2278 H   0  0  0  0  0  0  0  0  0  0  0  0
  129.9386  130.4808  158.2307 H   0  0  0  0  0  0  0  0  0  0  0  0
  131.5309  131.0851  158.7831 H   0  0  0  0  0  0  0  0  0  0  0  0
  129.1181  132.0240  159.8097 H   0  0  0  0  0  0  0  0  0  0  0  0
  130.5983  133.0377  159.7256 H   0  0  0  0  0  0  0  0  0  0  0  0
  131.1422  136.2884  159.7909 H   0  0  0  0  0  0  0  0  0  0  0  0
  130.1577  137.3665  158.7726 H   0  0  0  0  0  0  0  0  0  0  0  0
  132.6867  140.4678  161.1662 H   0  0  0  0  0  0  0  0  0  0  0  0
  130.9348  139.2970  163.0974 H   0  0  0  0  0  0  0  0  0  0  0  0
  129.7185  141.1126  160.9915 H   0  0  0  0  0  0  0  0  0  0  0  0
  128.9277  139.8488  161.9833 H   0  0  0  0  0  0  0  0  0  0  0  0
  128.2342  142.0893  163.1243 H   0  0  0  0  0  0  0  0  0  0  0  0
  130.2229  142.8561  164.4818 H   0  0  0  0  0  0  0  0  0  0  0  0
  132.0918  141.0682  164.1438 H   0  0  0  0  0  0  0  0  0  0  0  0
  132.1403  142.0442  162.6446 H   0  0  0  0  0  0  0  0  0  0  0  0
  132.2738  137.8654  158.8103 H   0  0  0  0  0  0  0  0  0  0  0  0
  133.1490  139.1651  157.0577 H   0  0  0  0  0  0  0  0  0  0  0  0
  134.3651  140.4487  157.3641 H   0  0  0  0  0  0  0  0  0  0  0  0
  134.7171  137.4039  157.5548 H   0  0  0  0  0  0  0  0  0  0  0  0
  135.7762  138.5942  156.7350 H   0  0  0  0  0  0  0  0  0  0  0  0
  135.1974  138.5055  162.5423 H   0  0  0  0  0  0  0  0  0  0  0  0
  136.1144  140.1694  164.1456 H   0  0  0  0  0  0  0  0  0  0  0  0
  136.8341  142.3729  163.3134 H   0  0  0  0  0  0  0  0  0  0  0  0
  135.7981  141.3598  159.4242 H   0  0  0  0  0  0  0  0  0  0  0  0
  1  2  1  0
  2 38  2  0
  2  3  1  0
  3  4  2  0
  3 39  1  0
  4  5  1  0
  4 40  1  0
  5  6  1  0
  5 13  2  0
  6  7  1  0
  6 41  1  0
  7  8  1  6
  7 12  1  0
  7  9  1  0
  9 10  2  0
  9 42  1  0
 10 11  1  0
 10 43  1  0
 11 12  1  0
 11 44  1  0
 11 45  1  0
 12 46  1  0
 12 47  1  0
 13 14  1  0
 13 38  1  0
 14 15  1  0
 14 48  1  0
 14 49  1  0
 15 16  1  0
 17 15  2  0
 17 18  1  0
 17 24  1  0
 18 19  1  0
 18 50  1  0
 19 23  1  0
 19 20  1  0
 19 51  1  0
 20 21  1  0
 20 52  1  0
 20 53  1  0
 21 22  2  0
 21 54  1  0
 22 23  1  0
 22 55  1  0
 23 56  1  0
 23 57  1  0
 24 25  1  0
 24 58  1  0
 25 26  1  1
 25 30  1  0
 25 27  1  0
 27 28  1  0
 27 59  1  0
 27 60  1  0
 28 29  1  0
 28 61  1  0
 28 62  1  0
 29 30  1  0
 30 31  1  1
 30 32  1  0
 32 37  1  0
 32 33  2  0
 33 34  1  0
 33 63  1  0
 34 35  2  0
 34 64  1  0
 35 36  1  0
 35 65  1  0
 36 37  2  0
 37 66  1  0
M  CHG  1  15   1
M  END
>  <DOCK_score>  (1) 
-57.432083

>  <SMILES>  (1) 
Clc1ccc(N[C@H]2C=CCC2)c(C[NH+]=C(NC2CC=CC2)N[C@@H]2CCO[C@H]2c2cccnc2)n1

$$$$
