Nc1ccc(-c2c[nH]c(Nc3cccc(Nc4ccccc4)c3)[nH+]2)cc1
     RDKit          3D

 46 49  0  0  1  0  0  0  0  0999 V2000
  131.0393  129.4013  152.1835 N   0  0  0  0  0  0  0  0  0  0  0  0
  130.8118  130.1061  153.3679 C   0  0  0  0  0  0  0  0  0  0  0  0
  129.9459  131.1939  153.3718 C   0  0  0  0  0  0  0  0  0  0  0  0
  129.7195  131.8919  154.5393 C   0  0  0  0  0  0  0  0  0  0  0  0
  130.3595  131.5059  155.7161 C   0  0  0  0  0  0  0  0  0  0  0  0
  130.1180  132.2554  156.9734 C   0  0  0  0  0  0  0  0  0  0  0  0
  129.6003  131.7465  158.1189 C   0  0  0  0  0  0  0  0  0  0  0  0
  129.5488  132.7779  159.0257 N   0  0  0  0  0  0  0  0  0  0  0  0
  129.2244  132.7250  159.9383 H   0  0  0  0  0  0  0  0  0  0  0  0
  130.0370  133.8872  158.4066 C   0  0  0  0  0  0  0  0  0  0  0  0
  130.1557  135.1438  158.9777 N   0  0  0  0  0  0  0  0  0  0  0  0
  129.7558  135.3506  160.3009 C   0  0  0  0  0  0  0  0  0  0  0  0
  130.3573  134.6351  161.3295 C   0  0  0  0  0  0  0  0  0  0  0  0
  129.9662  134.8423  162.6381 C   0  0  0  0  0  0  0  0  0  0  0  0
  128.9688  135.7536  162.9281 C   0  0  0  0  0  0  0  0  0  0  0  0
  128.3631  136.4725  161.9044 C   0  0  0  0  0  0  0  0  0  0  0  0
  127.3581  137.3971  162.1990 N   0  0  0  0  0  0  0  0  0  0  0  0
  127.6306  138.4822  163.0360 C   0  0  0  0  0  0  0  0  0  0  0  0
  126.6214  139.0276  163.8195 C   0  0  0  0  0  0  0  0  0  0  0  0
  126.8955  140.0964  164.6501 C   0  0  0  0  0  0  0  0  0  0  0  0
  128.1703  140.6306  164.6941 C   0  0  0  0  0  0  0  0  0  0  0  0
  129.1759  140.0939  163.9108 C   0  0  0  0  0  0  0  0  0  0  0  0
  128.9100  139.0216  163.0824 C   0  0  0  0  0  0  0  0  0  0  0  0
  128.7577  136.2703  160.5891 C   0  0  0  0  0  0  0  0  0  0  0  0
  130.3711  133.5717  157.1788 N   0  0  0  0  0  0  0  0  0  0  0  0
  130.7421  134.1822  156.5226 H   0  0  0  0  0  0  0  0  0  0  0  0
  131.2311  130.4180  155.7084 C   0  0  0  0  0  0  0  0  0  0  0  0
  131.4507  129.7201  154.5396 C   0  0  0  0  0  0  0  0  0  0  0  0
  130.5934  129.6703  151.3652 H   0  0  0  0  0  0  0  0  0  0  0  0
  131.6434  128.6423  152.1797 H   0  0  0  0  0  0  0  0  0  0  0  0
  129.4503  131.4927  152.4599 H   0  0  0  0  0  0  0  0  0  0  0  0
  129.0468  132.7367  154.5422 H   0  0  0  0  0  0  0  0  0  0  0  0
  129.2880  130.7263  158.2863 H   0  0  0  0  0  0  0  0  0  0  0  0
  130.5163  135.8801  158.4592 H   0  0  0  0  0  0  0  0  0  0  0  0
  131.1344  133.9190  161.1059 H   0  0  0  0  0  0  0  0  0  0  0  0
  130.4381  134.2879  163.4358 H   0  0  0  0  0  0  0  0  0  0  0  0
  128.6626  135.9106  163.9518 H   0  0  0  0  0  0  0  0  0  0  0  0
  126.4712  137.2858  161.8225 H   0  0  0  0  0  0  0  0  0  0  0  0
  125.6245  138.6135  163.7825 H   0  0  0  0  0  0  0  0  0  0  0  0
  126.1126  140.5179  165.2630 H   0  0  0  0  0  0  0  0  0  0  0  0
  128.3810  141.4691  165.3413 H   0  0  0  0  0  0  0  0  0  0  0  0
  130.1701  140.5137  163.9474 H   0  0  0  0  0  0  0  0  0  0  0  0
  129.6957  138.6029  162.4709 H   0  0  0  0  0  0  0  0  0  0  0  0
  128.2884  136.8274  159.7915 H   0  0  0  0  0  0  0  0  0  0  0  0
  131.7314  130.1200  156.6178 H   0  0  0  0  0  0  0  0  0  0  0  0
  132.1230  128.8749  154.5339 H   0  0  0  0  0  0  0  0  0  0  0  0
  1  2  1  0
  1 29  1  0
  1 30  1  0
  2 28  2  0
  2  3  1  0
  3  4  2  0
  3 31  1  0
  4  5  1  0
  4 32  1  0
  5  6  1  0
  5 27  2  0
  6 25  1  0
  6  7  2  0
  7  8  1  0
  7 33  1  0
  8  9  1  0
  8 10  1  0
 10 11  1  0
 10 25  2  0
 11 12  1  0
 11 34  1  0
 12 24  1  0
 12 13  2  0
 13 14  1  0
 13 35  1  0
 14 15  2  0
 14 36  1  0
 15 16  1  0
 15 37  1  0
 16 17  1  0
 16 24  2  0
 17 18  1  0
 17 38  1  0
 18 23  1  0
 18 19  2  0
 19 20  1  0
 19 39  1  0
 20 21  2  0
 20 40  1  0
 21 22  1  0
 21 41  1  0
 22 23  2  0
 22 42  1  0
 23 43  1  0
 24 44  1  0
 25 26  1  0
 27 28  1  0
 27 45  1  0
 28 46  1  0
M  CHG  1  25   1
M  END
>  <DOCK_score>  (1) 
-51.559017

>  <SMILES>  (1) 
Nc1ccc(-c2c[nH]c(Nc3cccc(Nc4ccccc4)c3)[nH+]2)cc1

$$$$
