O=C1CC[C@H]([NH+]=C(NC2=CCC(=O)N2)N[C@H]2COc3cc(Cl)ccc3C2)CN1
     RDKit          3D

 51 54  0  0  1  0  0  0  0  0999 V2000
  124.1234  134.2623  160.6793 O   0  0  0  0  0  0  0  0  0  0  0  0
  125.3012  134.4264  160.4407 C   0  0  0  0  0  0  0  0  0  0  0  0
  126.0332  133.3455  159.6984 C   0  0  0  0  0  0  0  0  0  0  0  0
  127.5432  133.5224  159.8764 C   0  0  0  0  0  0  0  0  0  0  0  0
  127.8978  134.9850  159.5823 C   0  0  2  0  0  0  0  0  0  0  0  0
  127.4907  135.2722  158.6128 H   0  0  0  0  0  0  0  0  0  0  0  0
  129.3537  135.1487  159.5720 N   0  0  0  0  0  0  0  0  0  0  0  0
  129.7776  135.7578  160.1966 H   0  0  0  0  0  0  0  0  0  0  0  0
  130.0791  134.4761  158.7236 C   0  0  0  0  0  0  0  0  0  0  0  0
  129.5566  134.1224  157.4996 N   0  0  0  0  0  0  0  0  0  0  0  0
  129.9894  132.9594  156.8673 C   0  0  0  0  0  0  0  0  0  0  0  0
  130.0226  132.8019  155.5505 C   0  0  0  0  0  0  0  0  0  0  0  0
  130.5559  131.4067  155.2976 C   0  0  0  0  0  0  0  0  0  0  0  0
  130.7885  130.8529  156.6891 C   0  0  0  0  0  0  0  0  0  0  0  0
  131.2122  129.7536  156.9770 O   0  0  0  0  0  0  0  0  0  0  0  0
  130.4287  131.8328  157.5407 N   0  0  0  0  0  0  0  0  0  0  0  0
  131.3661  134.1194  159.0507 N   0  0  0  0  0  0  0  0  0  0  0  0
  131.9221  134.4956  160.3527 C   0  0  1  0  0  0  0  0  0  0  0  0
  131.1229  134.5483  161.0921 H   0  0  0  0  0  0  0  0  0  0  0  0
  132.9639  133.4574  160.7895 C   0  0  0  0  0  0  0  0  0  0  0  0
  133.4112  133.7937  162.1034 O   0  0  0  0  0  0  0  0  0  0  0  0
  133.7909  135.0771  162.3358 C   0  0  0  0  0  0  0  0  0  0  0  0
  134.5521  135.3493  163.4680 C   0  0  0  0  0  0  0  0  0  0  0  0
  134.9502  136.6425  163.7432 C   0  0  0  0  0  0  0  0  0  0  0  0
  135.9001  136.9770  165.1572 Cl  0  0  0  0  0  0  0  0  0  0  0  0
  134.5909  137.6718  162.8904 C   0  0  0  0  0  0  0  0  0  0  0  0
  133.8361  137.4041  161.7656 C   0  0  0  0  0  0  0  0  0  0  0  0
  133.4352  136.1084  161.4843 C   0  0  0  0  0  0  0  0  0  0  0  0
  132.6153  135.8559  160.2444 C   0  0  0  0  0  0  0  0  0  0  0  0
  127.2903  135.8655  160.6750 C   0  0  0  0  0  0  0  0  0  0  0  0
  125.8767  135.5570  160.8515 N   0  0  0  0  0  0  0  0  0  0  0  0
  125.7846  133.4018  158.6387 H   0  0  0  0  0  0  0  0  0  0  0  0
  125.7340  132.3730  160.0894 H   0  0  0  0  0  0  0  0  0  0  0  0
  128.0735  132.8696  159.1830 H   0  0  0  0  0  0  0  0  0  0  0  0
  127.8239  133.2755  160.9003 H   0  0  0  0  0  0  0  0  0  0  0  0
  128.8869  134.6832  157.0778 H   0  0  0  0  0  0  0  0  0  0  0  0
  129.7290  133.5264  154.8053 H   0  0  0  0  0  0  0  0  0  0  0  0
  131.4915  131.4458  154.7397 H   0  0  0  0  0  0  0  0  0  0  0  0
  129.8182  130.8065  154.7650 H   0  0  0  0  0  0  0  0  0  0  0  0
  130.4720  131.7582  158.5069 H   0  0  0  0  0  0  0  0  0  0  0  0
  131.9061  133.6187  158.4191 H   0  0  0  0  0  0  0  0  0  0  0  0
  132.5124  132.4654  160.7979 H   0  0  0  0  0  0  0  0  0  0  0  0
  133.8077  133.4715  160.0997 H   0  0  0  0  0  0  0  0  0  0  0  0
  134.8330  134.5464  164.1336 H   0  0  0  0  0  0  0  0  0  0  0  0
  134.9009  138.6839  163.1047 H   0  0  0  0  0  0  0  0  0  0  0  0
  133.5573  138.2089  161.1016 H   0  0  0  0  0  0  0  0  0  0  0  0
  133.2673  135.8622  159.3710 H   0  0  0  0  0  0  0  0  0  0  0  0
  131.8639  136.6387  160.1417 H   0  0  0  0  0  0  0  0  0  0  0  0
  127.3982  136.9133  160.3949 H   0  0  0  0  0  0  0  0  0  0  0  0
  127.8170  135.6904  161.6131 H   0  0  0  0  0  0  0  0  0  0  0  0
  125.3206  136.2135  161.2994 H   0  0  0  0  0  0  0  0  0  0  0  0
  1  2  2  0
  2 31  1  0
  2  3  1  0
  3  4  1  0
  3 32  1  0
  3 33  1  0
  4  5  1  0
  4 34  1  0
  4 35  1  0
  5  6  1  6
  5  7  1  0
  5 30  1  0
  7  8  1  0
  9  7  2  0
  9 10  1  0
  9 17  1  0
 10 11  1  0
 10 36  1  0
 11 16  1  0
 11 12  2  0
 12 13  1  0
 12 37  1  0
 13 14  1  0
 13 38  1  0
 13 39  1  0
 14 15  2  0
 14 16  1  0
 16 40  1  0
 17 18  1  0
 17 41  1  0
 18 19  1  1
 18 29  1  0
 18 20  1  0
 20 21  1  0
 20 42  1  0
 20 43  1  0
 21 22  1  0
 22 28  2  0
 22 23  1  0
 23 24  2  0
 23 44  1  0
 24 25  1  0
 24 26  1  0
 26 27  2  0
 26 45  1  0
 27 28  1  0
 27 46  1  0
 28 29  1  0
 29 47  1  0
 29 48  1  0
 30 31  1  0
 30 49  1  0
 30 50  1  0
 31 51  1  0
M  CHG  1   7   1
M  END
>  <DOCK_score>  (1) 
-43.442154

>  <SMILES>  (1) 
O=C1CC[C@H]([NH+]=C(NC2=CCC(=O)N2)N[C@H]2COc3cc(Cl)ccc3C2)CN1

$$$$
