O=C1C[C@H]([NH+]2CCCC(n3cccn3)C2)C(=O)N1c1ccc(F)cc1
     RDKit          3D

 45 48  0  0  1  0  0  0  0  0999 V2000
  127.1877  137.3611  161.9365 O   0  0  0  0  0  0  0  0  0  0  0  0
  128.0464  137.4176  161.0828 C   0  0  0  0  0  0  0  0  0  0  0  0
  128.2857  136.3776  160.0101 C   0  0  0  0  0  0  0  0  0  0  0  0
  129.4771  136.9473  159.2134 C   0  0  2  0  0  0  0  0  0  0  0  0
  129.1931  137.1311  158.1772 H   0  0  0  0  0  0  0  0  0  0  0  0
  130.6277  136.0367  159.2818 N   0  0  1  0  0  0  0  0  0  0  0  0
  131.3955  136.4262  158.7557 H   0  0  0  0  0  0  0  0  0  0  0  0
  131.0327  135.8668  160.6824 C   0  0  0  0  0  0  0  0  0  0  0  0
  132.2804  134.9838  160.7531 C   0  0  0  0  0  0  0  0  0  0  0  0
  131.9660  133.6155  160.1414 C   0  0  0  0  0  0  0  0  0  0  0  0
  131.4737  133.8105  158.7045 C   0  0  1  0  0  0  0  0  0  0  0  0
  131.0992  132.5136  158.1353 N   0  0  0  0  0  0  0  0  0  0  0  0
  130.6229  132.3005  156.8908 C   0  0  0  0  0  0  0  0  0  0  0  0
  130.4043  130.9720  156.7548 C   0  0  0  0  0  0  0  0  0  0  0  0
  130.7499  130.3533  157.9606 C   0  0  0  0  0  0  0  0  0  0  0  0
  131.1668  131.2764  158.7888 N   0  0  0  0  0  0  0  0  0  0  0  0
  130.2553  134.7365  158.7114 C   0  0  0  0  0  0  0  0  0  0  0  0
  129.7822  138.2521  159.9163 C   0  0  0  0  0  0  0  0  0  0  0  0
  130.6582  139.0299  159.6043 O   0  0  0  0  0  0  0  0  0  0  0  0
  128.9333  138.4102  160.9394 N   0  0  0  0  0  0  0  0  0  0  0  0
  128.9664  139.5270  161.7878 C   0  0  0  0  0  0  0  0  0  0  0  0
  129.4005  140.7539  161.3047 C   0  0  0  0  0  0  0  0  0  0  0  0
  129.4374  141.8511  162.1428 C   0  0  0  0  0  0  0  0  0  0  0  0
  129.0318  141.7303  163.4614 C   0  0  0  0  0  0  0  0  0  0  0  0
  129.0641  142.8057  164.2784 F   0  0  0  0  0  0  0  0  0  0  0  0
  128.5935  140.5084  163.9434 C   0  0  0  0  0  0  0  0  0  0  0  0
  128.5602  139.4078  163.1097 C   0  0  0  0  0  0  0  0  0  0  0  0
  128.5468  135.4184  160.4571 H   0  0  0  0  0  0  0  0  0  0  0  0
  127.4079  136.2758  159.3718 H   0  0  0  0  0  0  0  0  0  0  0  0
  131.2530  136.8417  161.1172 H   0  0  0  0  0  0  0  0  0  0  0  0
  130.2229  135.3960  161.2398 H   0  0  0  0  0  0  0  0  0  0  0  0
  133.0910  135.4538  160.1962 H   0  0  0  0  0  0  0  0  0  0  0  0
  132.5784  134.8574  161.7939 H   0  0  0  0  0  0  0  0  0  0  0  0
  132.8670  133.0021  160.1379 H   0  0  0  0  0  0  0  0  0  0  0  0
  131.1909  133.1232  160.7287 H   0  0  0  0  0  0  0  0  0  0  0  0
  132.2675  134.2563  158.1051 H   0  0  0  0  0  0  0  0  0  0  0  0
  130.4499  133.0547  156.1375 H   0  0  0  0  0  0  0  0  0  0  0  0
  130.0254  130.4775  155.8726 H   0  0  0  0  0  0  0  0  0  0  0  0
  130.6846  129.2961  158.1714 H   0  0  0  0  0  0  0  0  0  0  0  0
  129.4625  134.2904  159.3118 H   0  0  0  0  0  0  0  0  0  0  0  0
  129.9013  134.8763  157.6900 H   0  0  0  0  0  0  0  0  0  0  0  0
  129.7127  140.8495  160.2753 H   0  0  0  0  0  0  0  0  0  0  0  0
  129.7785  142.8049  161.7683 H   0  0  0  0  0  0  0  0  0  0  0  0
  128.2771  140.4160  164.9720 H   0  0  0  0  0  0  0  0  0  0  0  0
  128.2179  138.4550  163.4860 H   0  0  0  0  0  0  0  0  0  0  0  0
  1  2  2  0
  2 20  1  0
  2  3  1  0
  3  4  1  0
  3 28  1  0
  3 29  1  0
  4  5  1  6
  4  6  1  0
  4 18  1  0
  6  7  1  6
  6 17  1  0
  6  8  1  0
  8  9  1  0
  8 30  1  0
  8 31  1  0
  9 10  1  0
  9 32  1  0
  9 33  1  0
 10 11  1  0
 10 34  1  0
 10 35  1  0
 11 12  1  0
 11 17  1  0
 11 36  1  6
 12 16  1  0
 12 13  1  0
 13 14  2  0
 13 37  1  0
 14 15  1  0
 14 38  1  0
 15 16  2  0
 15 39  1  0
 17 40  1  0
 17 41  1  0
 18 19  2  0
 18 20  1  0
 20 21  1  0
 21 27  1  0
 21 22  2  0
 22 23  1  0
 22 42  1  0
 23 24  2  0
 23 43  1  0
 24 25  1  0
 24 26  1  0
 26 27  2  0
 26 44  1  0
 27 45  1  0
M  CHG  1   6   1
M  END
>  <DOCK_score>  (1) 
-44.70575

>  <SMILES>  (1) 
O=C1C[C@H]([NH+]2CCCC(n3cccn3)C2)C(=O)N1c1ccc(F)cc1

$$$$
