Fc1ccc(-c2ccc3c(C[N@@H+]4CC=C(c5cccc6ccccc56)CC4)c[nH]c3c2)cc1
     RDKit          3D

 59 64  0  0  1  0  0  0  0  0999 V2000
  130.9304  128.5517  150.9527 F   0  0  0  0  0  0  0  0  0  0  0  0
  130.8176  129.2920  152.0772 C   0  0  0  0  0  0  0  0  0  0  0  0
  131.7002  129.0931  153.1265 C   0  0  0  0  0  0  0  0  0  0  0  0
  131.5889  129.8469  154.2767 C   0  0  0  0  0  0  0  0  0  0  0  0
  130.5866  130.8097  154.3822 C   0  0  0  0  0  0  0  0  0  0  0  0
  130.4625  131.6222  155.6169 C   0  0  0  0  0  0  0  0  0  0  0  0
  129.9563  132.9245  155.5442 C   0  0  0  0  0  0  0  0  0  0  0  0
  129.8373  133.6825  156.6715 C   0  0  0  0  0  0  0  0  0  0  0  0
  130.2226  133.1580  157.9085 C   0  0  0  0  0  0  0  0  0  0  0  0
  130.2284  133.6828  159.2757 C   0  0  0  0  0  0  0  0  0  0  0  0
  129.7742  135.0519  159.7120 C   0  0  0  0  0  0  0  0  0  0  0  0
  130.9089  135.9836  159.6614 N   0  0  2  0  0  0  0  0  0  0  0  0
  131.2639  136.0325  158.7182 H   0  0  0  0  0  0  0  0  0  0  0  0
  131.9692  135.5153  160.5614 C   0  0  0  0  0  0  0  0  0  0  0  0
  133.0602  136.5419  160.6640 C   0  0  0  0  0  0  0  0  0  0  0  0
  132.8919  137.8027  160.3193 C   0  0  0  0  0  0  0  0  0  0  0  0
  134.0227  138.7379  160.4685 C   0  0  0  0  0  0  0  0  0  0  0  0
  134.5271  139.4091  159.3656 C   0  0  0  0  0  0  0  0  0  0  0  0
  135.5922  140.2915  159.4992 C   0  0  0  0  0  0  0  0  0  0  0  0
  136.1693  140.5218  160.7118 C   0  0  0  0  0  0  0  0  0  0  0  0
  135.6901  139.8631  161.8571 C   0  0  0  0  0  0  0  0  0  0  0  0
  136.2691  140.0838  163.1189 C   0  0  0  0  0  0  0  0  0  0  0  0
  135.7809  139.4290  164.2079 C   0  0  0  0  0  0  0  0  0  0  0  0
  134.7137  138.5413  164.0911 C   0  0  0  0  0  0  0  0  0  0  0  0
  134.1293  138.3034  162.8838 C   0  0  0  0  0  0  0  0  0  0  0  0
  134.6017  138.9648  161.7416 C   0  0  0  0  0  0  0  0  0  0  0  0
  131.5857  138.3230  159.7852 C   0  0  0  0  0  0  0  0  0  0  0  0
  130.4705  137.3204  160.0923 C   0  0  0  0  0  0  0  0  0  0  0  0
  130.7207  132.7153  160.0662 C   0  0  0  0  0  0  0  0  0  0  0  0
  131.0232  131.6104  159.3180 N   0  0  0  0  0  0  0  0  0  0  0  0
  131.3902  130.7836  159.6684 H   0  0  0  0  0  0  0  0  0  0  0  0
  130.7332  131.8491  157.9927 C   0  0  0  0  0  0  0  0  0  0  0  0
  130.8501  131.0858  156.8382 C   0  0  0  0  0  0  0  0  0  0  0  0
  129.6977  131.0029  153.3261 C   0  0  0  0  0  0  0  0  0  0  0  0
  129.8195  130.2478  152.1778 C   0  0  0  0  0  0  0  0  0  0  0  0
  132.4763  128.3466  153.0441 H   0  0  0  0  0  0  0  0  0  0  0  0
  132.2771  129.6908  155.0944 H   0  0  0  0  0  0  0  0  0  0  0  0
  129.6581  133.3320  154.5895 H   0  0  0  0  0  0  0  0  0  0  0  0
  129.4460  134.6872  156.6085 H   0  0  0  0  0  0  0  0  0  0  0  0
  129.3918  135.0001  160.7313 H   0  0  0  0  0  0  0  0  0  0  0  0
  128.9862  135.4028  159.0456 H   0  0  0  0  0  0  0  0  0  0  0  0
  132.3850  134.5847  160.1753 H   0  0  0  0  0  0  0  0  0  0  0  0
  131.5489  135.3359  161.5510 H   0  0  0  0  0  0  0  0  0  0  0  0
  134.0258  136.2333  161.0363 H   0  0  0  0  0  0  0  0  0  0  0  0
  134.0878  139.2448  158.3929 H   0  0  0  0  0  0  0  0  0  0  0  0
  135.9691  140.8040  158.6263 H   0  0  0  0  0  0  0  0  0  0  0  0
  136.9963  141.2116  160.7928 H   0  0  0  0  0  0  0  0  0  0  0  0
  137.0970  140.7696  163.2239 H   0  0  0  0  0  0  0  0  0  0  0  0
  136.2276  139.5999  165.1761 H   0  0  0  0  0  0  0  0  0  0  0  0
  134.3445  138.0341  164.9703 H   0  0  0  0  0  0  0  0  0  0  0  0
  133.3025  137.6128  162.8078 H   0  0  0  0  0  0  0  0  0  0  0  0
  131.3553  139.2783  160.2568 H   0  0  0  0  0  0  0  0  0  0  0  0
  131.6635  138.4604  158.7066 H   0  0  0  0  0  0  0  0  0  0  0  0
  129.5668  137.6012  159.5513 H   0  0  0  0  0  0  0  0  0  0  0  0
  130.2708  137.3122  161.1638 H   0  0  0  0  0  0  0  0  0  0  0  0
  130.8556  132.7965  161.1347 H   0  0  0  0  0  0  0  0  0  0  0  0
  131.2407  130.0803  156.8897 H   0  0  0  0  0  0  0  0  0  0  0  0
  128.9168  131.7447  153.4053 H   0  0  0  0  0  0  0  0  0  0  0  0
  129.1335  130.3994  151.3575 H   0  0  0  0  0  0  0  0  0  0  0  0
  1  2  1  0
  2 35  2  0
  2  3  1  0
  3  4  2  0
  3 36  1  0
  4  5  1  0
  4 37  1  0
  5  6  1  0
  5 34  2  0
  6 33  1  0
  6  7  2  0
  7  8  1  0
  7 38  1  0
  8  9  2  0
  8 39  1  0
  9 32  1  0
  9 10  1  0
 10 11  1  0
 10 29  2  0
 11 12  1  0
 11 40  1  0
 11 41  1  0
 12 13  1  6
 12 28  1  0
 12 14  1  0
 14 15  1  0
 14 42  1  0
 14 43  1  0
 15 16  2  0
 15 44  1  0
 16 17  1  0
 16 27  1  0
 17 26  1  0
 17 18  2  0
 18 19  1  0
 18 45  1  0
 19 20  2  0
 19 46  1  0
 20 21  1  0
 20 47  1  0
 21 26  2  0
 21 22  1  0
 22 23  2  0
 22 48  1  0
 23 24  1  0
 23 49  1  0
 24 25  2  0
 24 50  1  0
 25 26  1  0
 25 51  1  0
 27 28  1  0
 27 52  1  0
 27 53  1  0
 28 54  1  0
 28 55  1  0
 29 30  1  0
 29 56  1  0
 30 31  1  0
 30 32  1  0
 32 33  2  0
 33 57  1  0
 34 35  1  0
 34 58  1  0
 35 59  1  0
M  CHG  1  12   1
M  END
>  <DOCK_score>  (1) 
-56.453766

>  <SMILES>  (1) 
Fc1ccc(-c2ccc3c(C[N@@H+]4CC=C(c5cccc6ccccc56)CC4)c[nH]c3c2)cc1

$$$$
