O=C1CCC([NH+]=C(N[C@H]2[C@@H]3CC=CC[C@@H]32)N[C@@H]2C=CCC2)CN1
     RDKit          3D

 50 53  0  0  1  0  0  0  0  0999 V2000
  123.6646  134.6150  162.6281 O   0  0  0  0  0  0  0  0  0  0  0  0
  124.7313  134.3943  162.0947 C   0  0  0  0  0  0  0  0  0  0  0  0
  125.5752  133.2733  162.6298 C   0  0  0  0  0  0  0  0  0  0  0  0
  126.6324  132.8752  161.5975 C   0  0  0  0  0  0  0  0  0  0  0  0
  127.3276  134.1480  161.0995 C   0  0  1  0  0  0  0  0  0  0  0  0
  128.4573  133.7867  160.2396 N   0  0  0  0  0  0  0  0  0  0  0  0
  128.6577  132.8532  160.0688 H   0  0  0  0  0  0  0  0  0  0  0  0
  129.1930  134.7198  159.7038 C   0  0  0  0  0  0  0  0  0  0  0  0
  129.8045  134.5020  158.4918 N   0  0  0  0  0  0  0  0  0  0  0  0
  129.6292  133.2213  157.8026 C   0  0  1  0  0  0  0  0  0  0  0  0
  128.6017  132.9619  157.5475 H   0  0  0  0  0  0  0  0  0  0  0  0
  130.7285  132.7866  156.8312 C   0  0  2  0  0  0  0  0  0  0  0  0
  131.5833  133.4484  156.6911 H   0  0  0  0  0  0  0  0  0  0  0  0
  130.2961  131.9579  155.6110 C   0  0  0  0  0  0  0  0  0  0  0  0
  130.7840  130.5419  155.7960 C   0  0  0  0  0  0  0  0  0  0  0  0
  130.6485  129.9387  156.9508 C   0  0  0  0  0  0  0  0  0  0  0  0
  130.0045  130.6510  158.1138 C   0  0  0  0  0  0  0  0  0  0  0  0
  130.5704  132.0781  158.1880 C   0  0  2  0  0  0  0  0  0  0  0  0
  131.3191  132.2648  158.9579 H   0  0  0  0  0  0  0  0  0  0  0  0
  129.3575  135.9217  160.3508 N   0  0  0  0  0  0  0  0  0  0  0  0
  130.1845  136.9704  159.7485 C   0  0  2  0  0  0  0  0  0  0  0  0
  130.1549  136.9011  158.6611 H   0  0  0  0  0  0  0  0  0  0  0  0
  131.6083  136.8674  160.2439 C   0  0  0  0  0  0  0  0  0  0  0  0
  131.8547  137.7675  161.1564 C   0  0  0  0  0  0  0  0  0  0  0  0
  130.6365  138.6209  161.4219 C   0  0  0  0  0  0  0  0  0  0  0  0
  129.7069  138.3661  160.2126 C   0  0  0  0  0  0  0  0  0  0  0  0
  126.3216  134.9797  160.3028 C   0  0  0  0  0  0  0  0  0  0  0  0
  125.0922  135.1606  161.0645 N   0  0  0  0  0  0  0  0  0  0  0  0
  126.0707  133.5980  163.5448 H   0  0  0  0  0  0  0  0  0  0  0  0
  124.9405  132.4142  162.8471 H   0  0  0  0  0  0  0  0  0  0  0  0
  126.1522  132.3680  160.7607 H   0  0  0  0  0  0  0  0  0  0  0  0
  127.3656  132.2124  162.0571 H   0  0  0  0  0  0  0  0  0  0  0  0
  127.6866  134.7259  161.9513 H   0  0  0  0  0  0  0  0  0  0  0  0
  130.3520  135.1965  158.0931 H   0  0  0  0  0  0  0  0  0  0  0  0
  129.2091  131.9632  155.5314 H   0  0  0  0  0  0  0  0  0  0  0  0
  130.7344  132.3811  154.7071 H   0  0  0  0  0  0  0  0  0  0  0  0
  131.2476  130.0222  154.9704 H   0  0  0  0  0  0  0  0  0  0  0  0
  131.0011  128.9251  157.0711 H   0  0  0  0  0  0  0  0  0  0  0  0
  130.2296  130.1194  159.0383 H   0  0  0  0  0  0  0  0  0  0  0  0
  128.9254  130.6923  157.9653 H   0  0  0  0  0  0  0  0  0  0  0  0
  128.9262  136.0754  161.2057 H   0  0  0  0  0  0  0  0  0  0  0  0
  132.3276  136.1438  159.8896 H   0  0  0  0  0  0  0  0  0  0  0  0
  132.8048  137.8868  161.6560 H   0  0  0  0  0  0  0  0  0  0  0  0
  130.9139  139.6737  161.4723 H   0  0  0  0  0  0  0  0  0  0  0  0
  130.1499  138.3110  162.3468 H   0  0  0  0  0  0  0  0  0  0  0  0
  128.6619  138.3394  160.5211 H   0  0  0  0  0  0  0  0  0  0  0  0
  129.8644  139.1124  159.4340 H   0  0  0  0  0  0  0  0  0  0  0  0
  126.7553  135.9550  160.0819 H   0  0  0  0  0  0  0  0  0  0  0  0
  126.0937  134.4697  159.3667 H   0  0  0  0  0  0  0  0  0  0  0  0
  124.4997  135.8837  160.8064 H   0  0  0  0  0  0  0  0  0  0  0  0
  1  2  2  0
  2 28  1  0
  2  3  1  0
  3  4  1  0
  3 29  1  0
  3 30  1  0
  4  5  1  0
  4 31  1  0
  4 32  1  0
  5  6  1  0
  5 27  1  0
  5 33  1  1
  6  7  1  0
  8  6  2  0
  8  9  1  0
  8 20  1  0
  9 10  1  0
  9 34  1  0
 10 11  1  6
 10 18  1  0
 10 12  1  0
 12 13  1  6
 12 18  1  0
 12 14  1  0
 14 15  1  0
 14 35  1  0
 14 36  1  0
 15 16  2  0
 15 37  1  0
 16 17  1  0
 16 38  1  0
 17 18  1  0
 17 39  1  0
 17 40  1  0
 18 19  1  1
 20 21  1  0
 20 41  1  0
 21 22  1  6
 21 26  1  0
 21 23  1  0
 23 24  2  0
 23 42  1  0
 24 25  1  0
 24 43  1  0
 25 26  1  0
 25 44  1  0
 25 45  1  0
 26 46  1  0
 26 47  1  0
 27 28  1  0
 27 48  1  0
 27 49  1  0
 28 50  1  0
M  CHG  1   6   1
M  END
>  <DOCK_score>  (1) 
-43.152687

>  <SMILES>  (1) 
O=C1CCC([NH+]=C(N[C@H]2[C@@H]3CC=CC[C@@H]32)N[C@@H]2C=CCC2)CN1

$$$$
