Oc1ccc2c(c1)C(Nc1[nH]cc(-c3ccc(-c4ccccc4)cc3)[nH+]1)c1cc(O)ccc1-2
     RDKit          3D

 55 60  0  0  1  0  0  0  0  0999 V2000
  131.9378  129.8749  157.8695 O   0  0  0  0  0  0  0  0  0  0  0  0
  130.7749  130.3110  158.4208 C   0  0  0  0  0  0  0  0  0  0  0  0
  129.6969  129.4449  158.5434 C   0  0  0  0  0  0  0  0  0  0  0  0
  128.5153  129.8831  159.1015 C   0  0  0  0  0  0  0  0  0  0  0  0
  128.3989  131.2021  159.5456 C   0  0  0  0  0  0  0  0  0  0  0  0
  129.4845  132.0654  159.4193 C   0  0  0  0  0  0  0  0  0  0  0  0
  130.6639  131.6235  158.8606 C   0  0  0  0  0  0  0  0  0  0  0  0
  129.0681  133.4043  159.9776 C   0  0  0  0  0  0  0  0  0  0  0  0
  129.9252  133.7675  161.1088 N   0  0  0  0  0  0  0  0  0  0  0  0
  130.6814  134.9260  161.0601 C   0  0  0  0  0  0  0  0  0  0  0  0
  131.1883  135.4950  159.9323 N   0  0  0  0  0  0  0  0  0  0  0  0
  131.0847  135.1649  159.0260 H   0  0  0  0  0  0  0  0  0  0  0  0
  131.8682  136.6258  160.3134 C   0  0  0  0  0  0  0  0  0  0  0  0
  131.7646  136.7111  161.6635 C   0  0  0  0  0  0  0  0  0  0  0  0
  132.3478  137.7729  162.5180 C   0  0  0  0  0  0  0  0  0  0  0  0
  131.7187  138.1332  163.7097 C   0  0  0  0  0  0  0  0  0  0  0  0
  132.2608  139.1194  164.5038 C   0  0  0  0  0  0  0  0  0  0  0  0
  133.4387  139.7578  164.1163 C   0  0  0  0  0  0  0  0  0  0  0  0
  134.0222  140.8200  164.9712 C   0  0  0  0  0  0  0  0  0  0  0  0
  135.4012  141.0222  164.9922 C   0  0  0  0  0  0  0  0  0  0  0  0
  135.9391  142.0080  165.7943 C   0  0  0  0  0  0  0  0  0  0  0  0
  135.1126  142.7952  166.5757 C   0  0  0  0  0  0  0  0  0  0  0  0
  133.7433  142.5990  166.5589 C   0  0  0  0  0  0  0  0  0  0  0  0
  133.1943  141.6158  165.7611 C   0  0  0  0  0  0  0  0  0  0  0  0
  134.0650  139.4013  162.9223 C   0  0  0  0  0  0  0  0  0  0  0  0
  133.5259  138.4113  162.1306 C   0  0  0  0  0  0  0  0  0  0  0  0
  131.0278  135.6553  162.0925 N   0  0  0  0  0  0  0  0  0  0  0  0
  130.7950  135.4700  163.0156 H   0  0  0  0  0  0  0  0  0  0  0  0
  127.6407  133.2397  160.4389 C   0  0  0  0  0  0  0  0  0  0  0  0
  126.7515  134.1120  161.0251 C   0  0  0  0  0  0  0  0  0  0  0  0
  125.4718  133.6842  161.3532 C   0  0  0  0  0  0  0  0  0  0  0  0
  124.5945  134.5457  161.9316 O   0  0  0  0  0  0  0  0  0  0  0  0
  125.0892  132.3757  161.0907 C   0  0  0  0  0  0  0  0  0  0  0  0
  125.9762  131.4982  160.5051 C   0  0  0  0  0  0  0  0  0  0  0  0
  127.2644  131.9238  160.1732 C   0  0  0  0  0  0  0  0  0  0  0  0
  132.6296  130.5492  157.8260 H   0  0  0  0  0  0  0  0  0  0  0  0
  129.7843  128.4246  158.2001 H   0  0  0  0  0  0  0  0  0  0  0  0
  127.6790  129.2063  159.1952 H   0  0  0  0  0  0  0  0  0  0  0  0
  131.5023  132.2975  158.7657 H   0  0  0  0  0  0  0  0  0  0  0  0
  129.1264  134.1685  159.2025 H   0  0  0  0  0  0  0  0  0  0  0  0
  129.9626  133.1965  161.8920 H   0  0  0  0  0  0  0  0  0  0  0  0
  132.3873  137.3143  159.6632 H   0  0  0  0  0  0  0  0  0  0  0  0
  130.8064  137.6392  164.0096 H   0  0  0  0  0  0  0  0  0  0  0  0
  131.7736  139.3986  165.4262 H   0  0  0  0  0  0  0  0  0  0  0  0
  136.0474  140.4084  164.3822 H   0  0  0  0  0  0  0  0  0  0  0  0
  137.0074  142.1653  165.8115 H   0  0  0  0  0  0  0  0  0  0  0  0
  135.5380  143.5657  167.2016 H   0  0  0  0  0  0  0  0  0  0  0  0
  133.1030  143.2160  167.1716 H   0  0  0  0  0  0  0  0  0  0  0  0
  132.1252  141.4632  165.7491 H   0  0  0  0  0  0  0  0  0  0  0  0
  134.9747  139.8988  162.6202 H   0  0  0  0  0  0  0  0  0  0  0  0
  134.0130  138.1326  161.2080 H   0  0  0  0  0  0  0  0  0  0  0  0
  127.0497  135.1297  161.2296 H   0  0  0  0  0  0  0  0  0  0  0  0
  124.9513  135.4330  162.0752 H   0  0  0  0  0  0  0  0  0  0  0  0
  124.0936  132.0443  161.3464 H   0  0  0  0  0  0  0  0  0  0  0  0
  125.6748  130.4811  160.3024 H   0  0  0  0  0  0  0  0  0  0  0  0
  1  2  1  0
  1 36  1  0
  2  7  2  0
  2  3  1  0
  3  4  2  0
  3 37  1  0
  4  5  1  0
  4 38  1  0
  5 35  1  0
  5  6  2  0
  6  7  1  0
  6  8  1  0
  7 39  1  0
  8  9  1  0
  8 29  1  0
  8 40  1  0
  9 41  1  0
 10  9  1  0
 10 27  2  0
 10 11  1  0
 11 12  1  0
 11 13  1  0
 13 14  2  0
 13 42  1  0
 14 15  1  0
 14 27  1  0
 15 26  1  0
 15 16  2  0
 16 17  1  0
 16 43  1  0
 17 18  2  0
 17 44  1  0
 18 19  1  0
 18 25  1  0
 19 24  1  0
 19 20  2  0
 20 21  1  0
 20 45  1  0
 21 22  2  0
 21 46  1  0
 22 23  1  0
 22 47  1  0
 23 24  2  0
 23 48  1  0
 24 49  1  0
 25 26  2  0
 25 50  1  0
 26 51  1  0
 27 28  1  0
 29 35  2  0
 29 30  1  0
 30 31  2  0
 30 52  1  0
 31 32  1  0
 31 33  1  0
 32 53  1  0
 33 34  2  0
 33 54  1  0
 34 35  1  0
 34 55  1  0
M  CHG  1  27   1
M  END
>  <DOCK_score>  (1) 
-43.891232

>  <SMILES>  (1) 
Oc1ccc2c(c1)C(Nc1[nH]cc(-c3ccc(-c4ccccc4)cc3)[nH+]1)c1cc(O)ccc1-2

$$$$
