CCc1ccc(-c2c[nH]c(N[C@@H](CCC3=CCC=C(C)C3)c3ccccc3)[nH+]2)cc1
     RDKit          3D

 62 65  0  0  1  0  0  0  0  0999 V2000
  129.8981  128.9365  151.3004 C   0  0  0  0  0  0  0  0  0  0  0  0
  131.0596  129.8725  151.6400 C   0  0  0  0  0  0  0  0  0  0  0  0
  130.7922  130.5463  152.9611 C   0  0  0  0  0  0  0  0  0  0  0  0
  131.2263  129.9581  154.1349 C   0  0  0  0  0  0  0  0  0  0  0  0
  130.9884  130.5731  155.3472 C   0  0  0  0  0  0  0  0  0  0  0  0
  130.2999  131.7842  155.3881 C   0  0  0  0  0  0  0  0  0  0  0  0
  130.0367  132.4474  156.6885 C   0  0  0  0  0  0  0  0  0  0  0  0
  129.3349  131.9235  157.7239 C   0  0  0  0  0  0  0  0  0  0  0  0
  129.3360  132.8658  158.7235 N   0  0  0  0  0  0  0  0  0  0  0  0
  128.9134  132.7819  159.5926 H   0  0  0  0  0  0  0  0  0  0  0  0
  130.0392  133.9389  158.2693 C   0  0  0  0  0  0  0  0  0  0  0  0
  130.2744  135.1062  158.9754 N   0  0  0  0  0  0  0  0  0  0  0  0
  129.7469  135.2598  160.3335 C   0  0  1  0  0  0  0  0  0  0  0  0
  130.1569  134.4781  160.9730 H   0  0  0  0  0  0  0  0  0  0  0  0
  130.1463  136.6305  160.8837 C   0  0  0  0  0  0  0  0  0  0  0  0
  130.0515  136.6143  162.4107 C   0  0  0  0  0  0  0  0  0  0  0  0
  130.4449  137.9643  162.9526 C   0  0  0  0  0  0  0  0  0  0  0  0
  129.9081  138.3680  164.0638 C   0  0  0  0  0  0  0  0  0  0  0  0
  130.2348  139.6898  164.6913 C   0  0  0  0  0  0  0  0  0  0  0  0
  130.8271  140.6325  163.6874 C   0  0  0  0  0  0  0  0  0  0  0  0
  131.3599  140.2311  162.5736 C   0  0  0  0  0  0  0  0  0  0  0  0
  131.9285  141.2626  161.6335 C   0  0  0  0  0  0  0  0  0  0  0  0
  131.4345  138.7859  162.1825 C   0  0  0  0  0  0  0  0  0  0  0  0
  128.2444  135.1485  160.3044 C   0  0  0  0  0  0  0  0  0  0  0  0
  127.5674  134.6431  161.3986 C   0  0  0  0  0  0  0  0  0  0  0  0
  126.1888  134.5450  161.3735 C   0  0  0  0  0  0  0  0  0  0  0  0
  125.4879  134.9439  160.2507 C   0  0  0  0  0  0  0  0  0  0  0  0
  126.1652  135.4443  159.1546 C   0  0  0  0  0  0  0  0  0  0  0  0
  127.5435  135.5464  159.1813 C   0  0  0  0  0  0  0  0  0  0  0  0
  130.4605  133.6831  157.0549 N   0  0  0  0  0  0  0  0  0  0  0  0
  130.9893  134.2823  156.5051 H   0  0  0  0  0  0  0  0  0  0  0  0
  129.8600  132.3700  154.2025 C   0  0  0  0  0  0  0  0  0  0  0  0
  130.1082  131.7487  152.9954 C   0  0  0  0  0  0  0  0  0  0  0  0
  129.8007  128.1813  152.0803 H   0  0  0  0  0  0  0  0  0  0  0  0
  128.9748  129.5119  151.2345 H   0  0  0  0  0  0  0  0  0  0  0  0
  130.0917  128.4491  150.3448 H   0  0  0  0  0  0  0  0  0  0  0  0
  131.9830  129.2976  151.7057 H   0  0  0  0  0  0  0  0  0  0  0  0
  131.1570  130.6283  150.8598 H   0  0  0  0  0  0  0  0  0  0  0  0
  131.7560  129.0174  154.1024 H   0  0  0  0  0  0  0  0  0  0  0  0
  131.3320  130.1149  156.2630 H   0  0  0  0  0  0  0  0  0  0  0  0
  128.8647  130.9518  157.7563 H   0  0  0  0  0  0  0  0  0  0  0  0
  130.7884  135.8224  158.5709 H   0  0  0  0  0  0  0  0  0  0  0  0
  131.1699  136.8576  160.5856 H   0  0  0  0  0  0  0  0  0  0  0  0
  129.4747  137.3913  160.4859 H   0  0  0  0  0  0  0  0  0  0  0  0
  129.0280  136.3871  162.7088 H   0  0  0  0  0  0  0  0  0  0  0  0
  130.7231  135.8535  162.8084 H   0  0  0  0  0  0  0  0  0  0  0  0
  129.1989  137.7218  164.5597 H   0  0  0  0  0  0  0  0  0  0  0  0
  130.9468  139.5383  165.5027 H   0  0  0  0  0  0  0  0  0  0  0  0
  129.3214  140.1261  165.0956 H   0  0  0  0  0  0  0  0  0  0  0  0
  130.8101  141.6913  163.9000 H   0  0  0  0  0  0  0  0  0  0  0  0
  131.1528  141.5902  160.9412 H   0  0  0  0  0  0  0  0  0  0  0  0
  132.2886  142.1171  162.2064 H   0  0  0  0  0  0  0  0  0  0  0  0
  132.7552  140.8267  161.0727 H   0  0  0  0  0  0  0  0  0  0  0  0
  132.4394  138.4133  162.3810 H   0  0  0  0  0  0  0  0  0  0  0  0
  131.2232  138.6935  161.1171 H   0  0  0  0  0  0  0  0  0  0  0  0
  128.1154  134.3280  162.2742 H   0  0  0  0  0  0  0  0  0  0  0  0
  125.6595  134.1543  162.2300 H   0  0  0  0  0  0  0  0  0  0  0  0
  124.4108  134.8648  160.2302 H   0  0  0  0  0  0  0  0  0  0  0  0
  125.6175  135.7560  158.2775 H   0  0  0  0  0  0  0  0  0  0  0  0
  128.0727  135.9374  158.3250 H   0  0  0  0  0  0  0  0  0  0  0  0
  129.3257  133.3082  154.2282 H   0  0  0  0  0  0  0  0  0  0  0  0
  129.7675  132.2016  152.0760 H   0  0  0  0  0  0  0  0  0  0  0  0
  1  2  1  0
  1 34  1  0
  1 35  1  0
  1 36  1  0
  2  3  1  0
  2 37  1  0
  2 38  1  0
  3 33  2  0
  3  4  1  0
  4  5  2  0
  4 39  1  0
  5  6  1  0
  5 40  1  0
  6  7  1  0
  6 32  2  0
  7 30  1  0
  7  8  2  0
  8  9  1  0
  8 41  1  0
  9 10  1  0
  9 11  1  0
 11 12  1  0
 11 30  2  0
 12 13  1  0
 12 42  1  0
 13 14  1  1
 13 15  1  0
 13 24  1  0
 15 16  1  0
 15 43  1  0
 15 44  1  0
 16 17  1  0
 16 45  1  0
 16 46  1  0
 17 23  1  0
 17 18  2  0
 18 19  1  0
 18 47  1  0
 19 20  1  0
 19 48  1  0
 19 49  1  0
 20 21  2  0
 20 50  1  0
 21 22  1  0
 21 23  1  0
 22 51  1  0
 22 52  1  0
 22 53  1  0
 23 54  1  0
 23 55  1  0
 24 29  1  0
 24 25  2  0
 25 26  1  0
 25 56  1  0
 26 27  2  0
 26 57  1  0
 27 28  1  0
 27 58  1  0
 28 29  2  0
 28 59  1  0
 29 60  1  0
 30 31  1  0
 32 33  1  0
 32 61  1  0
 33 62  1  0
M  CHG  1  30   1
M  END
>  <DOCK_score>  (1) 
-59.682056

>  <SMILES>  (1) 
CCc1ccc(-c2c[nH]c(N[C@@H](CCC3=CCC=C(C)C3)c3ccccc3)[nH+]2)cc1

$$$$
