O=C(CCc1c[nH+]c(NC(Cc2ccccc2)Cc2ccccc2)[nH]1)NCC1=CCCCC1
     RDKit          3D

 68 71  0  0  1  0  0  0  0  0999 V2000
  127.5478  134.4356  162.2231 O   0  0  0  0  0  0  0  0  0  0  0  0
  126.7217  135.1663  161.7187 C   0  0  0  0  0  0  0  0  0  0  0  0
  126.0076  134.7417  160.4614 C   0  0  0  0  0  0  0  0  0  0  0  0
  126.9231  133.8348  159.6366 C   0  0  0  0  0  0  0  0  0  0  0  0
  128.1781  134.5853  159.2724 C   0  0  0  0  0  0  0  0  0  0  0  0
  128.3706  135.3371  158.1753 C   0  0  0  0  0  0  0  0  0  0  0  0
  129.6176  135.8362  158.2187 N   0  0  0  0  0  0  0  0  0  0  0  0
  130.0146  136.4136  157.5479 H   0  0  0  0  0  0  0  0  0  0  0  0
  130.2137  135.4199  159.3108 C   0  0  0  0  0  0  0  0  0  0  0  0
  131.5074  135.7298  159.6959 N   0  0  0  0  0  0  0  0  0  0  0  0
  132.0478  135.1928  160.9471 C   0  0  0  0  0  0  0  0  0  0  0  0
  132.7241  133.8476  160.6748 C   0  0  0  0  0  0  0  0  0  0  0  0
  131.7140  132.8830  160.1088 C   0  0  0  0  0  0  0  0  0  0  0  0
  130.9801  132.0744  160.9563 C   0  0  0  0  0  0  0  0  0  0  0  0
  130.0503  131.1930  160.4373 C   0  0  0  0  0  0  0  0  0  0  0  0
  129.8616  131.1129  159.0702 C   0  0  0  0  0  0  0  0  0  0  0  0
  130.5991  131.9179  158.2224 C   0  0  0  0  0  0  0  0  0  0  0  0
  131.5254  132.8030  158.7417 C   0  0  0  0  0  0  0  0  0  0  0  0
  133.0733  136.1722  161.5216 C   0  0  0  0  0  0  0  0  0  0  0  0
  133.2632  135.8961  162.9910 C   0  0  0  0  0  0  0  0  0  0  0  0
  132.4743  136.5435  163.9234 C   0  0  0  0  0  0  0  0  0  0  0  0
  132.6453  136.2867  165.2709 C   0  0  0  0  0  0  0  0  0  0  0  0
  133.6121  135.3905  165.6865 C   0  0  0  0  0  0  0  0  0  0  0  0
  134.4045  134.7470  164.7544 C   0  0  0  0  0  0  0  0  0  0  0  0
  134.2301  134.9999  163.4066 C   0  0  0  0  0  0  0  0  0  0  0  0
  129.3437  134.6364  160.0033 N   0  0  0  0  0  0  0  0  0  0  0  0
  129.5131  134.1953  160.8504 H   0  0  0  0  0  0  0  0  0  0  0  0
  126.4422  136.3582  162.2825 N   0  0  0  0  0  0  0  0  0  0  0  0
  127.1364  136.7710  163.5048 C   0  0  0  0  0  0  0  0  0  0  0  0
  126.6456  138.1322  163.9259 C   0  0  0  0  0  0  0  0  0  0  0  0
  127.2663  139.1705  163.4651 C   0  0  0  0  0  0  0  0  0  0  0  0
  126.9049  140.5864  163.8067 C   0  0  0  0  0  0  0  0  0  0  0  0
  125.4948  140.6424  164.3982 C   0  0  0  0  0  0  0  0  0  0  0  0
  125.3901  139.5845  165.5040 C   0  0  0  0  0  0  0  0  0  0  0  0
  125.4715  138.1996  164.8582 C   0  0  0  0  0  0  0  0  0  0  0  0
  125.0998  134.1989  160.7248 H   0  0  0  0  0  0  0  0  0  0  0  0
  125.7469  135.6235  159.8762 H   0  0  0  0  0  0  0  0  0  0  0  0
  127.1839  132.9529  160.2216 H   0  0  0  0  0  0  0  0  0  0  0  0
  126.4067  133.5277  158.7271 H   0  0  0  0  0  0  0  0  0  0  0  0
  127.6469  135.5105  157.3926 H   0  0  0  0  0  0  0  0  0  0  0  0
  132.0558  136.3026  159.1370 H   0  0  0  0  0  0  0  0  0  0  0  0
  131.2375  135.0539  161.6628 H   0  0  0  0  0  0  0  0  0  0  0  0
  133.5344  133.9866  159.9592 H   0  0  0  0  0  0  0  0  0  0  0  0
  133.1261  133.4481  161.6058 H   0  0  0  0  0  0  0  0  0  0  0  0
  131.1307  132.1337  162.0241 H   0  0  0  0  0  0  0  0  0  0  0  0
  129.4742  130.5638  161.0997 H   0  0  0  0  0  0  0  0  0  0  0  0
  129.1382  130.4212  158.6646 H   0  0  0  0  0  0  0  0  0  0  0  0
  130.4522  131.8551  157.1543 H   0  0  0  0  0  0  0  0  0  0  0  0
  132.1019  133.4317  158.0793 H   0  0  0  0  0  0  0  0  0  0  0  0
  134.0240  136.0486  161.0029 H   0  0  0  0  0  0  0  0  0  0  0  0
  132.7160  137.1930  161.3869 H   0  0  0  0  0  0  0  0  0  0  0  0
  131.7219  137.2472  163.5989 H   0  0  0  0  0  0  0  0  0  0  0  0
  132.0264  136.7897  165.9992 H   0  0  0  0  0  0  0  0  0  0  0  0
  133.7486  135.1932  166.7396 H   0  0  0  0  0  0  0  0  0  0  0  0
  135.1601  134.0470  165.0791 H   0  0  0  0  0  0  0  0  0  0  0  0
  134.8494  134.4974  162.6783 H   0  0  0  0  0  0  0  0  0  0  0  0
  125.7815  136.9426  161.8791 H   0  0  0  0  0  0  0  0  0  0  0  0
  128.2092  136.8138  163.3165 H   0  0  0  0  0  0  0  0  0  0  0  0
  126.9351  136.0508  164.2978 H   0  0  0  0  0  0  0  0  0  0  0  0
  128.0961  139.0076  162.7934 H   0  0  0  0  0  0  0  0  0  0  0  0
  126.9427  141.1967  162.9043 H   0  0  0  0  0  0  0  0  0  0  0  0
  127.6174  140.9758  164.5339 H   0  0  0  0  0  0  0  0  0  0  0  0
  124.7619  140.4318  163.6192 H   0  0  0  0  0  0  0  0  0  0  0  0
  125.3129  141.6314  164.8190 H   0  0  0  0  0  0  0  0  0  0  0  0
  124.4380  139.6907  166.0239 H   0  0  0  0  0  0  0  0  0  0  0  0
  126.2120  139.7089  166.2090 H   0  0  0  0  0  0  0  0  0  0  0  0
  124.5554  138.0068  164.2999 H   0  0  0  0  0  0  0  0  0  0  0  0
  125.5851  137.4459  165.6373 H   0  0  0  0  0  0  0  0  0  0  0  0
  1  2  2  0
  2  3  1  0
  2 28  1  0
  3  4  1  0
  3 36  1  0
  3 37  1  0
  4  5  1  0
  4 38  1  0
  4 39  1  0
  5 26  1  0
  5  6  2  0
  6  7  1  0
  6 40  1  0
  7  8  1  0
  7  9  2  0
  9 10  1  0
  9 26  1  0
 10 11  1  0
 10 41  1  0
 11 12  1  0
 11 19  1  0
 11 42  1  0
 12 13  1  0
 12 43  1  0
 12 44  1  0
 13 18  1  0
 13 14  2  0
 14 15  1  0
 14 45  1  0
 15 16  2  0
 15 46  1  0
 16 17  1  0
 16 47  1  0
 17 18  2  0
 17 48  1  0
 18 49  1  0
 19 20  1  0
 19 50  1  0
 19 51  1  0
 20 25  1  0
 20 21  2  0
 21 22  1  0
 21 52  1  0
 22 23  2  0
 22 53  1  0
 23 24  1  0
 23 54  1  0
 24 25  2  0
 24 55  1  0
 25 56  1  0
 26 27  1  0
 28 29  1  0
 28 57  1  0
 29 30  1  0
 29 58  1  0
 29 59  1  0
 30 35  1  0
 30 31  2  0
 31 32  1  0
 31 60  1  0
 32 33  1  0
 32 61  1  0
 32 62  1  0
 33 34  1  0
 33 63  1  0
 33 64  1  0
 34 35  1  0
 34 65  1  0
 34 66  1  0
 35 67  1  0
 35 68  1  0
M  CHG  1   7   1
M  END
>  <DOCK_score>  (1) 
-47.584221

>  <SMILES>  (1) 
O=C(CCc1c[nH+]c(NC(Cc2ccccc2)Cc2ccccc2)[nH]1)NCC1=CCCCC1

$$$$
