CCCc1ccc([C@H](C=CCCc2ccccc2)Nc2[nH]cc(-c3ccc(CC)cc3)[nH+]2)cc1
     RDKit          3D

 70 73  0  0  1  0  0  0  0  0999 V2000
  131.0794  142.3794  163.5333 C   0  0  0  0  0  0  0  0  0  0  0  0
  130.8639  140.9245  163.1115 C   0  0  0  0  0  0  0  0  0  0  0  0
  130.5637  140.8673  161.6124 C   0  0  0  0  0  0  0  0  0  0  0  0
  130.3514  139.4343  161.1969 C   0  0  0  0  0  0  0  0  0  0  0  0
  129.0841  138.8837  161.2365 C   0  0  0  0  0  0  0  0  0  0  0  0
  128.8893  137.5694  160.8555 C   0  0  0  0  0  0  0  0  0  0  0  0
  129.9618  136.8058  160.4338 C   0  0  0  0  0  0  0  0  0  0  0  0
  129.7495  135.3727  160.0185 C   0  0  2  0  0  0  0  0  0  0  0  0
  128.6941  135.1186  160.1167 H   0  0  0  0  0  0  0  0  0  0  0  0
  130.5687  134.4671  160.9015 C   0  0  0  0  0  0  0  0  0  0  0  0
  129.9776  133.5518  161.6287 C   0  0  0  0  0  0  0  0  0  0  0  0
  130.7968  132.6460  162.5117 C   0  0  0  0  0  0  0  0  0  0  0  0
  130.3627  132.8245  163.9680 C   0  0  0  0  0  0  0  0  0  0  0  0
  130.5750  134.2575  164.3835 C   0  0  0  0  0  0  0  0  0  0  0  0
  131.7787  134.6439  164.9426 C   0  0  0  0  0  0  0  0  0  0  0  0
  131.9752  135.9594  165.3193 C   0  0  0  0  0  0  0  0  0  0  0  0
  130.9643  136.8863  165.1464 C   0  0  0  0  0  0  0  0  0  0  0  0
  129.7587  136.4988  164.5919 C   0  0  0  0  0  0  0  0  0  0  0  0
  129.5641  135.1844  164.2104 C   0  0  0  0  0  0  0  0  0  0  0  0
  130.1652  135.2019  158.6241 N   0  0  0  0  0  0  0  0  0  0  0  0
  130.0622  133.9614  158.0181 C   0  0  0  0  0  0  0  0  0  0  0  0
  129.5984  132.8266  158.6090 N   0  0  0  0  0  0  0  0  0  0  0  0
  129.2829  132.7421  159.5223 H   0  0  0  0  0  0  0  0  0  0  0  0
  129.6589  131.8229  157.6731 C   0  0  0  0  0  0  0  0  0  0  0  0
  130.1576  132.3727  156.5381 C   0  0  0  0  0  0  0  0  0  0  0  0
  130.4009  131.6634  155.2583 C   0  0  0  0  0  0  0  0  0  0  0  0
  130.3072  132.3502  154.0492 C   0  0  0  0  0  0  0  0  0  0  0  0
  130.5351  131.6854  152.8615 C   0  0  0  0  0  0  0  0  0  0  0  0
  130.8560  130.3398  152.8697 C   0  0  0  0  0  0  0  0  0  0  0  0
  131.1038  129.6193  151.5694 C   0  0  0  0  0  0  0  0  0  0  0  0
  129.7857  129.0466  151.0446 C   0  0  0  0  0  0  0  0  0  0  0  0
  130.9450  129.6518  154.0664 C   0  0  0  0  0  0  0  0  0  0  0  0
  130.7247  130.3078  155.2604 C   0  0  0  0  0  0  0  0  0  0  0  0
  130.4003  133.6851  156.7823 N   0  0  0  0  0  0  0  0  0  0  0  0
  130.7638  134.3182  156.1436 H   0  0  0  0  0  0  0  0  0  0  0  0
  131.2298  137.3548  160.3988 C   0  0  0  0  0  0  0  0  0  0  0  0
  131.4239  138.6707  160.7758 C   0  0  0  0  0  0  0  0  0  0  0  0
  131.9191  142.7980  162.9784 H   0  0  0  0  0  0  0  0  0  0  0  0
  130.1795  142.9564  163.3207 H   0  0  0  0  0  0  0  0  0  0  0  0
  131.2934  142.4202  164.6014 H   0  0  0  0  0  0  0  0  0  0  0  0
  130.0243  140.5059  163.6664 H   0  0  0  0  0  0  0  0  0  0  0  0
  131.7638  140.3475  163.3241 H   0  0  0  0  0  0  0  0  0  0  0  0
  131.4033  141.2859  161.0574 H   0  0  0  0  0  0  0  0  0  0  0  0
  129.6638  141.4444  161.3997 H   0  0  0  0  0  0  0  0  0  0  0  0
  128.2462  139.4804  161.5656 H   0  0  0  0  0  0  0  0  0  0  0  0
  127.8992  137.1390  160.8868 H   0  0  0  0  0  0  0  0  0  0  0  0
  131.6430  134.5727  160.9347 H   0  0  0  0  0  0  0  0  0  0  0  0
  128.9033  133.4462  161.5955 H   0  0  0  0  0  0  0  0  0  0  0  0
  130.6433  131.6095  162.2113 H   0  0  0  0  0  0  0  0  0  0  0  0
  131.8522  132.9002  162.4135 H   0  0  0  0  0  0  0  0  0  0  0  0
  129.3073  132.5703  164.0663 H   0  0  0  0  0  0  0  0  0  0  0  0
  130.9552  132.1695  164.6067 H   0  0  0  0  0  0  0  0  0  0  0  0
  132.5669  133.9188  165.0819 H   0  0  0  0  0  0  0  0  0  0  0  0
  132.9169  136.2620  165.7527 H   0  0  0  0  0  0  0  0  0  0  0  0
  131.1162  137.9130  165.4446 H   0  0  0  0  0  0  0  0  0  0  0  0
  128.9688  137.2228  164.4570 H   0  0  0  0  0  0  0  0  0  0  0  0
  128.6220  134.8816  163.7777 H   0  0  0  0  0  0  0  0  0  0  0  0
  130.5125  135.9580  158.1254 H   0  0  0  0  0  0  0  0  0  0  0  0
  129.3653  130.7932  157.8139 H   0  0  0  0  0  0  0  0  0  0  0  0
  130.0564  133.4007  154.0416 H   0  0  0  0  0  0  0  0  0  0  0  0
  130.4624  132.2165  151.9239 H   0  0  0  0  0  0  0  0  0  0  0  0
  131.8130  128.8078  151.7331 H   0  0  0  0  0  0  0  0  0  0  0  0
  131.5130  130.3177  150.8393 H   0  0  0  0  0  0  0  0  0  0  0  0
  129.0766  129.8580  150.8808 H   0  0  0  0  0  0  0  0  0  0  0  0
  129.9649  128.5255  150.1041 H   0  0  0  0  0  0  0  0  0  0  0  0
  129.3766  128.3483  151.7746 H   0  0  0  0  0  0  0  0  0  0  0  0
  131.1912  128.6002  154.0666 H   0  0  0  0  0  0  0  0  0  0  0  0
  130.7989  129.7708  156.1945 H   0  0  0  0  0  0  0  0  0  0  0  0
  132.0685  136.7570  160.0737 H   0  0  0  0  0  0  0  0  0  0  0  0
  132.4140  139.1008  160.7445 H   0  0  0  0  0  0  0  0  0  0  0  0
  1  2  1  0
  1 38  1  0
  1 39  1  0
  1 40  1  0
  2  3  1  0
  2 41  1  0
  2 42  1  0
  3  4  1  0
  3 43  1  0
  3 44  1  0
  4 37  2  0
  4  5  1  0
  5  6  2  0
  5 45  1  0
  6  7  1  0
  6 46  1  0
  7  8  1  0
  7 36  2  0
  8  9  1  6
  8 10  1  0
  8 20  1  0
 10 11  2  0
 10 47  1  0
 11 12  1  0
 11 48  1  0
 12 13  1  0
 12 49  1  0
 12 50  1  0
 13 14  1  0
 13 51  1  0
 13 52  1  0
 14 19  1  0
 14 15  2  0
 15 16  1  0
 15 53  1  0
 16 17  2  0
 16 54  1  0
 17 18  1  0
 17 55  1  0
 18 19  2  0
 18 56  1  0
 19 57  1  0
 20 58  1  0
 21 20  1  0
 21 34  2  0
 21 22  1  0
 22 23  1  0
 22 24  1  0
 24 25  2  0
 24 59  1  0
 25 26  1  0
 25 34  1  0
 26 33  1  0
 26 27  2  0
 27 28  1  0
 27 60  1  0
 28 29  2  0
 28 61  1  0
 29 30  1  0
 29 32  1  0
 30 31  1  0
 30 62  1  0
 30 63  1  0
 31 64  1  0
 31 65  1  0
 31 66  1  0
 32 33  2  0
 32 67  1  0
 33 68  1  0
 34 35  1  0
 36 37  1  0
 36 69  1  0
 37 70  1  0
M  CHG  1  34   1
M  END
>  <DOCK_score>  (1) 
-60.713993

>  <SMILES>  (1) 
CCCc1ccc([C@H](C=CCCc2ccccc2)Nc2[nH]cc(-c3ccc(CC)cc3)[nH+]2)cc1

$$$$
