CCC=COC[C@@H](Nc1[nH]cc(-c2ccc(CC)cc2)[nH+]1)c1ccc(C)cc1
     RDKit          3D

 58 60  0  0  1  0  0  0  0  0999 V2000
  126.3320  130.9739  160.0313 C   0  0  0  0  0  0  0  0  0  0  0  0
  125.4316  132.2097  160.0884 C   0  0  0  0  0  0  0  0  0  0  0  0
  126.0938  133.3479  159.3556 C   0  0  0  0  0  0  0  0  0  0  0  0
  126.8924  134.1715  160.0023 C   0  0  0  0  0  0  0  0  0  0  0  0
  127.4885  135.1962  159.3426 O   0  0  0  0  0  0  0  0  0  0  0  0
  128.3420  136.0505  160.1066 C   0  0  0  0  0  0  0  0  0  0  0  0
  129.7067  135.3818  160.2838 C   0  0  1  0  0  0  0  0  0  0  0  0
  129.5813  134.4328  160.8054 H   0  0  0  0  0  0  0  0  0  0  0  0
  130.3068  135.1409  158.9692 N   0  0  0  0  0  0  0  0  0  0  0  0
  130.0675  133.9490  158.3069 C   0  0  0  0  0  0  0  0  0  0  0  0
  129.3010  132.9245  158.7707 N   0  0  0  0  0  0  0  0  0  0  0  0
  128.8280  132.8983  159.6171 H   0  0  0  0  0  0  0  0  0  0  0  0
  129.3204  131.9344  157.8186 C   0  0  0  0  0  0  0  0  0  0  0  0
  130.0974  132.3820  156.8012 C   0  0  0  0  0  0  0  0  0  0  0  0
  130.4076  131.6465  155.5509 C   0  0  0  0  0  0  0  0  0  0  0  0
  130.0503  132.1848  154.3159 C   0  0  0  0  0  0  0  0  0  0  0  0
  130.3419  131.4963  153.1559 C   0  0  0  0  0  0  0  0  0  0  0  0
  130.9876  130.2741  153.2176 C   0  0  0  0  0  0  0  0  0  0  0  0
  131.3033  129.5270  151.9475 C   0  0  0  0  0  0  0  0  0  0  0  0
  130.1318  128.6099  151.5905 C   0  0  0  0  0  0  0  0  0  0  0  0
  131.3394  129.7329  154.4405 C   0  0  0  0  0  0  0  0  0  0  0  0
  131.0579  130.4151  155.6067 C   0  0  0  0  0  0  0  0  0  0  0  0
  130.5458  133.6190  157.1321 N   0  0  0  0  0  0  0  0  0  0  0  0
  131.1260  134.1718  156.5855 H   0  0  0  0  0  0  0  0  0  0  0  0
  130.6068  136.2828  161.0894 C   0  0  0  0  0  0  0  0  0  0  0  0
  130.9128  137.5483  160.6250 C   0  0  0  0  0  0  0  0  0  0  0  0
  131.7345  138.3766  161.3664 C   0  0  0  0  0  0  0  0  0  0  0  0
  132.2587  137.9354  162.5671 C   0  0  0  0  0  0  0  0  0  0  0  0
  133.1595  138.8360  163.3723 C   0  0  0  0  0  0  0  0  0  0  0  0
  131.9569  136.6678  163.0289 C   0  0  0  0  0  0  0  0  0  0  0  0
  131.1310  135.8416  162.2901 C   0  0  0  0  0  0  0  0  0  0  0  0
  125.8531  130.1507  160.5613 H   0  0  0  0  0  0  0  0  0  0  0  0
  126.4949  130.6906  158.9914 H   0  0  0  0  0  0  0  0  0  0  0  0
  127.2896  131.1999  160.5004 H   0  0  0  0  0  0  0  0  0  0  0  0
  125.2689  132.4928  161.1284 H   0  0  0  0  0  0  0  0  0  0  0  0
  124.4741  131.9835  159.6194 H   0  0  0  0  0  0  0  0  0  0  0  0
  125.9135  133.4881  158.3000 H   0  0  0  0  0  0  0  0  0  0  0  0
  127.0727  134.0313  161.0579 H   0  0  0  0  0  0  0  0  0  0  0  0
  127.8955  136.2297  161.0847 H   0  0  0  0  0  0  0  0  0  0  0  0
  128.4674  136.9995  159.5851 H   0  0  0  0  0  0  0  0  0  0  0  0
  130.8719  135.8166  158.5629 H   0  0  0  0  0  0  0  0  0  0  0  0
  128.8136  130.9822  157.8701 H   0  0  0  0  0  0  0  0  0  0  0  0
  129.5459  133.1385  154.2668 H   0  0  0  0  0  0  0  0  0  0  0  0
  130.0651  131.9123  152.1983 H   0  0  0  0  0  0  0  0  0  0  0  0
  132.2026  128.9293  152.0913 H   0  0  0  0  0  0  0  0  0  0  0  0
  131.4661  130.2395  151.1379 H   0  0  0  0  0  0  0  0  0  0  0  0
  130.3602  128.0697  150.6718 H   0  0  0  0  0  0  0  0  0  0  0  0
  129.9687  127.8980  152.3996 H   0  0  0  0  0  0  0  0  0  0  0  0
  129.2323  129.2083  151.4462 H   0  0  0  0  0  0  0  0  0  0  0  0
  131.8391  128.7764  154.4828 H   0  0  0  0  0  0  0  0  0  0  0  0
  131.3373  129.9936  156.5610 H   0  0  0  0  0  0  0  0  0  0  0  0
  130.5069  137.8913  159.6849 H   0  0  0  0  0  0  0  0  0  0  0  0
  131.9707  139.3667  161.0054 H   0  0  0  0  0  0  0  0  0  0  0  0
  134.1950  138.6778  163.0709 H   0  0  0  0  0  0  0  0  0  0  0  0
  132.8848  139.8761  163.1963 H   0  0  0  0  0  0  0  0  0  0  0  0
  133.0503  138.6057  164.4321 H   0  0  0  0  0  0  0  0  0  0  0  0
  132.3667  136.3231  163.9668 H   0  0  0  0  0  0  0  0  0  0  0  0
  130.8954  134.8512  162.6507 H   0  0  0  0  0  0  0  0  0  0  0  0
  1  2  1  0
  1 32  1  0
  1 33  1  0
  1 34  1  0
  2  3  1  0
  2 35  1  0
  2 36  1  0
  3  4  2  0
  3 37  1  0
  4  5  1  0
  4 38  1  0
  5  6  1  0
  6  7  1  0
  6 39  1  0
  6 40  1  0
  7  8  1  1
  7  9  1  0
  7 25  1  0
  9 41  1  0
 10  9  1  0
 10 23  2  0
 10 11  1  0
 11 12  1  0
 11 13  1  0
 13 14  2  0
 13 42  1  0
 14 15  1  0
 14 23  1  0
 15 22  1  0
 15 16  2  0
 16 17  1  0
 16 43  1  0
 17 18  2  0
 17 44  1  0
 18 19  1  0
 18 21  1  0
 19 20  1  0
 19 45  1  0
 19 46  1  0
 20 47  1  0
 20 48  1  0
 20 49  1  0
 21 22  2  0
 21 50  1  0
 22 51  1  0
 23 24  1  0
 25 31  1  0
 25 26  2  0
 26 27  1  0
 26 52  1  0
 27 28  2  0
 27 53  1  0
 28 29  1  0
 28 30  1  0
 29 54  1  0
 29 55  1  0
 29 56  1  0
 30 31  2  0
 30 57  1  0
 31 58  1  0
M  CHG  1  23   1
M  END
>  <DOCK_score>  (1) 
-60.180832

>  <SMILES>  (1) 
CCC=COC[C@@H](Nc1[nH]cc(-c2ccc(CC)cc2)[nH+]1)c1ccc(C)cc1

$$$$
