OCCNc1ccc(-c2n[nH]cc2C[NH2+]Cc2cccc(Cl)c2)o1
     RDKit          3D

 44 46  0  0  0  0  0  0  0  0999 V2000
  125.4582  138.8329  163.1813 O   0  0  0  0  0  0  0  0  0  0  0  0
  126.5472  138.2344  163.8868 C   0  0  0  0  0  0  0  0  0  0  0  0
  127.3609  137.3649  162.9262 C   0  0  0  0  0  0  0  0  0  0  0  0
  126.5026  136.3152  162.3714 N   0  0  0  0  0  0  0  0  0  0  0  0
  127.0238  135.3965  161.4678 C   0  0  0  0  0  0  0  0  0  0  0  0
  126.3392  134.3788  160.8888 C   0  0  0  0  0  0  0  0  0  0  0  0
  127.2437  133.7011  160.0476 C   0  0  0  0  0  0  0  0  0  0  0  0
  128.4377  134.3413  160.1562 C   0  0  0  0  0  0  0  0  0  0  0  0
  129.6828  133.9764  159.4495 C   0  0  0  0  0  0  0  0  0  0  0  0
  129.8323  132.9724  158.6081 N   0  0  0  0  0  0  0  0  0  0  0  0
  131.1600  132.9734  158.1617 N   0  0  0  0  0  0  0  0  0  0  0  0
  131.5498  132.3442  157.5347 H   0  0  0  0  0  0  0  0  0  0  0  0
  131.8036  134.0019  158.7552 C   0  0  0  0  0  0  0  0  0  0  0  0
  130.9244  134.6376  159.5589 C   0  0  0  0  0  0  0  0  0  0  0  0
  131.2166  135.8407  160.4181 C   0  0  0  0  0  0  0  0  0  0  0  0
  130.9597  137.0657  159.6490 N   0  0  0  0  0  0  0  0  0  0  0  0
  131.5543  137.0820  158.8341 H   0  0  0  0  0  0  0  0  0  0  0  0
  129.9930  137.0853  159.3605 H   0  0  0  0  0  0  0  0  0  0  0  0
  131.2446  138.2384  160.4866 C   0  0  0  0  0  0  0  0  0  0  0  0
  132.6885  138.2091  160.9174 C   0  0  0  0  0  0  0  0  0  0  0  0
  133.0460  137.5773  162.0941 C   0  0  0  0  0  0  0  0  0  0  0  0
  134.3707  137.5460  162.4874 C   0  0  0  0  0  0  0  0  0  0  0  0
  135.3375  138.1554  161.7097 C   0  0  0  0  0  0  0  0  0  0  0  0
  134.9797  138.7923  160.5350 C   0  0  0  0  0  0  0  0  0  0  0  0
  136.1933  139.5575  159.5576 Cl  0  0  0  0  0  0  0  0  0  0  0  0
  133.6540  138.8188  160.1392 C   0  0  0  0  0  0  0  0  0  0  0  0
  128.2923  135.3640  161.0250 O   0  0  0  0  0  0  0  0  0  0  0  0
  124.8475  138.1954  162.7865 H   0  0  0  0  0  0  0  0  0  0  0  0
  126.1596  137.6163  164.6967 H   0  0  0  0  0  0  0  0  0  0  0  0
  127.1859  139.0154  164.2995 H   0  0  0  0  0  0  0  0  0  0  0  0
  128.1916  136.9083  163.4644 H   0  0  0  0  0  0  0  0  0  0  0  0
  127.7486  137.9829  162.1164 H   0  0  0  0  0  0  0  0  0  0  0  0
  125.5706  136.2613  162.6348 H   0  0  0  0  0  0  0  0  0  0  0  0
  125.2985  134.1346  161.0429 H   0  0  0  0  0  0  0  0  0  0  0  0
  127.0295  132.8384  159.4342 H   0  0  0  0  0  0  0  0  0  0  0  0
  132.8413  134.2666  158.6151 H   0  0  0  0  0  0  0  0  0  0  0  0
  130.5743  135.8230  161.2985 H   0  0  0  0  0  0  0  0  0  0  0  0
  132.2609  135.8195  160.7297 H   0  0  0  0  0  0  0  0  0  0  0  0
  131.0540  139.1473  159.9161 H   0  0  0  0  0  0  0  0  0  0  0  0
  130.6024  138.2207  161.3671 H   0  0  0  0  0  0  0  0  0  0  0  0
  132.2904  137.1049  162.7043 H   0  0  0  0  0  0  0  0  0  0  0  0
  134.6500  137.0487  163.4045 H   0  0  0  0  0  0  0  0  0  0  0  0
  136.3720  138.1341  162.0190 H   0  0  0  0  0  0  0  0  0  0  0  0
  133.3741  139.3156  159.2219 H   0  0  0  0  0  0  0  0  0  0  0  0
  1  2  1  0
  1 28  1  0
  2  3  1  0
  2 29  1  0
  2 30  1  0
  3  4  1  0
  3 31  1  0
  3 32  1  0
  4  5  1  0
  4 33  1  0
  5 27  1  0
  5  6  2  0
  6  7  1  0
  6 34  1  0
  7  8  2  0
  7 35  1  0
  8  9  1  0
  8 27  1  0
  9 14  1  0
  9 10  2  0
 10 11  1  0
 11 12  1  0
 11 13  1  0
 13 14  2  0
 13 36  1  0
 14 15  1  0
 15 16  1  0
 15 37  1  0
 15 38  1  0
 16 17  1  0
 16 18  1  0
 16 19  1  0
 19 20  1  0
 19 39  1  0
 19 40  1  0
 20 26  1  0
 20 21  2  0
 21 22  1  0
 21 41  1  0
 22 23  2  0
 22 42  1  0
 23 24  1  0
 23 43  1  0
 24 25  1  0
 24 26  2  0
 26 44  1  0
M  CHG  1  16   1
M  END
>  <DOCK_score>  (1) 
-41.392258

>  <SMILES>  (1) 
OCCNc1ccc(-c2n[nH]cc2C[NH2+]Cc2cccc(Cl)c2)o1

$$$$
