Cc1c(Cl)cccc1N1CC[NH+]([C@@H](c2ccccc2)c2cccnc2)CC1
     RDKit          3D

 52 55  0  0  1  0  0  0  0  0999 V2000
  133.7907  139.3415  163.1077 C   0  0  0  0  0  0  0  0  0  0  0  0
  134.2952  139.6762  161.7277 C   0  0  0  0  0  0  0  0  0  0  0  0
  135.2261  140.6839  161.5565 C   0  0  0  0  0  0  0  0  0  0  0  0
  135.8142  141.5641  162.9324 Cl  0  0  0  0  0  0  0  0  0  0  0  0
  135.6851  140.9952  160.2887 C   0  0  0  0  0  0  0  0  0  0  0  0
  135.2184  140.2965  159.1904 C   0  0  0  0  0  0  0  0  0  0  0  0
  134.2928  139.2851  159.3555 C   0  0  0  0  0  0  0  0  0  0  0  0
  133.8295  138.9695  160.6267 C   0  0  0  0  0  0  0  0  0  0  0  0
  132.8929  137.9472  160.7965 N   0  0  0  0  0  0  0  0  0  0  0  0
  131.6277  138.2753  160.1245 C   0  0  0  0  0  0  0  0  0  0  0  0
  130.6118  137.1605  160.3839 C   0  0  0  0  0  0  0  0  0  0  0  0
  131.1407  135.8880  159.8753 N   0  0  0  0  0  0  0  0  0  0  0  0
  131.3194  135.9698  158.8857 H   0  0  0  0  0  0  0  0  0  0  0  0
  130.1575  134.8217  160.1085 C   0  0  1  0  0  0  0  0  0  0  0  0
  129.9637  134.7337  161.1776 H   0  0  0  0  0  0  0  0  0  0  0  0
  128.8747  135.1555  159.3914 C   0  0  0  0  0  0  0  0  0  0  0  0
  127.6659  134.7122  159.8950 C   0  0  0  0  0  0  0  0  0  0  0  0
  126.4890  135.0221  159.2396 C   0  0  0  0  0  0  0  0  0  0  0  0
  126.5214  135.7671  158.0756 C   0  0  0  0  0  0  0  0  0  0  0  0
  127.7306  136.2061  157.5694 C   0  0  0  0  0  0  0  0  0  0  0  0
  128.9072  135.9000  158.2272 C   0  0  0  0  0  0  0  0  0  0  0  0
  130.6995  133.5158  159.5870 C   0  0  0  0  0  0  0  0  0  0  0  0
  131.0255  133.3763  158.2464 C   0  0  0  0  0  0  0  0  0  0  0  0
  131.5207  132.1567  157.8114 C   0  0  0  0  0  0  0  0  0  0  0  0
  131.6721  131.1278  158.7218 C   0  0  0  0  0  0  0  0  0  0  0  0
  131.3516  131.2965  159.9896 N   0  0  0  0  0  0  0  0  0  0  0  0
  130.8832  132.4442  160.4398 C   0  0  0  0  0  0  0  0  0  0  0  0
  132.3912  135.5617  160.5731 C   0  0  0  0  0  0  0  0  0  0  0  0
  133.4218  136.6631  160.3154 C   0  0  0  0  0  0  0  0  0  0  0  0
  134.4314  138.5811  163.5542 H   0  0  0  0  0  0  0  0  0  0  0  0
  133.8049  140.2382  163.7272 H   0  0  0  0  0  0  0  0  0  0  0  0
  132.7708  138.9629  163.0397 H   0  0  0  0  0  0  0  0  0  0  0  0
  136.4094  141.7853  160.1568 H   0  0  0  0  0  0  0  0  0  0  0  0
  135.5786  140.5418  158.2022 H   0  0  0  0  0  0  0  0  0  0  0  0
  133.9296  138.7395  158.4970 H   0  0  0  0  0  0  0  0  0  0  0  0
  131.2418  139.2169  160.5151 H   0  0  0  0  0  0  0  0  0  0  0  0
  131.7989  138.3689  159.0521 H   0  0  0  0  0  0  0  0  0  0  0  0
  130.4306  137.0764  161.4554 H   0  0  0  0  0  0  0  0  0  0  0  0
  129.6771  137.3951  159.8745 H   0  0  0  0  0  0  0  0  0  0  0  0
  127.6410  134.1268  160.8021 H   0  0  0  0  0  0  0  0  0  0  0  0
  125.5443  134.6795  159.6352 H   0  0  0  0  0  0  0  0  0  0  0  0
  125.6021  136.0063  157.5616 H   0  0  0  0  0  0  0  0  0  0  0  0
  127.7559  136.7882  156.6601 H   0  0  0  0  0  0  0  0  0  0  0  0
  129.8519  136.2428  157.8316 H   0  0  0  0  0  0  0  0  0  0  0  0
  130.8969  134.1982  157.5577 H   0  0  0  0  0  0  0  0  0  0  0  0
  131.7852  132.0125  156.7742 H   0  0  0  0  0  0  0  0  0  0  0  0
  132.0570  130.1745  158.3909 H   0  0  0  0  0  0  0  0  0  0  0  0
  130.6363  132.5464  161.4863 H   0  0  0  0  0  0  0  0  0  0  0  0
  132.7757  134.6108  160.2042 H   0  0  0  0  0  0  0  0  0  0  0  0
  132.2008  135.4857  161.6437 H   0  0  0  0  0  0  0  0  0  0  0  0
  133.6227  136.7301  159.2461 H   0  0  0  0  0  0  0  0  0  0  0  0
  134.3451  136.4286  160.8452 H   0  0  0  0  0  0  0  0  0  0  0  0
  1  2  1  0
  1 30  1  0
  1 31  1  0
  1 32  1  0
  2  8  2  0
  2  3  1  0
  3  4  1  0
  3  5  2  0
  5  6  1  0
  5 33  1  0
  6  7  2  0
  6 34  1  0
  7  8  1  0
  7 35  1  0
  8  9  1  0
  9 29  1  0
  9 10  1  0
 10 11  1  0
 10 36  1  0
 10 37  1  0
 11 12  1  0
 11 38  1  0
 11 39  1  0
 12 13  1  0
 12 14  1  0
 12 28  1  0
 14 15  1  1
 14 16  1  0
 14 22  1  0
 16 21  1  0
 16 17  2  0
 17 18  1  0
 17 40  1  0
 18 19  2  0
 18 41  1  0
 19 20  1  0
 19 42  1  0
 20 21  2  0
 20 43  1  0
 21 44  1  0
 22 27  1  0
 22 23  2  0
 23 24  1  0
 23 45  1  0
 24 25  2  0
 24 46  1  0
 25 26  1  0
 25 47  1  0
 26 27  2  0
 27 48  1  0
 28 29  1  0
 28 49  1  0
 28 50  1  0
 29 51  1  0
 29 52  1  0
M  CHG  1  12   1
M  END
>  <DOCK_score>  (1) 
-56.083694

>  <SMILES>  (1) 
Cc1c(Cl)cccc1N1CC[NH+]([C@@H](c2ccccc2)c2cccnc2)CC1

$$$$
