Cc1nn(-c2ccccc2)cc1C[NH2+][C@@H]1CCC=C1N[C@@H]1C[C@H]1c1cccc2ccccc12
     RDKit          3D

 64 69  0  0  1  0  0  0  0  0999 V2000
  129.7015  131.2326  160.0184 C   0  0  0  0  0  0  0  0  0  0  0  0
  129.9524  131.6674  158.5975 C   0  0  0  0  0  0  0  0  0  0  0  0
  130.3887  130.9046  157.6277 N   0  0  0  0  0  0  0  0  0  0  0  0
  130.4930  131.6856  156.4694 N   0  0  0  0  0  0  0  0  0  0  0  0
  130.9241  131.2420  155.2113 C   0  0  0  0  0  0  0  0  0  0  0  0
  130.9743  132.1259  154.1418 C   0  0  0  0  0  0  0  0  0  0  0  0
  131.4044  131.6871  152.9048 C   0  0  0  0  0  0  0  0  0  0  0  0
  131.7749  130.3666  152.7284 C   0  0  0  0  0  0  0  0  0  0  0  0
  131.7205  129.4826  153.7904 C   0  0  0  0  0  0  0  0  0  0  0  0
  131.2962  129.9166  155.0311 C   0  0  0  0  0  0  0  0  0  0  0  0
  130.1039  132.9429  156.7795 C   0  0  0  0  0  0  0  0  0  0  0  0
  129.7648  132.9576  158.0894 C   0  0  0  0  0  0  0  0  0  0  0  0
  129.2716  134.1524  158.8642 C   0  0  0  0  0  0  0  0  0  0  0  0
  130.4162  134.8621  159.4506 N   0  0  0  0  0  0  0  0  0  0  0  0
  130.9149  134.2417  160.0706 H   0  0  0  0  0  0  0  0  0  0  0  0
  131.0338  135.1702  158.7146 H   0  0  0  0  0  0  0  0  0  0  0  0
  129.9354  136.0268  160.2060 C   0  0  2  0  0  0  0  0  0  0  0  0
  129.2661  135.7096  161.0056 H   0  0  0  0  0  0  0  0  0  0  0  0
  129.2162  137.0198  159.2641 C   0  0  0  0  0  0  0  0  0  0  0  0
  129.6359  138.3794  159.8690 C   0  0  0  0  0  0  0  0  0  0  0  0
  130.9364  138.0978  160.5851 C   0  0  0  0  0  0  0  0  0  0  0  0
  131.1009  136.8057  160.7701 C   0  0  0  0  0  0  0  0  0  0  0  0
  132.1989  136.2340  161.4004 N   0  0  0  0  0  0  0  0  0  0  0  0
  133.5074  136.8891  161.3293 C   0  0  2  0  0  0  0  0  0  0  0  0
  134.0639  136.7286  160.4061 H   0  0  0  0  0  0  0  0  0  0  0  0
  134.3095  137.0074  162.6269 C   0  0  0  0  0  0  0  0  0  0  0  0
  133.6550  138.2482  162.0161 C   0  0  1  0  0  0  0  0  0  0  0  0
  132.7787  138.6550  162.5207 H   0  0  0  0  0  0  0  0  0  0  0  0
  134.5594  139.2626  161.3646 C   0  0  0  0  0  0  0  0  0  0  0  0
  134.7222  139.2658  160.0132 C   0  0  0  0  0  0  0  0  0  0  0  0
  135.5486  140.2001  159.3924 C   0  0  0  0  0  0  0  0  0  0  0  0
  136.2273  141.1287  160.1204 C   0  0  0  0  0  0  0  0  0  0  0  0
  136.0892  141.1524  161.5185 C   0  0  0  0  0  0  0  0  0  0  0  0
  136.7737  142.0961  162.3036 C   0  0  0  0  0  0  0  0  0  0  0  0
  136.6161  142.0886  163.6553 C   0  0  0  0  0  0  0  0  0  0  0  0
  135.7845  141.1579  164.2757 C   0  0  0  0  0  0  0  0  0  0  0  0
  135.1056  140.2297  163.5480 C   0  0  0  0  0  0  0  0  0  0  0  0
  135.2432  140.2062  162.1494 C   0  0  0  0  0  0  0  0  0  0  0  0
  128.6712  130.8908  160.1172 H   0  0  0  0  0  0  0  0  0  0  0  0
  130.3804  130.4193  160.2748 H   0  0  0  0  0  0  0  0  0  0  0  0
  129.8714  132.0733  160.6911 H   0  0  0  0  0  0  0  0  0  0  0  0
  130.6811  133.1563  154.2780 H   0  0  0  0  0  0  0  0  0  0  0  0
  131.4473  132.3750  152.0733 H   0  0  0  0  0  0  0  0  0  0  0  0
  132.1070  130.0249  151.7592 H   0  0  0  0  0  0  0  0  0  0  0  0
  132.0098  128.4516  153.6494 H   0  0  0  0  0  0  0  0  0  0  0  0
  131.2536  129.2256  155.8600 H   0  0  0  0  0  0  0  0  0  0  0  0
  130.0696  133.7842  156.1032 H   0  0  0  0  0  0  0  0  0  0  0  0
  128.7328  134.8227  158.1944 H   0  0  0  0  0  0  0  0  0  0  0  0
  128.6043  133.8196  159.6593 H   0  0  0  0  0  0  0  0  0  0  0  0
  129.5775  136.9191  158.2406 H   0  0  0  0  0  0  0  0  0  0  0  0
  128.1351  136.8887  159.3098 H   0  0  0  0  0  0  0  0  0  0  0  0
  129.7888  139.1150  159.0794 H   0  0  0  0  0  0  0  0  0  0  0  0
  128.8814  138.7306  160.5728 H   0  0  0  0  0  0  0  0  0  0  0  0
  131.6372  138.8558  160.9020 H   0  0  0  0  0  0  0  0  0  0  0  0
  132.0993  135.4010  161.8874 H   0  0  0  0  0  0  0  0  0  0  0  0
  133.8636  136.5978  163.5332 H   0  0  0  0  0  0  0  0  0  0  0  0
  135.3941  136.9247  162.5574 H   0  0  0  0  0  0  0  0  0  0  0  0
  134.1989  138.5365  159.4126 H   0  0  0  0  0  0  0  0  0  0  0  0
  135.6566  140.1841  158.3180 H   0  0  0  0  0  0  0  0  0  0  0  0
  136.8682  141.8437  159.6262 H   0  0  0  0  0  0  0  0  0  0  0  0
  137.4216  142.8232  161.8366 H   0  0  0  0  0  0  0  0  0  0  0  0
  137.1428  142.8152  164.2563 H   0  0  0  0  0  0  0  0  0  0  0  0
  135.6771  141.1738  165.3503 H   0  0  0  0  0  0  0  0  0  0  0  0
  134.4649  139.5148  164.0425 H   0  0  0  0  0  0  0  0  0  0  0  0
  1  2  1  0
  1 39  1  0
  1 40  1  0
  1 41  1  0
  2 12  1  0
  2  3  2  0
  3  4  1  0
  4  5  1  0
  4 11  1  0
  5 10  1  0
  5  6  2  0
  6  7  1  0
  6 42  1  0
  7  8  2  0
  7 43  1  0
  8  9  1  0
  8 44  1  0
  9 10  2  0
  9 45  1  0
 10 46  1  0
 11 12  2  0
 11 47  1  0
 12 13  1  0
 13 14  1  0
 13 48  1  0
 13 49  1  0
 14 15  1  0
 14 16  1  0
 14 17  1  0
 17 18  1  1
 17 22  1  0
 17 19  1  0
 19 20  1  0
 19 50  1  0
 19 51  1  0
 20 21  1  0
 20 52  1  0
 20 53  1  0
 21 22  2  0
 21 54  1  0
 22 23  1  0
 23 24  1  0
 23 55  1  0
 24 25  1  6
 24 27  1  0
 24 26  1  0
 26 27  1  0
 26 56  1  0
 26 57  1  0
 27 28  1  1
 27 29  1  0
 29 38  1  0
 29 30  2  0
 30 31  1  0
 30 58  1  0
 31 32  2  0
 31 59  1  0
 32 33  1  0
 32 60  1  0
 33 38  2  0
 33 34  1  0
 34 35  2  0
 34 61  1  0
 35 36  1  0
 35 62  1  0
 36 37  2  0
 36 63  1  0
 37 38  1  0
 37 64  1  0
M  CHG  1  14   1
M  END
>  <DOCK_score>  (1) 
-58.681221

>  <SMILES>  (1) 
Cc1nn(-c2ccccc2)cc1C[NH2+][C@@H]1CCC=C1N[C@@H]1C[C@H]1c1cccc2ccccc12

$$$$
