C1=C[C@H]([NH2+]C=CC(Nc2nc3ccccc3[nH]2)C2CCC2)CCC1
     RDKit          3D

 51 54  0  0  1  0  0  0  0  0999 V2000
  130.2856  131.1080  156.5379 C   0  0  0  0  0  0  0  0  0  0  0  0
  129.9275  132.2999  156.8839 C   0  0  0  0  0  0  0  0  0  0  0  0
  130.2114  132.9044  158.2277 C   0  0  2  0  0  0  0  0  0  0  0  0
  129.3033  132.8831  158.8305 H   0  0  0  0  0  0  0  0  0  0  0  0
  130.6476  134.2963  158.0532 N   0  0  0  0  0  0  0  0  0  0  0  0
  131.6215  134.3130  157.7903 H   0  0  0  0  0  0  0  0  0  0  0  0
  130.0964  134.7332  157.3299 H   0  0  0  0  0  0  0  0  0  0  0  0
  130.4767  134.9921  159.2537 C   0  0  0  0  0  0  0  0  0  0  0  0
  129.6903  136.0389  159.2979 C   0  0  0  0  0  0  0  0  0  0  0  0
  129.5062  136.7888  160.5919 C   0  0  2  0  0  0  0  0  0  0  0  0
  128.0921  136.7644  160.9737 N   0  0  0  0  0  0  0  0  0  0  0  0
  127.3499  135.6156  160.7972 C   0  0  0  0  0  0  0  0  0  0  0  0
  127.8069  134.4937  160.2992 N   0  0  0  0  0  0  0  0  0  0  0  0
  126.8112  133.5693  160.2679 C   0  0  0  0  0  0  0  0  0  0  0  0
  126.7491  132.2392  159.8451 C   0  0  0  0  0  0  0  0  0  0  0  0
  125.5641  131.5450  159.9431 C   0  0  0  0  0  0  0  0  0  0  0  0
  124.4308  132.1564  160.4586 C   0  0  0  0  0  0  0  0  0  0  0  0
  124.4756  133.4692  160.8805 C   0  0  0  0  0  0  0  0  0  0  0  0
  125.6606  134.1834  160.7892 C   0  0  0  0  0  0  0  0  0  0  0  0
  126.0308  135.4764  161.1210 N   0  0  0  0  0  0  0  0  0  0  0  0
  125.4587  136.1570  161.5090 H   0  0  0  0  0  0  0  0  0  0  0  0
  129.9604  138.2386  160.4103 C   0  0  0  0  0  0  0  0  0  0  0  0
  131.4529  138.3780  160.0668 C   0  0  0  0  0  0  0  0  0  0  0  0
  131.4756  139.5932  161.0089 C   0  0  0  0  0  0  0  0  0  0  0  0
  130.2788  138.9547  161.7335 C   0  0  0  0  0  0  0  0  0  0  0  0
  131.3112  132.1138  158.9396 C   0  0  0  0  0  0  0  0  0  0  0  0
  130.9533  130.6233  158.8803 C   0  0  0  0  0  0  0  0  0  0  0  0
  131.0419  130.1619  157.4239 C   0  0  0  0  0  0  0  0  0  0  0  0
  130.0227  130.7719  155.5457 H   0  0  0  0  0  0  0  0  0  0  0  0
  129.3918  132.8988  156.1622 H   0  0  0  0  0  0  0  0  0  0  0  0
  130.9931  134.6666  160.1447 H   0  0  0  0  0  0  0  0  0  0  0  0
  129.1739  136.3643  158.4069 H   0  0  0  0  0  0  0  0  0  0  0  0
  130.1017  136.3168  161.3734 H   0  0  0  0  0  0  0  0  0  0  0  0
  127.6777  137.5564  161.3505 H   0  0  0  0  0  0  0  0  0  0  0  0
  127.6279  131.7569  159.4430 H   0  0  0  0  0  0  0  0  0  0  0  0
  125.5166  130.5170  159.6157 H   0  0  0  0  0  0  0  0  0  0  0  0
  123.5072  131.6013  160.5298 H   0  0  0  0  0  0  0  0  0  0  0  0
  123.5896  133.9396  161.2806 H   0  0  0  0  0  0  0  0  0  0  0  0
  129.3045  138.8084  159.7522 H   0  0  0  0  0  0  0  0  0  0  0  0
  132.0611  137.5435  160.4158 H   0  0  0  0  0  0  0  0  0  0  0  0
  131.6389  138.6312  159.0230 H   0  0  0  0  0  0  0  0  0  0  0  0
  131.2349  140.5340  160.5137 H   0  0  0  0  0  0  0  0  0  0  0  0
  132.3751  139.6541  161.6215 H   0  0  0  0  0  0  0  0  0  0  0  0
  129.5170  139.6734  162.0352 H   0  0  0  0  0  0  0  0  0  0  0  0
  130.5661  138.2778  162.5382 H   0  0  0  0  0  0  0  0  0  0  0  0
  131.3778  132.4333  159.9796 H   0  0  0  0  0  0  0  0  0  0  0  0
  132.2671  132.2811  158.4431 H   0  0  0  0  0  0  0  0  0  0  0  0
  129.9389  130.4751  159.2505 H   0  0  0  0  0  0  0  0  0  0  0  0
  131.6529  130.0508  159.4892 H   0  0  0  0  0  0  0  0  0  0  0  0
  132.0872  130.1362  157.1160 H   0  0  0  0  0  0  0  0  0  0  0  0
  130.6142  129.1634  157.3346 H   0  0  0  0  0  0  0  0  0  0  0  0
  1 28  1  0
  1  2  2  0
  1 29  1  0
  2  3  1  0
  2 30  1  0
  3  4  1  1
  3  5  1  0
  3 26  1  0
  5  6  1  0
  5  7  1  0
  5  8  1  0
  8  9  2  0
  8 31  1  0
  9 10  1  0
  9 32  1  0
 10 11  1  0
 10 22  1  0
 10 33  1  1
 11 12  1  0
 11 34  1  0
 12 20  1  0
 12 13  2  0
 13 14  1  0
 14 19  2  0
 14 15  1  0
 15 16  2  0
 15 35  1  0
 16 17  1  0
 16 36  1  0
 17 18  2  0
 17 37  1  0
 18 19  1  0
 18 38  1  0
 19 20  1  0
 20 21  1  0
 22 25  1  0
 22 23  1  0
 22 39  1  0
 23 24  1  0
 23 40  1  0
 23 41  1  0
 24 25  1  0
 24 42  1  0
 24 43  1  0
 25 44  1  0
 25 45  1  0
 26 27  1  0
 26 46  1  0
 26 47  1  0
 27 28  1  0
 27 48  1  0
 27 49  1  0
 28 50  1  0
 28 51  1  0
M  CHG  1   5   1
M  END
>  <DOCK_score>  (1) 
-44.512566

>  <SMILES>  (1) 
C1=C[C@H]([NH2+]C=CC(Nc2nc3ccccc3[nH]2)C2CCC2)CCC1

$$$$
