C[NH2+][C@@H](C(=O)Nc1cccc(O)c1)c1cccc(-c2ccc(Cl)cc2)c1
     RDKit          3D

 46 48  0  0  1  0  0  0  0  0999 V2000
  130.9364  132.2464  157.2645 C   0  0  0  0  0  0  0  0  0  0  0  0
  131.6055  132.6933  158.4934 N   0  0  0  0  0  0  0  0  0  0  0  0
  132.5135  133.0692  158.2644 H   0  0  0  0  0  0  0  0  0  0  0  0
  131.7141  131.9107  159.1210 H   0  0  0  0  0  0  0  0  0  0  0  0
  130.7948  133.7323  159.1423 C   0  0  1  0  0  0  0  0  0  0  0  0
  130.6776  134.5778  158.4644 H   0  0  0  0  0  0  0  0  0  0  0  0
  129.4387  133.1709  159.4843 C   0  0  0  0  0  0  0  0  0  0  0  0
  129.3172  131.9911  159.7378 O   0  0  0  0  0  0  0  0  0  0  0  0
  128.3610  133.9799  159.5084 N   0  0  0  0  0  0  0  0  0  0  0  0
  127.1020  133.4586  159.8258 C   0  0  0  0  0  0  0  0  0  0  0  0
  126.7956  132.1404  159.5113 C   0  0  0  0  0  0  0  0  0  0  0  0
  125.5547  131.6242  159.8298 C   0  0  0  0  0  0  0  0  0  0  0  0
  124.6109  132.4200  160.4514 C   0  0  0  0  0  0  0  0  0  0  0  0
  124.9095  133.7390  160.7627 C   0  0  0  0  0  0  0  0  0  0  0  0
  123.9805  134.5204  161.3735 O   0  0  0  0  0  0  0  0  0  0  0  0
  126.1558  134.2590  160.4498 C   0  0  0  0  0  0  0  0  0  0  0  0
  131.4813  134.1908  160.4032 C   0  0  0  0  0  0  0  0  0  0  0  0
  131.2139  133.5578  161.6039 C   0  0  0  0  0  0  0  0  0  0  0  0
  131.8446  133.9697  162.7639 C   0  0  0  0  0  0  0  0  0  0  0  0
  132.7369  135.0222  162.7309 C   0  0  0  0  0  0  0  0  0  0  0  0
  133.0099  135.6633  161.5245 C   0  0  0  0  0  0  0  0  0  0  0  0
  133.9729  136.7913  161.4817 C   0  0  0  0  0  0  0  0  0  0  0  0
  133.8237  137.8023  160.5345 C   0  0  0  0  0  0  0  0  0  0  0  0
  134.7194  138.8514  160.5016 C   0  0  0  0  0  0  0  0  0  0  0  0
  135.7707  138.8956  161.4012 C   0  0  0  0  0  0  0  0  0  0  0  0
  136.8984  140.2145  161.3501 Cl  0  0  0  0  0  0  0  0  0  0  0  0
  135.9259  137.8911  162.3412 C   0  0  0  0  0  0  0  0  0  0  0  0
  135.0327  136.8401  162.3852 C   0  0  0  0  0  0  0  0  0  0  0  0
  132.3756  135.2407  160.3578 C   0  0  0  0  0  0  0  0  0  0  0  0
  130.8190  133.0918  156.5866 H   0  0  0  0  0  0  0  0  0  0  0  0
  131.5379  131.4753  156.7830 H   0  0  0  0  0  0  0  0  0  0  0  0
  129.9555  131.8402  157.5118 H   0  0  0  0  0  0  0  0  0  0  0  0
  128.4582  134.9235  159.3057 H   0  0  0  0  0  0  0  0  0  0  0  0
  127.5296  131.5179  159.0216 H   0  0  0  0  0  0  0  0  0  0  0  0
  125.3196  130.5981  159.5882 H   0  0  0  0  0  0  0  0  0  0  0  0
  123.6401  132.0148  160.6955 H   0  0  0  0  0  0  0  0  0  0  0  0
  124.2799  135.4227  161.5499 H   0  0  0  0  0  0  0  0  0  0  0  0
  126.3900  135.2852  160.6917 H   0  0  0  0  0  0  0  0  0  0  0  0
  130.5133  132.7366  161.6350 H   0  0  0  0  0  0  0  0  0  0  0  0
  131.6353  133.4693  163.6980 H   0  0  0  0  0  0  0  0  0  0  0  0
  133.2260  135.3454  163.6380 H   0  0  0  0  0  0  0  0  0  0  0  0
  133.0064  137.7664  159.8293 H   0  0  0  0  0  0  0  0  0  0  0  0
  134.6024  139.6375  159.7701 H   0  0  0  0  0  0  0  0  0  0  0  0
  136.7477  137.9299  163.0409 H   0  0  0  0  0  0  0  0  0  0  0  0
  135.1547  136.0570  163.1188 H   0  0  0  0  0  0  0  0  0  0  0  0
  132.5838  135.7339  159.4198 H   0  0  0  0  0  0  0  0  0  0  0  0
  1  2  1  0
  1 30  1  0
  1 31  1  0
  1 32  1  0
  2  3  1  0
  2  4  1  0
  2  5  1  0
  5  6  1  6
  5  7  1  0
  5 17  1  0
  7  8  2  0
  7  9  1  0
  9 10  1  0
  9 33  1  0
 10 16  1  0
 10 11  2  0
 11 12  1  0
 11 34  1  0
 12 13  2  0
 12 35  1  0
 13 14  1  0
 13 36  1  0
 14 15  1  0
 14 16  2  0
 15 37  1  0
 16 38  1  0
 17 29  1  0
 17 18  2  0
 18 19  1  0
 18 39  1  0
 19 20  2  0
 19 40  1  0
 20 21  1  0
 20 41  1  0
 21 22  1  0
 21 29  2  0
 22 28  1  0
 22 23  2  0
 23 24  1  0
 23 42  1  0
 24 25  2  0
 24 43  1  0
 25 26  1  0
 25 27  1  0
 27 28  2  0
 27 44  1  0
 28 45  1  0
 29 46  1  0
M  CHG  1   2   1
M  END
>  <DOCK_score>  (1) 
-44.812717

>  <SMILES>  (1) 
C[NH2+][C@@H](C(=O)Nc1cccc(O)c1)c1cccc(-c2ccc(Cl)cc2)c1

$$$$
