
     RDKit          2D

 35 39  0  0  0  0  0  0  0  0999 V2000
   -4.9022  -10.3610    0.0000 C   0  0  0  0  0  0  0  0  0  0  0  0
   -4.7454   -8.8692    0.0000 C   0  0  0  0  0  0  0  0  0  0  0  0
   -5.8601   -7.8655    0.0000 C   0  0  0  0  0  0  0  0  0  0  0  0
   -5.2500   -6.4952    0.0000 C   0  0  0  0  0  0  0  0  0  0  0  0
   -6.0000   -5.1962    0.0000 C   0  0  0  0  0  0  0  0  0  0  0  0
   -5.2500   -3.8971    0.0000 C   0  0  0  0  0  0  0  0  0  0  0  0
   -3.7500   -3.8971    0.0000 C   0  0  0  0  0  0  0  0  0  0  0  0
   -3.0000   -2.5981    0.0000 C   0  0  0  0  0  0  0  0  0  0  0  0
   -3.7500   -1.2990    0.0000 O   0  0  0  0  0  0  0  0  0  0  0  0
   -1.5000   -2.5981    0.0000 C   0  0  0  0  0  0  0  0  0  0  0  0
   -0.7500   -3.8971    0.0000 C   0  0  0  0  0  0  0  0  0  0  0  0
   -1.5000   -5.1962    0.0000 Cl  0  0  0  0  0  0  0  0  0  0  0  0
    0.7500   -3.8971    0.0000 C   0  0  0  0  0  0  0  0  0  0  0  0
    1.5000   -2.5981    0.0000 C   0  0  0  0  0  0  0  0  0  0  0  0
    0.7500   -1.2990    0.0000 C   0  0  0  0  0  0  0  0  0  0  0  0
    1.5000    0.0000    0.0000 C   0  0  0  0  0  0  0  0  0  0  0  0
    0.7500    1.2990    0.0000 C   0  0  0  0  0  0  0  0  0  0  0  0
   -0.7500    1.2990    0.0000 C   0  0  0  0  0  0  0  0  0  0  0  0
   -1.5000    0.0000    0.0000 N   0  0  0  0  0  0  0  0  0  0  0  0
   -0.7500   -1.2990    0.0000 C   0  0  0  0  0  0  0  0  0  0  0  0
   -6.0000   -2.5981    0.0000 N   0  0  0  0  0  0  0  0  0  0  0  0
   -7.5000   -2.5981    0.0000 C   0  0  0  0  0  0  0  0  0  0  0  0
   -8.3817   -3.8116    0.0000 N   0  0  0  0  0  0  0  0  0  0  0  0
   -9.8083   -3.3481    0.0000 C   0  0  0  0  0  0  0  0  0  0  0  0
  -11.0218   -4.2298    0.0000 C   0  0  0  0  0  0  0  0  0  0  0  0
  -12.3921   -3.6196    0.0000 C   0  0  0  0  0  0  0  0  0  0  0  0
  -13.6056   -4.5013    0.0000 C   0  0  0  0  0  0  0  0  0  0  0  0
  -13.4488   -5.9931    0.0000 C   0  0  0  0  0  0  0  0  0  0  0  0
  -14.6624   -6.8748    0.0000 N   0  0  0  0  0  0  0  0  0  0  0  0
  -12.0785   -6.6032    0.0000 C   0  0  0  0  0  0  0  0  0  0  0  0
  -10.8650   -5.7215    0.0000 C   0  0  0  0  0  0  0  0  0  0  0  0
   -9.8083   -1.8481    0.0000 C   0  0  0  0  0  0  0  0  0  0  0  0
   -8.3817   -1.3846    0.0000 N   0  0  0  0  0  0  0  0  0  0  0  0
   -3.7582   -6.6520    0.0000 C   0  0  0  0  0  0  0  0  0  0  0  0
   -3.4463   -8.1192    0.0000 C   0  0  0  0  0  0  0  0  0  0  0  0
  1  2  1  0
  2  3  2  0
  3  4  1  0
  4  5  2  3
  5  6  1  0
  6  7  1  0
  7  8  1  0
  8  9  1  0
  8 10  1  0
 10 11  2  0
 11 12  1  0
 11 13  1  0
 13 14  2  0
 14 15  1  0
 15 16  2  0
 16 17  1  0
 17 18  2  0
 18 19  1  0
 19 20  2  0
  6 21  1  0
 21 22  1  0
 22 23  2  0
 23 24  1  0
 24 25  1  0
 25 26  2  0
 26 27  1  0
 27 28  2  0
 28 29  1  0
 28 30  1  0
 30 31  2  0
 24 32  2  0
 32 33  1  0
  4 34  1  0
 34 35  1  0
 35  2  1  0
 20 10  1  0
 33 22  1  0
 20 15  1  0
 31 25  1  0
M  END
$$$$
