[NH3+][C@H](CCC#CCCCc1cccc2cccnc12)C(=O)Nc1cccc(O)c1
     RDKit          3D

 55 57  0  0  1  0  0  0  0  0999 V2000
  130.5898  133.5917  156.8543 N   0  0  0  0  0  0  0  0  0  0  0  0
  130.4859  132.6193  156.6059 H   0  0  0  0  0  0  0  0  0  0  0  0
  129.9043  134.1409  156.3579 H   0  0  0  0  0  0  0  0  0  0  0  0
  131.5161  133.9051  156.6054 H   0  0  0  0  0  0  0  0  0  0  0  0
  130.3911  133.7516  158.3010 C   0  0  2  0  0  0  0  0  0  0  0  0
  130.5036  134.8020  158.5692 H   0  0  0  0  0  0  0  0  0  0  0  0
  131.4308  132.9188  159.0536 C   0  0  0  0  0  0  0  0  0  0  0  0
  131.5657  133.4435  160.4845 C   0  0  0  0  0  0  0  0  0  0  0  0
  131.9945  134.8513  160.4525 C   0  0  0  0  0  0  0  0  0  0  0  0
  132.3362  135.9741  160.4270 C   0  0  0  0  0  0  0  0  0  0  0  0
  132.7650  137.3820  160.3950 C   0  0  0  0  0  0  0  0  0  0  0  0
  132.8999  137.9067  161.8257 C   0  0  0  0  0  0  0  0  0  0  0  0
  133.3456  139.3700  161.7924 C   0  0  0  0  0  0  0  0  0  0  0  0
  133.4785  139.8869  163.2018 C   0  0  0  0  0  0  0  0  0  0  0  0
  132.5139  139.6151  164.1230 C   0  0  0  0  0  0  0  0  0  0  0  0
  132.6171  140.0826  165.4312 C   0  0  0  0  0  0  0  0  0  0  0  0
  133.6879  140.8258  165.8252 C   0  0  0  0  0  0  0  0  0  0  0  0
  134.7016  141.1258  164.9015 C   0  0  0  0  0  0  0  0  0  0  0  0
  135.8249  141.8912  165.2685 C   0  0  0  0  0  0  0  0  0  0  0  0
  136.7807  142.1275  164.3218 C   0  0  0  0  0  0  0  0  0  0  0  0
  136.6180  141.6309  163.0302 C   0  0  0  0  0  0  0  0  0  0  0  0
  135.5678  140.9236  162.6903 N   0  0  0  0  0  0  0  0  0  0  0  0
  134.6017  140.6465  163.5717 C   0  0  0  0  0  0  0  0  0  0  0  0
  129.0077  133.2833  158.6727 C   0  0  0  0  0  0  0  0  0  0  0  0
  128.4718  132.4050  158.0305 O   0  0  0  0  0  0  0  0  0  0  0  0
  128.3661  133.8407  159.7188 N   0  0  0  0  0  0  0  0  0  0  0  0
  127.0816  133.4061  160.0638 C   0  0  0  0  0  0  0  0  0  0  0  0
  126.7021  132.0927  159.8169 C   0  0  0  0  0  0  0  0  0  0  0  0
  125.4341  131.6637  160.1575 C   0  0  0  0  0  0  0  0  0  0  0  0
  124.5423  132.5373  160.7505 C   0  0  0  0  0  0  0  0  0  0  0  0
  124.9140  133.8518  160.9942 C   0  0  0  0  0  0  0  0  0  0  0  0
  124.0339  134.7113  161.5719 O   0  0  0  0  0  0  0  0  0  0  0  0
  126.1855  134.2862  160.6534 C   0  0  0  0  0  0  0  0  0  0  0  0
  131.1133  131.8763  159.0773 H   0  0  0  0  0  0  0  0  0  0  0  0
  132.3928  132.9942  158.5467 H   0  0  0  0  0  0  0  0  0  0  0  0
  130.6037  133.3681  160.9914 H   0  0  0  0  0  0  0  0  0  0  0  0
  132.3064  132.8503  161.0207 H   0  0  0  0  0  0  0  0  0  0  0  0
  133.7271  137.4574  159.8880 H   0  0  0  0  0  0  0  0  0  0  0  0
  132.0243  137.9752  159.8587 H   0  0  0  0  0  0  0  0  0  0  0  0
  131.9380  137.8313  162.3327 H   0  0  0  0  0  0  0  0  0  0  0  0
  133.6407  137.3134  162.3619 H   0  0  0  0  0  0  0  0  0  0  0  0
  134.3076  139.4454  161.2856 H   0  0  0  0  0  0  0  0  0  0  0  0
  132.6049  139.9632  161.2562 H   0  0  0  0  0  0  0  0  0  0  0  0
  131.6549  139.0271  163.8350 H   0  0  0  0  0  0  0  0  0  0  0  0
  131.8376  139.8522  166.1425 H   0  0  0  0  0  0  0  0  0  0  0  0
  133.7567  141.1828  166.8421 H   0  0  0  0  0  0  0  0  0  0  0  0
  135.9349  142.2681  166.2746 H   0  0  0  0  0  0  0  0  0  0  0  0
  137.6570  142.7072  164.5716 H   0  0  0  0  0  0  0  0  0  0  0  0
  137.3774  141.8338  162.2895 H   0  0  0  0  0  0  0  0  0  0  0  0
  128.7947  134.5431  160.2323 H   0  0  0  0  0  0  0  0  0  0  0  0
  127.3988  131.4068  159.3580 H   0  0  0  0  0  0  0  0  0  0  0  0
  125.1407  130.6424  159.9645 H   0  0  0  0  0  0  0  0  0  0  0  0
  123.5532  132.1976  161.0204 H   0  0  0  0  0  0  0  0  0  0  0  0
  124.3830  135.6037  161.7013 H   0  0  0  0  0  0  0  0  0  0  0  0
  126.4780  135.3078  160.8461 H   0  0  0  0  0  0  0  0  0  0  0  0
  1  2  1  0
  1  3  1  0
  1  4  1  0
  1  5  1  0
  5  6  1  6
  5  7  1  0
  5 24  1  0
  7  8  1  0
  7 34  1  0
  7 35  1  0
  8  9  1  0
  8 36  1  0
  8 37  1  0
  9 10  3  0
 10 11  1  0
 11 12  1  0
 11 38  1  0
 11 39  1  0
 12 13  1  0
 12 40  1  0
 12 41  1  0
 13 14  1  0
 13 42  1  0
 13 43  1  0
 14 23  1  0
 14 15  2  0
 15 16  1  0
 15 44  1  0
 16 17  2  0
 16 45  1  0
 17 18  1  0
 17 46  1  0
 18 23  2  0
 18 19  1  0
 19 20  2  0
 19 47  1  0
 20 21  1  0
 20 48  1  0
 21 22  2  0
 21 49  1  0
 22 23  1  0
 24 25  2  0
 24 26  1  0
 26 27  1  0
 26 50  1  0
 27 33  1  0
 27 28  2  0
 28 29  1  0
 28 51  1  0
 29 30  2  0
 29 52  1  0
 30 31  1  0
 30 53  1  0
 31 32  1  0
 31 33  2  0
 32 54  1  0
 33 55  1  0
M  CHG  1   1   1
M  END
>  <DOCK_score>  (1) 
-47.555038

>  <SMILES>  (1) 
[NH3+][C@H](CCC#CCCCc1cccc2cccnc12)C(=O)Nc1cccc(O)c1

$$$$
