c1ccc(CNc2cccc(N3CC[NH+](C(c4ccccc4)c4ccccc4)CC3)c2)cc1
     RDKit          3D

 65 69  0  0  0  0  0  0  0  0999 V2000
  131.5364  140.7911  161.0012 C   0  0  0  0  0  0  0  0  0  0  0  0
  131.7075  140.1794  159.7734 C   0  0  0  0  0  0  0  0  0  0  0  0
  132.9212  139.6009  159.4526 C   0  0  0  0  0  0  0  0  0  0  0  0
  133.9669  139.6425  160.3556 C   0  0  0  0  0  0  0  0  0  0  0  0
  135.2919  139.0168  160.0035 C   0  0  0  0  0  0  0  0  0  0  0  0
  135.9480  138.5429  161.2247 N   0  0  0  0  0  0  0  0  0  0  0  0
  135.3240  137.5837  162.0254 C   0  0  0  0  0  0  0  0  0  0  0  0
  135.7094  137.4269  163.3517 C   0  0  0  0  0  0  0  0  0  0  0  0
  135.0884  136.4828  164.1460 C   0  0  0  0  0  0  0  0  0  0  0  0
  134.0910  135.6827  163.6222 C   0  0  0  0  0  0  0  0  0  0  0  0
  133.7048  135.8303  162.2955 C   0  0  0  0  0  0  0  0  0  0  0  0
  132.6965  135.0213  161.7667 N   0  0  0  0  0  0  0  0  0  0  0  0
  133.2178  134.1646  160.6922 C   0  0  0  0  0  0  0  0  0  0  0  0
  132.0988  133.2541  160.1817 C   0  0  0  0  0  0  0  0  0  0  0  0
  130.9888  134.0756  159.6815 N   0  0  0  0  0  0  0  0  0  0  0  0
  131.3195  134.6691  158.9354 H   0  0  0  0  0  0  0  0  0  0  0  0
  129.9225  133.2013  159.1749 C   0  0  0  0  0  0  0  0  0  0  0  0
  128.7834  134.0440  158.6615 C   0  0  0  0  0  0  0  0  0  0  0  0
  127.4894  133.5603  158.7099 C   0  0  0  0  0  0  0  0  0  0  0  0
  126.4439  134.3354  158.2434 C   0  0  0  0  0  0  0  0  0  0  0  0
  126.6939  135.5897  157.7189 C   0  0  0  0  0  0  0  0  0  0  0  0
  127.9886  136.0712  157.6658 C   0  0  0  0  0  0  0  0  0  0  0  0
  129.0333  135.2984  158.1371 C   0  0  0  0  0  0  0  0  0  0  0  0
  130.4614  132.3490  158.0549 C   0  0  0  0  0  0  0  0  0  0  0  0
  130.3895  132.7972  156.7492 C   0  0  0  0  0  0  0  0  0  0  0  0
  130.8881  132.0175  155.7224 C   0  0  0  0  0  0  0  0  0  0  0  0
  131.4492  130.7851  156.0002 C   0  0  0  0  0  0  0  0  0  0  0  0
  131.5164  130.3347  157.3054 C   0  0  0  0  0  0  0  0  0  0  0  0
  131.0225  131.1166  158.3327 C   0  0  0  0  0  0  0  0  0  0  0  0
  130.4628  134.9075  160.7718 C   0  0  0  0  0  0  0  0  0  0  0  0
  131.5682  135.8318  161.2872 C   0  0  0  0  0  0  0  0  0  0  0  0
  134.3224  136.7823  161.4964 C   0  0  0  0  0  0  0  0  0  0  0  0
  133.7971  140.2577  161.5818 C   0  0  0  0  0  0  0  0  0  0  0  0
  132.5819  140.8321  161.9045 C   0  0  0  0  0  0  0  0  0  0  0  0
  130.5871  141.2402  161.2532 H   0  0  0  0  0  0  0  0  0  0  0  0
  130.8918  140.1508  159.0660 H   0  0  0  0  0  0  0  0  0  0  0  0
  133.0538  139.1202  158.4946 H   0  0  0  0  0  0  0  0  0  0  0  0
  135.1290  138.1762  159.3289 H   0  0  0  0  0  0  0  0  0  0  0  0
  135.9252  139.7573  159.5148 H   0  0  0  0  0  0  0  0  0  0  0  0
  136.8158  138.8953  161.4771 H   0  0  0  0  0  0  0  0  0  0  0  0
  136.4920  138.0474  163.7629 H   0  0  0  0  0  0  0  0  0  0  0  0
  135.3867  136.3660  165.1774 H   0  0  0  0  0  0  0  0  0  0  0  0
  133.6108  134.9422  164.2446 H   0  0  0  0  0  0  0  0  0  0  0  0
  133.5814  134.7873  159.8748 H   0  0  0  0  0  0  0  0  0  0  0  0
  134.0354  133.5552  161.0773 H   0  0  0  0  0  0  0  0  0  0  0  0
  131.7448  132.6221  160.9961 H   0  0  0  0  0  0  0  0  0  0  0  0
  132.4797  132.6279  159.3750 H   0  0  0  0  0  0  0  0  0  0  0  0
  129.5654  132.5596  159.9804 H   0  0  0  0  0  0  0  0  0  0  0  0
  127.2947  132.5786  159.1155 H   0  0  0  0  0  0  0  0  0  0  0  0
  125.4326  133.9590  158.2846 H   0  0  0  0  0  0  0  0  0  0  0  0
  125.8777  136.1933  157.3504 H   0  0  0  0  0  0  0  0  0  0  0  0
  128.1839  137.0510  157.2558 H   0  0  0  0  0  0  0  0  0  0  0  0
  130.0449  135.6744  158.0952 H   0  0  0  0  0  0  0  0  0  0  0  0
  129.9471  133.7582  156.5317 H   0  0  0  0  0  0  0  0  0  0  0  0
  130.8354  132.3693  154.7027 H   0  0  0  0  0  0  0  0  0  0  0  0
  131.8349  130.1740  155.1975 H   0  0  0  0  0  0  0  0  0  0  0  0
  131.9545  129.3717  157.5225 H   0  0  0  0  0  0  0  0  0  0  0  0
  131.0746  130.7646  159.3524 H   0  0  0  0  0  0  0  0  0  0  0  0
  130.1171  134.2670  161.5831 H   0  0  0  0  0  0  0  0  0  0  0  0
  129.6308  135.5069  160.4024 H   0  0  0  0  0  0  0  0  0  0  0  0
  131.1823  136.4386  162.1062 H   0  0  0  0  0  0  0  0  0  0  0  0
  131.9046  136.4819  160.4796 H   0  0  0  0  0  0  0  0  0  0  0  0
  134.0239  136.8993  160.4651 H   0  0  0  0  0  0  0  0  0  0  0  0
  134.6141  140.2900  162.2876 H   0  0  0  0  0  0  0  0  0  0  0  0
  132.4494  141.3130  162.8625 H   0  0  0  0  0  0  0  0  0  0  0  0
  1 34  2  0
  1  2  1  0
  1 35  1  0
  2  3  2  0
  2 36  1  0
  3  4  1  0
  3 37  1  0
  4  5  1  0
  4 33  2  0
  5  6  1  0
  5 38  1  0
  5 39  1  0
  6  7  1  0
  6 40  1  0
  7 32  1  0
  7  8  2  0
  8  9  1  0
  8 41  1  0
  9 10  2  0
  9 42  1  0
 10 11  1  0
 10 43  1  0
 11 12  1  0
 11 32  2  0
 12 31  1  0
 12 13  1  0
 13 14  1  0
 13 44  1  0
 13 45  1  0
 14 15  1  0
 14 46  1  0
 14 47  1  0
 15 16  1  0
 15 17  1  0
 15 30  1  0
 17 18  1  0
 17 24  1  0
 17 48  1  0
 18 23  1  0
 18 19  2  0
 19 20  1  0
 19 49  1  0
 20 21  2  0
 20 50  1  0
 21 22  1  0
 21 51  1  0
 22 23  2  0
 22 52  1  0
 23 53  1  0
 24 29  1  0
 24 25  2  0
 25 26  1  0
 25 54  1  0
 26 27  2  0
 26 55  1  0
 27 28  1  0
 27 56  1  0
 28 29  2  0
 28 57  1  0
 29 58  1  0
 30 31  1  0
 30 59  1  0
 30 60  1  0
 31 61  1  0
 31 62  1  0
 32 63  1  0
 33 34  1  0
 33 64  1  0
 34 65  1  0
M  CHG  1  15   1
M  END
>  <DOCK_score>  (1) 
-56.712605

>  <SMILES>  (1) 
c1ccc(CNc2cccc(N3CC[NH+](C(c4ccccc4)c4ccccc4)CC3)c2)cc1

$$$$
