O=C1CC[C@H](NC(NC2CC(F)(F)C2)=[NH+]C2COc3cc(Cl)ccc3C2)CN1
     RDKit          3D

 52 55  0  0  1  0  0  0  0  0999 V2000
  123.8494  133.7283  161.5014 O   0  0  0  0  0  0  0  0  0  0  0  0
  125.0180  133.8755  161.2123 C   0  0  0  0  0  0  0  0  0  0  0  0
  125.8125  132.6616  160.8242 C   0  0  0  0  0  0  0  0  0  0  0  0
  127.3091  132.9670  160.9243 C   0  0  0  0  0  0  0  0  0  0  0  0
  127.5836  134.2895  160.1982 C   0  0  2  0  0  0  0  0  0  0  0  0
  127.1674  134.2473  159.1916 H   0  0  0  0  0  0  0  0  0  0  0  0
  129.0286  134.5184  160.1234 N   0  0  0  0  0  0  0  0  0  0  0  0
  129.7446  134.0471  159.0484 C   0  0  0  0  0  0  0  0  0  0  0  0
  129.1044  133.3610  158.0437 N   0  0  0  0  0  0  0  0  0  0  0  0
  129.8672  132.8588  156.8982 C   0  0  0  0  0  0  0  0  0  0  0  0
  129.1837  131.6915  156.1668 C   0  0  0  0  0  0  0  0  0  0  0  0
  130.5794  131.0597  156.0352 C   0  0  0  0  0  0  0  0  0  0  0  0
  131.2635  131.4477  154.8781 F   0  0  0  0  0  0  0  0  0  0  0  0
  130.5909  129.6750  156.2343 F   0  0  0  0  0  0  0  0  0  0  0  0
  130.9754  131.8649  157.2841 C   0  0  0  0  0  0  0  0  0  0  0  0
  131.0302  134.2507  158.9819 N   0  0  0  0  0  0  0  0  0  0  0  0
  131.4641  134.3341  158.1185 H   0  0  0  0  0  0  0  0  0  0  0  0
  131.8199  134.3537  160.2115 C   0  0  1  0  0  0  0  0  0  0  0  0
  133.2543  133.8787  159.9461 C   0  0  0  0  0  0  0  0  0  0  0  0
  133.9693  133.8927  161.1824 O   0  0  0  0  0  0  0  0  0  0  0  0
  133.8995  135.0157  161.9437 C   0  0  0  0  0  0  0  0  0  0  0  0
  134.8490  135.1998  162.9437 C   0  0  0  0  0  0  0  0  0  0  0  0
  134.8087  136.3262  163.7411 C   0  0  0  0  0  0  0  0  0  0  0  0
  135.9959  136.5517  164.9874 Cl  0  0  0  0  0  0  0  0  0  0  0  0
  133.8209  137.2759  163.5455 C   0  0  0  0  0  0  0  0  0  0  0  0
  132.8784  137.0964  162.5524 C   0  0  0  0  0  0  0  0  0  0  0  0
  132.9152  135.9689  161.7486 C   0  0  0  0  0  0  0  0  0  0  0  0
  131.8741  135.8133  160.6693 C   0  0  0  0  0  0  0  0  0  0  0  0
  126.9207  135.4242  160.9802 C   0  0  0  0  0  0  0  0  0  0  0  0
  125.5254  135.1061  161.2568 N   0  0  0  0  0  0  0  0  0  0  0  0
  125.5680  132.3811  159.7997 H   0  0  0  0  0  0  0  0  0  0  0  0
  125.5655  131.8379  161.4939 H   0  0  0  0  0  0  0  0  0  0  0  0
  127.5960  133.0572  161.9720 H   0  0  0  0  0  0  0  0  0  0  0  0
  127.8795  132.1651  160.4555 H   0  0  0  0  0  0  0  0  0  0  0  0
  129.4804  135.0027  160.8322 H   0  0  0  0  0  0  0  0  0  0  0  0
  128.1475  133.2094  158.0931 H   0  0  0  0  0  0  0  0  0  0  0  0
  130.2057  133.6538  156.2337 H   0  0  0  0  0  0  0  0  0  0  0  0
  128.5033  131.1196  156.7977 H   0  0  0  0  0  0  0  0  0  0  0  0
  128.7405  131.9740  155.2119 H   0  0  0  0  0  0  0  0  0  0  0  0
  131.9788  132.2876  157.2312 H   0  0  0  0  0  0  0  0  0  0  0  0
  130.7856  131.3415  158.2210 H   0  0  0  0  0  0  0  0  0  0  0  0
  131.3682  133.7400  160.9908 H   0  0  0  0  0  0  0  0  0  0  0  0
  133.2372  132.8662  159.5433 H   0  0  0  0  0  0  0  0  0  0  0  0
  133.7371  134.5488  159.2346 H   0  0  0  0  0  0  0  0  0  0  0  0
  135.6198  134.4589  163.0971 H   0  0  0  0  0  0  0  0  0  0  0  0
  133.7871  138.1566  164.1696 H   0  0  0  0  0  0  0  0  0  0  0  0
  132.1085  137.8385  162.4019 H   0  0  0  0  0  0  0  0  0  0  0  0
  132.1314  136.4497  159.8226 H   0  0  0  0  0  0  0  0  0  0  0  0
  130.8999  136.1071  161.0601 H   0  0  0  0  0  0  0  0  0  0  0  0
  127.4503  135.5703  161.9216 H   0  0  0  0  0  0  0  0  0  0  0  0
  126.9685  136.3418  160.3939 H   0  0  0  0  0  0  0  0  0  0  0  0
  124.9298  135.8362  161.4871 H   0  0  0  0  0  0  0  0  0  0  0  0
  1  2  2  0
  2 30  1  0
  2  3  1  0
  3  4  1  0
  3 31  1  0
  3 32  1  0
  4  5  1  0
  4 33  1  0
  4 34  1  0
  5  6  1  6
  5  7  1  0
  5 29  1  0
  7 35  1  0
  8  7  1  0
  8  9  1  0
  8 16  2  0
  9 10  1  0
  9 36  1  0
 10 15  1  0
 10 11  1  0
 10 37  1  0
 11 12  1  0
 11 38  1  0
 11 39  1  0
 12 13  1  0
 12 14  1  0
 12 15  1  0
 15 40  1  0
 15 41  1  0
 16 17  1  0
 16 18  1  0
 18 28  1  0
 18 19  1  0
 18 42  1  1
 19 20  1  0
 19 43  1  0
 19 44  1  0
 20 21  1  0
 21 27  2  0
 21 22  1  0
 22 23  2  0
 22 45  1  0
 23 24  1  0
 23 25  1  0
 25 26  2  0
 25 46  1  0
 26 27  1  0
 26 47  1  0
 27 28  1  0
 28 48  1  0
 28 49  1  0
 29 30  1  0
 29 50  1  0
 29 51  1  0
 30 52  1  0
M  CHG  1  16   1
M  END
>  <DOCK_score>  (1) 
-46.144539

>  <SMILES>  (1) 
O=C1CC[C@H](NC(NC2CC(F)(F)C2)=[NH+]C2COc3cc(Cl)ccc3C2)CN1

$$$$
