CSCc1ccc(-c2c[nH]c(N[C@@H](c3ccccc3)c3ccccn3)[nH+]2)cc1
     RDKit          3D

 51 54  0  0  1  0  0  0  0  0999 V2000
  129.0269  129.2943  150.8487 C   0  0  0  0  0  0  0  0  0  0  0  0
  130.2893  128.2626  151.6443 S   0  0  0  0  0  0  0  0  0  0  0  0
  131.5926  129.4566  152.0534 C   0  0  0  0  0  0  0  0  0  0  0  0
  131.2197  130.1952  153.3129 C   0  0  0  0  0  0  0  0  0  0  0  0
  130.4955  131.3707  153.2332 C   0  0  0  0  0  0  0  0  0  0  0  0
  130.1462  132.0486  154.3835 C   0  0  0  0  0  0  0  0  0  0  0  0
  130.5345  131.5522  155.6268 C   0  0  0  0  0  0  0  0  0  0  0  0
  130.1669  132.2792  156.8663 C   0  0  0  0  0  0  0  0  0  0  0  0
  129.4229  131.7886  157.8884 C   0  0  0  0  0  0  0  0  0  0  0  0
  129.3262  132.7874  158.8264 N   0  0  0  0  0  0  0  0  0  0  0  0
  128.8541  132.7375  159.6723 H   0  0  0  0  0  0  0  0  0  0  0  0
  130.0146  133.8603  158.3497 C   0  0  0  0  0  0  0  0  0  0  0  0
  130.1616  135.0759  158.9957 N   0  0  0  0  0  0  0  0  0  0  0  0
  129.5463  135.2870  160.3084 C   0  0  1  0  0  0  0  0  0  0  0  0
  129.9456  134.5620  161.0176 H   0  0  0  0  0  0  0  0  0  0  0  0
  129.8539  136.6817  160.7889 C   0  0  0  0  0  0  0  0  0  0  0  0
  129.9501  136.9406  162.1435 C   0  0  0  0  0  0  0  0  0  0  0  0
  130.2366  138.2191  162.5841 C   0  0  0  0  0  0  0  0  0  0  0  0
  130.4173  139.2408  161.6706 C   0  0  0  0  0  0  0  0  0  0  0  0
  130.3164  138.9828  160.3163 C   0  0  0  0  0  0  0  0  0  0  0  0
  130.0343  137.7034  159.8754 C   0  0  0  0  0  0  0  0  0  0  0  0
  128.0537  135.1117  160.1976 C   0  0  0  0  0  0  0  0  0  0  0  0
  127.3310  135.9294  159.3492 C   0  0  0  0  0  0  0  0  0  0  0  0
  125.9589  135.7565  159.2507 C   0  0  0  0  0  0  0  0  0  0  0  0
  125.3611  134.7701  160.0206 C   0  0  0  0  0  0  0  0  0  0  0  0
  126.1479  133.9942  160.8503 C   0  0  0  0  0  0  0  0  0  0  0  0
  127.4514  134.1837  160.9149 N   0  0  0  0  0  0  0  0  0  0  0  0
  130.5204  133.5508  157.1810 N   0  0  0  0  0  0  0  0  0  0  0  0
  131.0594  134.1378  156.6280 H   0  0  0  0  0  0  0  0  0  0  0  0
  131.2690  130.3701  155.7009 C   0  0  0  0  0  0  0  0  0  0  0  0
  131.6078  129.6976  154.5443 C   0  0  0  0  0  0  0  0  0  0  0  0
  129.4513  129.7710  149.9649 H   0  0  0  0  0  0  0  0  0  0  0  0
  128.1813  128.6722  150.5552 H   0  0  0  0  0  0  0  0  0  0  0  0
  128.6897  130.0597  151.5477 H   0  0  0  0  0  0  0  0  0  0  0  0
  132.5337  128.9277  152.2076 H   0  0  0  0  0  0  0  0  0  0  0  0
  131.7048  130.1669  151.2351 H   0  0  0  0  0  0  0  0  0  0  0  0
  130.1992  131.7569  152.2690 H   0  0  0  0  0  0  0  0  0  0  0  0
  129.5766  132.9640  154.3203 H   0  0  0  0  0  0  0  0  0  0  0  0
  128.9891  130.8016  157.9524 H   0  0  0  0  0  0  0  0  0  0  0  0
  130.6718  135.7879  158.5792 H   0  0  0  0  0  0  0  0  0  0  0  0
  129.8048  136.1432  162.8573 H   0  0  0  0  0  0  0  0  0  0  0  0
  130.3157  138.4206  163.6422 H   0  0  0  0  0  0  0  0  0  0  0  0
  130.6377  140.2403  162.0150 H   0  0  0  0  0  0  0  0  0  0  0  0
  130.4576  139.7810  159.6026 H   0  0  0  0  0  0  0  0  0  0  0  0
  129.9550  137.5021  158.8174 H   0  0  0  0  0  0  0  0  0  0  0  0
  127.8292  136.6910  158.7677 H   0  0  0  0  0  0  0  0  0  0  0  0
  125.3693  136.3779  158.5930 H   0  0  0  0  0  0  0  0  0  0  0  0
  124.2941  134.6108  159.9727 H   0  0  0  0  0  0  0  0  0  0  0  0
  125.6898  133.2241  161.4532 H   0  0  0  0  0  0  0  0  0  0  0  0
  131.5727  129.9812  156.6616 H   0  0  0  0  0  0  0  0  0  0  0  0
  132.1766  128.7813  154.6004 H   0  0  0  0  0  0  0  0  0  0  0  0
  1  2  1  0
  1 32  1  0
  1 33  1  0
  1 34  1  0
  2  3  1  0
  3  4  1  0
  3 35  1  0
  3 36  1  0
  4 31  2  0
  4  5  1  0
  5  6  2  0
  5 37  1  0
  6  7  1  0
  6 38  1  0
  7  8  1  0
  7 30  2  0
  8 28  1  0
  8  9  2  0
  9 10  1  0
  9 39  1  0
 10 11  1  0
 10 12  1  0
 12 13  1  0
 12 28  2  0
 13 14  1  0
 13 40  1  0
 14 15  1  1
 14 16  1  0
 14 22  1  0
 16 21  1  0
 16 17  2  0
 17 18  1  0
 17 41  1  0
 18 19  2  0
 18 42  1  0
 19 20  1  0
 19 43  1  0
 20 21  2  0
 20 44  1  0
 21 45  1  0
 22 27  1  0
 22 23  2  0
 23 24  1  0
 23 46  1  0
 24 25  2  0
 24 47  1  0
 25 26  1  0
 25 48  1  0
 26 27  2  0
 26 49  1  0
 28 29  1  0
 30 31  1  0
 30 50  1  0
 31 51  1  0
M  CHG  1  28   1
M  END
>  <DOCK_score>  (1) 
-61.358608

>  <SMILES>  (1) 
CSCc1ccc(-c2c[nH]c(N[C@@H](c3ccccc3)c3ccccn3)[nH+]2)cc1

$$$$
