OCc1cccc(C[NH2+]Cc2ccnn2C2CC2)c1
     RDKit          3D

 39 41  0  0  0  0  0  0  0  0999 V2000
  130.7555  133.1745  153.9686 O   0  0  0  0  0  0  0  0  0  0  0  0
  130.8432  131.7988  154.3450 C   0  0  0  0  0  0  0  0  0  0  0  0
  130.6080  131.6677  155.8278 C   0  0  0  0  0  0  0  0  0  0  0  0
  130.6437  130.4217  156.4260 C   0  0  0  0  0  0  0  0  0  0  0  0
  130.4285  130.3017  157.7859 C   0  0  0  0  0  0  0  0  0  0  0  0
  130.1803  131.4278  158.5487 C   0  0  0  0  0  0  0  0  0  0  0  0
  130.1395  132.6728  157.9499 C   0  0  0  0  0  0  0  0  0  0  0  0
  129.8649  133.8999  158.7805 C   0  0  0  0  0  0  0  0  0  0  0  0
  129.8741  135.0880  157.9166 N   0  0  0  0  0  0  0  0  0  0  0  0
  129.1613  134.9947  157.2087 H   0  0  0  0  0  0  0  0  0  0  0  0
  130.7772  135.1758  157.4752 H   0  0  0  0  0  0  0  0  0  0  0  0
  129.6064  136.2842  158.7263 C   0  0  0  0  0  0  0  0  0  0  0  0
  128.2578  136.1529  159.3857 C   0  0  0  0  0  0  0  0  0  0  0  0
  127.1172  135.7311  158.7922 C   0  0  0  0  0  0  0  0  0  0  0  0
  126.0986  135.7560  159.7504 C   0  0  0  0  0  0  0  0  0  0  0  0
  126.6093  136.1779  160.8786 N   0  0  0  0  0  0  0  0  0  0  0  0
  127.9710  136.4349  160.6738 N   0  0  0  0  0  0  0  0  0  0  0  0
  128.9156  136.9286  161.6789 C   0  0  0  0  0  0  0  0  0  0  0  0
  128.5174  138.1762  162.4701 C   0  0  0  0  0  0  0  0  0  0  0  0
  129.6086  138.2643  161.4012 C   0  0  0  0  0  0  0  0  0  0  0  0
  130.3561  132.7931  156.5897 C   0  0  0  0  0  0  0  0  0  0  0  0
  131.3986  133.7451  154.4111 H   0  0  0  0  0  0  0  0  0  0  0  0
  131.8342  131.4172  154.0994 H   0  0  0  0  0  0  0  0  0  0  0  0
  130.0892  131.2256  153.8056 H   0  0  0  0  0  0  0  0  0  0  0  0
  130.8401  129.5424  155.8307 H   0  0  0  0  0  0  0  0  0  0  0  0
  130.4568  129.3284  158.2533 H   0  0  0  0  0  0  0  0  0  0  0  0
  130.0156  131.3343  159.6120 H   0  0  0  0  0  0  0  0  0  0  0  0
  130.6349  134.0006  159.5454 H   0  0  0  0  0  0  0  0  0  0  0  0
  128.8893  133.8049  159.2574 H   0  0  0  0  0  0  0  0  0  0  0  0
  129.6133  137.1657  158.0853 H   0  0  0  0  0  0  0  0  0  0  0  0
  130.3766  136.3851  159.4910 H   0  0  0  0  0  0  0  0  0  0  0  0
  127.0120  135.4281  157.7608 H   0  0  0  0  0  0  0  0  0  0  0  0
  125.0687  135.4754  159.5871 H   0  0  0  0  0  0  0  0  0  0  0  0
  129.4895  136.1631  162.2010 H   0  0  0  0  0  0  0  0  0  0  0  0
  127.5525  138.6296  162.2429 H   0  0  0  0  0  0  0  0  0  0  0  0
  128.8290  138.2314  163.5132 H   0  0  0  0  0  0  0  0  0  0  0  0
  130.6381  138.3774  161.7410 H   0  0  0  0  0  0  0  0  0  0  0  0
  129.3619  138.7752  160.4705 H   0  0  0  0  0  0  0  0  0  0  0  0
  130.3282  133.7664  156.1225 H   0  0  0  0  0  0  0  0  0  0  0  0
  1  2  1  0
  1 22  1  0
  2  3  1  0
  2 23  1  0
  2 24  1  0
  3 21  2  0
  3  4  1  0
  4  5  2  0
  4 25  1  0
  5  6  1  0
  5 26  1  0
  6  7  2  0
  6 27  1  0
  7  8  1  0
  7 21  1  0
  8  9  1  0
  8 28  1  0
  8 29  1  0
  9 10  1  0
  9 11  1  0
  9 12  1  0
 12 13  1  0
 12 30  1  0
 12 31  1  0
 13 17  1  0
 13 14  2  0
 14 15  1  0
 14 32  1  0
 15 16  2  0
 15 33  1  0
 16 17  1  0
 17 18  1  0
 18 20  1  0
 18 19  1  0
 18 34  1  0
 19 20  1  0
 19 35  1  0
 19 36  1  0
 20 37  1  0
 20 38  1  0
 21 39  1  0
M  CHG  1   9   1
M  END
>  <DOCK_score>  (1) 
-41.407799

>  <SMILES>  (1) 
OCc1cccc(C[NH2+]Cc2ccnn2C2CC2)c1

$$$$
