Cc1ccc2c(c1)CC(NC(N[C@H]1CCC(=O)NC1)=[NH+]CCF)CO2
     RDKit          3D

 51 53  0  0  1  0  0  0  0  0999 V2000
  131.1114  142.0528  162.4345 C   0  0  0  0  0  0  0  0  0  0  0  0
  131.7895  140.7097  162.3471 C   0  0  0  0  0  0  0  0  0  0  0  0
  132.9489  140.4724  163.0626 C   0  0  0  0  0  0  0  0  0  0  0  0
  133.5675  139.2417  162.9837 C   0  0  0  0  0  0  0  0  0  0  0  0
  133.0289  138.2370  162.1858 C   0  0  0  0  0  0  0  0  0  0  0  0
  131.8706  138.4786  161.4683 C   0  0  0  0  0  0  0  0  0  0  0  0
  131.2530  139.7155  161.5529 C   0  0  0  0  0  0  0  0  0  0  0  0
  131.2596  137.4217  160.5836 C   0  0  0  0  0  0  0  0  0  0  0  0
  131.8141  136.0469  160.9651 C   0  0  1  0  0  0  0  0  0  0  0  0
  131.4522  135.0662  159.9387 N   0  0  0  0  0  0  0  0  0  0  0  0
  130.2757  134.3629  160.0445 C   0  0  0  0  0  0  0  0  0  0  0  0
  129.4388  134.5799  161.1135 N   0  0  0  0  0  0  0  0  0  0  0  0
  127.9930  134.3994  160.9603 C   0  0  1  0  0  0  0  0  0  0  0  0
  127.7035  134.6216  159.9332 H   0  0  0  0  0  0  0  0  0  0  0  0
  127.6127  132.9533  161.3006 C   0  0  0  0  0  0  0  0  0  0  0  0
  126.1359  132.7472  160.9558 C   0  0  0  0  0  0  0  0  0  0  0  0
  125.3149  133.8626  161.5367 C   0  0  0  0  0  0  0  0  0  0  0  0
  124.1180  133.6988  161.6436 O   0  0  0  0  0  0  0  0  0  0  0  0
  125.8317  135.0234  161.9415 N   0  0  0  0  0  0  0  0  0  0  0  0
  127.2548  135.3377  161.9158 C   0  0  0  0  0  0  0  0  0  0  0  0
  129.9537  133.4903  159.1314 N   0  0  0  0  0  0  0  0  0  0  0  0
  129.1236  132.9940  159.2060 H   0  0  0  0  0  0  0  0  0  0  0  0
  130.8455  133.2591  157.9923 C   0  0  0  0  0  0  0  0  0  0  0  0
  130.2375  132.1949  157.0764 C   0  0  0  0  0  0  0  0  0  0  0  0
  130.0746  131.0029  157.7904 F   0  0  0  0  0  0  0  0  0  0  0  0
  133.3414  136.1540  161.0623 C   0  0  0  0  0  0  0  0  0  0  0  0
  133.6638  137.0371  162.1374 O   0  0  0  0  0  0  0  0  0  0  0  0
  130.3893  142.0426  163.2511 H   0  0  0  0  0  0  0  0  0  0  0  0
  131.8579  142.8253  162.6192 H   0  0  0  0  0  0  0  0  0  0  0  0
  130.5967  142.2617  161.4968 H   0  0  0  0  0  0  0  0  0  0  0  0
  133.3701  141.2502  163.6825 H   0  0  0  0  0  0  0  0  0  0  0  0
  134.4729  139.0576  163.5431 H   0  0  0  0  0  0  0  0  0  0  0  0
  130.3472  139.9031  160.9954 H   0  0  0  0  0  0  0  0  0  0  0  0
  131.5028  137.6349  159.5427 H   0  0  0  0  0  0  0  0  0  0  0  0
  130.1770  137.4241  160.7105 H   0  0  0  0  0  0  0  0  0  0  0  0
  131.4055  135.7393  161.9275 H   0  0  0  0  0  0  0  0  0  0  0  0
  132.0426  134.9131  159.1845 H   0  0  0  0  0  0  0  0  0  0  0  0
  129.8055  134.8523  161.9691 H   0  0  0  0  0  0  0  0  0  0  0  0
  128.2253  132.2658  160.7174 H   0  0  0  0  0  0  0  0  0  0  0  0
  127.7695  132.7733  162.3641 H   0  0  0  0  0  0  0  0  0  0  0  0
  125.7973  131.7963  161.3671 H   0  0  0  0  0  0  0  0  0  0  0  0
  126.0165  132.7360  159.8723 H   0  0  0  0  0  0  0  0  0  0  0  0
  125.2225  135.7009  162.2741 H   0  0  0  0  0  0  0  0  0  0  0  0
  127.6663  135.2269  162.9190 H   0  0  0  0  0  0  0  0  0  0  0  0
  127.3873  136.3674  161.5837 H   0  0  0  0  0  0  0  0  0  0  0  0
  130.9725  134.1877  157.4359 H   0  0  0  0  0  0  0  0  0  0  0  0
  131.8152  132.9165  158.3536 H   0  0  0  0  0  0  0  0  0  0  0  0
  129.2679  132.5374  156.7151 H   0  0  0  0  0  0  0  0  0  0  0  0
  130.9011  132.0229  156.2289 H   0  0  0  0  0  0  0  0  0  0  0  0
  133.7669  135.1693  161.2559 H   0  0  0  0  0  0  0  0  0  0  0  0
  133.7418  136.5496  160.1289 H   0  0  0  0  0  0  0  0  0  0  0  0
  1  2  1  0
  1 28  1  0
  1 29  1  0
  1 30  1  0
  2  7  2  0
  2  3  1  0
  3  4  2  0
  3 31  1  0
  4  5  1  0
  4 32  1  0
  5 27  1  0
  5  6  2  0
  6  7  1  0
  6  8  1  0
  7 33  1  0
  8  9  1  0
  8 34  1  0
  8 35  1  0
  9 10  1  0
  9 26  1  0
  9 36  1  1
 10 37  1  0
 11 10  1  0
 11 12  1  0
 11 21  2  0
 12 13  1  0
 12 38  1  0
 13 14  1  6
 13 20  1  0
 13 15  1  0
 15 16  1  0
 15 39  1  0
 15 40  1  0
 16 17  1  0
 16 41  1  0
 16 42  1  0
 17 18  2  0
 17 19  1  0
 19 20  1  0
 19 43  1  0
 20 44  1  0
 20 45  1  0
 21 22  1  0
 21 23  1  0
 23 24  1  0
 23 46  1  0
 23 47  1  0
 24 25  1  0
 24 48  1  0
 24 49  1  0
 26 27  1  0
 26 50  1  0
 26 51  1  0
M  CHG  1  21   1
M  END
>  <DOCK_score>  (1) 
-41.995064

>  <SMILES>  (1) 
Cc1ccc2c(c1)CC(NC(N[C@H]1CCC(=O)NC1)=[NH+]CCF)CO2

$$$$
