N#Cc1c(Nc2[nH]c3ccccc3[nH+]2)cc(NC[C@@H]2CC2(F)F)cc1NC1CC=CC1
     RDKit          3D

 54 58  0  0  1  0  0  0  0  0999 V2000
  132.1369  138.8042  160.4245 N   0  0  0  0  0  0  0  0  0  0  0  0
  131.1678  138.2444  160.6195 C   0  0  0  0  0  0  0  0  0  0  0  0
  129.9462  137.5388  160.8654 C   0  0  0  0  0  0  0  0  0  0  0  0
  129.6637  136.3506  160.1687 C   0  0  0  0  0  0  0  0  0  0  0  0
  130.5718  135.8552  159.2360 N   0  0  0  0  0  0  0  0  0  0  0  0
  130.6592  134.4992  159.0133 C   0  0  0  0  0  0  0  0  0  0  0  0
  130.9995  133.9371  157.8557 N   0  0  0  0  0  0  0  0  0  0  0  0
  131.2239  134.4109  157.0396 H   0  0  0  0  0  0  0  0  0  0  0  0
  130.9822  132.5765  158.0128 C   0  0  0  0  0  0  0  0  0  0  0  0
  131.2469  131.5056  157.1640 C   0  0  0  0  0  0  0  0  0  0  0  0
  131.1305  130.2151  157.6328 C   0  0  0  0  0  0  0  0  0  0  0  0
  130.7522  129.9749  158.9459 C   0  0  0  0  0  0  0  0  0  0  0  0
  130.4869  131.0235  159.7996 C   0  0  0  0  0  0  0  0  0  0  0  0
  130.5992  132.3335  159.3421 C   0  0  0  0  0  0  0  0  0  0  0  0
  130.4098  133.5596  159.9227 N   0  0  0  0  0  0  0  0  0  0  0  0
  130.1403  133.7166  160.8411 H   0  0  0  0  0  0  0  0  0  0  0  0
  128.4810  135.6746  160.4126 C   0  0  0  0  0  0  0  0  0  0  0  0
  127.5730  136.1673  161.3438 C   0  0  0  0  0  0  0  0  0  0  0  0
  126.3858  135.4810  161.5829 N   0  0  0  0  0  0  0  0  0  0  0  0
  126.0957  134.2434  160.8546 C   0  0  0  0  0  0  0  0  0  0  0  0
  124.7390  133.6948  161.3012 C   0  0  2  0  0  0  0  0  0  0  0  0
  123.8874  134.3548  161.1360 H   0  0  0  0  0  0  0  0  0  0  0  0
  124.7118  132.8042  162.5450 C   0  0  0  0  0  0  0  0  0  0  0  0
  124.5042  132.1896  161.1593 C   0  0  0  0  0  0  0  0  0  0  0  0
  125.5463  131.4201  160.6312 F   0  0  0  0  0  0  0  0  0  0  0  0
  123.2129  131.7657  160.8276 F   0  0  0  0  0  0  0  0  0  0  0  0
  127.8417  137.3441  162.0328 C   0  0  0  0  0  0  0  0  0  0  0  0
  129.0230  138.0300  161.8050 C   0  0  0  0  0  0  0  0  0  0  0  0
  129.2925  139.2044  162.4990 N   0  0  0  0  0  0  0  0  0  0  0  0
  128.7631  139.3936  163.8519 C   0  0  0  0  0  0  0  0  0  0  0  0
  127.4677  140.2378  163.8280 C   0  0  0  0  0  0  0  0  0  0  0  0
  127.5521  141.1047  165.0634 C   0  0  0  0  0  0  0  0  0  0  0  0
  128.7688  141.1335  165.5355 C   0  0  0  0  0  0  0  0  0  0  0  0
  129.6991  140.2915  164.6937 C   0  0  0  0  0  0  0  0  0  0  0  0
  131.1426  136.4653  158.7434 H   0  0  0  0  0  0  0  0  0  0  0  0
  131.5425  131.6854  156.1410 H   0  0  0  0  0  0  0  0  0  0  0  0
  131.3356  129.3846  156.9736 H   0  0  0  0  0  0  0  0  0  0  0  0
  130.6645  128.9589  159.3013 H   0  0  0  0  0  0  0  0  0  0  0  0
  130.1925  130.8297  160.8203 H   0  0  0  0  0  0  0  0  0  0  0  0
  128.2627  134.7617  159.8785 H   0  0  0  0  0  0  0  0  0  0  0  0
  125.7506  135.8221  162.2319 H   0  0  0  0  0  0  0  0  0  0  0  0
  126.8721  133.5077  161.0646 H   0  0  0  0  0  0  0  0  0  0  0  0
  126.0700  134.4491  159.7845 H   0  0  0  0  0  0  0  0  0  0  0  0
  123.8423  132.8783  163.1981 H   0  0  0  0  0  0  0  0  0  0  0  0
  125.6605  132.6091  163.0451 H   0  0  0  0  0  0  0  0  0  0  0  0
  127.1294  137.7223  162.7511 H   0  0  0  0  0  0  0  0  0  0  0  0
  129.8311  139.8982  162.0876 H   0  0  0  0  0  0  0  0  0  0  0  0
  128.5960  138.4345  164.3420 H   0  0  0  0  0  0  0  0  0  0  0  0
  127.4345  140.8569  162.9315 H   0  0  0  0  0  0  0  0  0  0  0  0
  126.5919  139.5909  163.8763 H   0  0  0  0  0  0  0  0  0  0  0  0
  126.7154  141.6308  165.4985 H   0  0  0  0  0  0  0  0  0  0  0  0
  129.0707  141.6868  166.4125 H   0  0  0  0  0  0  0  0  0  0  0  0
  130.3394  139.6812  165.3303 H   0  0  0  0  0  0  0  0  0  0  0  0
  130.3035  140.9245  164.0440 H   0  0  0  0  0  0  0  0  0  0  0  0
  1  2  3  0
  2  3  1  0
  3 28  2  0
  3  4  1  0
  4  5  1  0
  4 17  2  0
  5  6  1  0
  5 35  1  0
  6 15  1  0
  6  7  2  0
  7  8  1  0
  7  9  1  0
  9 14  2  0
  9 10  1  0
 10 11  2  0
 10 36  1  0
 11 12  1  0
 11 37  1  0
 12 13  2  0
 12 38  1  0
 13 14  1  0
 13 39  1  0
 14 15  1  0
 15 16  1  0
 17 18  1  0
 17 40  1  0
 18 19  1  0
 18 27  2  0
 19 20  1  0
 19 41  1  0
 20 21  1  0
 20 42  1  0
 20 43  1  0
 21 22  1  1
 21 24  1  0
 21 23  1  0
 23 24  1  0
 23 44  1  0
 23 45  1  0
 24 25  1  0
 24 26  1  0
 27 28  1  0
 27 46  1  0
 28 29  1  0
 29 30  1  0
 29 47  1  0
 30 34  1  0
 30 31  1  0
 30 48  1  0
 31 32  1  0
 31 49  1  0
 31 50  1  0
 32 33  2  0
 32 51  1  0
 33 34  1  0
 33 52  1  0
 34 53  1  0
 34 54  1  0
M  CHG  1   7   1
M  END
>  <DOCK_score>  (1) 
-50.0158

>  <SMILES>  (1) 
N#Cc1c(Nc2[nH]c3ccccc3[nH+]2)cc(NC[C@@H]2CC2(F)F)cc1NC1CC=CC1

$$$$
