CCc1ccc(-c2c[nH]c(N[C@@H](CCc3ccccc3)CC3=C[C@H]4C[C@@H]3[C@@H](O)[C@H]4O)[nH+]2)cc1
     RDKit          3D

 67 71  0  0  1  0  0  0  0  0999 V2000
  132.2063  129.5991  152.5915 C   0  0  0  0  0  0  0  0  0  0  0  0
  130.7897  129.6838  153.1635 C   0  0  0  0  0  0  0  0  0  0  0  0
  130.8065  130.5034  154.4279 C   0  0  0  0  0  0  0  0  0  0  0  0
  130.6152  131.8716  154.3652 C   0  0  0  0  0  0  0  0  0  0  0  0
  130.6308  132.6271  155.5201 C   0  0  0  0  0  0  0  0  0  0  0  0
  130.8397  132.0086  156.7515 C   0  0  0  0  0  0  0  0  0  0  0  0
  130.8575  132.8151  157.9962 C   0  0  0  0  0  0  0  0  0  0  0  0
  130.4793  132.3910  159.2274 C   0  0  0  0  0  0  0  0  0  0  0  0
  130.6544  133.4496  160.0850 N   0  0  0  0  0  0  0  0  0  0  0  0
  130.4697  133.4543  161.0373 H   0  0  0  0  0  0  0  0  0  0  0  0
  131.1353  134.4907  159.3521 C   0  0  0  0  0  0  0  0  0  0  0  0
  131.4464  135.7471  159.8434 N   0  0  0  0  0  0  0  0  0  0  0  0
  131.2638  136.0429  161.2666 C   0  0  1  0  0  0  0  0  0  0  0  0
  131.5754  135.1828  161.8592 H   0  0  0  0  0  0  0  0  0  0  0  0
  132.1108  137.2587  161.6476 C   0  0  0  0  0  0  0  0  0  0  0  0
  133.5861  136.9582  161.3742 C   0  0  0  0  0  0  0  0  0  0  0  0
  134.4205  138.1558  161.7495 C   0  0  0  0  0  0  0  0  0  0  0  0
  134.6897  139.1327  160.8091 C   0  0  0  0  0  0  0  0  0  0  0  0
  135.4517  140.2331  161.1544 C   0  0  0  0  0  0  0  0  0  0  0  0
  135.9514  140.3526  162.4377 C   0  0  0  0  0  0  0  0  0  0  0  0
  135.6866  139.3732  163.3766 C   0  0  0  0  0  0  0  0  0  0  0  0
  134.9213  138.2746  163.0323 C   0  0  0  0  0  0  0  0  0  0  0  0
  129.7887  136.3432  161.5400 C   0  0  0  0  0  0  0  0  0  0  0  0
  129.5034  136.1637  163.0089 C   0  0  0  0  0  0  0  0  0  0  0  0
  129.1164  135.0446  163.5876 C   0  0  0  0  0  0  0  0  0  0  0  0
  128.9425  135.3100  165.0881 C   0  0  1  0  0  0  0  0  0  0  0  0
  128.9622  134.4360  165.7392 H   0  0  0  0  0  0  0  0  0  0  0  0
  130.0847  136.3960  165.3158 C   0  0  0  0  0  0  0  0  0  0  0  0
  129.6142  137.2522  164.0834 C   0  0  2  0  0  0  0  0  0  0  0  0
  130.2224  138.1208  163.8310 H   0  0  0  0  0  0  0  0  0  0  0  0
  128.1331  137.5386  164.4882 C   0  0  1  0  0  0  0  0  0  0  0  0
  128.0804  138.3807  165.1783 H   0  0  0  0  0  0  0  0  0  0  0  0
  127.3346  137.7863  163.3294 O   0  0  0  0  0  0  0  0  0  0  0  0
  127.6855  136.2322  165.1885 C   0  0  1  0  0  0  0  0  0  0  0  0
  127.4114  136.4277  166.2252 H   0  0  0  0  0  0  0  0  0  0  0  0
  126.5966  135.6322  164.4841 O   0  0  0  0  0  0  0  0  0  0  0  0
  131.2500  134.1094  158.1033 N   0  0  0  0  0  0  0  0  0  0  0  0
  131.5670  134.6634  157.3730 H   0  0  0  0  0  0  0  0  0  0  0  0
  131.0376  130.6300  156.8083 C   0  0  0  0  0  0  0  0  0  0  0  0
  131.0146  129.8838  155.6476 C   0  0  0  0  0  0  0  0  0  0  0  0
  132.5690  130.6025  152.3694 H   0  0  0  0  0  0  0  0  0  0  0  0
  132.8650  129.1277  153.3209 H   0  0  0  0  0  0  0  0  0  0  0  0
  132.1938  129.0064  151.6768 H   0  0  0  0  0  0  0  0  0  0  0  0
  130.4269  128.6802  153.3857 H   0  0  0  0  0  0  0  0  0  0  0  0
  130.1311  130.1551  152.4341 H   0  0  0  0  0  0  0  0  0  0  0  0
  130.4534  132.3498  153.4105 H   0  0  0  0  0  0  0  0  0  0  0  0
  130.4818  133.6954  155.4696 H   0  0  0  0  0  0  0  0  0  0  0  0
  130.1102  131.4090  159.4843 H   0  0  0  0  0  0  0  0  0  0  0  0
  131.7851  136.4314  159.2454 H   0  0  0  0  0  0  0  0  0  0  0  0
  131.7993  138.1186  161.0548 H   0  0  0  0  0  0  0  0  0  0  0  0
  131.9751  137.4787  162.7065 H   0  0  0  0  0  0  0  0  0  0  0  0
  133.8976  136.0983  161.9669 H   0  0  0  0  0  0  0  0  0  0  0  0
  133.7218  136.7382  160.3153 H   0  0  0  0  0  0  0  0  0  0  0  0
  134.3021  139.0376  159.8055 H   0  0  0  0  0  0  0  0  0  0  0  0
  135.6590  140.9981  160.4207 H   0  0  0  0  0  0  0  0  0  0  0  0
  136.5490  141.2110  162.7067 H   0  0  0  0  0  0  0  0  0  0  0  0
  136.0773  139.4662  164.3791 H   0  0  0  0  0  0  0  0  0  0  0  0
  134.7144  137.5095  163.7658 H   0  0  0  0  0  0  0  0  0  0  0  0
  129.1658  135.6599  160.9628 H   0  0  0  0  0  0  0  0  0  0  0  0
  129.5671  137.3702  161.2496 H   0  0  0  0  0  0  0  0  0  0  0  0
  128.9496  134.1009  163.0898 H   0  0  0  0  0  0  0  0  0  0  0  0
  131.0831  135.9807  165.1789 H   0  0  0  0  0  0  0  0  0  0  0  0
  129.9895  136.9343  166.2589 H   0  0  0  0  0  0  0  0  0  0  0  0
  127.2674  137.0310  162.7293 H   0  0  0  0  0  0  0  0  0  0  0  0
  126.7715  135.4804  163.5452 H   0  0  0  0  0  0  0  0  0  0  0  0
  131.2047  130.1463  157.7593 H   0  0  0  0  0  0  0  0  0  0  0  0
  131.1636  128.8150  155.6908 H   0  0  0  0  0  0  0  0  0  0  0  0
  1  2  1  0
  1 41  1  0
  1 42  1  0
  1 43  1  0
  2  3  1  0
  2 44  1  0
  2 45  1  0
  3 40  2  0
  3  4  1  0
  4  5  2  0
  4 46  1  0
  5  6  1  0
  5 47  1  0
  6  7  1  0
  6 39  2  0
  7 37  1  0
  7  8  2  0
  8  9  1  0
  8 48  1  0
  9 10  1  0
  9 11  1  0
 11 12  1  0
 11 37  2  0
 12 13  1  0
 12 49  1  0
 13 14  1  1
 13 15  1  0
 13 23  1  0
 15 16  1  0
 15 50  1  0
 15 51  1  0
 16 17  1  0
 16 52  1  0
 16 53  1  0
 17 22  1  0
 17 18  2  0
 18 19  1  0
 18 54  1  0
 19 20  2  0
 19 55  1  0
 20 21  1  0
 20 56  1  0
 21 22  2  0
 21 57  1  0
 22 58  1  0
 23 24  1  0
 23 59  1  0
 23 60  1  0
 24 29  1  0
 24 25  2  0
 25 26  1  0
 25 61  1  0
 26 27  1  1
 26 34  1  0
 26 28  1  0
 28 29  1  0
 28 62  1  0
 28 63  1  0
 29 30  1  6
 29 31  1  0
 31 32  1  1
 31 33  1  0
 31 34  1  0
 33 64  1  0
 34 35  1  1
 34 36  1  0
 36 65  1  0
 37 38  1  0
 39 40  1  0
 39 66  1  0
 40 67  1  0
M  CHG  1  37   1
M  END
>  <DOCK_score>  (1) 
-58.100685

>  <SMILES>  (1) 
CCc1ccc(-c2c[nH]c(N[C@@H](CCc3ccccc3)CC3=C[C@H]4C[C@@H]3[C@@H](O)[C@H]4O)[nH+]2)cc1

$$$$
