CCc1ccc(-c2c[nH]c(N[C@H](Cc3ccc(-c4ccccc4)cc3)c3ccccc3)[nH+]2)cc1
     RDKit          3D

 64 68  0  0  1  0  0  0  0  0999 V2000
  130.5902  129.2307  151.9721 C   0  0  0  0  0  0  0  0  0  0  0  0
  131.8213  129.8264  152.6581 C   0  0  0  0  0  0  0  0  0  0  0  0
  131.3962  130.5602  153.9039 C   0  0  0  0  0  0  0  0  0  0  0  0
  131.3337  129.8886  155.1116 C   0  0  0  0  0  0  0  0  0  0  0  0
  130.9506  130.5568  156.2567 C   0  0  0  0  0  0  0  0  0  0  0  0
  130.6154  131.9081  156.1926 C   0  0  0  0  0  0  0  0  0  0  0  0
  130.1976  132.6305  157.4189 C   0  0  0  0  0  0  0  0  0  0  0  0
  129.5647  132.0877  158.4884 C   0  0  0  0  0  0  0  0  0  0  0  0
  129.3674  133.1031  159.3924 N   0  0  0  0  0  0  0  0  0  0  0  0
  128.9375  133.0256  160.2585 H   0  0  0  0  0  0  0  0  0  0  0  0
  129.8860  134.2377  158.8484 C   0  0  0  0  0  0  0  0  0  0  0  0
  129.8896  135.4880  159.4426 N   0  0  0  0  0  0  0  0  0  0  0  0
  129.2992  135.6695  160.7711 C   0  0  2  0  0  0  0  0  0  0  0  0
  128.3831  135.0835  160.8445 H   0  0  0  0  0  0  0  0  0  0  0  0
  128.9769  137.1494  160.9880 C   0  0  0  0  0  0  0  0  0  0  0  0
  130.2436  137.9596  160.8864 C   0  0  0  0  0  0  0  0  0  0  0  0
  130.6428  138.4635  159.6616 C   0  0  0  0  0  0  0  0  0  0  0  0
  131.7994  139.2103  159.5636 C   0  0  0  0  0  0  0  0  0  0  0  0
  132.5709  139.4471  160.6994 C   0  0  0  0  0  0  0  0  0  0  0  0
  133.8187  140.2440  160.5992 C   0  0  0  0  0  0  0  0  0  0  0  0
  134.2495  141.0076  161.6822 C   0  0  0  0  0  0  0  0  0  0  0  0
  135.4134  141.7433  161.5850 C   0  0  0  0  0  0  0  0  0  0  0  0
  136.1461  141.7315  160.4128 C   0  0  0  0  0  0  0  0  0  0  0  0
  135.7201  140.9796  159.3319 C   0  0  0  0  0  0  0  0  0  0  0  0
  134.5606  140.2361  159.4199 C   0  0  0  0  0  0  0  0  0  0  0  0
  132.1668  138.9325  161.9296 C   0  0  0  0  0  0  0  0  0  0  0  0
  131.0057  138.1916  162.0170 C   0  0  0  0  0  0  0  0  0  0  0  0
  130.2760  135.2088  161.8221 C   0  0  0  0  0  0  0  0  0  0  0  0
  129.8123  134.6995  163.0206 C   0  0  0  0  0  0  0  0  0  0  0  0
  130.7082  134.2729  163.9830 C   0  0  0  0  0  0  0  0  0  0  0  0
  132.0679  134.3641  163.7506 C   0  0  0  0  0  0  0  0  0  0  0  0
  132.5315  134.8782  162.5540 C   0  0  0  0  0  0  0  0  0  0  0  0
  131.6355  135.3008  161.5899 C   0  0  0  0  0  0  0  0  0  0  0  0
  130.3864  133.9501  157.6717 N   0  0  0  0  0  0  0  0  0  0  0  0
  130.8202  134.5805  157.0756 H   0  0  0  0  0  0  0  0  0  0  0  0
  130.6749  132.5783  154.9720 C   0  0  0  0  0  0  0  0  0  0  0  0
  131.0647  131.9014  153.8343 C   0  0  0  0  0  0  0  0  0  0  0  0
  130.0958  128.5366  152.6518 H   0  0  0  0  0  0  0  0  0  0  0  0
  129.9003  130.0309  151.7048 H   0  0  0  0  0  0  0  0  0  0  0  0
  130.8978  128.6999  151.0711 H   0  0  0  0  0  0  0  0  0  0  0  0
  132.5113  129.0261  152.9254 H   0  0  0  0  0  0  0  0  0  0  0  0
  132.3157  130.5205  151.9785 H   0  0  0  0  0  0  0  0  0  0  0  0
  131.5891  128.8403  155.1592 H   0  0  0  0  0  0  0  0  0  0  0  0
  130.9066  130.0327  157.2000 H   0  0  0  0  0  0  0  0  0  0  0  0
  129.2716  131.0550  158.6066 H   0  0  0  0  0  0  0  0  0  0  0  0
  130.2834  136.2439  158.9794 H   0  0  0  0  0  0  0  0  0  0  0  0
  128.2706  137.4827  160.2277 H   0  0  0  0  0  0  0  0  0  0  0  0
  128.5376  137.2845  161.9763 H   0  0  0  0  0  0  0  0  0  0  0  0
  130.0462  138.2759  158.7812 H   0  0  0  0  0  0  0  0  0  0  0  0
  132.1082  139.6065  158.6076 H   0  0  0  0  0  0  0  0  0  0  0  0
  133.6760  141.0207  162.5972 H   0  0  0  0  0  0  0  0  0  0  0  0
  135.7505  142.3322  162.4252 H   0  0  0  0  0  0  0  0  0  0  0  0
  137.0537  142.3123  160.3386 H   0  0  0  0  0  0  0  0  0  0  0  0
  136.2958  140.9743  158.4182 H   0  0  0  0  0  0  0  0  0  0  0  0
  134.2288  139.6494  158.5760 H   0  0  0  0  0  0  0  0  0  0  0  0
  132.7610  139.1135  162.8133 H   0  0  0  0  0  0  0  0  0  0  0  0
  130.6917  137.7920  162.9701 H   0  0  0  0  0  0  0  0  0  0  0  0
  128.7501  134.6318  163.2038 H   0  0  0  0  0  0  0  0  0  0  0  0
  130.3461  133.8708  164.9177 H   0  0  0  0  0  0  0  0  0  0  0  0
  132.7678  134.0332  164.5036 H   0  0  0  0  0  0  0  0  0  0  0  0
  133.5937  134.9494  162.3724 H   0  0  0  0  0  0  0  0  0  0  0  0
  131.9978  135.7025  160.6552 H   0  0  0  0  0  0  0  0  0  0  0  0
  130.4160  133.6255  154.9165 H   0  0  0  0  0  0  0  0  0  0  0  0
  131.1109  132.4196  152.8879 H   0  0  0  0  0  0  0  0  0  0  0  0
  1  2  1  0
  1 38  1  0
  1 39  1  0
  1 40  1  0
  2  3  1  0
  2 41  1  0
  2 42  1  0
  3 37  2  0
  3  4  1  0
  4  5  2  0
  4 43  1  0
  5  6  1  0
  5 44  1  0
  6  7  1  0
  6 36  2  0
  7 34  1  0
  7  8  2  0
  8  9  1  0
  8 45  1  0
  9 10  1  0
  9 11  1  0
 11 12  1  0
 11 34  2  0
 12 13  1  0
 12 46  1  0
 13 14  1  6
 13 15  1  0
 13 28  1  0
 15 16  1  0
 15 47  1  0
 15 48  1  0
 16 27  1  0
 16 17  2  0
 17 18  1  0
 17 49  1  0
 18 19  2  0
 18 50  1  0
 19 20  1  0
 19 26  1  0
 20 25  1  0
 20 21  2  0
 21 22  1  0
 21 51  1  0
 22 23  2  0
 22 52  1  0
 23 24  1  0
 23 53  1  0
 24 25  2  0
 24 54  1  0
 25 55  1  0
 26 27  2  0
 26 56  1  0
 27 57  1  0
 28 33  1  0
 28 29  2  0
 29 30  1  0
 29 58  1  0
 30 31  2  0
 30 59  1  0
 31 32  1  0
 31 60  1  0
 32 33  2  0
 32 61  1  0
 33 62  1  0
 34 35  1  0
 36 37  1  0
 36 63  1  0
 37 64  1  0
M  CHG  1  34   1
M  END
>  <DOCK_score>  (1) 
-62.07568

>  <SMILES>  (1) 
CCc1ccc(-c2c[nH]c(N[C@H](Cc3ccc(-c4ccccc4)cc3)c3ccccc3)[nH+]2)cc1

$$$$
