OCCN1CC[NH+]=C1NCc1ccc(Nc2cccc(OCCF)c2)cc1
     RDKit          3D

 53 55  0  0  1  0  0  0  0  0999 V2000
  131.6484  131.8481  158.9666 O   0  0  0  0  0  0  0  0  0  0  0  0
  131.4914  130.4908  158.5480 C   0  0  0  0  0  0  0  0  0  0  0  0
  130.2446  130.3690  157.6697 C   0  0  0  0  0  0  0  0  0  0  0  0
  130.3904  131.2292  156.4928 N   0  0  0  0  0  0  0  0  0  0  0  0
  130.9841  130.8337  155.2047 C   0  0  0  0  0  0  0  0  0  0  0  0
  130.8745  132.1160  154.3559 C   0  0  0  0  0  0  0  0  0  0  0  0
  130.2346  133.0850  155.2565 N   0  0  0  0  0  0  0  0  0  0  0  0
  130.0204  134.0021  155.0244 H   0  0  0  0  0  0  0  0  0  0  0  0
  129.9984  132.5366  156.4036 C   0  0  0  0  0  0  0  0  0  0  0  0
  129.3990  133.2085  157.4425 N   0  0  0  0  0  0  0  0  0  0  0  0
  129.0040  134.6095  157.2779 C   0  0  0  0  0  0  0  0  0  0  0  0
  128.3745  135.1072  158.5535 C   0  0  0  0  0  0  0  0  0  0  0  0
  128.7345  136.3406  159.0650 C   0  0  0  0  0  0  0  0  0  0  0  0
  128.1554  136.8020  160.2307 C   0  0  0  0  0  0  0  0  0  0  0  0
  127.2186  136.0210  160.8957 C   0  0  0  0  0  0  0  0  0  0  0  0
  126.6351  136.4818  162.0785 N   0  0  0  0  0  0  0  0  0  0  0  0
  127.4352  136.7733  163.1853 C   0  0  0  0  0  0  0  0  0  0  0  0
  127.0430  137.7533  164.0895 C   0  0  0  0  0  0  0  0  0  0  0  0
  127.8341  138.0400  165.1846 C   0  0  0  0  0  0  0  0  0  0  0  0
  129.0174  137.3541  165.3843 C   0  0  0  0  0  0  0  0  0  0  0  0
  129.4147  136.3751  164.4844 C   0  0  0  0  0  0  0  0  0  0  0  0
  130.5787  135.7021  164.6822 O   0  0  0  0  0  0  0  0  0  0  0  0
  131.2649  135.2368  163.5183 C   0  0  0  0  0  0  0  0  0  0  0  0
  132.7698  135.2050  163.7921 C   0  0  0  0  0  0  0  0  0  0  0  0
  133.4416  134.7494  162.6527 F   0  0  0  0  0  0  0  0  0  0  0  0
  128.6207  136.0800  163.3874 C   0  0  0  0  0  0  0  0  0  0  0  0
  126.8635  134.7796  160.3820 C   0  0  0  0  0  0  0  0  0  0  0  0
  127.4424  134.3268  159.2129 C   0  0  0  0  0  0  0  0  0  0  0  0
  131.7505  132.4752  158.2376 H   0  0  0  0  0  0  0  0  0  0  0  0
  131.3828  129.8509  159.4238 H   0  0  0  0  0  0  0  0  0  0  0  0
  132.3684  130.1823  157.9789 H   0  0  0  0  0  0  0  0  0  0  0  0
  129.3677  130.6775  158.2388 H   0  0  0  0  0  0  0  0  0  0  0  0
  130.1247  129.3337  157.3505 H   0  0  0  0  0  0  0  0  0  0  0  0
  132.0275  130.5464  155.3342 H   0  0  0  0  0  0  0  0  0  0  0  0
  130.4159  130.0207  154.7529 H   0  0  0  0  0  0  0  0  0  0  0  0
  131.8640  132.4646  154.0605 H   0  0  0  0  0  0  0  0  0  0  0  0
  130.2540  131.9406  153.4770 H   0  0  0  0  0  0  0  0  0  0  0  0
  129.2376  132.7547  158.2846 H   0  0  0  0  0  0  0  0  0  0  0  0
  129.8840  135.2105  157.0484 H   0  0  0  0  0  0  0  0  0  0  0  0
  128.2856  134.6911  156.4623 H   0  0  0  0  0  0  0  0  0  0  0  0
  129.4662  136.9454  158.5502 H   0  0  0  0  0  0  0  0  0  0  0  0
  128.4337  137.7672  160.6273 H   0  0  0  0  0  0  0  0  0  0  0  0
  125.6733  136.6006  162.1301 H   0  0  0  0  0  0  0  0  0  0  0  0
  126.1187  138.2907  163.9357 H   0  0  0  0  0  0  0  0  0  0  0  0
  127.5274  138.8014  165.8866 H   0  0  0  0  0  0  0  0  0  0  0  0
  129.6339  137.5807  166.2416 H   0  0  0  0  0  0  0  0  0  0  0  0
  130.9194  134.2334  163.2696 H   0  0  0  0  0  0  0  0  0  0  0  0
  131.0615  135.9084  162.6840 H   0  0  0  0  0  0  0  0  0  0  0  0
  133.1151  136.2084  164.0408 H   0  0  0  0  0  0  0  0  0  0  0  0
  132.9731  134.5336  164.6264 H   0  0  0  0  0  0  0  0  0  0  0  0
  128.9257  135.3147  162.6889 H   0  0  0  0  0  0  0  0  0  0  0  0
  126.1353  134.1700  160.8962 H   0  0  0  0  0  0  0  0  0  0  0  0
  127.1671  133.3620  158.8132 H   0  0  0  0  0  0  0  0  0  0  0  0
  1  2  1  0
  1 29  1  0
  2  3  1  0
  2 30  1  0
  2 31  1  0
  3  4  1  0
  3 32  1  0
  3 33  1  0
  4  9  1  0
  4  5  1  0
  5  6  1  0
  5 34  1  0
  5 35  1  0
  6  7  1  0
  6 36  1  0
  6 37  1  0
  7  8  1  0
  7  9  2  0
  9 10  1  0
 10 11  1  0
 10 38  1  0
 11 12  1  0
 11 39  1  0
 11 40  1  0
 12 28  1  0
 12 13  2  0
 13 14  1  0
 13 41  1  0
 14 15  2  0
 14 42  1  0
 15 16  1  0
 15 27  1  0
 16 17  1  0
 16 43  1  0
 17 26  1  0
 17 18  2  0
 18 19  1  0
 18 44  1  0
 19 20  2  0
 19 45  1  0
 20 21  1  0
 20 46  1  0
 21 22  1  0
 21 26  2  0
 22 23  1  0
 23 24  1  0
 23 47  1  0
 23 48  1  0
 24 25  1  0
 24 49  1  0
 24 50  1  0
 26 51  1  0
 27 28  2  0
 27 52  1  0
 28 53  1  0
M  CHG  1   7   1
M  END
>  <DOCK_score>  (1) 
-43.27504

>  <SMILES>  (1) 
OCCN1CC[NH+]=C1NCc1ccc(Nc2cccc(OCCF)c2)cc1

$$$$
