CCc1ccc(-c2c[nH]c(N[C@@H](CNc3c(C)ccc4c3CCCC4)c3ccnn3C)[nH+]2)cc1
     RDKit          3D

 69 73  0  0  1  0  0  0  0  0999 V2000
  129.7935  128.5511  150.4711 C   0  0  0  0  0  0  0  0  0  0  0  0
  130.9492  129.5313  150.6811 C   0  0  0  0  0  0  0  0  0  0  0  0
  130.8534  130.1330  152.0595 C   0  0  0  0  0  0  0  0  0  0  0  0
  131.4856  129.5187  153.1249 C   0  0  0  0  0  0  0  0  0  0  0  0
  131.4052  130.0679  154.3884 C   0  0  0  0  0  0  0  0  0  0  0  0
  130.6764  131.2384  154.5916 C   0  0  0  0  0  0  0  0  0  0  0  0
  130.5821  131.8306  155.9482 C   0  0  0  0  0  0  0  0  0  0  0  0
  130.0687  131.2269  157.0487 C   0  0  0  0  0  0  0  0  0  0  0  0
  130.1776  132.1243  158.0831 N   0  0  0  0  0  0  0  0  0  0  0  0
  129.8949  131.9813  158.9999 H   0  0  0  0  0  0  0  0  0  0  0  0
  130.7549  133.2512  157.5840 C   0  0  0  0  0  0  0  0  0  0  0  0
  131.0405  134.3980  158.3050 N   0  0  0  0  0  0  0  0  0  0  0  0
  130.2071  134.7691  159.4512 C   0  0  1  0  0  0  0  0  0  0  0  0
  130.2397  133.9746  160.1967 H   0  0  0  0  0  0  0  0  0  0  0  0
  130.7344  136.0672  160.0662 C   0  0  0  0  0  0  0  0  0  0  0  0
  132.1204  135.8703  160.5117 N   0  0  0  0  0  0  0  0  0  0  0  0
  132.4136  136.6829  161.6091 C   0  0  0  0  0  0  0  0  0  0  0  0
  132.1897  136.2126  162.8943 C   0  0  0  0  0  0  0  0  0  0  0  0
  131.6294  134.8300  163.1076 C   0  0  0  0  0  0  0  0  0  0  0  0
  132.4875  137.0153  163.9777 C   0  0  0  0  0  0  0  0  0  0  0  0
  132.9928  138.2837  163.7749 C   0  0  0  0  0  0  0  0  0  0  0  0
  133.2110  138.7632  162.4893 C   0  0  0  0  0  0  0  0  0  0  0  0
  132.9246  137.9653  161.4059 C   0  0  0  0  0  0  0  0  0  0  0  0
  133.1446  138.4156  159.9855 C   0  0  0  0  0  0  0  0  0  0  0  0
  133.2836  139.9353  159.9193 C   0  0  0  0  0  0  0  0  0  0  0  0
  134.3349  140.3696  160.9476 C   0  0  0  0  0  0  0  0  0  0  0  0
  133.7566  140.1600  162.3455 C   0  0  0  0  0  0  0  0  0  0  0  0
  128.7853  134.9711  158.9941 C   0  0  0  0  0  0  0  0  0  0  0  0
  128.3935  135.3965  157.7709 C   0  0  0  0  0  0  0  0  0  0  0  0
  126.9957  135.4465  157.7600 C   0  0  0  0  0  0  0  0  0  0  0  0
  126.5639  135.0650  158.9346 N   0  0  0  0  0  0  0  0  0  0  0  0
  127.6748  134.7548  159.7297 N   0  0  0  0  0  0  0  0  0  0  0  0
  127.6376  134.2820  161.1158 C   0  0  0  0  0  0  0  0  0  0  0  0
  130.9997  133.0700  156.3092 N   0  0  0  0  0  0  0  0  0  0  0  0
  131.4120  133.7191  155.7179 H   0  0  0  0  0  0  0  0  0  0  0  0
  130.0370  131.8506  153.5152 C   0  0  0  0  0  0  0  0  0  0  0  0
  130.1284  131.2953  152.2550 C   0  0  0  0  0  0  0  0  0  0  0  0
  129.8490  127.7591  151.2179 H   0  0  0  0  0  0  0  0  0  0  0  0
  128.8457  129.0796  150.5717 H   0  0  0  0  0  0  0  0  0  0  0  0
  129.8629  128.1159  149.4741 H   0  0  0  0  0  0  0  0  0  0  0  0
  131.8970  129.0032  150.5803 H   0  0  0  0  0  0  0  0  0  0  0  0
  130.8936  130.3238  149.9341 H   0  0  0  0  0  0  0  0  0  0  0  0
  132.0465  128.6093  152.9671 H   0  0  0  0  0  0  0  0  0  0  0  0
  131.9032  129.5895  155.2190 H   0  0  0  0  0  0  0  0  0  0  0  0
  129.6535  130.2314  157.1017 H   0  0  0  0  0  0  0  0  0  0  0  0
  131.7924  134.9558  158.0512 H   0  0  0  0  0  0  0  0  0  0  0  0
  130.7019  136.8618  159.3208 H   0  0  0  0  0  0  0  0  0  0  0  0
  130.1144  136.3434  160.9190 H   0  0  0  0  0  0  0  0  0  0  0  0
  132.7696  136.0339  159.7568 H   0  0  0  0  0  0  0  0  0  0  0  0
  132.4480  134.1144  163.1852 H   0  0  0  0  0  0  0  0  0  0  0  0
  131.0437  134.8133  164.0267 H   0  0  0  0  0  0  0  0  0  0  0  0
  130.9914  134.5625  162.2652 H   0  0  0  0  0  0  0  0  0  0  0  0
  132.3216  136.6530  164.9814 H   0  0  0  0  0  0  0  0  0  0  0  0
  133.2214  138.9098  164.6245 H   0  0  0  0  0  0  0  0  0  0  0  0
  134.0533  137.9544  159.5988 H   0  0  0  0  0  0  0  0  0  0  0  0
  132.2968  138.1054  159.3747 H   0  0  0  0  0  0  0  0  0  0  0  0
  133.6030  140.2315  158.9202 H   0  0  0  0  0  0  0  0  0  0  0  0
  132.3268  140.4020  160.1529 H   0  0  0  0  0  0  0  0  0  0  0  0
  135.2355  139.7671  160.8286 H   0  0  0  0  0  0  0  0  0  0  0  0
  134.5757  141.4229  160.8038 H   0  0  0  0  0  0  0  0  0  0  0  0
  134.5405  140.3176  163.0862 H   0  0  0  0  0  0  0  0  0  0  0  0
  132.9537  140.8779  162.5137 H   0  0  0  0  0  0  0  0  0  0  0  0
  129.0448  135.6524  156.9483 H   0  0  0  0  0  0  0  0  0  0  0  0
  126.3793  135.7485  156.9262 H   0  0  0  0  0  0  0  0  0  0  0  0
  127.6592  135.1366  161.7919 H   0  0  0  0  0  0  0  0  0  0  0  0
  126.7238  133.7112  161.2806 H   0  0  0  0  0  0  0  0  0  0  0  0
  128.5024  133.6464  161.3062 H   0  0  0  0  0  0  0  0  0  0  0  0
  129.4705  132.7575  153.6668 H   0  0  0  0  0  0  0  0  0  0  0  0
  129.6330  131.7686  151.4202 H   0  0  0  0  0  0  0  0  0  0  0  0
  1  2  1  0
  1 38  1  0
  1 39  1  0
  1 40  1  0
  2  3  1  0
  2 41  1  0
  2 42  1  0
  3 37  2  0
  3  4  1  0
  4  5  2  0
  4 43  1  0
  5  6  1  0
  5 44  1  0
  6  7  1  0
  6 36  2  0
  7 34  1  0
  7  8  2  0
  8  9  1  0
  8 45  1  0
  9 10  1  0
  9 11  1  0
 11 12  1  0
 11 34  2  0
 12 13  1  0
 12 46  1  0
 13 14  1  1
 13 15  1  0
 13 28  1  0
 15 16  1  0
 15 47  1  0
 15 48  1  0
 16 17  1  0
 16 49  1  0
 17 23  1  0
 17 18  2  0
 18 19  1  0
 18 20  1  0
 19 50  1  0
 19 51  1  0
 19 52  1  0
 20 21  2  0
 20 53  1  0
 21 22  1  0
 21 54  1  0
 22 27  1  0
 22 23  2  0
 23 24  1  0
 24 25  1  0
 24 55  1  0
 24 56  1  0
 25 26  1  0
 25 57  1  0
 25 58  1  0
 26 27  1  0
 26 59  1  0
 26 60  1  0
 27 61  1  0
 27 62  1  0
 28 32  1  0
 28 29  2  0
 29 30  1  0
 29 63  1  0
 30 31  2  0
 30 64  1  0
 31 32  1  0
 32 33  1  0
 33 65  1  0
 33 66  1  0
 33 67  1  0
 34 35  1  0
 36 37  1  0
 36 68  1  0
 37 69  1  0
M  CHG  1  34   1
M  END
>  <DOCK_score>  (1) 
-68.416115

>  <SMILES>  (1) 
CCc1ccc(-c2c[nH]c(N[C@@H](CNc3c(C)ccc4c3CCCC4)c3ccnn3C)[nH+]2)cc1

$$$$
