O=C1CC[C@H](NC(N[C@H]2CCc3ccccc3C2)=[NH+]CCCl)CN1
     RDKit          3D

 50 52  0  0  1  0  0  0  0  0999 V2000
  123.8561  133.7146  161.3380 O   0  0  0  0  0  0  0  0  0  0  0  0
  125.0173  133.9956  161.1292 C   0  0  0  0  0  0  0  0  0  0  0  0
  125.9001  132.9526  160.5065 C   0  0  0  0  0  0  0  0  0  0  0  0
  127.3706  133.3174  160.7239 C   0  0  0  0  0  0  0  0  0  0  0  0
  127.5708  134.7840  160.3227 C   0  0  2  0  0  0  0  0  0  0  0  0
  127.1808  134.9472  159.3180 H   0  0  0  0  0  0  0  0  0  0  0  0
  128.9983  135.1118  160.3550 N   0  0  0  0  0  0  0  0  0  0  0  0
  129.8792  134.4265  159.5523 C   0  0  0  0  0  0  0  0  0  0  0  0
  131.1807  134.2460  159.9571 N   0  0  0  0  0  0  0  0  0  0  0  0
  131.6290  134.7841  161.2439 C   0  0  1  0  0  0  0  0  0  0  0  0
  131.5002  135.8665  161.2541 H   0  0  0  0  0  0  0  0  0  0  0  0
  130.8118  134.1560  162.3791 C   0  0  0  0  0  0  0  0  0  0  0  0
  131.1298  134.9034  163.6725 C   0  0  0  0  0  0  0  0  0  0  0  0
  132.6190  134.9899  163.8822 C   0  0  0  0  0  0  0  0  0  0  0  0
  133.0760  135.2919  165.1587 C   0  0  0  0  0  0  0  0  0  0  0  0
  134.4279  135.3905  165.4142 C   0  0  0  0  0  0  0  0  0  0  0  0
  135.3365  135.1879  164.3919 C   0  0  0  0  0  0  0  0  0  0  0  0
  134.8846  134.8858  163.1239 C   0  0  0  0  0  0  0  0  0  0  0  0
  133.5236  134.7834  162.8654 C   0  0  0  0  0  0  0  0  0  0  0  0
  133.1007  134.4381  161.4614 C   0  0  0  0  0  0  0  0  0  0  0  0
  129.4806  133.9478  158.4073 N   0  0  0  0  0  0  0  0  0  0  0  0
  128.5574  133.6745  158.2908 H   0  0  0  0  0  0  0  0  0  0  0  0
  130.4275  133.8226  157.2962 C   0  0  0  0  0  0  0  0  0  0  0  0
  130.5268  132.3555  156.8738 C   0  0  0  0  0  0  0  0  0  0  0  0
  131.1013  131.3664  158.2673 Cl  0  0  0  0  0  0  0  0  0  0  0  0
  126.8181  135.6703  161.3156 C   0  0  0  0  0  0  0  0  0  0  0  0
  125.4419  135.2143  161.4651 N   0  0  0  0  0  0  0  0  0  0  0  0
  125.6958  131.9848  160.9644 H   0  0  0  0  0  0  0  0  0  0  0  0
  125.6954  132.8961  159.4373 H   0  0  0  0  0  0  0  0  0  0  0  0
  128.0025  132.6786  160.1069 H   0  0  0  0  0  0  0  0  0  0  0  0
  127.6295  133.1858  161.7746 H   0  0  0  0  0  0  0  0  0  0  0  0
  129.3219  135.8124  160.9426 H   0  0  0  0  0  0  0  0  0  0  0  0
  131.8011  133.7590  159.3924 H   0  0  0  0  0  0  0  0  0  0  0  0
  129.7481  134.2427  162.1571 H   0  0  0  0  0  0  0  0  0  0  0  0
  131.0804  133.1053  162.4868 H   0  0  0  0  0  0  0  0  0  0  0  0
  130.7157  135.9101  163.6169 H   0  0  0  0  0  0  0  0  0  0  0  0
  130.6785  134.3757  164.5127 H   0  0  0  0  0  0  0  0  0  0  0  0
  132.3670  135.4510  165.9578 H   0  0  0  0  0  0  0  0  0  0  0  0
  134.7756  135.6255  166.4094 H   0  0  0  0  0  0  0  0  0  0  0  0
  136.3960  135.2656  164.5853 H   0  0  0  0  0  0  0  0  0  0  0  0
  135.5948  134.7282  162.3258 H   0  0  0  0  0  0  0  0  0  0  0  0
  133.2476  133.3711  161.2941 H   0  0  0  0  0  0  0  0  0  0  0  0
  133.7104  134.9998  160.7537 H   0  0  0  0  0  0  0  0  0  0  0  0
  130.0800  134.4205  156.4537 H   0  0  0  0  0  0  0  0  0  0  0  0
  131.4083  134.1767  157.6132 H   0  0  0  0  0  0  0  0  0  0  0  0
  129.5458  132.0015  156.5569 H   0  0  0  0  0  0  0  0  0  0  0  0
  131.2310  132.2621  156.0471 H   0  0  0  0  0  0  0  0  0  0  0  0
  127.3177  135.6318  162.2837 H   0  0  0  0  0  0  0  0  0  0  0  0
  126.8196  136.6985  160.9537 H   0  0  0  0  0  0  0  0  0  0  0  0
  124.7943  135.8361  161.8325 H   0  0  0  0  0  0  0  0  0  0  0  0
  1  2  2  0
  2 27  1  0
  2  3  1  0
  3  4  1  0
  3 28  1  0
  3 29  1  0
  4  5  1  0
  4 30  1  0
  4 31  1  0
  5  6  1  6
  5  7  1  0
  5 26  1  0
  7 32  1  0
  8  7  1  0
  8  9  1  0
  8 21  2  0
  9 10  1  0
  9 33  1  0
 10 11  1  6
 10 20  1  0
 10 12  1  0
 12 13  1  0
 12 34  1  0
 12 35  1  0
 13 14  1  0
 13 36  1  0
 13 37  1  0
 14 19  2  0
 14 15  1  0
 15 16  2  0
 15 38  1  0
 16 17  1  0
 16 39  1  0
 17 18  2  0
 17 40  1  0
 18 19  1  0
 18 41  1  0
 19 20  1  0
 20 42  1  0
 20 43  1  0
 21 22  1  0
 21 23  1  0
 23 24  1  0
 23 44  1  0
 23 45  1  0
 24 25  1  0
 24 46  1  0
 24 47  1  0
 26 27  1  0
 26 48  1  0
 26 49  1  0
 27 50  1  0
M  CHG  1  21   1
M  END
>  <DOCK_score>  (1) 
-41.647114

>  <SMILES>  (1) 
O=C1CC[C@H](NC(N[C@H]2CCc3ccccc3C2)=[NH+]CCCl)CN1

$$$$
