Nc1ccc(-c2c[nH]c(Nc3c[nH]nc3C3CCN(CC(=O)c4cc5ccccc5[nH]4)CC3)[nH+]2)cc1
     RDKit          3D

 65 70  0  0  1  0  0  0  0  0999 V2000
  131.1449  129.6172  151.8274 N   0  0  0  0  0  0  0  0  0  0  0  0
  130.8722  130.3669  152.9742 C   0  0  0  0  0  0  0  0  0  0  0  0
  130.6057  131.7268  152.8670 C   0  0  0  0  0  0  0  0  0  0  0  0
  130.3363  132.4689  153.9975 C   0  0  0  0  0  0  0  0  0  0  0  0
  130.3307  131.8539  155.2485 C   0  0  0  0  0  0  0  0  0  0  0  0
  130.0415  132.6502  156.4664 C   0  0  0  0  0  0  0  0  0  0  0  0
  129.4537  132.1910  157.5990 C   0  0  0  0  0  0  0  0  0  0  0  0
  129.3826  133.2522  158.4699 N   0  0  0  0  0  0  0  0  0  0  0  0
  129.0140  133.2357  159.3670 H   0  0  0  0  0  0  0  0  0  0  0  0
  129.9226  134.3311  157.8396 C   0  0  0  0  0  0  0  0  0  0  0  0
  130.0404  135.6024  158.3749 N   0  0  0  0  0  0  0  0  0  0  0  0
  129.1008  136.0586  159.3185 C   0  0  0  0  0  0  0  0  0  0  0  0
  127.7970  135.6876  159.3922 C   0  0  0  0  0  0  0  0  0  0  0  0
  127.2387  136.3570  160.4347 N   0  0  0  0  0  0  0  0  0  0  0  0
  126.3153  136.2937  160.7250 H   0  0  0  0  0  0  0  0  0  0  0  0
  128.2336  137.1523  161.0175 N   0  0  0  0  0  0  0  0  0  0  0  0
  129.3452  136.9772  160.3497 C   0  0  0  0  0  0  0  0  0  0  0  0
  130.6631  137.6480  160.6394 C   0  0  0  0  0  0  0  0  0  0  0  0
  131.1168  137.2936  162.0582 C   0  0  0  0  0  0  0  0  0  0  0  0
  132.4243  138.0260  162.3683 C   0  0  0  0  0  0  0  0  0  0  0  0
  132.2155  139.4748  162.2495 N   0  0  0  0  0  0  0  0  0  0  0  0
  133.4108  140.2154  162.6741 C   0  0  0  0  0  0  0  0  0  0  0  0
  133.4455  140.2929  164.1788 C   0  0  0  0  0  0  0  0  0  0  0  0
  132.5607  139.7809  164.8334 O   0  0  0  0  0  0  0  0  0  0  0  0
  134.5442  140.9841  164.8499 C   0  0  0  0  0  0  0  0  0  0  0  0
  135.5887  141.6009  164.2276 C   0  0  0  0  0  0  0  0  0  0  0  0
  136.4261  142.1439  165.2294 C   0  0  0  0  0  0  0  0  0  0  0  0
  137.6229  142.8731  165.1916 C   0  0  0  0  0  0  0  0  0  0  0  0
  138.2123  143.2706  166.3558 C   0  0  0  0  0  0  0  0  0  0  0  0
  137.6377  142.9595  167.5823 C   0  0  0  0  0  0  0  0  0  0  0  0
  136.4629  142.2447  167.6463 C   0  0  0  0  0  0  0  0  0  0  0  0
  135.8414  141.8277  166.4721 C   0  0  0  0  0  0  0  0  0  0  0  0
  134.6887  141.1231  166.2185 N   0  0  0  0  0  0  0  0  0  0  0  0
  134.0784  140.7782  166.8889 H   0  0  0  0  0  0  0  0  0  0  0  0
  131.8250  139.8445  160.8830 C   0  0  0  0  0  0  0  0  0  0  0  0
  130.4996  139.1664  160.5285 C   0  0  0  0  0  0  0  0  0  0  0  0
  130.3177  133.9661  156.6438 N   0  0  0  0  0  0  0  0  0  0  0  0
  130.7402  134.5451  155.9902 H   0  0  0  0  0  0  0  0  0  0  0  0
  130.6029  130.4908  155.3542 C   0  0  0  0  0  0  0  0  0  0  0  0
  130.8671  129.7518  154.2204 C   0  0  0  0  0  0  0  0  0  0  0  0
  131.1483  130.0458  150.9572 H   0  0  0  0  0  0  0  0  0  0  0  0
  131.3309  128.6680  151.9013 H   0  0  0  0  0  0  0  0  0  0  0  0
  130.6101  132.2028  151.8975 H   0  0  0  0  0  0  0  0  0  0  0  0
  130.1293  133.5255  153.9137 H   0  0  0  0  0  0  0  0  0  0  0  0
  129.1104  131.1836  157.7827 H   0  0  0  0  0  0  0  0  0  0  0  0
  130.7705  136.1786  158.0997 H   0  0  0  0  0  0  0  0  0  0  0  0
  127.2940  134.9907  158.7382 H   0  0  0  0  0  0  0  0  0  0  0  0
  131.4101  137.3087  159.9217 H   0  0  0  0  0  0  0  0  0  0  0  0
  130.3512  137.5981  162.7718 H   0  0  0  0  0  0  0  0  0  0  0  0
  131.2761  136.2178  162.1314 H   0  0  0  0  0  0  0  0  0  0  0  0
  133.1931  137.7108  161.6630 H   0  0  0  0  0  0  0  0  0  0  0  0
  132.7423  137.7870  163.3831 H   0  0  0  0  0  0  0  0  0  0  0  0
  134.3029  139.7016  162.3162 H   0  0  0  0  0  0  0  0  0  0  0  0
  133.3805  141.2229  162.2592 H   0  0  0  0  0  0  0  0  0  0  0  0
  135.7483  141.6633  163.1614 H   0  0  0  0  0  0  0  0  0  0  0  0
  138.0770  143.1196  164.2432 H   0  0  0  0  0  0  0  0  0  0  0  0
  139.1342  143.8322  166.3240 H   0  0  0  0  0  0  0  0  0  0  0  0
  138.1180  143.2814  168.4946 H   0  0  0  0  0  0  0  0  0  0  0  0
  136.0248  142.0077  168.6045 H   0  0  0  0  0  0  0  0  0  0  0  0
  132.5968  139.5208  160.1845 H   0  0  0  0  0  0  0  0  0  0  0  0
  131.7080  140.9263  160.8191 H   0  0  0  0  0  0  0  0  0  0  0  0
  130.2181  139.4286  159.5087 H   0  0  0  0  0  0  0  0  0  0  0  0
  129.7238  139.5002  161.2175 H   0  0  0  0  0  0  0  0  0  0  0  0
  130.6032  130.0132  156.3228 H   0  0  0  0  0  0  0  0  0  0  0  0
  131.0744  128.6949  154.3014 H   0  0  0  0  0  0  0  0  0  0  0  0
  1  2  1  0
  1 41  1  0
  1 42  1  0
  2 40  2  0
  2  3  1  0
  3  4  2  0
  3 43  1  0
  4  5  1  0
  4 44  1  0
  5  6  1  0
  5 39  2  0
  6 37  1  0
  6  7  2  0
  7  8  1  0
  7 45  1  0
  8  9  1  0
  8 10  1  0
 10 11  1  0
 10 37  2  0
 11 12  1  0
 11 46  1  0
 12 17  1  0
 12 13  2  0
 13 14  1  0
 13 47  1  0
 14 15  1  0
 14 16  1  0
 16 17  2  0
 17 18  1  0
 18 36  1  0
 18 19  1  0
 18 48  1  0
 19 20  1  0
 19 49  1  0
 19 50  1  0
 20 21  1  0
 20 51  1  0
 20 52  1  0
 21 22  1  0
 21 35  1  0
 22 23  1  0
 22 53  1  0
 22 54  1  0
 23 24  2  0
 23 25  1  0
 25 33  1  0
 25 26  2  0
 26 27  1  0
 26 55  1  0
 27 32  2  0
 27 28  1  0
 28 29  2  0
 28 56  1  0
 29 30  1  0
 29 57  1  0
 30 31  2  0
 30 58  1  0
 31 32  1  0
 31 59  1  0
 32 33  1  0
 33 34  1  0
 35 36  1  0
 35 60  1  0
 35 61  1  0
 36 62  1  0
 36 63  1  0
 37 38  1  0
 39 40  1  0
 39 64  1  0
 40 65  1  0
M  CHG  1  37   1
M  END
>  <DOCK_score>  (1) 
-64.996475

>  <SMILES>  (1) 
Nc1ccc(-c2c[nH]c(Nc3c[nH]nc3C3CCN(CC(=O)c4cc5ccccc5[nH]4)CC3)[nH+]2)cc1

$$$$
