CCc1ccc(-c2c[nH]c(N[C@@H](CO)CCO)[nH+]2)cc1
     RDKit          3D

 42 43  0  0  1  0  0  0  0  0999 V2000
  130.3499  128.6509  151.5173 C   0  0  0  0  0  0  0  0  0  0  0  0
  131.4714  129.6216  151.8929 C   0  0  0  0  0  0  0  0  0  0  0  0
  131.1150  130.3306  153.1740 C   0  0  0  0  0  0  0  0  0  0  0  0
  131.4899  129.7875  154.3898 C   0  0  0  0  0  0  0  0  0  0  0  0
  131.1651  130.4321  155.5660 C   0  0  0  0  0  0  0  0  0  0  0  0
  130.4577  131.6324  155.5273 C   0  0  0  0  0  0  0  0  0  0  0  0
  130.1058  132.3299  156.7883 C   0  0  0  0  0  0  0  0  0  0  0  0
  129.3468  131.8273  157.7934 C   0  0  0  0  0  0  0  0  0  0  0  0
  129.2687  132.8010  158.7592 N   0  0  0  0  0  0  0  0  0  0  0  0
  128.7898  132.7387  159.6005 H   0  0  0  0  0  0  0  0  0  0  0  0
  129.9871  133.8694  158.3178 C   0  0  0  0  0  0  0  0  0  0  0  0
  130.1600  135.0619  158.9994 N   0  0  0  0  0  0  0  0  0  0  0  0
  129.5412  135.2507  160.3138 C   0  0  1  0  0  0  0  0  0  0  0  0
  129.6232  134.3291  160.8898 H   0  0  0  0  0  0  0  0  0  0  0  0
  130.2558  136.3816  161.0562 C   0  0  0  0  0  0  0  0  0  0  0  0
  131.6347  136.0453  161.2228 O   0  0  0  0  0  0  0  0  0  0  0  0
  128.0648  135.6109  160.1353 C   0  0  0  0  0  0  0  0  0  0  0  0
  127.3094  135.3247  161.4346 C   0  0  0  0  0  0  0  0  0  0  0  0
  125.9306  135.6610  161.2680 O   0  0  0  0  0  0  0  0  0  0  0  0
  130.4883  133.5829  157.1411 N   0  0  0  0  0  0  0  0  0  0  0  0
  131.0409  134.1740  156.6061 H   0  0  0  0  0  0  0  0  0  0  0  0
  130.0774  132.1718  154.2998 C   0  0  0  0  0  0  0  0  0  0  0  0
  130.4126  131.5215  153.1297 C   0  0  0  0  0  0  0  0  0  0  0  0
  129.4214  129.2048  151.3794 H   0  0  0  0  0  0  0  0  0  0  0  0
  130.6083  128.1381  150.5909 H   0  0  0  0  0  0  0  0  0  0  0  0
  130.2212  127.9185  152.3143 H   0  0  0  0  0  0  0  0  0  0  0  0
  131.6004  130.3537  151.0963 H   0  0  0  0  0  0  0  0  0  0  0  0
  132.4001  129.0675  152.0311 H   0  0  0  0  0  0  0  0  0  0  0  0
  132.0381  128.8573  154.4185 H   0  0  0  0  0  0  0  0  0  0  0  0
  131.4589  130.0075  156.5147 H   0  0  0  0  0  0  0  0  0  0  0  0
  128.8883  130.8500  157.8264 H   0  0  0  0  0  0  0  0  0  0  0  0
  130.6908  135.7724  158.6065 H   0  0  0  0  0  0  0  0  0  0  0  0
  130.1737  137.3033  160.4803 H   0  0  0  0  0  0  0  0  0  0  0  0
  129.7953  136.5220  162.0342 H   0  0  0  0  0  0  0  0  0  0  0  0
  131.7835  135.2339  161.7274 H   0  0  0  0  0  0  0  0  0  0  0  0
  127.9762  136.6691  159.8890 H   0  0  0  0  0  0  0  0  0  0  0  0
  127.6400  135.0134  159.3288 H   0  0  0  0  0  0  0  0  0  0  0  0
  127.3980  134.2666  161.6809 H   0  0  0  0  0  0  0  0  0  0  0  0
  127.7342  135.9223  162.2411 H   0  0  0  0  0  0  0  0  0  0  0  0
  125.7761  136.5895  161.0469 H   0  0  0  0  0  0  0  0  0  0  0  0
  129.5249  133.0992  154.2643 H   0  0  0  0  0  0  0  0  0  0  0  0
  130.1223  131.9409  152.1777 H   0  0  0  0  0  0  0  0  0  0  0  0
  1  2  1  0
  1 24  1  0
  1 25  1  0
  1 26  1  0
  2  3  1  0
  2 27  1  0
  2 28  1  0
  3 23  2  0
  3  4  1  0
  4  5  2  0
  4 29  1  0
  5  6  1  0
  5 30  1  0
  6  7  1  0
  6 22  2  0
  7 20  1  0
  7  8  2  0
  8  9  1  0
  8 31  1  0
  9 10  1  0
  9 11  1  0
 11 12  1  0
 11 20  2  0
 12 13  1  0
 12 32  1  0
 13 14  1  1
 13 15  1  0
 13 17  1  0
 15 16  1  0
 15 33  1  0
 15 34  1  0
 16 35  1  0
 17 18  1  0
 17 36  1  0
 17 37  1  0
 18 19  1  0
 18 38  1  0
 18 39  1  0
 19 40  1  0
 20 21  1  0
 22 23  1  0
 22 41  1  0
 23 42  1  0
M  CHG  1  20   1
M  END
>  <DOCK_score>  (1) 
-51.534679

>  <SMILES>  (1) 
CCc1ccc(-c2c[nH]c(N[C@@H](CO)CCO)[nH+]2)cc1

$$$$
