CCSc1ccc([C@H](c2ccccc2)[NH+]2CCN(c3cccc(C)c3CCl)CC2)cc1
     RDKit          3D

 63 66  0  0  1  0  0  0  0  0999 V2000
  132.1087  129.5108  152.5438 C   0  0  0  0  0  0  0  0  0  0  0  0
  131.6553  130.4436  153.6685 C   0  0  0  0  0  0  0  0  0  0  0  0
  131.3650  129.4768  155.1757 S   0  0  0  0  0  0  0  0  0  0  0  0
  130.8590  130.6993  156.3395 C   0  0  0  0  0  0  0  0  0  0  0  0
  130.5362  130.3314  157.6401 C   0  0  0  0  0  0  0  0  0  0  0  0
  130.1453  131.2929  158.5509 C   0  0  0  0  0  0  0  0  0  0  0  0
  130.0701  132.6199  158.1687 C   0  0  0  0  0  0  0  0  0  0  0  0
  129.6434  133.6662  159.1658 C   0  0  2  0  0  0  0  0  0  0  0  0
  129.4376  133.1915  160.1251 H   0  0  0  0  0  0  0  0  0  0  0  0
  128.3986  134.3554  158.6691 C   0  0  0  0  0  0  0  0  0  0  0  0
  127.1530  133.8557  159.0004 C   0  0  0  0  0  0  0  0  0  0  0  0
  126.0112  134.4903  158.5486 C   0  0  0  0  0  0  0  0  0  0  0  0
  126.1148  135.6193  157.7578 C   0  0  0  0  0  0  0  0  0  0  0  0
  127.3605  136.1159  157.4220 C   0  0  0  0  0  0  0  0  0  0  0  0
  128.5023  135.4838  157.8775 C   0  0  0  0  0  0  0  0  0  0  0  0
  130.7182  134.6542  159.3289 N   0  0  0  0  0  0  0  0  0  0  0  0
  130.9086  135.0937  158.4408 H   0  0  0  0  0  0  0  0  0  0  0  0
  131.9316  133.9821  159.8120 C   0  0  0  0  0  0  0  0  0  0  0  0
  133.0569  135.0078  159.9643 C   0  0  0  0  0  0  0  0  0  0  0  0
  132.6415  136.0491  160.9146 N   0  0  0  0  0  0  0  0  0  0  0  0
  133.6658  136.9761  161.1206 C   0  0  0  0  0  0  0  0  0  0  0  0
  134.1654  137.7105  160.0523 C   0  0  0  0  0  0  0  0  0  0  0  0
  135.1778  138.6264  160.2596 C   0  0  0  0  0  0  0  0  0  0  0  0
  135.6945  138.8129  161.5290 C   0  0  0  0  0  0  0  0  0  0  0  0
  135.1995  138.0839  162.5943 C   0  0  0  0  0  0  0  0  0  0  0  0
  135.7656  138.2904  163.9756 C   0  0  0  0  0  0  0  0  0  0  0  0
  134.1830  137.1700  162.3950 C   0  0  0  0  0  0  0  0  0  0  0  0
  133.6399  136.3802  163.5578 C   0  0  0  0  0  0  0  0  0  0  0  0
  134.5791  134.8515  163.7371 Cl  0  0  0  0  0  0  0  0  0  0  0  0
  131.4135  136.7142  160.4565 C   0  0  0  0  0  0  0  0  0  0  0  0
  130.3018  135.6743  160.3003 C   0  0  0  0  0  0  0  0  0  0  0  0
  130.3860  132.9890  156.8738 C   0  0  0  0  0  0  0  0  0  0  0  0
  130.7769  132.0329  155.9575 C   0  0  0  0  0  0  0  0  0  0  0  0
  132.2831  130.0918  151.6380 H   0  0  0  0  0  0  0  0  0  0  0  0
  133.0310  129.0095  152.8370 H   0  0  0  0  0  0  0  0  0  0  0  0
  131.3349  128.7668  152.3546 H   0  0  0  0  0  0  0  0  0  0  0  0
  130.7330  130.9452  153.3753 H   0  0  0  0  0  0  0  0  0  0  0  0
  132.4290  131.1877  153.8576 H   0  0  0  0  0  0  0  0  0  0  0  0
  130.5954  129.2954  157.9396 H   0  0  0  0  0  0  0  0  0  0  0  0
  129.8981  131.0082  159.5630 H   0  0  0  0  0  0  0  0  0  0  0  0
  127.0719  132.9714  159.6152 H   0  0  0  0  0  0  0  0  0  0  0  0
  125.0379  134.1025  158.8112 H   0  0  0  0  0  0  0  0  0  0  0  0
  125.2228  136.1136  157.4025 H   0  0  0  0  0  0  0  0  0  0  0  0
  127.4416  136.9981  156.8043 H   0  0  0  0  0  0  0  0  0  0  0  0
  129.4755  135.8719  157.6152 H   0  0  0  0  0  0  0  0  0  0  0  0
  131.7299  133.5181  160.7775 H   0  0  0  0  0  0  0  0  0  0  0  0
  132.2320  133.2166  159.0967 H   0  0  0  0  0  0  0  0  0  0  0  0
  133.2681  135.4622  158.9961 H   0  0  0  0  0  0  0  0  0  0  0  0
  133.9534  134.5121  160.3367 H   0  0  0  0  0  0  0  0  0  0  0  0
  133.7624  137.5654  159.0610 H   0  0  0  0  0  0  0  0  0  0  0  0
  135.5667  139.1976  159.4296 H   0  0  0  0  0  0  0  0  0  0  0  0
  136.4863  139.5300  161.6883 H   0  0  0  0  0  0  0  0  0  0  0  0
  135.2035  139.0729  164.4854 H   0  0  0  0  0  0  0  0  0  0  0  0
  135.6911  137.3618  164.5414 H   0  0  0  0  0  0  0  0  0  0  0  0
  136.8120  138.5860  163.8989 H   0  0  0  0  0  0  0  0  0  0  0  0
  133.7279  136.9700  164.4702 H   0  0  0  0  0  0  0  0  0  0  0  0
  132.5913  136.1435  163.3781 H   0  0  0  0  0  0  0  0  0  0  0  0
  131.5976  137.1967  159.4966 H   0  0  0  0  0  0  0  0  0  0  0  0
  131.1107  137.4634  161.1880 H   0  0  0  0  0  0  0  0  0  0  0  0
  129.3939  136.1634  159.9468 H   0  0  0  0  0  0  0  0  0  0  0  0
  130.1084  135.2018  161.2632 H   0  0  0  0  0  0  0  0  0  0  0  0
  130.3265  134.0263  156.5790 H   0  0  0  0  0  0  0  0  0  0  0  0
  131.0231  132.3219  154.9464 H   0  0  0  0  0  0  0  0  0  0  0  0
  1  2  1  0
  1 34  1  0
  1 35  1  0
  1 36  1  0
  2  3  1  0
  2 37  1  0
  2 38  1  0
  3  4  1  0
  4 33  2  0
  4  5  1  0
  5  6  2  0
  5 39  1  0
  6  7  1  0
  6 40  1  0
  7  8  1  0
  7 32  2  0
  8  9  1  1
  8 10  1  0
  8 16  1  0
 10 15  1  0
 10 11  2  0
 11 12  1  0
 11 41  1  0
 12 13  2  0
 12 42  1  0
 13 14  1  0
 13 43  1  0
 14 15  2  0
 14 44  1  0
 15 45  1  0
 16 17  1  0
 16 31  1  0
 16 18  1  0
 18 19  1  0
 18 46  1  0
 18 47  1  0
 19 20  1  0
 19 48  1  0
 19 49  1  0
 20 21  1  0
 20 30  1  0
 21 27  1  0
 21 22  2  0
 22 23  1  0
 22 50  1  0
 23 24  2  0
 23 51  1  0
 24 25  1  0
 24 52  1  0
 25 26  1  0
 25 27  2  0
 26 53  1  0
 26 54  1  0
 26 55  1  0
 27 28  1  0
 28 29  1  0
 28 56  1  0
 28 57  1  0
 30 31  1  0
 30 58  1  0
 30 59  1  0
 31 60  1  0
 31 61  1  0
 32 33  1  0
 32 62  1  0
 33 63  1  0
M  CHG  1  16   1
M  END
>  <DOCK_score>  (1) 
-56.661209

>  <SMILES>  (1) 
CCSc1ccc([C@H](c2ccccc2)[NH+]2CCN(c3cccc(C)c3CCl)CC2)cc1

$$$$
