O=C1CC[C@H]([NH+]=C(NC2CC=CC2)NC2Cc3ccc(Br)cc3C2)CN1
     RDKit          3D

 52 55  0  0  1  0  0  0  0  0999 V2000
  124.1706  133.7932  161.4308 O   0  0  0  0  0  0  0  0  0  0  0  0
  125.3004  134.1924  161.2437 C   0  0  0  0  0  0  0  0  0  0  0  0
  126.2229  133.3502  160.4102 C   0  0  0  0  0  0  0  0  0  0  0  0
  127.6739  133.7755  160.6481 C   0  0  0  0  0  0  0  0  0  0  0  0
  127.7585  135.3014  160.5230 C   0  0  2  0  0  0  0  0  0  0  0  0
  127.3161  135.6160  159.5777 H   0  0  0  0  0  0  0  0  0  0  0  0
  129.1611  135.7217  160.5730 N   0  0  0  0  0  0  0  0  0  0  0  0
  129.4625  136.3233  161.2716 H   0  0  0  0  0  0  0  0  0  0  0  0
  130.0039  135.2872  159.6787 C   0  0  0  0  0  0  0  0  0  0  0  0
  129.5768  134.4346  158.6884 N   0  0  0  0  0  0  0  0  0  0  0  0
  130.5027  133.4535  158.1169 C   0  0  0  0  0  0  0  0  0  0  0  0
  129.7638  132.4775  157.1721 C   0  0  0  0  0  0  0  0  0  0  0  0
  130.4260  131.1399  157.4075 C   0  0  0  0  0  0  0  0  0  0  0  0
  131.1157  131.1455  158.5156 C   0  0  0  0  0  0  0  0  0  0  0  0
  131.0287  132.4877  159.2040 C   0  0  0  0  0  0  0  0  0  0  0  0
  131.3202  135.6814  159.7259 N   0  0  0  0  0  0  0  0  0  0  0  0
  131.7755  136.5898  160.7813 C   0  0  2  0  0  0  0  0  0  0  0  0
  131.1402  137.9865  160.6146 C   0  0  0  0  0  0  0  0  0  0  0  0
  132.2107  138.9633  161.0524 C   0  0  0  0  0  0  0  0  0  0  0  0
  132.1150  140.2972  161.4127 C   0  0  0  0  0  0  0  0  0  0  0  0
  133.2445  141.0001  161.7830 C   0  0  0  0  0  0  0  0  0  0  0  0
  134.4764  140.3706  161.7939 C   0  0  0  0  0  0  0  0  0  0  0  0
  136.0253  141.3300  162.2997 Br  0  0  0  0  0  0  0  0  0  0  0  0
  134.5742  139.0412  161.4293 C   0  0  0  0  0  0  0  0  0  0  0  0
  133.4412  138.3339  161.0632 C   0  0  0  0  0  0  0  0  0  0  0  0
  133.2820  136.8912  160.6336 C   0  0  0  0  0  0  0  0  0  0  0  0
  126.9922  135.9314  161.6867 C   0  0  0  0  0  0  0  0  0  0  0  0
  125.6573  135.3556  161.7896 N   0  0  0  0  0  0  0  0  0  0  0  0
  125.9764  133.4778  159.3562 H   0  0  0  0  0  0  0  0  0  0  0  0
  126.1032  132.3020  160.6844 H   0  0  0  0  0  0  0  0  0  0  0  0
  128.3196  133.3098  159.9035 H   0  0  0  0  0  0  0  0  0  0  0  0
  127.9865  133.4713  161.6471 H   0  0  0  0  0  0  0  0  0  0  0  0
  128.6625  134.4825  158.3682 H   0  0  0  0  0  0  0  0  0  0  0  0
  131.3259  133.9492  157.6023 H   0  0  0  0  0  0  0  0  0  0  0  0
  128.7057  132.4280  157.4294 H   0  0  0  0  0  0  0  0  0  0  0  0
  129.8891  132.7858  156.1341 H   0  0  0  0  0  0  0  0  0  0  0  0
  130.3400  130.2908  156.7457 H   0  0  0  0  0  0  0  0  0  0  0  0
  131.6755  130.3016  158.8910 H   0  0  0  0  0  0  0  0  0  0  0  0
  132.0139  132.8029  159.5475 H   0  0  0  0  0  0  0  0  0  0  0  0
  130.3311  132.4411  160.0401 H   0  0  0  0  0  0  0  0  0  0  0  0
  131.9474  135.3582  159.0603 H   0  0  0  0  0  0  0  0  0  0  0  0
  131.5572  136.1800  161.7674 H   0  0  0  0  0  0  0  0  0  0  0  0
  130.2600  138.0800  161.2507 H   0  0  0  0  0  0  0  0  0  0  0  0
  130.8732  138.1603  159.5723 H   0  0  0  0  0  0  0  0  0  0  0  0
  131.1536  140.7893  161.4044 H   0  0  0  0  0  0  0  0  0  0  0  0
  133.1663  142.0402  162.0632 H   0  0  0  0  0  0  0  0  0  0  0  0
  135.5366  138.5512  161.4340 H   0  0  0  0  0  0  0  0  0  0  0  0
  133.8640  136.2369  161.2824 H   0  0  0  0  0  0  0  0  0  0  0  0
  133.5921  136.7693  159.5957 H   0  0  0  0  0  0  0  0  0  0  0  0
  127.5348  135.7513  162.6147 H   0  0  0  0  0  0  0  0  0  0  0  0
  126.9096  137.0060  161.5241 H   0  0  0  0  0  0  0  0  0  0  0  0
  124.9863  135.8495  162.2863 H   0  0  0  0  0  0  0  0  0  0  0  0
  1  2  2  0
  2 28  1  0
  2  3  1  0
  3  4  1  0
  3 29  1  0
  3 30  1  0
  4  5  1  0
  4 31  1  0
  4 32  1  0
  5  6  1  6
  5  7  1  0
  5 27  1  0
  7  8  1  0
  9  7  2  0
  9 10  1  0
  9 16  1  0
 10 11  1  0
 10 33  1  0
 11 15  1  0
 11 12  1  0
 11 34  1  0
 12 13  1  0
 12 35  1  0
 12 36  1  0
 13 14  2  0
 13 37  1  0
 14 15  1  0
 14 38  1  0
 15 39  1  0
 15 40  1  0
 16 17  1  0
 16 41  1  0
 17 26  1  0
 17 18  1  0
 17 42  1  1
 18 19  1  0
 18 43  1  0
 18 44  1  0
 19 25  2  0
 19 20  1  0
 20 21  2  0
 20 45  1  0
 21 22  1  0
 21 46  1  0
 22 23  1  0
 22 24  2  0
 24 25  1  0
 24 47  1  0
 25 26  1  0
 26 48  1  0
 26 49  1  0
 27 28  1  0
 27 50  1  0
 27 51  1  0
 28 52  1  0
M  CHG  1   7   1
M  END
>  <DOCK_score>  (1) 
-46.629253

>  <SMILES>  (1) 
O=C1CC[C@H]([NH+]=C(NC2CC=CC2)NC2Cc3ccc(Br)cc3C2)CN1

$$$$
