O=C1CC[C@H]([NH+]=C(NC[C@@H]2C[C@H]3CC[C@H]3C2)NC2CC=CC2)CN1
     RDKit          3D

 55 58  0  0  1  0  0  0  0  0999 V2000
  123.4779  133.7999  161.2443 O   0  0  0  0  0  0  0  0  0  0  0  0
  124.6668  133.9930  161.1023 C   0  0  0  0  0  0  0  0  0  0  0  0
  125.5020  132.8875  160.5230 C   0  0  0  0  0  0  0  0  0  0  0  0
  126.9815  133.1404  160.8234 C   0  0  0  0  0  0  0  0  0  0  0  0
  127.3129  134.5883  160.4422 C   0  0  2  0  0  0  0  0  0  0  0  0
  126.9928  134.7793  159.4180 H   0  0  0  0  0  0  0  0  0  0  0  0
  128.7570  134.8081  160.5548 N   0  0  0  0  0  0  0  0  0  0  0  0
  129.1370  135.1142  161.3932 H   0  0  0  0  0  0  0  0  0  0  0  0
  129.5311  134.5923  159.5286 C   0  0  0  0  0  0  0  0  0  0  0  0
  130.6869  135.3205  159.3743 N   0  0  0  0  0  0  0  0  0  0  0  0
  131.0484  136.3390  160.3633 C   0  0  0  0  0  0  0  0  0  0  0  0
  131.8999  135.7022  161.4635 C   0  0  2  0  0  0  0  0  0  0  0  0
  131.5094  134.7147  161.7096 H   0  0  0  0  0  0  0  0  0  0  0  0
  131.8907  136.5936  162.7127 C   0  0  0  0  0  0  0  0  0  0  0  0
  133.3507  136.9971  162.9951 C   0  0  1  0  0  0  0  0  0  0  0  0
  133.5768  138.0570  162.8769 H   0  0  0  0  0  0  0  0  0  0  0  0
  133.9207  136.3255  164.2577 C   0  0  0  0  0  0  0  0  0  0  0  0
  134.1629  135.0592  163.3871 C   0  0  0  0  0  0  0  0  0  0  0  0
  134.2275  136.0138  162.1869 C   0  0  1  0  0  0  0  0  0  0  0  0
  135.2234  136.3673  161.9195 H   0  0  0  0  0  0  0  0  0  0  0  0
  133.3577  135.5856  160.9945 C   0  0  0  0  0  0  0  0  0  0  0  0
  129.1917  133.6363  158.6007 N   0  0  0  0  0  0  0  0  0  0  0  0
  130.2399  132.9219  157.8678 C   0  0  0  0  0  0  0  0  0  0  0  0
  129.6433  131.7665  157.0312 C   0  0  0  0  0  0  0  0  0  0  0  0
  130.6632  130.6550  157.1299 C   0  0  0  0  0  0  0  0  0  0  0  0
  131.4946  130.8659  158.1137 C   0  0  0  0  0  0  0  0  0  0  0  0
  131.1679  132.1521  158.8361 C   0  0  0  0  0  0  0  0  0  0  0  0
  126.5751  135.5272  161.3975 C   0  0  0  0  0  0  0  0  0  0  0  0
  125.1623  135.1756  161.4686 N   0  0  0  0  0  0  0  0  0  0  0  0
  125.3532  132.8487  159.4439 H   0  0  0  0  0  0  0  0  0  0  0  0
  125.2001  131.9378  160.9644 H   0  0  0  0  0  0  0  0  0  0  0  0
  127.5969  132.4569  160.2384 H   0  0  0  0  0  0  0  0  0  0  0  0
  127.1714  132.9879  161.8858 H   0  0  0  0  0  0  0  0  0  0  0  0
  131.2651  135.1572  158.6127 H   0  0  0  0  0  0  0  0  0  0  0  0
  131.6168  137.1319  159.8771 H   0  0  0  0  0  0  0  0  0  0  0  0
  130.1425  136.7577  160.8015 H   0  0  0  0  0  0  0  0  0  0  0  0
  131.2886  137.4833  162.5285 H   0  0  0  0  0  0  0  0  0  0  0  0
  131.4866  136.0396  163.5600 H   0  0  0  0  0  0  0  0  0  0  0  0
  134.8447  136.7804  164.6148 H   0  0  0  0  0  0  0  0  0  0  0  0
  133.1838  136.1869  165.0487 H   0  0  0  0  0  0  0  0  0  0  0  0
  133.3128  134.3776  163.3577 H   0  0  0  0  0  0  0  0  0  0  0  0
  135.1058  134.5528  163.5935 H   0  0  0  0  0  0  0  0  0  0  0  0
  133.5814  134.5551  160.7186 H   0  0  0  0  0  0  0  0  0  0  0  0
  133.5322  136.2468  160.1456 H   0  0  0  0  0  0  0  0  0  0  0  0
  128.2580  133.4349  158.4311 H   0  0  0  0  0  0  0  0  0  0  0  0
  130.8106  133.6059  157.2396 H   0  0  0  0  0  0  0  0  0  0  0  0
  128.6903  131.4455  157.4521 H   0  0  0  0  0  0  0  0  0  0  0  0
  129.5163  132.0752  155.9936 H   0  0  0  0  0  0  0  0  0  0  0  0
  130.6995  129.7994  156.4719 H   0  0  0  0  0  0  0  0  0  0  0  0
  132.3094  130.2075  158.3767 H   0  0  0  0  0  0  0  0  0  0  0  0
  132.0771  132.7230  159.0248 H   0  0  0  0  0  0  0  0  0  0  0  0
  130.6498  131.9413  159.7715 H   0  0  0  0  0  0  0  0  0  0  0  0
  127.0161  135.4496  162.3912 H   0  0  0  0  0  0  0  0  0  0  0  0
  126.6736  136.5530  161.0421 H   0  0  0  0  0  0  0  0  0  0  0  0
  124.5439  135.8437  161.8033 H   0  0  0  0  0  0  0  0  0  0  0  0
  1  2  2  0
  2 29  1  0
  2  3  1  0
  3  4  1  0
  3 30  1  0
  3 31  1  0
  4  5  1  0
  4 32  1  0
  4 33  1  0
  5  6  1  6
  5  7  1  0
  5 28  1  0
  7  8  1  0
  9  7  2  0
  9 10  1  0
  9 22  1  0
 10 11  1  0
 10 34  1  0
 11 12  1  0
 11 35  1  0
 11 36  1  0
 12 13  1  1
 12 21  1  0
 12 14  1  0
 14 15  1  0
 14 37  1  0
 14 38  1  0
 15 16  1  1
 15 19  1  0
 15 17  1  0
 17 18  1  0
 17 39  1  0
 17 40  1  0
 18 19  1  0
 18 41  1  0
 18 42  1  0
 19 20  1  6
 19 21  1  0
 21 43  1  0
 21 44  1  0
 22 23  1  0
 22 45  1  0
 23 27  1  0
 23 24  1  0
 23 46  1  0
 24 25  1  0
 24 47  1  0
 24 48  1  0
 25 26  2  0
 25 49  1  0
 26 27  1  0
 26 50  1  0
 27 51  1  0
 27 52  1  0
 28 29  1  0
 28 53  1  0
 28 54  1  0
 29 55  1  0
M  CHG  1   7   1
M  END
>  <DOCK_score>  (1) 
-44.695419

>  <SMILES>  (1) 
O=C1CC[C@H]([NH+]=C(NC[C@@H]2C[C@H]3CC[C@H]3C2)NC2CC=CC2)CN1

$$$$
