CCc1ccc(-c2c[nH]c(Nc3ccc(-c4ccc(C5=CCCC5)cc4)cc3)[nH+]2)cc1
     RDKit          3D

 59 63  0  0  1  0  0  0  0  0999 V2000
  129.9866  128.7970  151.6294 C   0  0  0  0  0  0  0  0  0  0  0  0
  131.1005  129.8277  151.8242 C   0  0  0  0  0  0  0  0  0  0  0  0
  130.9405  130.4928  153.1668 C   0  0  0  0  0  0  0  0  0  0  0  0
  131.5594  129.9545  154.2806 C   0  0  0  0  0  0  0  0  0  0  0  0
  131.4159  130.5591  155.5129 C   0  0  0  0  0  0  0  0  0  0  0  0
  130.6459  131.7146  155.6337 C   0  0  0  0  0  0  0  0  0  0  0  0
  130.4875  132.3687  156.9556 C   0  0  0  0  0  0  0  0  0  0  0  0
  129.9495  131.8051  158.0657 C   0  0  0  0  0  0  0  0  0  0  0  0
  130.0026  132.7516  159.0591 N   0  0  0  0  0  0  0  0  0  0  0  0
  129.6953  132.6435  159.9727 H   0  0  0  0  0  0  0  0  0  0  0  0
  130.5637  133.8705  158.5242 C   0  0  0  0  0  0  0  0  0  0  0  0
  130.7941  135.0588  159.1981 N   0  0  0  0  0  0  0  0  0  0  0  0
  130.4410  135.1781  160.5438 C   0  0  0  0  0  0  0  0  0  0  0  0
  131.4150  135.4633  161.4943 C   0  0  0  0  0  0  0  0  0  0  0  0
  131.0690  135.5811  162.8233 C   0  0  0  0  0  0  0  0  0  0  0  0
  129.7407  135.4142  163.2143 C   0  0  0  0  0  0  0  0  0  0  0  0
  129.3661  135.5403  164.6430 C   0  0  0  0  0  0  0  0  0  0  0  0
  128.2887  134.8120  165.1480 C   0  0  0  0  0  0  0  0  0  0  0  0
  127.9406  134.9279  166.4751 C   0  0  0  0  0  0  0  0  0  0  0  0
  128.6660  135.7752  167.3156 C   0  0  0  0  0  0  0  0  0  0  0  0
  128.2933  135.9001  168.7393 C   0  0  0  0  0  0  0  0  0  0  0  0
  127.7365  134.9386  169.4568 C   0  0  0  0  0  0  0  0  0  0  0  0
  127.4876  135.4014  170.8736 C   0  0  0  0  0  0  0  0  0  0  0  0
  127.5913  136.9425  170.8102 C   0  0  0  0  0  0  0  0  0  0  0  0
  128.4965  137.1437  169.5734 C   0  0  0  0  0  0  0  0  0  0  0  0
  129.7405  136.5086  166.8076 C   0  0  0  0  0  0  0  0  0  0  0  0
  130.0912  136.3869  165.4817 C   0  0  0  0  0  0  0  0  0  0  0  0
  128.7664  135.1228  162.2599 C   0  0  0  0  0  0  0  0  0  0  0  0
  129.1161  135.0117  160.9314 C   0  0  0  0  0  0  0  0  0  0  0  0
  130.8552  133.6364  157.2679 N   0  0  0  0  0  0  0  0  0  0  0  0
  131.2680  134.2685  156.6590 H   0  0  0  0  0  0  0  0  0  0  0  0
  130.0206  132.2498  154.5089 C   0  0  0  0  0  0  0  0  0  0  0  0
  130.1754  131.6396  153.2808 C   0  0  0  0  0  0  0  0  0  0  0  0
  129.0183  129.2955  151.6749 H   0  0  0  0  0  0  0  0  0  0  0  0
  130.1024  128.3159  150.6583 H   0  0  0  0  0  0  0  0  0  0  0  0
  130.0455  128.0453  152.4167 H   0  0  0  0  0  0  0  0  0  0  0  0
  131.0416  130.5793  151.0368 H   0  0  0  0  0  0  0  0  0  0  0  0
  132.0687  129.3291  151.7787 H   0  0  0  0  0  0  0  0  0  0  0  0
  132.1559  129.0591  154.1857 H   0  0  0  0  0  0  0  0  0  0  0  0
  131.8997  130.1380  156.3818 H   0  0  0  0  0  0  0  0  0  0  0  0
  129.5583  130.8021  158.1529 H   0  0  0  0  0  0  0  0  0  0  0  0
  131.2005  135.8081  158.7351 H   0  0  0  0  0  0  0  0  0  0  0  0
  132.4434  135.5926  161.1910 H   0  0  0  0  0  0  0  0  0  0  0  0
  131.8258  135.8028  163.5611 H   0  0  0  0  0  0  0  0  0  0  0  0
  127.7278  134.1568  164.4981 H   0  0  0  0  0  0  0  0  0  0  0  0
  127.1069  134.3635  166.8661 H   0  0  0  0  0  0  0  0  0  0  0  0
  127.4928  133.9559  169.0810 H   0  0  0  0  0  0  0  0  0  0  0  0
  128.2464  134.9973  171.5436 H   0  0  0  0  0  0  0  0  0  0  0  0
  126.4923  135.1013  171.2014 H   0  0  0  0  0  0  0  0  0  0  0  0
  126.6114  137.3938  170.6544 H   0  0  0  0  0  0  0  0  0  0  0  0
  128.0633  137.3394  171.7090 H   0  0  0  0  0  0  0  0  0  0  0  0
  128.1875  138.0285  169.0169 H   0  0  0  0  0  0  0  0  0  0  0  0
  129.5397  137.2325  169.8771 H   0  0  0  0  0  0  0  0  0  0  0  0
  130.2991  137.1678  167.4558 H   0  0  0  0  0  0  0  0  0  0  0  0
  130.9251  136.9505  165.0901 H   0  0  0  0  0  0  0  0  0  0  0  0
  127.7380  134.9887  162.5611 H   0  0  0  0  0  0  0  0  0  0  0  0
  128.3613  134.7901  160.1913 H   0  0  0  0  0  0  0  0  0  0  0  0
  129.4191  133.1424  154.5977 H   0  0  0  0  0  0  0  0  0  0  0  0
  129.6947  132.0558  152.4079 H   0  0  0  0  0  0  0  0  0  0  0  0
  1  2  1  0
  1 34  1  0
  1 35  1  0
  1 36  1  0
  2  3  1  0
  2 37  1  0
  2 38  1  0
  3 33  2  0
  3  4  1  0
  4  5  2  0
  4 39  1  0
  5  6  1  0
  5 40  1  0
  6  7  1  0
  6 32  2  0
  7 30  1  0
  7  8  2  0
  8  9  1  0
  8 41  1  0
  9 10  1  0
  9 11  1  0
 11 12  1  0
 11 30  2  0
 12 13  1  0
 12 42  1  0
 13 29  1  0
 13 14  2  0
 14 15  1  0
 14 43  1  0
 15 16  2  0
 15 44  1  0
 16 17  1  0
 16 28  1  0
 17 27  1  0
 17 18  2  0
 18 19  1  0
 18 45  1  0
 19 20  2  0
 19 46  1  0
 20 21  1  0
 20 26  1  0
 21 25  1  0
 21 22  2  0
 22 23  1  0
 22 47  1  0
 23 24  1  0
 23 48  1  0
 23 49  1  0
 24 25  1  0
 24 50  1  0
 24 51  1  0
 25 52  1  0
 25 53  1  0
 26 27  2  0
 26 54  1  0
 27 55  1  0
 28 29  2  0
 28 56  1  0
 29 57  1  0
 30 31  1  0
 32 33  1  0
 32 58  1  0
 33 59  1  0
M  CHG  1  30   1
M  END
>  <DOCK_score>  (1) 
-57.328888

>  <SMILES>  (1) 
CCc1ccc(-c2c[nH]c(Nc3ccc(-c4ccc(C5=CCCC5)cc4)cc3)[nH+]2)cc1

$$$$
