Cc1cc(C)cc(-c2cccc(C[NH2+]C[C@@H]3CCC=C3c3cncc(-c4ccccc4)c3)c2C)c1
     RDKit          3D

 70 74  0  0  1  0  0  0  0  0999 V2000
  130.4207  132.1106  153.9184 C   0  0  0  0  0  0  0  0  0  0  0  0
  130.4606  132.0072  155.4214 C   0  0  0  0  0  0  0  0  0  0  0  0
  131.0244  130.8960  156.0220 C   0  0  0  0  0  0  0  0  0  0  0  0
  131.0636  130.7941  157.4010 C   0  0  0  0  0  0  0  0  0  0  0  0
  131.6786  129.5800  158.0482 C   0  0  0  0  0  0  0  0  0  0  0  0
  130.5399  131.8021  158.1852 C   0  0  0  0  0  0  0  0  0  0  0  0
  129.9713  132.9238  157.5853 C   0  0  0  0  0  0  0  0  0  0  0  0
  129.4068  134.0107  158.4232 C   0  0  0  0  0  0  0  0  0  0  0  0
  128.0604  134.3523  158.3116 C   0  0  0  0  0  0  0  0  0  0  0  0
  127.5409  135.3641  159.0929 C   0  0  0  0  0  0  0  0  0  0  0  0
  128.3529  136.0354  159.9896 C   0  0  0  0  0  0  0  0  0  0  0  0
  129.6909  135.7041  160.1007 C   0  0  0  0  0  0  0  0  0  0  0  0
  130.5704  136.4434  161.0759 C   0  0  0  0  0  0  0  0  0  0  0  0
  131.1669  137.6094  160.4107 N   0  0  0  0  0  0  0  0  0  0  0  0
  130.4345  138.2230  160.0864 H   0  0  0  0  0  0  0  0  0  0  0  0
  131.7203  137.3017  159.6250 H   0  0  0  0  0  0  0  0  0  0  0  0
  132.0243  138.3300  161.3613 C   0  0  0  0  0  0  0  0  0  0  0  0
  132.6456  139.5443  160.6684 C   0  0  2  0  0  0  0  0  0  0  0  0
  131.9145  140.0246  160.0182 H   0  0  0  0  0  0  0  0  0  0  0  0
  133.8934  139.1223  159.8593 C   0  0  0  0  0  0  0  0  0  0  0  0
  134.8226  140.3413  160.0609 C   0  0  0  0  0  0  0  0  0  0  0  0
  134.3617  140.9704  161.3552 C   0  0  0  0  0  0  0  0  0  0  0  0
  133.1637  140.5266  161.6932 C   0  0  0  0  0  0  0  0  0  0  0  0
  132.4272  140.9402  162.9064 C   0  0  0  0  0  0  0  0  0  0  0  0
  133.1168  141.3069  164.0634 C   0  0  0  0  0  0  0  0  0  0  0  0
  132.4671  141.6760  165.1482 N   0  0  0  0  0  0  0  0  0  0  0  0
  131.1507  141.7169  165.1940 C   0  0  0  0  0  0  0  0  0  0  0  0
  130.3845  141.3667  164.0837 C   0  0  0  0  0  0  0  0  0  0  0  0
  128.9023  141.4102  164.1483 C   0  0  0  0  0  0  0  0  0  0  0  0
  128.1429  140.5393  163.3697 C   0  0  0  0  0  0  0  0  0  0  0  0
  126.7648  140.5800  163.4379 C   0  0  0  0  0  0  0  0  0  0  0  0
  126.1377  141.4915  164.2687 C   0  0  0  0  0  0  0  0  0  0  0  0
  126.8868  142.3615  165.0395 C   0  0  0  0  0  0  0  0  0  0  0  0
  128.2654  142.3257  164.9833 C   0  0  0  0  0  0  0  0  0  0  0  0
  131.0302  140.9693  162.9125 C   0  0  0  0  0  0  0  0  0  0  0  0
  130.2212  134.6936  159.3240 C   0  0  0  0  0  0  0  0  0  0  0  0
  131.6782  134.3300  159.4499 C   0  0  0  0  0  0  0  0  0  0  0  0
  129.9293  133.0185  156.1958 C   0  0  0  0  0  0  0  0  0  0  0  0
  129.4964  131.6671  153.5481 H   0  0  0  0  0  0  0  0  0  0  0  0
  130.4633  133.1596  153.6252 H   0  0  0  0  0  0  0  0  0  0  0  0
  131.2734  131.5800  153.4950 H   0  0  0  0  0  0  0  0  0  0  0  0
  131.4352  130.1049  155.4122 H   0  0  0  0  0  0  0  0  0  0  0  0
  130.9120  128.8192  158.1954 H   0  0  0  0  0  0  0  0  0  0  0  0
  132.4646  129.1844  157.4051 H   0  0  0  0  0  0  0  0  0  0  0  0
  132.1038  129.8585  159.0125 H   0  0  0  0  0  0  0  0  0  0  0  0
  130.5707  131.7213  159.2617 H   0  0  0  0  0  0  0  0  0  0  0  0
  127.4246  133.8259  157.6151 H   0  0  0  0  0  0  0  0  0  0  0  0
  126.4974  135.6295  159.0074 H   0  0  0  0  0  0  0  0  0  0  0  0
  127.9412  136.8240  160.6021 H   0  0  0  0  0  0  0  0  0  0  0  0
  131.3617  135.7806  161.4262 H   0  0  0  0  0  0  0  0  0  0  0  0
  129.9725  136.7757  161.9245 H   0  0  0  0  0  0  0  0  0  0  0  0
  132.8156  137.6672  161.7115 H   0  0  0  0  0  0  0  0  0  0  0  0
  131.4264  138.6624  162.2099 H   0  0  0  0  0  0  0  0  0  0  0  0
  134.3400  138.2182  160.2734 H   0  0  0  0  0  0  0  0  0  0  0  0
  133.6486  138.9871  158.8058 H   0  0  0  0  0  0  0  0  0  0  0  0
  135.8605  140.0180  160.1413 H   0  0  0  0  0  0  0  0  0  0  0  0
  134.7066  141.0467  159.2381 H   0  0  0  0  0  0  0  0  0  0  0  0
  134.9352  141.6842  161.9281 H   0  0  0  0  0  0  0  0  0  0  0  0
  134.1967  141.2872  164.0694 H   0  0  0  0  0  0  0  0  0  0  0  0
  130.6590  142.0257  166.1046 H   0  0  0  0  0  0  0  0  0  0  0  0
  128.6315  139.8307  162.7174 H   0  0  0  0  0  0  0  0  0  0  0  0
  126.1752  139.9027  162.8380 H   0  0  0  0  0  0  0  0  0  0  0  0
  125.0592  141.5233  164.3157 H   0  0  0  0  0  0  0  0  0  0  0  0
  126.3921  143.0708  165.6864 H   0  0  0  0  0  0  0  0  0  0  0  0
  128.8493  143.0057  165.5859 H   0  0  0  0  0  0  0  0  0  0  0  0
  130.4657  140.6911  162.0348 H   0  0  0  0  0  0  0  0  0  0  0  0
  131.7858  133.4952  160.1424 H   0  0  0  0  0  0  0  0  0  0  0  0
  132.0671  134.0441  158.4726 H   0  0  0  0  0  0  0  0  0  0  0  0
  132.2355  135.1880  159.8259 H   0  0  0  0  0  0  0  0  0  0  0  0
  129.4857  133.8838  155.7257 H   0  0  0  0  0  0  0  0  0  0  0  0
  1  2  1  0
  1 39  1  0
  1 40  1  0
  1 41  1  0
  2 38  2  0
  2  3  1  0
  3  4  2  0
  3 42  1  0
  4  5  1  0
  4  6  1  0
  5 43  1  0
  5 44  1  0
  5 45  1  0
  6  7  2  0
  6 46  1  0
  7  8  1  0
  7 38  1  0
  8 36  1  0
  8  9  2  0
  9 10  1  0
  9 47  1  0
 10 11  2  0
 10 48  1  0
 11 12  1  0
 11 49  1  0
 12 13  1  0
 12 36  2  0
 13 14  1  0
 13 50  1  0
 13 51  1  0
 14 15  1  0
 14 16  1  0
 14 17  1  0
 17 18  1  0
 17 52  1  0
 17 53  1  0
 18 19  1  6
 18 23  1  0
 18 20  1  0
 20 21  1  0
 20 54  1  0
 20 55  1  0
 21 22  1  0
 21 56  1  0
 21 57  1  0
 22 23  2  0
 22 58  1  0
 23 24  1  0
 24 35  1  0
 24 25  2  0
 25 26  1  0
 25 59  1  0
 26 27  2  0
 27 28  1  0
 27 60  1  0
 28 29  1  0
 28 35  2  0
 29 34  1  0
 29 30  2  0
 30 31  1  0
 30 61  1  0
 31 32  2  0
 31 62  1  0
 32 33  1  0
 32 63  1  0
 33 34  2  0
 33 64  1  0
 34 65  1  0
 35 66  1  0
 36 37  1  0
 37 67  1  0
 37 68  1  0
 37 69  1  0
 38 70  1  0
M  CHG  1  14   1
M  END
>  <DOCK_score>  (1) 
-57.933422

>  <SMILES>  (1) 
Cc1cc(C)cc(-c2cccc(C[NH2+]C[C@@H]3CCC=C3c3cncc(-c4ccccc4)c3)c2C)c1

$$$$
