CC(C)=Cn1cc([C@H](Nc2[nH]cc(-c3ccc(N)cc3)[nH+]2)c2ccccc2)nn1
     RDKit          3D

 53 56  0  0  1  0  0  0  0  0999 V2000
  131.2984  140.1435  162.9235 C   0  0  0  0  0  0  0  0  0  0  0  0
  129.8296  140.4053  163.1351 C   0  0  0  0  0  0  0  0  0  0  0  0
  129.3863  141.5021  164.0686 C   0  0  0  0  0  0  0  0  0  0  0  0
  128.9323  139.6748  162.5033 C   0  0  0  0  0  0  0  0  0  0  0  0
  129.3428  138.6587  161.6385 N   0  0  0  0  0  0  0  0  0  0  0  0
  128.6741  137.5049  161.3565 C   0  0  0  0  0  0  0  0  0  0  0  0
  129.4349  136.8185  160.4775 C   0  0  0  0  0  0  0  0  0  0  0  0
  129.0924  135.4754  159.8861 C   0  0  2  0  0  0  0  0  0  0  0  0
  128.9871  134.7423  160.6859 H   0  0  0  0  0  0  0  0  0  0  0  0
  130.1611  135.0555  158.9763 N   0  0  0  0  0  0  0  0  0  0  0  0
  130.0679  133.8452  158.3106 C   0  0  0  0  0  0  0  0  0  0  0  0
  129.4240  132.7370  158.7676 N   0  0  0  0  0  0  0  0  0  0  0  0
  128.9524  132.6532  159.6111 H   0  0  0  0  0  0  0  0  0  0  0  0
  129.5658  131.7578  157.8130 C   0  0  0  0  0  0  0  0  0  0  0  0
  130.2914  132.2964  156.8022 C   0  0  0  0  0  0  0  0  0  0  0  0
  130.6928  131.6064  155.5517 C   0  0  0  0  0  0  0  0  0  0  0  0
  130.2767  132.1014  154.3168 C   0  0  0  0  0  0  0  0  0  0  0  0
  130.6558  131.4618  153.1555 C   0  0  0  0  0  0  0  0  0  0  0  0
  131.4425  130.3176  153.2162 C   0  0  0  0  0  0  0  0  0  0  0  0
  131.8206  129.6674  152.0390 N   0  0  0  0  0  0  0  0  0  0  0  0
  131.8539  129.8191  154.4465 C   0  0  0  0  0  0  0  0  0  0  0  0
  131.4820  130.4586  155.6101 C   0  0  0  0  0  0  0  0  0  0  0  0
  130.5804  133.5797  157.1338 N   0  0  0  0  0  0  0  0  0  0  0  0
  131.0873  134.2010  156.5880 H   0  0  0  0  0  0  0  0  0  0  0  0
  127.7959  135.5777  159.1247 C   0  0  0  0  0  0  0  0  0  0  0  0
  126.5956  135.3421  159.7688 C   0  0  0  0  0  0  0  0  0  0  0  0
  125.4064  135.4368  159.0707 C   0  0  0  0  0  0  0  0  0  0  0  0
  125.4172  135.7675  157.7286 C   0  0  0  0  0  0  0  0  0  0  0  0
  126.6173  136.0035  157.0845 C   0  0  0  0  0  0  0  0  0  0  0  0
  127.8068  135.9075  157.7824 C   0  0  0  0  0  0  0  0  0  0  0  0
  130.5356  137.5232  160.2126 N   0  0  0  0  0  0  0  0  0  0  0  0
  130.5232  138.6241  160.8805 N   0  0  0  0  0  0  0  0  0  0  0  0
  131.5436  140.2783  161.8701 H   0  0  0  0  0  0  0  0  0  0  0  0
  131.8820  140.8411  163.5245 H   0  0  0  0  0  0  0  0  0  0  0  0
  131.5324  139.1219  163.2233 H   0  0  0  0  0  0  0  0  0  0  0  0
  129.2729  141.0990  165.0750 H   0  0  0  0  0  0  0  0  0  0  0  0
  130.1333  142.2958  164.0772 H   0  0  0  0  0  0  0  0  0  0  0  0
  128.4321  141.9049  163.7289 H   0  0  0  0  0  0  0  0  0  0  0  0
  127.8795  139.8624  162.6549 H   0  0  0  0  0  0  0  0  0  0  0  0
  127.7208  137.1977  161.7606 H   0  0  0  0  0  0  0  0  0  0  0  0
  130.9342  135.6255  158.8405 H   0  0  0  0  0  0  0  0  0  0  0  0
  129.1743  130.7523  157.8594 H   0  0  0  0  0  0  0  0  0  0  0  0
  129.6612  132.9876  154.2694 H   0  0  0  0  0  0  0  0  0  0  0  0
  130.3370  131.8472  152.1982 H   0  0  0  0  0  0  0  0  0  0  0  0
  132.3704  128.8698  152.0800 H   0  0  0  0  0  0  0  0  0  0  0  0
  131.5344  130.0155  151.1796 H   0  0  0  0  0  0  0  0  0  0  0  0
  132.4650  128.9297  154.4914 H   0  0  0  0  0  0  0  0  0  0  0  0
  131.8021  130.0710  156.5660 H   0  0  0  0  0  0  0  0  0  0  0  0
  126.5871  135.0845  160.8177 H   0  0  0  0  0  0  0  0  0  0  0  0
  124.4686  135.2528  159.5739 H   0  0  0  0  0  0  0  0  0  0  0  0
  124.4883  135.8372  157.1819 H   0  0  0  0  0  0  0  0  0  0  0  0
  126.6260  136.2616  156.0359 H   0  0  0  0  0  0  0  0  0  0  0  0
  128.7444  136.0918  157.2792 H   0  0  0  0  0  0  0  0  0  0  0  0
  1  2  1  0
  1 33  1  0
  1 34  1  0
  1 35  1  0
  2  3  1  0
  2  4  2  0
  3 36  1  0
  3 37  1  0
  3 38  1  0
  4  5  1  0
  4 39  1  0
  5 32  1  0
  5  6  1  0
  6  7  2  0
  6 40  1  0
  7  8  1  0
  7 31  1  0
  8  9  1  1
  8 10  1  0
  8 25  1  0
 10 41  1  0
 11 10  1  0
 11 23  2  0
 11 12  1  0
 12 13  1  0
 12 14  1  0
 14 15  2  0
 14 42  1  0
 15 16  1  0
 15 23  1  0
 16 22  1  0
 16 17  2  0
 17 18  1  0
 17 43  1  0
 18 19  2  0
 18 44  1  0
 19 20  1  0
 19 21  1  0
 20 45  1  0
 20 46  1  0
 21 22  2  0
 21 47  1  0
 22 48  1  0
 23 24  1  0
 25 30  1  0
 25 26  2  0
 26 27  1  0
 26 49  1  0
 27 28  2  0
 27 50  1  0
 28 29  1  0
 28 51  1  0
 29 30  2  0
 29 52  1  0
 30 53  1  0
 31 32  2  0
M  CHG  1  23   1
M  END
>  <DOCK_score>  (1) 
-60.228996

>  <SMILES>  (1) 
CC(C)=Cn1cc([C@H](Nc2[nH]cc(-c3ccc(N)cc3)[nH+]2)c2ccccc2)nn1

$$$$
