Nc1ccc(-c2c[nH]c(N[C@@H](Cc3ccc(Cl)cc3)c3ccccc3)[nH+]2)cc1
     RDKit          3D

 50 53  0  0  1  0  0  0  0  0999 V2000
  131.7744  129.9157  152.1533 N   0  0  0  0  0  0  0  0  0  0  0  0
  131.4585  130.5365  153.3643 C   0  0  0  0  0  0  0  0  0  0  0  0
  130.9603  131.8340  153.3696 C   0  0  0  0  0  0  0  0  0  0  0  0
  130.6479  132.4487  154.5637 C   0  0  0  0  0  0  0  0  0  0  0  0
  130.8320  131.7678  155.7661 C   0  0  0  0  0  0  0  0  0  0  0  0
  130.4965  132.4272  157.0521 C   0  0  0  0  0  0  0  0  0  0  0  0
  130.0696  131.8065  158.1794 C   0  0  0  0  0  0  0  0  0  0  0  0
  129.8783  132.7856  159.1254 N   0  0  0  0  0  0  0  0  0  0  0  0
  129.5745  132.6524  160.0370 H   0  0  0  0  0  0  0  0  0  0  0  0
  130.1945  133.9759  158.5470 C   0  0  0  0  0  0  0  0  0  0  0  0
  130.1363  135.2134  159.1648 N   0  0  0  0  0  0  0  0  0  0  0  0
  129.7045  135.3156  160.5610 C   0  0  1  0  0  0  0  0  0  0  0  0
  130.1278  134.4901  161.1335 H   0  0  0  0  0  0  0  0  0  0  0  0
  130.1865  136.6436  161.1482 C   0  0  0  0  0  0  0  0  0  0  0  0
  131.6375  136.5237  161.5373 C   0  0  0  0  0  0  0  0  0  0  0  0
  131.9792  136.0968  162.8069 C   0  0  0  0  0  0  0  0  0  0  0  0
  133.3098  135.9916  163.1661 C   0  0  0  0  0  0  0  0  0  0  0  0
  134.2997  136.3031  162.2511 C   0  0  0  0  0  0  0  0  0  0  0  0
  135.9711  136.1643  162.6992 Cl  0  0  0  0  0  0  0  0  0  0  0  0
  133.9570  136.7247  160.9788 C   0  0  0  0  0  0  0  0  0  0  0  0
  132.6261  136.8345  160.6225 C   0  0  0  0  0  0  0  0  0  0  0  0
  128.2002  135.2534  160.6274 C   0  0  0  0  0  0  0  0  0  0  0  0
  127.5791  134.7158  161.7393 C   0  0  0  0  0  0  0  0  0  0  0  0
  126.1992  134.6624  161.8020 C   0  0  0  0  0  0  0  0  0  0  0  0
  125.4406  135.1391  160.7493 C   0  0  0  0  0  0  0  0  0  0  0  0
  126.0618  135.6720  159.6352 C   0  0  0  0  0  0  0  0  0  0  0  0
  127.4416  135.7289  159.5742 C   0  0  0  0  0  0  0  0  0  0  0  0
  130.5580  133.7582  157.3065 N   0  0  0  0  0  0  0  0  0  0  0  0
  130.8298  134.4400  156.6723 H   0  0  0  0  0  0  0  0  0  0  0  0
  131.3370  130.4685  155.7586 C   0  0  0  0  0  0  0  0  0  0  0  0
  131.6422  129.8554  154.5618 C   0  0  0  0  0  0  0  0  0  0  0  0
  131.6458  130.3900  151.3171 H   0  0  0  0  0  0  0  0  0  0  0  0
  132.1217  129.0099  152.1488 H   0  0  0  0  0  0  0  0  0  0  0  0
  130.8182  132.3611  152.4378 H   0  0  0  0  0  0  0  0  0  0  0  0
  130.2607  133.4569  154.5674 H   0  0  0  0  0  0  0  0  0  0  0  0
  129.9100  130.7463  158.3092 H   0  0  0  0  0  0  0  0  0  0  0  0
  130.3814  136.0129  158.6732 H   0  0  0  0  0  0  0  0  0  0  0  0
  129.5931  136.8881  162.0291 H   0  0  0  0  0  0  0  0  0  0  0  0
  130.0739  137.4319  160.4040 H   0  0  0  0  0  0  0  0  0  0  0  0
  131.2065  135.8494  163.5197 H   0  0  0  0  0  0  0  0  0  0  0  0
  133.5767  135.6620  164.1594 H   0  0  0  0  0  0  0  0  0  0  0  0
  134.7294  136.9677  160.2640 H   0  0  0  0  0  0  0  0  0  0  0  0
  132.3585  137.1638  159.6293 H   0  0  0  0  0  0  0  0  0  0  0  0
  128.1718  134.3403  162.5603 H   0  0  0  0  0  0  0  0  0  0  0  0
  125.7139  134.2458  162.6721 H   0  0  0  0  0  0  0  0  0  0  0  0
  124.3625  135.0949  160.7971 H   0  0  0  0  0  0  0  0  0  0  0  0
  125.4692  136.0442  158.8126 H   0  0  0  0  0  0  0  0  0  0  0  0
  127.9270  136.1451  158.7038 H   0  0  0  0  0  0  0  0  0  0  0  0
  131.4844  129.9407  156.6892 H   0  0  0  0  0  0  0  0  0  0  0  0
  132.0293  128.8471  154.5554 H   0  0  0  0  0  0  0  0  0  0  0  0
  1  2  1  0
  1 32  1  0
  1 33  1  0
  2 31  2  0
  2  3  1  0
  3  4  2  0
  3 34  1  0
  4  5  1  0
  4 35  1  0
  5  6  1  0
  5 30  2  0
  6 28  1  0
  6  7  2  0
  7  8  1  0
  7 36  1  0
  8  9  1  0
  8 10  1  0
 10 11  1  0
 10 28  2  0
 11 12  1  0
 11 37  1  0
 12 13  1  1
 12 14  1  0
 12 22  1  0
 14 15  1  0
 14 38  1  0
 14 39  1  0
 15 21  1  0
 15 16  2  0
 16 17  1  0
 16 40  1  0
 17 18  2  0
 17 41  1  0
 18 19  1  0
 18 20  1  0
 20 21  2  0
 20 42  1  0
 21 43  1  0
 22 27  1  0
 22 23  2  0
 23 24  1  0
 23 44  1  0
 24 25  2  0
 24 45  1  0
 25 26  1  0
 25 46  1  0
 26 27  2  0
 26 47  1  0
 27 48  1  0
 28 29  1  0
 30 31  1  0
 30 49  1  0
 31 50  1  0
M  CHG  1  28   1
M  END
>  <DOCK_score>  (1) 
-57.260399

>  <SMILES>  (1) 
Nc1ccc(-c2c[nH]c(N[C@@H](Cc3ccc(Cl)cc3)c3ccccc3)[nH+]2)cc1

$$$$
