O=C1CC[C@H](NC(NC2CC2)=[NH+]C2CC(F)(F)C2)CN1
     RDKit          3D

 41 43  0  0  1  0  0  0  0  0999 V2000
  123.6664  133.6827  161.6182 O   0  0  0  0  0  0  0  0  0  0  0  0
  124.8295  133.9310  161.3812 C   0  0  0  0  0  0  0  0  0  0  0  0
  125.7139  132.8119  160.9116 C   0  0  0  0  0  0  0  0  0  0  0  0
  127.1838  133.2010  161.0867 C   0  0  0  0  0  0  0  0  0  0  0  0
  127.3896  134.5991  160.4913 C   0  0  2  0  0  0  0  0  0  0  0  0
  127.0061  134.6248  159.4713 H   0  0  0  0  0  0  0  0  0  0  0  0
  128.8176  134.9264  160.4877 N   0  0  0  0  0  0  0  0  0  0  0  0
  129.5946  134.6021  159.4008 C   0  0  0  0  0  0  0  0  0  0  0  0
  129.0315  133.9705  158.3172 N   0  0  0  0  0  0  0  0  0  0  0  0
  129.8593  133.6249  157.1591 C   0  0  0  0  0  0  0  0  0  0  0  0
  130.6964  132.3471  157.2453 C   0  0  0  0  0  0  0  0  0  0  0  0
  129.4582  132.3922  156.3465 C   0  0  0  0  0  0  0  0  0  0  0  0
  130.8651  134.8932  159.3978 N   0  0  0  0  0  0  0  0  0  0  0  0
  131.4133  134.6643  158.6309 H   0  0  0  0  0  0  0  0  0  0  0  0
  131.4651  135.5660  160.5525 C   0  0  0  0  0  0  0  0  0  0  0  0
  131.2685  137.0911  160.5476 C   0  0  0  0  0  0  0  0  0  0  0  0
  132.7142  137.2003  161.0600 C   0  0  0  0  0  0  0  0  0  0  0  0
  132.8183  137.1696  162.4548 F   0  0  0  0  0  0  0  0  0  0  0  0
  133.4368  138.2510  160.4844 F   0  0  0  0  0  0  0  0  0  0  0  0
  132.9702  135.8386  160.3930 C   0  0  0  0  0  0  0  0  0  0  0  0
  126.6328  135.6132  161.3498 C   0  0  0  0  0  0  0  0  0  0  0  0
  125.2548  135.1835  161.5513 N   0  0  0  0  0  0  0  0  0  0  0  0
  125.5047  131.9156  161.4955 H   0  0  0  0  0  0  0  0  0  0  0  0
  125.5155  132.6110  159.8587 H   0  0  0  0  0  0  0  0  0  0  0  0
  127.8180  132.4834  160.5662 H   0  0  0  0  0  0  0  0  0  0  0  0
  127.4361  133.2130  162.1471 H   0  0  0  0  0  0  0  0  0  0  0  0
  129.2149  135.3721  161.2522 H   0  0  0  0  0  0  0  0  0  0  0  0
  128.0860  133.7536  158.3196 H   0  0  0  0  0  0  0  0  0  0  0  0
  130.2843  134.4692  156.6161 H   0  0  0  0  0  0  0  0  0  0  0  0
  131.6720  132.3507  156.7589 H   0  0  0  0  0  0  0  0  0  0  0  0
  130.6309  131.7633  158.1634 H   0  0  0  0  0  0  0  0  0  0  0  0
  128.5782  131.8381  156.6738 H   0  0  0  0  0  0  0  0  0  0  0  0
  129.6189  132.4255  155.2690 H   0  0  0  0  0  0  0  0  0  0  0  0
  131.2049  135.0938  161.4999 H   0  0  0  0  0  0  0  0  0  0  0  0
  131.1254  137.5098  159.5514 H   0  0  0  0  0  0  0  0  0  0  0  0
  130.5238  137.4376  161.2643 H   0  0  0  0  0  0  0  0  0  0  0  0
  133.5995  135.1739  160.9848 H   0  0  0  0  0  0  0  0  0  0  0  0
  133.2927  135.9134  159.3545 H   0  0  0  0  0  0  0  0  0  0  0  0
  127.1264  135.7058  162.3172 H   0  0  0  0  0  0  0  0  0  0  0  0
  126.6387  136.5826  160.8515 H   0  0  0  0  0  0  0  0  0  0  0  0
  124.6063  135.8503  161.8266 H   0  0  0  0  0  0  0  0  0  0  0  0
  1  2  2  0
  2 22  1  0
  2  3  1  0
  3  4  1  0
  3 23  1  0
  3 24  1  0
  4  5  1  0
  4 25  1  0
  4 26  1  0
  5  6  1  6
  5  7  1  0
  5 21  1  0
  7 27  1  0
  8  7  1  0
  8  9  1  0
  8 13  2  0
  9 10  1  0
  9 28  1  0
 10 12  1  0
 10 11  1  0
 10 29  1  0
 11 12  1  0
 11 30  1  0
 11 31  1  0
 12 32  1  0
 12 33  1  0
 13 14  1  0
 13 15  1  0
 15 20  1  0
 15 16  1  0
 15 34  1  0
 16 17  1  0
 16 35  1  0
 16 36  1  0
 17 18  1  0
 17 19  1  0
 17 20  1  0
 20 37  1  0
 20 38  1  0
 21 22  1  0
 21 39  1  0
 21 40  1  0
 22 41  1  0
M  CHG  1  13   1
M  END
>  <DOCK_score>  (1) 
-41.578594

>  <SMILES>  (1) 
O=C1CC[C@H](NC(NC2CC2)=[NH+]C2CC(F)(F)C2)CN1

$$$$
