Cc1ccc(OCCc2cccc3[nH]c(CN[C@H]4CC[NH+]5CCCCC45)cc23)cc1
     RDKit          3D

 64 68  0  0  1  0  0  0  0  0999 V2000
  137.2809  135.3756  168.2435 C   0  0  0  0  0  0  0  0  0  0  0  0
  137.0190  136.5803  167.3770 C   0  0  0  0  0  0  0  0  0  0  0  0
  137.4453  136.5903  166.0617 C   0  0  0  0  0  0  0  0  0  0  0  0
  137.2063  137.6935  165.2652 C   0  0  0  0  0  0  0  0  0  0  0  0
  136.5381  138.7920  165.7863 C   0  0  0  0  0  0  0  0  0  0  0  0
  136.3017  139.8784  165.0048 O   0  0  0  0  0  0  0  0  0  0  0  0
  136.1360  139.6465  163.6045 C   0  0  0  0  0  0  0  0  0  0  0  0
  135.1972  140.7040  163.0201 C   0  0  0  0  0  0  0  0  0  0  0  0
  135.0224  140.4595  161.5434 C   0  0  0  0  0  0  0  0  0  0  0  0
  135.8662  141.0510  160.6458 C   0  0  0  0  0  0  0  0  0  0  0  0
  135.7160  140.8279  159.2841 C   0  0  0  0  0  0  0  0  0  0  0  0
  134.7084  140.0150  158.8122 C   0  0  0  0  0  0  0  0  0  0  0  0
  133.8348  139.4070  159.7076 C   0  0  0  0  0  0  0  0  0  0  0  0
  132.7570  138.5637  159.5560 N   0  0  0  0  0  0  0  0  0  0  0  0
  132.4182  138.2395  158.7068 H   0  0  0  0  0  0  0  0  0  0  0  0
  132.2347  138.2514  160.7815 C   0  0  0  0  0  0  0  0  0  0  0  0
  131.0481  137.3516  161.0124 C   0  0  0  0  0  0  0  0  0  0  0  0
  131.1761  136.1486  160.1790 N   0  0  0  0  0  0  0  0  0  0  0  0
  129.8751  135.4902  160.0016 C   0  0  1  0  0  0  0  0  0  0  0  0
  129.3079  135.5103  160.9321 H   0  0  0  0  0  0  0  0  0  0  0  0
  129.0748  136.1675  158.8595 C   0  0  0  0  0  0  0  0  0  0  0  0
  128.9248  135.0702  157.7719 C   0  0  0  0  0  0  0  0  0  0  0  0
  130.0566  134.1680  158.0372 N   0  0  2  0  0  0  0  0  0  0  0  0
  130.9153  134.5945  157.7232 H   0  0  0  0  0  0  0  0  0  0  0  0
  129.9288  132.8287  157.4783 C   0  0  0  0  0  0  0  0  0  0  0  0
  131.2122  132.0549  157.8159 C   0  0  0  0  0  0  0  0  0  0  0  0
  131.4355  132.0079  159.3270 C   0  0  0  0  0  0  0  0  0  0  0  0
  131.3863  133.4194  159.9349 C   0  0  0  0  0  0  0  0  0  0  0  0
  130.0646  134.0485  159.5197 C   0  0  1  0  0  0  0  0  0  0  0  0
  132.9362  138.8647  161.7478 C   0  0  0  0  0  0  0  0  0  0  0  0
  133.9944  139.6326  161.0871 C   0  0  0  0  0  0  0  0  0  0  0  0
  136.1163  138.7817  167.1079 C   0  0  0  0  0  0  0  0  0  0  0  0
  136.3522  137.6737  167.8984 C   0  0  0  0  0  0  0  0  0  0  0  0
  138.2411  135.4914  168.7462 H   0  0  0  0  0  0  0  0  0  0  0  0
  136.4898  135.2842  168.9878 H   0  0  0  0  0  0  0  0  0  0  0  0
  137.3014  134.4794  167.6233 H   0  0  0  0  0  0  0  0  0  0  0  0
  137.9658  135.7350  165.6567 H   0  0  0  0  0  0  0  0  0  0  0  0
  137.5392  137.7007  164.2379 H   0  0  0  0  0  0  0  0  0  0  0  0
  135.7094  138.6558  163.4482 H   0  0  0  0  0  0  0  0  0  0  0  0
  137.1050  139.7073  163.1089 H   0  0  0  0  0  0  0  0  0  0  0  0
  134.2282  140.6433  163.5157 H   0  0  0  0  0  0  0  0  0  0  0  0
  135.6238  141.6948  163.1764 H   0  0  0  0  0  0  0  0  0  0  0  0
  136.6584  141.6945  160.9989 H   0  0  0  0  0  0  0  0  0  0  0  0
  136.3933  141.2990  158.5873 H   0  0  0  0  0  0  0  0  0  0  0  0
  134.5972  139.8508  157.7506 H   0  0  0  0  0  0  0  0  0  0  0  0
  131.0096  137.0634  162.0628 H   0  0  0  0  0  0  0  0  0  0  0  0
  130.1332  137.8816  160.7473 H   0  0  0  0  0  0  0  0  0  0  0  0
  131.5944  136.3692  159.2877 H   0  0  0  0  0  0  0  0  0  0  0  0
  128.0948  136.4822  159.2181 H   0  0  0  0  0  0  0  0  0  0  0  0
  129.6265  137.0203  158.4639 H   0  0  0  0  0  0  0  0  0  0  0  0
  129.0050  135.5040  156.7751 H   0  0  0  0  0  0  0  0  0  0  0  0
  127.9780  134.5425  157.8869 H   0  0  0  0  0  0  0  0  0  0  0  0
  129.0679  132.3257  157.9185 H   0  0  0  0  0  0  0  0  0  0  0  0
  129.8073  132.8900  156.3969 H   0  0  0  0  0  0  0  0  0  0  0  0
  131.1287  131.0375  157.4338 H   0  0  0  0  0  0  0  0  0  0  0  0
  132.0624  132.5463  157.3427 H   0  0  0  0  0  0  0  0  0  0  0  0
  130.6564  131.3999  159.7867 H   0  0  0  0  0  0  0  0  0  0  0  0
  132.4082  131.5614  159.5329 H   0  0  0  0  0  0  0  0  0  0  0  0
  132.2157  134.0113  159.5479 H   0  0  0  0  0  0  0  0  0  0  0  0
  131.4449  133.3643  161.0219 H   0  0  0  0  0  0  0  0  0  0  0  0
  129.2323  133.4281  159.8524 H   0  0  0  0  0  0  0  0  0  0  0  0
  132.7546  138.8039  162.8106 H   0  0  0  0  0  0  0  0  0  0  0  0
  135.5998  139.6375  167.5171 H   0  0  0  0  0  0  0  0  0  0  0  0
  136.0202  137.6634  168.9260 H   0  0  0  0  0  0  0  0  0  0  0  0
  1  2  1  0
  1 34  1  0
  1 35  1  0
  1 36  1  0
  2 33  2  0
  2  3  1  0
  3  4  2  0
  3 37  1  0
  4  5  1  0
  4 38  1  0
  5  6  1  0
  5 32  2  0
  6  7  1  0
  7  8  1  0
  7 39  1  0
  7 40  1  0
  8  9  1  0
  8 41  1  0
  8 42  1  0
  9 31  1  0
  9 10  2  0
 10 11  1  0
 10 43  1  0
 11 12  2  0
 11 44  1  0
 12 13  1  0
 12 45  1  0
 13 31  2  0
 13 14  1  0
 14 15  1  0
 14 16  1  0
 16 17  1  0
 16 30  2  0
 17 18  1  0
 17 46  1  0
 17 47  1  0
 18 19  1  0
 18 48  1  0
 19 20  1  1
 19 29  1  0
 19 21  1  0
 21 22  1  0
 21 49  1  0
 21 50  1  0
 22 23  1  0
 22 51  1  0
 22 52  1  0
 23 24  1  6
 23 29  1  0
 23 25  1  0
 25 26  1  0
 25 53  1  0
 25 54  1  0
 26 27  1  0
 26 55  1  0
 26 56  1  0
 27 28  1  0
 27 57  1  0
 27 58  1  0
 28 29  1  0
 28 59  1  0
 28 60  1  0
 29 61  1  6
 30 31  1  0
 30 62  1  0
 32 33  1  0
 32 63  1  0
 33 64  1  0
M  CHG  1  23   1
M  END
>  <DOCK_score>  (1) 
-58.511276

>  <SMILES>  (1) 
Cc1ccc(OCCc2cccc3[nH]c(CN[C@H]4CC[NH+]5CCCCC45)cc23)cc1

$$$$
