[NH3+][C@H](CCC#CCc1ccc2[nH]cnc2c1)C(=O)Nc1cccc(O)c1
     RDKit          3D

 47 49  0  0  1  0  0  0  0  0999 V2000
  130.9473  134.0774  157.8630 N   0  0  0  0  0  0  0  0  0  0  0  0
  130.2317  134.6319  157.4176 H   0  0  0  0  0  0  0  0  0  0  0  0
  131.8495  134.4983  157.6991 H   0  0  0  0  0  0  0  0  0  0  0  0
  130.9370  133.1441  157.4797 H   0  0  0  0  0  0  0  0  0  0  0  0
  130.6909  134.0162  159.3082 C   0  0  2  0  0  0  0  0  0  0  0  0
  130.7021  135.0244  159.7222 H   0  0  0  0  0  0  0  0  0  0  0  0
  131.7762  133.1754  159.9835 C   0  0  0  0  0  0  0  0  0  0  0  0
  133.0339  134.0251  160.1754 C   0  0  0  0  0  0  0  0  0  0  0  0
  132.7165  135.1876  161.0209 C   0  0  0  0  0  0  0  0  0  0  0  0
  132.4634  136.1145  161.6954 C   0  0  0  0  0  0  0  0  0  0  0  0
  132.1460  137.2770  162.5409 C   0  0  0  0  0  0  0  0  0  0  0  0
  133.3849  138.1140  162.7299 C   0  0  0  0  0  0  0  0  0  0  0  0
  134.2308  137.8568  163.7995 C   0  0  0  0  0  0  0  0  0  0  0  0
  135.3718  138.6083  163.9842 C   0  0  0  0  0  0  0  0  0  0  0  0
  135.6682  139.6369  163.1003 C   0  0  0  0  0  0  0  0  0  0  0  0
  136.6941  140.5556  163.0033 N   0  0  0  0  0  0  0  0  0  0  0  0
  137.4519  140.6365  163.6033 H   0  0  0  0  0  0  0  0  0  0  0  0
  136.4450  141.3264  161.9105 C   0  0  0  0  0  0  0  0  0  0  0  0
  135.3424  140.9439  161.3353 N   0  0  0  0  0  0  0  0  0  0  0  0
  134.8084  139.9004  162.0206 C   0  0  0  0  0  0  0  0  0  0  0  0
  133.6609  139.1214  161.8498 C   0  0  0  0  0  0  0  0  0  0  0  0
  129.3434  133.3875  159.5530 C   0  0  0  0  0  0  0  0  0  0  0  0
  129.2507  132.1860  159.6911 O   0  0  0  0  0  0  0  0  0  0  0  0
  128.2410  134.1602  159.6183 N   0  0  0  0  0  0  0  0  0  0  0  0
  126.9899  133.5764  159.8455 C   0  0  0  0  0  0  0  0  0  0  0  0
  126.7353  132.2836  159.4052 C   0  0  0  0  0  0  0  0  0  0  0  0
  125.5005  131.7071  159.6303 C   0  0  0  0  0  0  0  0  0  0  0  0
  124.5170  132.4123  160.2978 C   0  0  0  0  0  0  0  0  0  0  0  0
  124.7637  133.7061  160.7347 C   0  0  0  0  0  0  0  0  0  0  0  0
  123.7940  134.4002  161.3864 O   0  0  0  0  0  0  0  0  0  0  0  0
  126.0020  134.2879  160.5112 C   0  0  0  0  0  0  0  0  0  0  0  0
  131.4182  132.8318  160.9540 H   0  0  0  0  0  0  0  0  0  0  0  0
  132.0112  132.3147  159.3573 H   0  0  0  0  0  0  0  0  0  0  0  0
  133.8071  133.4262  160.6565 H   0  0  0  0  0  0  0  0  0  0  0  0
  133.3919  134.3687  159.2049 H   0  0  0  0  0  0  0  0  0  0  0  0
  131.3728  137.8759  162.0598 H   0  0  0  0  0  0  0  0  0  0  0  0
  131.7880  136.9332  163.5114 H   0  0  0  0  0  0  0  0  0  0  0  0
  133.9963  137.0595  164.4893 H   0  0  0  0  0  0  0  0  0  0  0  0
  136.0290  138.4013  164.8158 H   0  0  0  0  0  0  0  0  0  0  0  0
  137.0710  142.1380  161.5700 H   0  0  0  0  0  0  0  0  0  0  0  0
  132.9936  139.3156  161.0231 H   0  0  0  0  0  0  0  0  0  0  0  0
  128.3151  135.1210  159.5078 H   0  0  0  0  0  0  0  0  0  0  0  0
  127.5036  131.7289  158.8869 H   0  0  0  0  0  0  0  0  0  0  0  0
  125.3046  130.7018  159.2876 H   0  0  0  0  0  0  0  0  0  0  0  0
  123.5539  131.9572  160.4763 H   0  0  0  0  0  0  0  0  0  0  0  0
  124.0589  135.2916  161.6515 H   0  0  0  0  0  0  0  0  0  0  0  0
  126.1972  135.2933  160.8541 H   0  0  0  0  0  0  0  0  0  0  0  0
  1  2  1  0
  1  3  1  0
  1  4  1  0
  1  5  1  0
  5  6  1  1
  5  7  1  0
  5 22  1  0
  7  8  1  0
  7 32  1  0
  7 33  1  0
  8  9  1  0
  8 34  1  0
  8 35  1  0
  9 10  3  0
 10 11  1  0
 11 12  1  0
 11 36  1  0
 11 37  1  0
 12 21  1  0
 12 13  2  0
 13 14  1  0
 13 38  1  0
 14 15  2  0
 14 39  1  0
 15 20  1  0
 15 16  1  0
 16 17  1  0
 16 18  1  0
 18 19  2  0
 18 40  1  0
 19 20  1  0
 20 21  2  0
 21 41  1  0
 22 23  2  0
 22 24  1  0
 24 25  1  0
 24 42  1  0
 25 31  1  0
 25 26  2  0
 26 27  1  0
 26 43  1  0
 27 28  2  0
 27 44  1  0
 28 29  1  0
 28 45  1  0
 29 30  1  0
 29 31  2  0
 30 46  1  0
 31 47  1  0
M  CHG  1   1   1
M  END
>  <DOCK_score>  (1) 
-42.640934

>  <SMILES>  (1) 
[NH3+][C@H](CCC#CCc1ccc2[nH]cnc2c1)C(=O)Nc1cccc(O)c1

$$$$
