Cc1c(Sc2nc(Cl)n[nH]2)cccc1N1CC[NH+](C(c2ccccc2)c2ccccc2)CC1
     RDKit          3D

 60 64  0  0  1  0  0  0  0  0999 V2000
  133.7059  137.8456  163.6335 C   0  0  0  0  0  0  0  0  0  0  0  0
  134.1992  138.5001  162.3689 C   0  0  0  0  0  0  0  0  0  0  0  0
  135.1340  139.5246  162.4347 C   0  0  0  0  0  0  0  0  0  0  0  0
  135.7460  140.0612  163.9974 S   0  0  0  0  0  0  0  0  0  0  0  0
  136.4627  138.5596  164.5774 C   0  0  0  0  0  0  0  0  0  0  0  0
  136.1264  137.9130  165.6737 N   0  0  0  0  0  0  0  0  0  0  0  0
  136.8748  136.8156  165.7957 C   0  0  0  0  0  0  0  0  0  0  0  0
  136.7691  135.6636  167.0900 Cl  0  0  0  0  0  0  0  0  0  0  0  0
  137.7044  136.7493  164.7878 N   0  0  0  0  0  0  0  0  0  0  0  0
  137.4586  137.8708  163.9794 N   0  0  0  0  0  0  0  0  0  0  0  0
  137.9140  138.1046  163.1553 H   0  0  0  0  0  0  0  0  0  0  0  0
  135.5829  140.1295  161.2667 C   0  0  0  0  0  0  0  0  0  0  0  0
  135.1035  139.7093  160.0411 C   0  0  0  0  0  0  0  0  0  0  0  0
  134.1769  138.6869  159.9718 C   0  0  0  0  0  0  0  0  0  0  0  0
  133.7241  138.0772  161.1360 C   0  0  0  0  0  0  0  0  0  0  0  0
  132.7872  137.0436  161.0650 N   0  0  0  0  0  0  0  0  0  0  0  0
  131.5168  137.5221  160.5016 C   0  0  0  0  0  0  0  0  0  0  0  0
  130.5013  136.3773  160.4963 C   0  0  0  0  0  0  0  0  0  0  0  0
  131.0236  135.2630  159.6944 N   0  0  0  0  0  0  0  0  0  0  0  0
  131.1942  135.5786  158.7513 H   0  0  0  0  0  0  0  0  0  0  0  0
  130.0408  134.1714  159.6747 C   0  0  0  0  0  0  0  0  0  0  0  0
  128.7528  134.6662  159.0687 C   0  0  0  0  0  0  0  0  0  0  0  0
  127.5475  134.1150  159.4620 C   0  0  0  0  0  0  0  0  0  0  0  0
  126.3655  134.5722  158.9097 C   0  0  0  0  0  0  0  0  0  0  0  0
  126.3893  135.5729  157.9572 C   0  0  0  0  0  0  0  0  0  0  0  0
  127.5954  136.1205  157.5594 C   0  0  0  0  0  0  0  0  0  0  0  0
  128.7770  135.6670  158.1155 C   0  0  0  0  0  0  0  0  0  0  0  0
  130.5764  133.0281  158.8519 C   0  0  0  0  0  0  0  0  0  0  0  0
  130.3152  132.9706  157.4957 C   0  0  0  0  0  0  0  0  0  0  0  0
  130.8105  131.9243  156.7401 C   0  0  0  0  0  0  0  0  0  0  0  0
  131.5583  130.9301  157.3428 C   0  0  0  0  0  0  0  0  0  0  0  0
  131.8152  130.9848  158.6998 C   0  0  0  0  0  0  0  0  0  0  0  0
  131.3243  132.0338  159.4544 C   0  0  0  0  0  0  0  0  0  0  0  0
  132.2795  134.7801  160.2834 C   0  0  0  0  0  0  0  0  0  0  0  0
  133.3098  135.9115  160.2870 C   0  0  0  0  0  0  0  0  0  0  0  0
  134.3492  137.0009  163.8802 H   0  0  0  0  0  0  0  0  0  0  0  0
  133.7269  138.5686  164.4488 H   0  0  0  0  0  0  0  0  0  0  0  0
  132.6849  137.4938  163.4861 H   0  0  0  0  0  0  0  0  0  0  0  0
  136.3070  140.9293  161.3173 H   0  0  0  0  0  0  0  0  0  0  0  0
  135.4537  140.1812  159.1350 H   0  0  0  0  0  0  0  0  0  0  0  0
  133.8043  138.3608  159.0121 H   0  0  0  0  0  0  0  0  0  0  0  0
  131.6792  137.8689  159.4811 H   0  0  0  0  0  0  0  0  0  0  0  0
  131.1360  138.3432  161.1089 H   0  0  0  0  0  0  0  0  0  0  0  0
  129.5628  136.7261  160.0657 H   0  0  0  0  0  0  0  0  0  0  0  0
  130.3289  136.0398  161.5184 H   0  0  0  0  0  0  0  0  0  0  0  0
  129.8559  133.8306  160.6934 H   0  0  0  0  0  0  0  0  0  0  0  0
  127.5288  133.3300  160.2034 H   0  0  0  0  0  0  0  0  0  0  0  0
  125.4237  134.1444  159.2197 H   0  0  0  0  0  0  0  0  0  0  0  0
  125.4667  135.9273  157.5218 H   0  0  0  0  0  0  0  0  0  0  0  0
  127.6144  136.9023  156.8144 H   0  0  0  0  0  0  0  0  0  0  0  0
  129.7190  136.0944  157.8051 H   0  0  0  0  0  0  0  0  0  0  0  0
  129.7271  133.7450  157.0258 H   0  0  0  0  0  0  0  0  0  0  0  0
  130.6095  131.8814  155.6799 H   0  0  0  0  0  0  0  0  0  0  0  0
  131.9417  130.1103  156.7532 H   0  0  0  0  0  0  0  0  0  0  0  0
  132.3992  130.2079  159.1707 H   0  0  0  0  0  0  0  0  0  0  0  0
  131.5247  132.0764  160.5148 H   0  0  0  0  0  0  0  0  0  0  0  0
  132.0981  134.4508  161.3065 H   0  0  0  0  0  0  0  0  0  0  0  0
  132.6593  133.9448  159.6949 H   0  0  0  0  0  0  0  0  0  0  0  0
  134.2371  135.5578  160.7376 H   0  0  0  0  0  0  0  0  0  0  0  0
  133.5018  136.2318  159.2629 H   0  0  0  0  0  0  0  0  0  0  0  0
  1  2  1  0
  1 36  1  0
  1 37  1  0
  1 38  1  0
  2 15  2  0
  2  3  1  0
  3  4  1  0
  3 12  2  0
  4  5  1  0
  5 10  1  0
  5  6  2  0
  6  7  1  0
  7  8  1  0
  7  9  2  0
  9 10  1  0
 10 11  1  0
 12 13  1  0
 12 39  1  0
 13 14  2  0
 13 40  1  0
 14 15  1  0
 14 41  1  0
 15 16  1  0
 16 35  1  0
 16 17  1  0
 17 18  1  0
 17 42  1  0
 17 43  1  0
 18 19  1  0
 18 44  1  0
 18 45  1  0
 19 20  1  0
 19 21  1  0
 19 34  1  0
 21 22  1  0
 21 28  1  0
 21 46  1  0
 22 27  1  0
 22 23  2  0
 23 24  1  0
 23 47  1  0
 24 25  2  0
 24 48  1  0
 25 26  1  0
 25 49  1  0
 26 27  2  0
 26 50  1  0
 27 51  1  0
 28 33  1  0
 28 29  2  0
 29 30  1  0
 29 52  1  0
 30 31  2  0
 30 53  1  0
 31 32  1  0
 31 54  1  0
 32 33  2  0
 32 55  1  0
 33 56  1  0
 34 35  1  0
 34 57  1  0
 34 58  1  0
 35 59  1  0
 35 60  1  0
M  CHG  1  19   1
M  END
>  <DOCK_score>  (1) 
-56.885983

>  <SMILES>  (1) 
Cc1c(Sc2nc(Cl)n[nH]2)cccc1N1CC[NH+](C(c2ccccc2)c2ccccc2)CC1

$$$$
