c1ccc(C[C@@H](Nc2[nH]cc(C3CC3)[nH+]2)C(Sc2ccccc2)c2ccccc2)cc1
     RDKit          3D

 59 63  0  0  1  0  0  0  0  0999 V2000
  126.3685  133.4366  160.2367 C   0  0  0  0  0  0  0  0  0  0  0  0
  126.8795  134.3534  159.3372 C   0  0  0  0  0  0  0  0  0  0  0  0
  127.8626  135.2393  159.7366 C   0  0  0  0  0  0  0  0  0  0  0  0
  128.3348  135.2084  161.0354 C   0  0  0  0  0  0  0  0  0  0  0  0
  129.4069  136.1738  161.4707 C   0  0  0  0  0  0  0  0  0  0  0  0
  130.7833  135.5542  161.2206 C   0  0  1  0  0  0  0  0  0  0  0  0
  130.8743  134.6293  161.7900 H   0  0  0  0  0  0  0  0  0  0  0  0
  130.9365  135.2654  159.7925 N   0  0  0  0  0  0  0  0  0  0  0  0
  130.5477  134.0351  159.2892 C   0  0  0  0  0  0  0  0  0  0  0  0
  130.0179  133.0115  160.0116 N   0  0  0  0  0  0  0  0  0  0  0  0
  129.8443  133.0083  160.9659 H   0  0  0  0  0  0  0  0  0  0  0  0
  129.7727  131.9819  159.1313 C   0  0  0  0  0  0  0  0  0  0  0  0
  130.1642  132.4033  157.9169 C   0  0  0  0  0  0  0  0  0  0  0  0
  130.0904  131.6062  156.6400 C   0  0  0  0  0  0  0  0  0  0  0  0
  131.2066  130.5942  156.3735 C   0  0  0  0  0  0  0  0  0  0  0  0
  131.1424  131.8926  155.5667 C   0  0  0  0  0  0  0  0  0  0  0  0
  130.6333  133.6571  158.0358 N   0  0  0  0  0  0  0  0  0  0  0  0
  130.9803  134.1977  157.3090 H   0  0  0  0  0  0  0  0  0  0  0  0
  131.8718  136.5345  161.6623 C   0  0  1  0  0  0  0  0  0  0  0  0
  133.4386  136.1008  160.8577 S   0  0  0  0  0  0  0  0  0  0  0  0
  134.6398  136.8869  161.8794 C   0  0  0  0  0  0  0  0  0  0  0  0
  135.1876  136.2063  162.9601 C   0  0  0  0  0  0  0  0  0  0  0  0
  136.1323  136.8239  163.7558 C   0  0  0  0  0  0  0  0  0  0  0  0
  136.5258  138.1216  163.4843 C   0  0  0  0  0  0  0  0  0  0  0  0
  135.9789  138.8039  162.4127 C   0  0  0  0  0  0  0  0  0  0  0  0
  135.0373  138.1910  161.6098 C   0  0  0  0  0  0  0  0  0  0  0  0
  131.4762  137.9347  161.2695 C   0  0  0  0  0  0  0  0  0  0  0  0
  131.8521  138.4397  160.0388 C   0  0  0  0  0  0  0  0  0  0  0  0
  131.4851  139.7223  159.6767 C   0  0  0  0  0  0  0  0  0  0  0  0
  130.7511  140.5036  160.5494 C   0  0  0  0  0  0  0  0  0  0  0  0
  130.3797  140.0005  161.7822 C   0  0  0  0  0  0  0  0  0  0  0  0
  130.7422  138.7160  162.1422 C   0  0  0  0  0  0  0  0  0  0  0  0
  127.8276  134.2880  161.9335 C   0  0  0  0  0  0  0  0  0  0  0  0
  126.8406  133.4057  161.5356 C   0  0  0  0  0  0  0  0  0  0  0  0
  125.6005  132.7442  159.9247 H   0  0  0  0  0  0  0  0  0  0  0  0
  126.5109  134.3774  158.3223 H   0  0  0  0  0  0  0  0  0  0  0  0
  128.2622  135.9555  159.0337 H   0  0  0  0  0  0  0  0  0  0  0  0
  129.2928  136.3886  162.5332 H   0  0  0  0  0  0  0  0  0  0  0  0
  129.3159  137.0988  160.9012 H   0  0  0  0  0  0  0  0  0  0  0  0
  131.3103  135.9358  159.1994 H   0  0  0  0  0  0  0  0  0  0  0  0
  129.3494  131.0178  159.3716 H   0  0  0  0  0  0  0  0  0  0  0  0
  129.0860  131.3483  156.3043 H   0  0  0  0  0  0  0  0  0  0  0  0
  131.9943  130.5050  157.1217 H   0  0  0  0  0  0  0  0  0  0  0  0
  130.9366  129.6701  155.8623 H   0  0  0  0  0  0  0  0  0  0  0  0
  130.8301  131.8227  154.5247 H   0  0  0  0  0  0  0  0  0  0  0  0
  131.8878  132.6575  155.7840 H   0  0  0  0  0  0  0  0  0  0  0  0
  131.9919  136.4808  162.7442 H   0  0  0  0  0  0  0  0  0  0  0  0
  134.8778  135.1944  163.1752 H   0  0  0  0  0  0  0  0  0  0  0  0
  136.5613  136.2943  164.5937 H   0  0  0  0  0  0  0  0  0  0  0  0
  137.2619  138.6035  164.1108 H   0  0  0  0  0  0  0  0  0  0  0  0
  136.2883  139.8172  162.2039 H   0  0  0  0  0  0  0  0  0  0  0  0
  134.6101  138.7245  160.7738 H   0  0  0  0  0  0  0  0  0  0  0  0
  132.4294  137.8308  159.3587 H   0  0  0  0  0  0  0  0  0  0  0  0
  131.7756  140.1154  158.7137 H   0  0  0  0  0  0  0  0  0  0  0  0
  130.4681  141.5072  160.2682 H   0  0  0  0  0  0  0  0  0  0  0  0
  129.8067  140.6110  162.4643 H   0  0  0  0  0  0  0  0  0  0  0  0
  130.4524  138.3231  163.1056 H   0  0  0  0  0  0  0  0  0  0  0  0
  128.1995  134.2609  162.9470 H   0  0  0  0  0  0  0  0  0  0  0  0
  126.4417  132.6891  162.2383 H   0  0  0  0  0  0  0  0  0  0  0  0
  1 34  2  0
  1  2  1  0
  1 35  1  0
  2  3  2  0
  2 36  1  0
  3  4  1  0
  3 37  1  0
  4  5  1  0
  4 33  2  0
  5  6  1  0
  5 38  1  0
  5 39  1  0
  6  7  1  1
  6  8  1  0
  6 19  1  0
  8 40  1  0
  9  8  1  0
  9 17  2  0
  9 10  1  0
 10 11  1  0
 10 12  1  0
 12 13  2  0
 12 41  1  0
 13 14  1  0
 13 17  1  0
 14 16  1  0
 14 15  1  0
 14 42  1  0
 15 16  1  0
 15 43  1  0
 15 44  1  0
 16 45  1  0
 16 46  1  0
 17 18  1  0
 19 20  1  0
 19 27  1  0
 19 47  1  1
 20 21  1  0
 21 26  1  0
 21 22  2  0
 22 23  1  0
 22 48  1  0
 23 24  2  0
 23 49  1  0
 24 25  1  0
 24 50  1  0
 25 26  2  0
 25 51  1  0
 26 52  1  0
 27 32  1  0
 27 28  2  0
 28 29  1  0
 28 53  1  0
 29 30  2  0
 29 54  1  0
 30 31  1  0
 30 55  1  0
 31 32  2  0
 31 56  1  0
 32 57  1  0
 33 34  1  0
 33 58  1  0
 34 59  1  0
M  CHG  1  17   1
M  END
>  <DOCK_score>  (1) 
-59.047775

>  <SMILES>  (1) 
c1ccc(C[C@@H](Nc2[nH]cc(C3CC3)[nH+]2)C(Sc2ccccc2)c2ccccc2)cc1

$$$$
