CC/C=C\C[NH+]=C(N[C@H]1CCC(=O)NC1)N[C@H]1CCC(=O)NC1
     RDKit          3D

 51 52  0  0  1  0  0  0  0  0999 V2000
  131.3140  130.1703  157.6902 C   0  0  0  0  0  0  0  0  0  0  0  0
  130.9563  131.6475  157.8653 C   0  0  0  0  0  0  0  0  0  0  0  0
  129.9662  132.0538  156.8043 C   0  0  0  0  0  0  0  0  0  0  0  0
  129.5182  133.2840  156.7633 C   0  0  0  0  0  0  0  0  0  0  0  0
  130.1276  134.3381  157.6515 C   0  0  0  0  0  0  0  0  0  0  0  0
  129.4075  134.3783  158.9266 N   0  0  0  0  0  0  0  0  0  0  0  0
  128.6628  133.7767  159.0822 H   0  0  0  0  0  0  0  0  0  0  0  0
  129.7676  135.2226  159.8521 C   0  0  0  0  0  0  0  0  0  0  0  0
  130.8232  136.0754  159.6316 N   0  0  0  0  0  0  0  0  0  0  0  0
  131.2280  137.0243  160.6717 C   0  0  1  0  0  0  0  0  0  0  0  0
  131.5146  136.4801  161.5717 H   0  0  0  0  0  0  0  0  0  0  0  0
  132.4152  137.8576  160.1742 C   0  0  0  0  0  0  0  0  0  0  0  0
  132.9315  138.7072  161.3381 C   0  0  0  0  0  0  0  0  0  0  0  0
  131.7852  139.4137  162.0028 C   0  0  0  0  0  0  0  0  0  0  0  0
  132.0323  140.3623  162.7171 O   0  0  0  0  0  0  0  0  0  0  0  0
  130.5102  139.0543  161.8493 N   0  0  0  0  0  0  0  0  0  0  0  0
  130.0658  137.9670  160.9865 C   0  0  0  0  0  0  0  0  0  0  0  0
  129.0917  135.2604  161.0487 N   0  0  0  0  0  0  0  0  0  0  0  0
  127.6706  134.9080  161.0986 C   0  0  1  0  0  0  0  0  0  0  0  0
  127.1980  135.1589  160.1490 H   0  0  0  0  0  0  0  0  0  0  0  0
  127.5222  133.4053  161.3661 C   0  0  0  0  0  0  0  0  0  0  0  0
  126.0434  133.0337  161.2318 C   0  0  0  0  0  0  0  0  0  0  0  0
  125.2017  133.9918  162.0247 C   0  0  0  0  0  0  0  0  0  0  0  0
  124.0651  133.6679  162.2967 O   0  0  0  0  0  0  0  0  0  0  0  0
  125.6374  135.1797  162.4460 N   0  0  0  0  0  0  0  0  0  0  0  0
  126.9909  135.6765  162.2326 C   0  0  0  0  0  0  0  0  0  0  0  0
  132.0302  129.8763  158.4575 H   0  0  0  0  0  0  0  0  0  0  0  0
  130.4127  129.5646  157.7834 H   0  0  0  0  0  0  0  0  0  0  0  0
  131.7542  130.0173  156.7047 H   0  0  0  0  0  0  0  0  0  0  0  0
  131.8578  132.2531  157.7721 H   0  0  0  0  0  0  0  0  0  0  0  0
  130.5163  131.8004  158.8507 H   0  0  0  0  0  0  0  0  0  0  0  0
  129.6262  131.3308  156.0778 H   0  0  0  0  0  0  0  0  0  0  0  0
  128.7090  133.5421  156.0963 H   0  0  0  0  0  0  0  0  0  0  0  0
  131.1754  134.0985  157.8333 H   0  0  0  0  0  0  0  0  0  0  0  0
  130.0565  135.3100  157.1632 H   0  0  0  0  0  0  0  0  0  0  0  0
  131.3000  136.0487  158.7873 H   0  0  0  0  0  0  0  0  0  0  0  0
  133.2069  137.1955  159.8236 H   0  0  0  0  0  0  0  0  0  0  0  0
  132.0925  138.5067  159.3603 H   0  0  0  0  0  0  0  0  0  0  0  0
  133.4296  138.0635  162.0632 H   0  0  0  0  0  0  0  0  0  0  0  0
  133.6404  139.4445  160.9615 H   0  0  0  0  0  0  0  0  0  0  0  0
  129.8363  139.5474  162.3430 H   0  0  0  0  0  0  0  0  0  0  0  0
  129.6760  138.3813  160.0567 H   0  0  0  0  0  0  0  0  0  0  0  0
  129.2750  137.4091  161.4881 H   0  0  0  0  0  0  0  0  0  0  0  0
  129.5557  135.5204  161.8598 H   0  0  0  0  0  0  0  0  0  0  0  0
  128.1093  132.8436  160.6394 H   0  0  0  0  0  0  0  0  0  0  0  0
  127.8687  133.1760  162.3738 H   0  0  0  0  0  0  0  0  0  0  0  0
  125.7526  133.0792  160.1822 H   0  0  0  0  0  0  0  0  0  0  0  0
  125.8889  132.0220  161.6068 H   0  0  0  0  0  0  0  0  0  0  0  0
  125.0145  135.7488  162.9245 H   0  0  0  0  0  0  0  0  0  0  0  0
  127.5686  135.5530  163.1485 H   0  0  0  0  0  0  0  0  0  0  0  0
  126.9499  136.7352  161.9763 H   0  0  0  0  0  0  0  0  0  0  0  0
  1  2  1  0
  1 27  1  0
  1 28  1  0
  1 29  1  0
  2  3  1  0
  2 30  1  0
  2 31  1  0
  3  4  2  0
  3 32  1  0
  4  5  1  0
  4 33  1  0
  5  6  1  0
  5 34  1  0
  5 35  1  0
  6  7  1  0
  8  6  2  0
  8  9  1  0
  8 18  1  1
  9 10  1  0
  9 36  1  0
 10 11  1  1
 10 17  1  0
 10 12  1  0
 12 13  1  0
 12 37  1  0
 12 38  1  0
 13 14  1  0
 13 39  1  0
 13 40  1  0
 14 15  2  0
 14 16  1  0
 16 17  1  0
 16 41  1  0
 17 42  1  0
 17 43  1  0
 18 19  1  0
 18 44  1  0
 19 20  1  6
 19 26  1  0
 19 21  1  0
 21 22  1  0
 21 45  1  0
 21 46  1  0
 22 23  1  0
 22 47  1  0
 22 48  1  0
 23 24  2  0
 23 25  1  0
 25 26  1  0
 25 49  1  0
 26 50  1  0
 26 51  1  0
M  CHG  1   6   1
M  END
>  <DOCK_score>  (1) 
-41.732136

>  <SMILES>  (1) 
CC/C=C\C[NH+]=C(N[C@H]1CCC(=O)NC1)N[C@H]1CCC(=O)NC1

$$$$
