C[C@H](C=CCc1cccc2c1CCC2)CNc1[nH]cc(-c2ccccc2)[nH+]1
     RDKit          3D

 55 58  0  0  1  0  0  0  0  0999 V2000
  130.0766  136.2500  162.4982 C   0  0  0  0  0  0  0  0  0  0  0  0
  130.5269  136.1287  161.0409 C   0  0  2  0  0  0  0  0  0  0  0  0
  131.4139  135.4975  160.9860 H   0  0  0  0  0  0  0  0  0  0  0  0
  130.8499  137.4974  160.4994 C   0  0  0  0  0  0  0  0  0  0  0  0
  132.0556  137.7600  160.0594 C   0  0  0  0  0  0  0  0  0  0  0  0
  132.3786  139.1287  159.5178 C   0  0  0  0  0  0  0  0  0  0  0  0
  133.8328  139.4367  159.7658 C   0  0  0  0  0  0  0  0  0  0  0  0
  134.7802  139.0926  158.8210 C   0  0  0  0  0  0  0  0  0  0  0  0
  136.1142  139.3751  159.0473 C   0  0  0  0  0  0  0  0  0  0  0  0
  136.4973  140.0010  160.2178 C   0  0  0  0  0  0  0  0  0  0  0  0
  135.5518  140.3463  161.1656 C   0  0  0  0  0  0  0  0  0  0  0  0
  134.2150  140.0641  160.9393 C   0  0  0  0  0  0  0  0  0  0  0  0
  133.3857  140.5359  162.1144 C   0  0  0  0  0  0  0  0  0  0  0  0
  134.3941  140.7377  163.2654 C   0  0  0  0  0  0  0  0  0  0  0  0
  135.7074  141.0276  162.5083 C   0  0  0  0  0  0  0  0  0  0  0  0
  129.4041  135.5037  160.2105 C   0  0  0  0  0  0  0  0  0  0  0  0
  129.8350  135.3876  158.8152 N   0  0  0  0  0  0  0  0  0  0  0  0
  129.8909  134.1442  158.2091 C   0  0  0  0  0  0  0  0  0  0  0  0
  129.5785  132.9592  158.8009 N   0  0  0  0  0  0  0  0  0  0  0  0
  129.2789  132.8349  159.7151 H   0  0  0  0  0  0  0  0  0  0  0  0
  129.7624  131.9719  157.8637 C   0  0  0  0  0  0  0  0  0  0  0  0
  130.1897  132.5805  156.7296 C   0  0  0  0  0  0  0  0  0  0  0  0
  130.5220  131.9079  155.4501 C   0  0  0  0  0  0  0  0  0  0  0  0
  130.3387  132.5758  154.2405 C   0  0  0  0  0  0  0  0  0  0  0  0
  130.6554  131.9473  153.0533 C   0  0  0  0  0  0  0  0  0  0  0  0
  131.1423  130.6526  153.0617 C   0  0  0  0  0  0  0  0  0  0  0  0
  131.3208  129.9827  154.2587 C   0  0  0  0  0  0  0  0  0  0  0  0
  131.0134  130.6036  155.4523 C   0  0  0  0  0  0  0  0  0  0  0  0
  130.2588  133.9135  156.9725 N   0  0  0  0  0  0  0  0  0  0  0  0
  130.5361  134.5881  156.3330 H   0  0  0  0  0  0  0  0  0  0  0  0
  129.8430  135.2599  162.8898 H   0  0  0  0  0  0  0  0  0  0  0  0
  130.8766  136.6953  163.0897 H   0  0  0  0  0  0  0  0  0  0  0  0
  129.1896  136.8811  162.5531 H   0  0  0  0  0  0  0  0  0  0  0  0
  130.0875  138.2621  160.4741 H   0  0  0  0  0  0  0  0  0  0  0  0
  132.8179  136.9955  160.0846 H   0  0  0  0  0  0  0  0  0  0  0  0
  131.7591  139.8730  160.0184 H   0  0  0  0  0  0  0  0  0  0  0  0
  132.1799  139.1517  158.4465 H   0  0  0  0  0  0  0  0  0  0  0  0
  134.4789  138.6029  157.9068 H   0  0  0  0  0  0  0  0  0  0  0  0
  136.8561  139.1070  158.3097 H   0  0  0  0  0  0  0  0  0  0  0  0
  137.5399  140.2214  160.3938 H   0  0  0  0  0  0  0  0  0  0  0  0
  132.6490  139.7797  162.3853 H   0  0  0  0  0  0  0  0  0  0  0  0
  132.8905  141.4773  161.8762 H   0  0  0  0  0  0  0  0  0  0  0  0
  134.4842  139.8318  163.8647 H   0  0  0  0  0  0  0  0  0  0  0  0
  134.1107  141.5860  163.8886 H   0  0  0  0  0  0  0  0  0  0  0  0
  135.8379  142.1015  162.3747 H   0  0  0  0  0  0  0  0  0  0  0  0
  136.5560  140.6085  163.0489 H   0  0  0  0  0  0  0  0  0  0  0  0
  129.1704  134.5137  160.6022 H   0  0  0  0  0  0  0  0  0  0  0  0
  128.5171  136.1348  160.2655 H   0  0  0  0  0  0  0  0  0  0  0  0
  130.0813  136.1821  158.3159 H   0  0  0  0  0  0  0  0  0  0  0  0
  129.6021  130.9132  158.0045 H   0  0  0  0  0  0  0  0  0  0  0  0
  129.9540  133.5849  154.2327 H   0  0  0  0  0  0  0  0  0  0  0  0
  130.5185  132.4657  152.1158 H   0  0  0  0  0  0  0  0  0  0  0  0
  131.3841  130.1629  152.1299 H   0  0  0  0  0  0  0  0  0  0  0  0
  131.7020  128.9723  154.2593 H   0  0  0  0  0  0  0  0  0  0  0  0
  131.1535  130.0798  156.3864 H   0  0  0  0  0  0  0  0  0  0  0  0
  1  2  1  0
  1 31  1  0
  1 32  1  0
  1 33  1  0
  2  3  1  1
  2  4  1  0
  2 16  1  0
  4  5  2  0
  4 34  1  0
  5  6  1  0
  5 35  1  0
  6  7  1  0
  6 36  1  0
  6 37  1  0
  7 12  1  0
  7  8  2  0
  8  9  1  0
  8 38  1  0
  9 10  2  0
  9 39  1  0
 10 11  1  0
 10 40  1  0
 11 15  1  0
 11 12  2  0
 12 13  1  0
 13 14  1  0
 13 41  1  0
 13 42  1  0
 14 15  1  0
 14 43  1  0
 14 44  1  0
 15 45  1  0
 15 46  1  0
 16 17  1  0
 16 47  1  0
 16 48  1  0
 17 49  1  0
 18 17  1  0
 18 29  2  0
 18 19  1  0
 19 20  1  0
 19 21  1  0
 21 22  2  0
 21 50  1  0
 22 23  1  0
 22 29  1  0
 23 28  1  0
 23 24  2  0
 24 25  1  0
 24 51  1  0
 25 26  2  0
 25 52  1  0
 26 27  1  0
 26 53  1  0
 27 28  2  0
 27 54  1  0
 28 55  1  0
 29 30  1  0
M  CHG  1  29   1
M  END
>  <DOCK_score>  (1) 
-58.293739

>  <SMILES>  (1) 
C[C@H](C=CCc1cccc2c1CCC2)CNc1[nH]cc(-c2ccccc2)[nH+]1

$$$$
