CC1=C(c2ccc(C[NH+]3CCN([C@@H](Cc4ccc(O)cc4)C(F)F)CC3)cc2)CCC1
     RDKit          3D

 64 67  0  0  1  0  0  0  0  0999 V2000
  134.8528  140.1209  162.7540 C   0  0  0  0  0  0  0  0  0  0  0  0
  135.4778  140.2014  161.3851 C   0  0  0  0  0  0  0  0  0  0  0  0
  134.9927  139.6175  160.3033 C   0  0  0  0  0  0  0  0  0  0  0  0
  133.7638  138.7965  160.2727 C   0  0  0  0  0  0  0  0  0  0  0  0
  132.6928  139.1684  159.4592 C   0  0  0  0  0  0  0  0  0  0  0  0
  131.5467  138.4006  159.4391 C   0  0  0  0  0  0  0  0  0  0  0  0
  131.4620  137.2583  160.2149 C   0  0  0  0  0  0  0  0  0  0  0  0
  130.2090  136.4216  160.1840 C   0  0  0  0  0  0  0  0  0  0  0  0
  130.3261  135.4031  159.1318 N   0  0  0  0  0  0  0  0  0  0  0  0
  130.7675  135.8080  158.3199 H   0  0  0  0  0  0  0  0  0  0  0  0
  128.9882  134.9169  158.7702 C   0  0  0  0  0  0  0  0  0  0  0  0
  129.1083  133.8698  157.6608 C   0  0  0  0  0  0  0  0  0  0  0  0
  129.9423  132.7551  158.1319 N   0  0  0  0  0  0  0  0  0  0  0  0
  130.0355  131.7004  157.1136 C   0  0  1  0  0  0  0  0  0  0  0  0
  129.0643  131.5693  156.6362 H   0  0  0  0  0  0  0  0  0  0  0  0
  131.0718  132.0981  156.0608 C   0  0  0  0  0  0  0  0  0  0  0  0
  130.8347  131.3088  154.7991 C   0  0  0  0  0  0  0  0  0  0  0  0
  129.9914  131.8054  153.8224 C   0  0  0  0  0  0  0  0  0  0  0  0
  129.7769  131.0863  152.6626 C   0  0  0  0  0  0  0  0  0  0  0  0
  130.3992  129.8594  152.4833 C   0  0  0  0  0  0  0  0  0  0  0  0
  130.1846  129.1472  151.3460 O   0  0  0  0  0  0  0  0  0  0  0  0
  131.2405  129.3607  153.4673 C   0  0  0  0  0  0  0  0  0  0  0  0
  131.4564  130.0865  154.6227 C   0  0  0  0  0  0  0  0  0  0  0  0
  130.4594  130.3880  157.7760 C   0  0  0  0  0  0  0  0  0  0  0  0
  131.8432  130.3953  157.9823 F   0  0  0  0  0  0  0  0  0  0  0  0
  129.8054  130.2536  159.0055 F   0  0  0  0  0  0  0  0  0  0  0  0
  131.2774  133.2305  158.5214 C   0  0  0  0  0  0  0  0  0  0  0  0
  131.1394  134.2830  159.6235 C   0  0  0  0  0  0  0  0  0  0  0  0
  132.5203  136.8840  161.0234 C   0  0  0  0  0  0  0  0  0  0  0  0
  133.6701  137.6462  161.0569 C   0  0  0  0  0  0  0  0  0  0  0  0
  135.8675  139.8971  159.1035 C   0  0  0  0  0  0  0  0  0  0  0  0
  136.7383  141.1052  159.5244 C   0  0  0  0  0  0  0  0  0  0  0  0
  136.7437  140.9615  161.0637 C   0  0  0  0  0  0  0  0  0  0  0  0
  135.2578  139.2615  163.2884 H   0  0  0  0  0  0  0  0  0  0  0  0
  135.0756  141.0320  163.3094 H   0  0  0  0  0  0  0  0  0  0  0  0
  133.7730  140.0109  162.6545 H   0  0  0  0  0  0  0  0  0  0  0  0
  132.7593  140.0576  158.8499 H   0  0  0  0  0  0  0  0  0  0  0  0
  130.7152  138.6900  158.8135 H   0  0  0  0  0  0  0  0  0  0  0  0
  130.0742  135.9333  161.1490 H   0  0  0  0  0  0  0  0  0  0  0  0
  129.3505  137.0606  159.9770 H   0  0  0  0  0  0  0  0  0  0  0  0
  128.5161  134.4681  159.6441 H   0  0  0  0  0  0  0  0  0  0  0  0
  128.3814  135.7511  158.4180 H   0  0  0  0  0  0  0  0  0  0  0  0
  129.5680  134.3219  156.7820 H   0  0  0  0  0  0  0  0  0  0  0  0
  128.1169  133.4982  157.4020 H   0  0  0  0  0  0  0  0  0  0  0  0
  130.9809  133.1629  155.8456 H   0  0  0  0  0  0  0  0  0  0  0  0
  132.0725  131.8879  156.4382 H   0  0  0  0  0  0  0  0  0  0  0  0
  129.5031  132.7582  153.9648 H   0  0  0  0  0  0  0  0  0  0  0  0
  129.1211  131.4766  151.8981 H   0  0  0  0  0  0  0  0  0  0  0  0
  130.6610  128.3063  151.3127 H   0  0  0  0  0  0  0  0  0  0  0  0
  131.7257  128.4056  153.3302 H   0  0  0  0  0  0  0  0  0  0  0  0
  132.1113  129.6986  155.3890 H   0  0  0  0  0  0  0  0  0  0  0  0
  130.1929  129.5519  157.1295 H   0  0  0  0  0  0  0  0  0  0  0  0
  131.7729  133.6720  157.6567 H   0  0  0  0  0  0  0  0  0  0  0  0
  131.8684  132.3923  158.8910 H   0  0  0  0  0  0  0  0  0  0  0  0
  132.1277  134.6473  159.9040 H   0  0  0  0  0  0  0  0  0  0  0  0
  130.6561  133.8374  160.4930 H   0  0  0  0  0  0  0  0  0  0  0  0
  132.4465  135.9934  161.6298 H   0  0  0  0  0  0  0  0  0  0  0  0
  134.4953  137.3532  161.6889 H   0  0  0  0  0  0  0  0  0  0  0  0
  136.4940  139.0334  158.8812 H   0  0  0  0  0  0  0  0  0  0  0  0
  135.2552  140.1551  158.2394 H   0  0  0  0  0  0  0  0  0  0  0  0
  136.2799  142.0468  159.2218 H   0  0  0  0  0  0  0  0  0  0  0  0
  137.7469  141.0168  159.1204 H   0  0  0  0  0  0  0  0  0  0  0  0
  136.7273  141.9435  161.5364 H   0  0  0  0  0  0  0  0  0  0  0  0
  137.6179  140.3974  161.3890 H   0  0  0  0  0  0  0  0  0  0  0  0
  1  2  1  0
  1 34  1  0
  1 35  1  0
  1 36  1  0
  2 33  1  0
  2  3  2  0
  3  4  1  0
  3 31  1  0
  4 30  1  0
  4  5  2  0
  5  6  1  0
  5 37  1  0
  6  7  2  0
  6 38  1  0
  7  8  1  0
  7 29  1  0
  8  9  1  0
  8 39  1  0
  8 40  1  0
  9 10  1  0
  9 28  1  0
  9 11  1  0
 11 12  1  0
 11 41  1  0
 11 42  1  0
 12 13  1  0
 12 43  1  0
 12 44  1  0
 13 14  1  0
 13 27  1  0
 14 15  1  6
 14 16  1  0
 14 24  1  0
 16 17  1  0
 16 45  1  0
 16 46  1  0
 17 23  1  0
 17 18  2  0
 18 19  1  0
 18 47  1  0
 19 20  2  0
 19 48  1  0
 20 21  1  0
 20 22  1  0
 21 49  1  0
 22 23  2  0
 22 50  1  0
 23 51  1  0
 24 25  1  0
 24 26  1  0
 24 52  1  0
 27 28  1  0
 27 53  1  0
 27 54  1  0
 28 55  1  0
 28 56  1  0
 29 30  2  0
 29 57  1  0
 30 58  1  0
 31 32  1  0
 31 59  1  0
 31 60  1  0
 32 33  1  0
 32 61  1  0
 32 62  1  0
 33 63  1  0
 33 64  1  0
M  CHG  1   9   1
M  END
>  <DOCK_score>  (1) 
-57.244843

>  <SMILES>  (1) 
CC1=C(c2ccc(C[NH+]3CCN([C@@H](Cc4ccc(O)cc4)C(F)F)CC3)cc2)CCC1

$$$$
