CNc1cccnc1C[NH+]=C(NCc1ncccc1C1CC1)NC1CCCCC1
     RDKit          3D

 62 65  0  0  1  0  0  0  0  0999 V2000
  133.3604  139.8140  159.6669 C   0  0  0  0  0  0  0  0  0  0  0  0
  133.0045  138.4200  159.9432 N   0  0  0  0  0  0  0  0  0  0  0  0
  132.4043  138.0798  161.1581 C   0  0  0  0  0  0  0  0  0  0  0  0
  132.6761  138.8137  162.3107 C   0  0  0  0  0  0  0  0  0  0  0  0
  132.0606  138.4348  163.4921 C   0  0  0  0  0  0  0  0  0  0  0  0
  131.1996  137.3528  163.4883 C   0  0  0  0  0  0  0  0  0  0  0  0
  130.9591  136.6819  162.3790 N   0  0  0  0  0  0  0  0  0  0  0  0
  131.5236  137.0086  161.2334 C   0  0  0  0  0  0  0  0  0  0  0  0
  131.2147  136.2082  159.9946 C   0  0  0  0  0  0  0  0  0  0  0  0
  130.2677  135.1407  160.3264 N   0  0  0  0  0  0  0  0  0  0  0  0
  129.9449  135.0443  161.2360 H   0  0  0  0  0  0  0  0  0  0  0  0
  129.8592  134.3206  159.3994 C   0  0  0  0  0  0  0  0  0  0  0  0
  130.3170  134.4570  158.1102 N   0  0  0  0  0  0  0  0  0  0  0  0
  129.8578  133.5352  157.0683 C   0  0  0  0  0  0  0  0  0  0  0  0
  130.2374  132.1255  157.4420 C   0  0  0  0  0  0  0  0  0  0  0  0
  130.0421  131.7034  158.6760 N   0  0  0  0  0  0  0  0  0  0  0  0
  130.3536  130.4769  159.0468 C   0  0  0  0  0  0  0  0  0  0  0  0
  130.9117  129.5871  158.1484 C   0  0  0  0  0  0  0  0  0  0  0  0
  131.1372  129.9967  156.8434 C   0  0  0  0  0  0  0  0  0  0  0  0
  130.7914  131.2920  156.4892 C   0  0  0  0  0  0  0  0  0  0  0  0
  131.0164  131.7845  155.0828 C   0  0  0  0  0  0  0  0  0  0  0  0
  129.8185  131.7755  154.1310 C   0  0  0  0  0  0  0  0  0  0  0  0
  130.9450  130.7544  153.9537 C   0  0  0  0  0  0  0  0  0  0  0  0
  128.9705  133.3187  159.7108 N   0  0  0  0  0  0  0  0  0  0  0  0
  128.0008  133.5096  160.7921 C   0  0  0  0  0  0  0  0  0  0  0  0
  127.1073  134.7093  160.4698 C   0  0  0  0  0  0  0  0  0  0  0  0
  126.0945  134.9087  161.5992 C   0  0  0  0  0  0  0  0  0  0  0  0
  125.2317  133.6529  161.7382 C   0  0  0  0  0  0  0  0  0  0  0  0
  126.1251  132.4534  162.0603 C   0  0  0  0  0  0  0  0  0  0  0  0
  127.1379  132.2538  160.9310 C   0  0  0  0  0  0  0  0  0  0  0  0
  134.0688  140.1639  160.4178 H   0  0  0  0  0  0  0  0  0  0  0  0
  133.8143  139.8841  158.6783 H   0  0  0  0  0  0  0  0  0  0  0  0
  132.4624  140.4313  159.6989 H   0  0  0  0  0  0  0  0  0  0  0  0
  133.1858  137.7332  159.2827 H   0  0  0  0  0  0  0  0  0  0  0  0
  133.3529  139.6549  162.2844 H   0  0  0  0  0  0  0  0  0  0  0  0
  132.2511  138.9780  164.4059 H   0  0  0  0  0  0  0  0  0  0  0  0
  130.7171  137.0531  164.4070 H   0  0  0  0  0  0  0  0  0  0  0  0
  132.1342  135.7703  159.6062 H   0  0  0  0  0  0  0  0  0  0  0  0
  130.7762  136.8612  159.2400 H   0  0  0  0  0  0  0  0  0  0  0  0
  130.9439  135.1639  157.8905 H   0  0  0  0  0  0  0  0  0  0  0  0
  128.7744  133.6064  156.9720 H   0  0  0  0  0  0  0  0  0  0  0  0
  130.3248  133.7980  156.1192 H   0  0  0  0  0  0  0  0  0  0  0  0
  130.1744  130.1654  160.0652 H   0  0  0  0  0  0  0  0  0  0  0  0
  131.1685  128.5851  158.4590 H   0  0  0  0  0  0  0  0  0  0  0  0
  131.5722  129.3232  156.1198 H   0  0  0  0  0  0  0  0  0  0  0  0
  131.7359  132.5966  154.9784 H   0  0  0  0  0  0  0  0  0  0  0  0
  128.8676  131.4134  154.5220 H   0  0  0  0  0  0  0  0  0  0  0  0
  129.7501  132.5813  153.4003 H   0  0  0  0  0  0  0  0  0  0  0  0
  131.6174  130.8890  153.1064 H   0  0  0  0  0  0  0  0  0  0  0  0
  130.7354  129.7206  154.2281 H   0  0  0  0  0  0  0  0  0  0  0  0
  128.9858  132.4855  159.2145 H   0  0  0  0  0  0  0  0  0  0  0  0
  128.5304  133.6919  161.7272 H   0  0  0  0  0  0  0  0  0  0  0  0
  127.7220  135.6039  160.3710 H   0  0  0  0  0  0  0  0  0  0  0  0
  126.5777  134.5270  159.5349 H   0  0  0  0  0  0  0  0  0  0  0  0
  125.4581  135.7633  161.3697 H   0  0  0  0  0  0  0  0  0  0  0  0
  126.6242  135.0910  162.5344 H   0  0  0  0  0  0  0  0  0  0  0  0
  124.7021  133.4708  160.8031 H   0  0  0  0  0  0  0  0  0  0  0  0
  124.5101  133.7950  162.5427 H   0  0  0  0  0  0  0  0  0  0  0  0
  125.5104  131.5587  162.1593 H   0  0  0  0  0  0  0  0  0  0  0  0
  126.6548  132.6356  162.9955 H   0  0  0  0  0  0  0  0  0  0  0  0
  126.6083  132.0717  159.9960 H   0  0  0  0  0  0  0  0  0  0  0  0
  127.7744  131.3993  161.1606 H   0  0  0  0  0  0  0  0  0  0  0  0
  1  2  1  0
  1 31  1  0
  1 32  1  0
  1 33  1  0
  2  3  1  0
  2 34  1  0
  3  8  2  0
  3  4  1  0
  4  5  2  0
  4 35  1  0
  5  6  1  0
  5 36  1  0
  6  7  2  0
  6 37  1  0
  7  8  1  0
  8  9  1  0
  9 10  1  0
  9 38  1  0
  9 39  1  0
 10 11  1  0
 12 10  2  0
 12 13  1  0
 12 24  1  0
 13 14  1  0
 13 40  1  0
 14 15  1  0
 14 41  1  0
 14 42  1  0
 15 20  1  0
 15 16  2  0
 16 17  1  0
 17 18  2  0
 17 43  1  0
 18 19  1  0
 18 44  1  0
 19 20  2  0
 19 45  1  0
 20 21  1  0
 21 23  1  0
 21 22  1  0
 21 46  1  0
 22 23  1  0
 22 47  1  0
 22 48  1  0
 23 49  1  0
 23 50  1  0
 24 25  1  0
 24 51  1  0
 25 30  1  0
 25 26  1  0
 25 52  1  0
 26 27  1  0
 26 53  1  0
 26 54  1  0
 27 28  1  0
 27 55  1  0
 27 56  1  0
 28 29  1  0
 28 57  1  0
 28 58  1  0
 29 30  1  0
 29 59  1  0
 29 60  1  0
 30 61  1  0
 30 62  1  0
M  CHG  1  10   1
M  END
>  <DOCK_score>  (1) 
-56.199112

>  <SMILES>  (1) 
CNc1cccnc1C[NH+]=C(NCc1ncccc1C1CC1)NC1CCCCC1

$$$$
