Nc1ccc(Sc2ccccc2)c(Nc2[nH]cc(C3=CCCC3)[nH+]2)c1
     RDKit          3D

 46 49  0  0  1  0  0  0  0  0999 V2000
  125.8175  136.1535  160.1936 N   0  0  0  0  0  0  0  0  0  0  0  0
  127.1490  135.9500  160.5733 C   0  0  0  0  0  0  0  0  0  0  0  0
  127.5210  136.0945  161.9037 C   0  0  0  0  0  0  0  0  0  0  0  0
  128.8349  135.8940  162.2824 C   0  0  0  0  0  0  0  0  0  0  0  0
  129.7852  135.5426  161.3350 C   0  0  0  0  0  0  0  0  0  0  0  0
  131.4587  135.2806  161.8198 S   0  0  0  0  0  0  0  0  0  0  0  0
  132.1749  136.8819  161.6537 C   0  0  0  0  0  0  0  0  0  0  0  0
  132.1667  137.7635  162.7283 C   0  0  0  0  0  0  0  0  0  0  0  0
  132.7335  139.0157  162.5961 C   0  0  0  0  0  0  0  0  0  0  0  0
  133.2997  139.3968  161.3932 C   0  0  0  0  0  0  0  0  0  0  0  0
  133.3046  138.5244  160.3200 C   0  0  0  0  0  0  0  0  0  0  0  0
  132.7444  137.2687  160.4463 C   0  0  0  0  0  0  0  0  0  0  0  0
  129.4157  135.4019  159.9970 C   0  0  0  0  0  0  0  0  0  0  0  0
  130.3737  135.0521  159.0379 N   0  0  0  0  0  0  0  0  0  0  0  0
  130.2218  133.8908  158.2992 C   0  0  0  0  0  0  0  0  0  0  0  0
  129.5990  132.7569  158.7237 N   0  0  0  0  0  0  0  0  0  0  0  0
  129.1856  132.6190  159.5904 H   0  0  0  0  0  0  0  0  0  0  0  0
  129.6589  131.8469  157.6978 C   0  0  0  0  0  0  0  0  0  0  0  0
  130.3252  132.4472  156.6772 C   0  0  0  0  0  0  0  0  0  0  0  0
  130.6315  131.8435  155.3641 C   0  0  0  0  0  0  0  0  0  0  0  0
  130.8344  130.5527  155.1601 C   0  0  0  0  0  0  0  0  0  0  0  0
  131.1295  130.2790  153.7036 C   0  0  0  0  0  0  0  0  0  0  0  0
  130.6618  131.5506  152.9596 C   0  0  0  0  0  0  0  0  0  0  0  0
  130.7619  132.6182  154.0731 C   0  0  0  0  0  0  0  0  0  0  0  0
  130.6543  133.7024  157.0763 N   0  0  0  0  0  0  0  0  0  0  0  0
  131.1330  134.3552  156.5421 H   0  0  0  0  0  0  0  0  0  0  0  0
  128.0968  135.6037  159.6200 C   0  0  0  0  0  0  0  0  0  0  0  0
  125.5571  136.0524  159.2647 H   0  0  0  0  0  0  0  0  0  0  0  0
  125.1548  136.3954  160.8594 H   0  0  0  0  0  0  0  0  0  0  0  0
  126.7820  136.3643  162.6436 H   0  0  0  0  0  0  0  0  0  0  0  0
  129.1212  136.0069  163.3175 H   0  0  0  0  0  0  0  0  0  0  0  0
  131.7210  137.4681  163.6667 H   0  0  0  0  0  0  0  0  0  0  0  0
  132.7315  139.6996  163.4320 H   0  0  0  0  0  0  0  0  0  0  0  0
  133.7386  140.3783  161.2914 H   0  0  0  0  0  0  0  0  0  0  0  0
  133.7477  138.8253  159.3821 H   0  0  0  0  0  0  0  0  0  0  0  0
  132.7484  136.5881  159.6078 H   0  0  0  0  0  0  0  0  0  0  0  0
  131.1438  135.6232  158.8909 H   0  0  0  0  0  0  0  0  0  0  0  0
  129.2557  130.8450  157.7021 H   0  0  0  0  0  0  0  0  0  0  0  0
  130.7952  129.7968  155.9303 H   0  0  0  0  0  0  0  0  0  0  0  0
  130.5685  129.4101  153.3597 H   0  0  0  0  0  0  0  0  0  0  0  0
  132.1983  130.1243  153.5558 H   0  0  0  0  0  0  0  0  0  0  0  0
  129.6343  131.4440  152.6120 H   0  0  0  0  0  0  0  0  0  0  0  0
  131.3301  131.7865  152.1314 H   0  0  0  0  0  0  0  0  0  0  0  0
  129.9507  133.3402  153.9804 H   0  0  0  0  0  0  0  0  0  0  0  0
  131.7270  133.1228  154.0294 H   0  0  0  0  0  0  0  0  0  0  0  0
  127.8073  135.4919  158.5855 H   0  0  0  0  0  0  0  0  0  0  0  0
  1  2  1  0
  1 28  1  0
  1 29  1  0
  2 27  2  0
  2  3  1  0
  3  4  2  0
  3 30  1  0
  4  5  1  0
  4 31  1  0
  5  6  1  0
  5 13  2  0
  6  7  1  0
  7 12  1  0
  7  8  2  0
  8  9  1  0
  8 32  1  0
  9 10  2  0
  9 33  1  0
 10 11  1  0
 10 34  1  0
 11 12  2  0
 11 35  1  0
 12 36  1  0
 13 14  1  0
 13 27  1  0
 14 37  1  0
 15 14  1  0
 15 25  2  0
 15 16  1  0
 16 17  1  0
 16 18  1  0
 18 19  2  0
 18 38  1  0
 19 20  1  0
 19 25  1  0
 20 24  1  0
 20 21  2  0
 21 22  1  0
 21 39  1  0
 22 23  1  0
 22 40  1  0
 22 41  1  0
 23 24  1  0
 23 42  1  0
 23 43  1  0
 24 44  1  0
 24 45  1  0
 25 26  1  0
 27 46  1  0
M  CHG  1  25   1
M  END
>  <DOCK_score>  (1) 
-53.420147

>  <SMILES>  (1) 
Nc1ccc(Sc2ccccc2)c(Nc2[nH]cc(C3=CCCC3)[nH+]2)c1

$$$$
