CCc1ccc(-c2c[nH]c(N[C@@H](Cc3ccnn3C)c3ccc(F)cc3)[nH+]2)cc1
     RDKit          3D

 54 57  0  0  1  0  0  0  0  0999 V2000
  130.5126  128.2806  151.3151 C   0  0  0  0  0  0  0  0  0  0  0  0
  131.5947  129.3063  151.6581 C   0  0  0  0  0  0  0  0  0  0  0  0
  131.1974  130.0588  152.9019 C   0  0  0  0  0  0  0  0  0  0  0  0
  131.5776  129.5856  154.1444 C   0  0  0  0  0  0  0  0  0  0  0  0
  131.2207  130.2732  155.2865 C   0  0  0  0  0  0  0  0  0  0  0  0
  130.4666  131.4411  155.1867 C   0  0  0  0  0  0  0  0  0  0  0  0
  130.0756  132.1817  156.4109 C   0  0  0  0  0  0  0  0  0  0  0  0
  129.3308  131.6951  157.4344 C   0  0  0  0  0  0  0  0  0  0  0  0
  129.2096  132.7070  158.3555 N   0  0  0  0  0  0  0  0  0  0  0  0
  128.7310  132.6626  159.1981 H   0  0  0  0  0  0  0  0  0  0  0  0
  129.8844  133.7834  157.8675 C   0  0  0  0  0  0  0  0  0  0  0  0
  130.0052  135.0116  158.4948 N   0  0  0  0  0  0  0  0  0  0  0  0
  128.9396  135.4905  159.3786 C   0  0  1  0  0  0  0  0  0  0  0  0
  128.8056  134.7872  160.2005 H   0  0  0  0  0  0  0  0  0  0  0  0
  129.3195  136.8627  159.9387 C   0  0  0  0  0  0  0  0  0  0  0  0
  130.2818  136.6884  161.0853 C   0  0  0  0  0  0  0  0  0  0  0  0
  131.6315  136.6537  160.9958 C   0  0  0  0  0  0  0  0  0  0  0  0
  132.1439  136.4777  162.2855 C   0  0  0  0  0  0  0  0  0  0  0  0
  131.1378  136.4091  163.1192 N   0  0  0  0  0  0  0  0  0  0  0  0
  129.9519  136.5446  162.3859 N   0  0  0  0  0  0  0  0  0  0  0  0
  128.5934  136.5297  162.9339 C   0  0  0  0  0  0  0  0  0  0  0  0
  127.6542  135.6042  158.6000 C   0  0  0  0  0  0  0  0  0  0  0  0
  126.4418  135.4172  159.2372 C   0  0  0  0  0  0  0  0  0  0  0  0
  125.2624  135.5258  158.5252 C   0  0  0  0  0  0  0  0  0  0  0  0
  125.2958  135.8120  157.1709 C   0  0  0  0  0  0  0  0  0  0  0  0
  124.1436  135.9138  156.4729 F   0  0  0  0  0  0  0  0  0  0  0  0
  126.5109  135.9940  156.5327 C   0  0  0  0  0  0  0  0  0  0  0  0
  127.6889  135.8898  157.2478 C   0  0  0  0  0  0  0  0  0  0  0  0
  130.4047  133.4641  156.7077 N   0  0  0  0  0  0  0  0  0  0  0  0
  130.9384  134.0513  156.1498 H   0  0  0  0  0  0  0  0  0  0  0  0
  130.0817  131.9107  153.9322 C   0  0  0  0  0  0  0  0  0  0  0  0
  130.4487  131.2178  152.7965 C   0  0  0  0  0  0  0  0  0  0  0  0
  129.5667  128.7938  151.1427 H   0  0  0  0  0  0  0  0  0  0  0  0
  130.8001  127.7363  150.4155 H   0  0  0  0  0  0  0  0  0  0  0  0
  130.4006  127.5805  152.1431 H   0  0  0  0  0  0  0  0  0  0  0  0
  132.5406  128.7936  151.8303 H   0  0  0  0  0  0  0  0  0  0  0  0
  131.7066  130.0069  150.8299 H   0  0  0  0  0  0  0  0  0  0  0  0
  132.1583  128.6782  154.2209 H   0  0  0  0  0  0  0  0  0  0  0  0
  131.5221  129.9051  156.2562 H   0  0  0  0  0  0  0  0  0  0  0  0
  128.9128  130.7023  157.5106 H   0  0  0  0  0  0  0  0  0  0  0  0
  130.7953  135.5550  158.3491 H   0  0  0  0  0  0  0  0  0  0  0  0
  129.7912  137.4568  159.1558 H   0  0  0  0  0  0  0  0  0  0  0  0
  128.4229  137.3724  160.2912 H   0  0  0  0  0  0  0  0  0  0  0  0
  132.2109  136.7460  160.0891 H   0  0  0  0  0  0  0  0  0  0  0  0
  133.1893  136.4106  162.5477 H   0  0  0  0  0  0  0  0  0  0  0  0
  128.2182  135.5063  162.9475 H   0  0  0  0  0  0  0  0  0  0  0  0
  128.6068  136.9252  163.9496 H   0  0  0  0  0  0  0  0  0  0  0  0
  127.9441  137.1465  162.3125 H   0  0  0  0  0  0  0  0  0  0  0  0
  126.4162  135.1900  160.2927 H   0  0  0  0  0  0  0  0  0  0  0  0
  124.3150  135.3837  159.0240 H   0  0  0  0  0  0  0  0  0  0  0  0
  126.5382  136.2168  155.4762 H   0  0  0  0  0  0  0  0  0  0  0  0
  128.6368  136.0322  156.7503 H   0  0  0  0  0  0  0  0  0  0  0  0
  129.4970  132.8149  153.8489 H   0  0  0  0  0  0  0  0  0  0  0  0
  130.1507  131.5805  151.8239 H   0  0  0  0  0  0  0  0  0  0  0  0
  1  2  1  0
  1 33  1  0
  1 34  1  0
  1 35  1  0
  2  3  1  0
  2 36  1  0
  2 37  1  0
  3 32  2  0
  3  4  1  0
  4  5  2  0
  4 38  1  0
  5  6  1  0
  5 39  1  0
  6  7  1  0
  6 31  2  0
  7 29  1  0
  7  8  2  0
  8  9  1  0
  8 40  1  0
  9 10  1  0
  9 11  1  0
 11 12  1  0
 11 29  2  0
 12 13  1  0
 12 41  1  0
 13 14  1  1
 13 15  1  0
 13 22  1  0
 15 16  1  0
 15 42  1  0
 15 43  1  0
 16 20  1  0
 16 17  2  0
 17 18  1  0
 17 44  1  0
 18 19  2  0
 18 45  1  0
 19 20  1  0
 20 21  1  0
 21 46  1  0
 21 47  1  0
 21 48  1  0
 22 28  1  0
 22 23  2  0
 23 24  1  0
 23 49  1  0
 24 25  2  0
 24 50  1  0
 25 26  1  0
 25 27  1  0
 27 28  2  0
 27 51  1  0
 28 52  1  0
 29 30  1  0
 31 32  1  0
 31 53  1  0
 32 54  1  0
M  CHG  1  29   1
M  END
>  <DOCK_score>  (1) 
-59.315426

>  <SMILES>  (1) 
CCc1ccc(-c2c[nH]c(N[C@@H](Cc3ccnn3C)c3ccc(F)cc3)[nH+]2)cc1

$$$$
