Nc1ccccc1Nc1ccccc1Nc1[nH]c2c(N)cccc2[nH+]1
     RDKit          3D

 44 47  0  0  1  0  0  0  0  0999 V2000
  126.4124  136.0161  161.3412 N   0  0  0  0  0  0  0  0  0  0  0  0
  126.1732  134.6796  161.0007 C   0  0  0  0  0  0  0  0  0  0  0  0
  124.9436  134.1010  161.2764 C   0  0  0  0  0  0  0  0  0  0  0  0
  124.7113  132.7791  160.9443 C   0  0  0  0  0  0  0  0  0  0  0  0
  125.7002  132.0320  160.3313 C   0  0  0  0  0  0  0  0  0  0  0  0
  126.9271  132.6022  160.0469 C   0  0  0  0  0  0  0  0  0  0  0  0
  127.1689  133.9276  160.3770 C   0  0  0  0  0  0  0  0  0  0  0  0
  128.4107  134.5070  160.0904 N   0  0  0  0  0  0  0  0  0  0  0  0
  129.1506  134.0663  158.9877 C   0  0  0  0  0  0  0  0  0  0  0  0
  128.6163  134.1556  157.7106 C   0  0  0  0  0  0  0  0  0  0  0  0
  129.3492  133.7195  156.6228 C   0  0  0  0  0  0  0  0  0  0  0  0
  130.6153  133.1934  156.8028 C   0  0  0  0  0  0  0  0  0  0  0  0
  131.1560  133.1009  158.0719 C   0  0  0  0  0  0  0  0  0  0  0  0
  130.4261  133.5310  159.1698 C   0  0  0  0  0  0  0  0  0  0  0  0
  130.9697  133.4332  160.4568 N   0  0  0  0  0  0  0  0  0  0  0  0
  131.7119  134.4755  160.9733 C   0  0  0  0  0  0  0  0  0  0  0  0
  131.9753  135.6479  160.3254 N   0  0  0  0  0  0  0  0  0  0  0  0
  131.6794  135.8922  159.4345 H   0  0  0  0  0  0  0  0  0  0  0  0
  132.7457  136.4238  161.1784 C   0  0  0  0  0  0  0  0  0  0  0  0
  133.3118  137.6925  161.0827 C   0  0  0  0  0  0  0  0  0  0  0  0
  133.1389  138.4529  159.9217 N   0  0  0  0  0  0  0  0  0  0  0  0
  134.0474  138.1984  162.1426 C   0  0  0  0  0  0  0  0  0  0  0  0
  134.2224  137.4479  163.2953 C   0  0  0  0  0  0  0  0  0  0  0  0
  133.6686  136.1924  163.4038 C   0  0  0  0  0  0  0  0  0  0  0  0
  132.9224  135.6650  162.3445 C   0  0  0  0  0  0  0  0  0  0  0  0
  132.2645  134.4904  162.1611 N   0  0  0  0  0  0  0  0  0  0  0  0
  132.2136  133.7712  162.8100 H   0  0  0  0  0  0  0  0  0  0  0  0
  127.2716  136.4206  161.1436 H   0  0  0  0  0  0  0  0  0  0  0  0
  125.7190  136.5377  161.7748 H   0  0  0  0  0  0  0  0  0  0  0  0
  124.1687  134.6817  161.7549 H   0  0  0  0  0  0  0  0  0  0  0  0
  123.7545  132.3289  161.1640 H   0  0  0  0  0  0  0  0  0  0  0  0
  125.5135  130.9999  160.0736 H   0  0  0  0  0  0  0  0  0  0  0  0
  127.6970  132.0160  159.5674 H   0  0  0  0  0  0  0  0  0  0  0  0
  128.7581  135.2141  160.6563 H   0  0  0  0  0  0  0  0  0  0  0  0
  127.6277  134.5657  157.5664 H   0  0  0  0  0  0  0  0  0  0  0  0
  128.9320  133.7903  155.6292 H   0  0  0  0  0  0  0  0  0  0  0  0
  131.1837  132.8541  155.9494 H   0  0  0  0  0  0  0  0  0  0  0  0
  132.1451  132.6894  158.2087 H   0  0  0  0  0  0  0  0  0  0  0  0
  130.8244  132.6327  160.9850 H   0  0  0  0  0  0  0  0  0  0  0  0
  132.6236  138.0968  159.1810 H   0  0  0  0  0  0  0  0  0  0  0  0
  133.5342  139.3363  159.8572 H   0  0  0  0  0  0  0  0  0  0  0  0
  134.4869  139.1823  162.0702 H   0  0  0  0  0  0  0  0  0  0  0  0
  134.7978  137.8519  164.1151 H   0  0  0  0  0  0  0  0  0  0  0  0
  133.8095  135.6154  164.3058 H   0  0  0  0  0  0  0  0  0  0  0  0
  1  2  1  0
  1 28  1  0
  1 29  1  0
  2  7  2  0
  2  3  1  0
  3  4  2  0
  3 30  1  0
  4  5  1  0
  4 31  1  0
  5  6  2  0
  5 32  1  0
  6  7  1  0
  6 33  1  0
  7  8  1  0
  8  9  1  0
  8 34  1  0
  9 14  1  0
  9 10  2  0
 10 11  1  0
 10 35  1  0
 11 12  2  0
 11 36  1  0
 12 13  1  0
 12 37  1  0
 13 14  2  0
 13 38  1  0
 14 15  1  0
 15 39  1  0
 16 15  1  0
 16 26  2  0
 16 17  1  0
 17 18  1  0
 17 19  1  0
 19 25  2  0
 19 20  1  0
 20 21  1  0
 20 22  2  0
 21 40  1  0
 21 41  1  0
 22 23  1  0
 22 42  1  0
 23 24  2  0
 23 43  1  0
 24 25  1  0
 24 44  1  0
 25 26  1  0
 26 27  1  0
M  CHG  1  26   1
M  END
>  <DOCK_score>  (1) 
-51.581284

>  <SMILES>  (1) 
Nc1ccccc1Nc1ccccc1Nc1[nH]c2c(N)cccc2[nH+]1

$$$$
