OCCc1ccc(-c2c[nH]c(N[C@H](c3ccc(F)cc3)c3cccs3)[nH+]2)cc1
     RDKit          3D

 49 52  0  0  1  0  0  0  0  0999 V2000
  130.3032  127.7338  150.3905 O   0  0  0  0  0  0  0  0  0  0  0  0
  130.0775  128.4434  151.6102 C   0  0  0  0  0  0  0  0  0  0  0  0
  131.1648  129.5044  151.7918 C   0  0  0  0  0  0  0  0  0  0  0  0
  130.9267  130.2531  153.0779 C   0  0  0  0  0  0  0  0  0  0  0  0
  131.4958  129.7991  154.2546 C   0  0  0  0  0  0  0  0  0  0  0  0
  131.2808  130.4801  155.4355 C   0  0  0  0  0  0  0  0  0  0  0  0
  130.4889  131.6270  155.4412 C   0  0  0  0  0  0  0  0  0  0  0  0
  130.2541  132.3633  156.7074 C   0  0  0  0  0  0  0  0  0  0  0  0
  129.6710  131.8634  157.8250 C   0  0  0  0  0  0  0  0  0  0  0  0
  129.6486  132.8779  158.7508 N   0  0  0  0  0  0  0  0  0  0  0  0
  129.2892  132.8270  159.6503 H   0  0  0  0  0  0  0  0  0  0  0  0
  130.2237  133.9677  158.1730 C   0  0  0  0  0  0  0  0  0  0  0  0
  130.3966  135.2025  158.7747 N   0  0  0  0  0  0  0  0  0  0  0  0
  129.9420  135.4168  160.1508 C   0  0  2  0  0  0  0  0  0  0  0  0
  130.4586  134.7251  160.8161 H   0  0  0  0  0  0  0  0  0  0  0  0
  128.4564  135.1768  160.2322 C   0  0  0  0  0  0  0  0  0  0  0  0
  127.8963  134.7031  161.4039 C   0  0  0  0  0  0  0  0  0  0  0  0
  126.5334  134.4881  161.4813 C   0  0  0  0  0  0  0  0  0  0  0  0
  125.7302  134.7367  160.3812 C   0  0  0  0  0  0  0  0  0  0  0  0
  124.3984  134.5216  160.4541 F   0  0  0  0  0  0  0  0  0  0  0  0
  126.2931  135.2058  159.2063 C   0  0  0  0  0  0  0  0  0  0  0  0
  127.6556  135.4250  159.1328 C   0  0  0  0  0  0  0  0  0  0  0  0
  130.2453  136.8335  160.5651 C   0  0  0  0  0  0  0  0  0  0  0  0
  130.5095  137.2306  161.8110 C   0  0  0  0  0  0  0  0  0  0  0  0
  130.7619  138.5843  161.9506 C   0  0  0  0  0  0  0  0  0  0  0  0
  130.6939  139.2883  160.8196 C   0  0  0  0  0  0  0  0  0  0  0  0
  130.2978  138.2178  159.4815 S   0  0  0  0  0  0  0  0  0  0  0  0
  130.5871  133.6554  156.9530 N   0  0  0  0  0  0  0  0  0  0  0  0
  131.0208  134.2538  156.3248 H   0  0  0  0  0  0  0  0  0  0  0  0
  129.9137  132.0762  154.2538 C   0  0  0  0  0  0  0  0  0  0  0  0
  130.1403  131.3906  153.0778 C   0  0  0  0  0  0  0  0  0  0  0  0
  130.2905  128.2932  149.6019 H   0  0  0  0  0  0  0  0  0  0  0  0
  130.1072  127.7458  152.4472 H   0  0  0  0  0  0  0  0  0  0  0  0
  129.1010  128.9263  151.5743 H   0  0  0  0  0  0  0  0  0  0  0  0
  131.1352  130.2020  150.9549 H   0  0  0  0  0  0  0  0  0  0  0  0
  132.1413  129.0214  151.8279 H   0  0  0  0  0  0  0  0  0  0  0  0
  132.1093  128.9102  154.2490 H   0  0  0  0  0  0  0  0  0  0  0  0
  131.7256  130.1252  156.3535 H   0  0  0  0  0  0  0  0  0  0  0  0
  129.2931  130.8607  157.9599 H   0  0  0  0  0  0  0  0  0  0  0  0
  130.8186  135.9257  158.2851 H   0  0  0  0  0  0  0  0  0  0  0  0
  128.5235  134.5051  162.2605 H   0  0  0  0  0  0  0  0  0  0  0  0
  126.0953  134.1226  162.3984 H   0  0  0  0  0  0  0  0  0  0  0  0
  125.6676  135.3996  158.3475 H   0  0  0  0  0  0  0  0  0  0  0  0
  128.0948  135.7908  158.2166 H   0  0  0  0  0  0  0  0  0  0  0  0
  130.5278  136.5469  162.6469 H   0  0  0  0  0  0  0  0  0  0  0  0
  130.9927  139.0371  162.9036 H   0  0  0  0  0  0  0  0  0  0  0  0
  130.8568  140.3529  160.7381 H   0  0  0  0  0  0  0  0  0  0  0  0
  129.2953  132.9617  154.2533 H   0  0  0  0  0  0  0  0  0  0  0  0
  129.6988  131.7404  152.1563 H   0  0  0  0  0  0  0  0  0  0  0  0
  1  2  1  0
  1 32  1  0
  2  3  1  0
  2 33  1  0
  2 34  1  0
  3  4  1  0
  3 35  1  0
  3 36  1  0
  4 31  2  0
  4  5  1  0
  5  6  2  0
  5 37  1  0
  6  7  1  0
  6 38  1  0
  7  8  1  0
  7 30  2  0
  8 28  1  0
  8  9  2  0
  9 10  1  0
  9 39  1  0
 10 11  1  0
 10 12  1  0
 12 13  1  0
 12 28  2  0
 13 14  1  0
 13 40  1  0
 14 15  1  1
 14 16  1  0
 14 23  1  0
 16 22  1  0
 16 17  2  0
 17 18  1  0
 17 41  1  0
 18 19  2  0
 18 42  1  0
 19 20  1  0
 19 21  1  0
 21 22  2  0
 21 43  1  0
 22 44  1  0
 23 27  1  0
 23 24  2  0
 24 25  1  0
 24 45  1  0
 25 26  2  0
 25 46  1  0
 26 27  1  0
 26 47  1  0
 28 29  1  0
 30 31  1  0
 30 48  1  0
 31 49  1  0
M  CHG  1  28   1
M  END
>  <DOCK_score>  (1) 
-57.771919

>  <SMILES>  (1) 
OCCc1ccc(-c2c[nH]c(N[C@H](c3ccc(F)cc3)c3cccs3)[nH+]2)cc1

$$$$
