C[C@H](c1csc2ccccc12)N1CC[NH+](CCc2cccc(-c3cccc(Cl)c3)c2)CC1
     RDKit          3D

 62 66  0  0  1  0  0  0  0  0999 V2000
  129.0930  132.5538  161.1768 C   0  0  0  0  0  0  0  0  0  0  0  0
  129.8223  133.0141  159.9131 C   0  0  2  0  0  0  0  0  0  0  0  0
  129.1313  133.5653  159.2752 H   0  0  0  0  0  0  0  0  0  0  0  0
  130.3437  131.8124  159.1682 C   0  0  0  0  0  0  0  0  0  0  0  0
  130.6960  130.6979  159.7778 C   0  0  0  0  0  0  0  0  0  0  0  0
  131.2518  129.4913  158.6339 S   0  0  0  0  0  0  0  0  0  0  0  0
  130.9956  130.5701  157.2684 C   0  0  0  0  0  0  0  0  0  0  0  0
  131.2067  130.3711  155.9003 C   0  0  0  0  0  0  0  0  0  0  0  0
  130.9254  131.3752  155.0045 C   0  0  0  0  0  0  0  0  0  0  0  0
  130.4284  132.5917  155.4529 C   0  0  0  0  0  0  0  0  0  0  0  0
  130.2150  132.8061  156.7796 C   0  0  0  0  0  0  0  0  0  0  0  0
  130.4960  131.7936  157.7224 C   0  0  0  0  0  0  0  0  0  0  0  0
  130.9455  133.8846  160.2856 N   0  0  0  0  0  0  0  0  0  0  0  0
  130.4717  135.2249  160.6587 C   0  0  0  0  0  0  0  0  0  0  0  0
  131.6631  136.0802  161.0959 C   0  0  0  0  0  0  0  0  0  0  0  0
  132.6299  136.1731  159.9940 N   0  0  0  0  0  0  0  0  0  0  0  0
  132.1835  136.5869  159.1893 H   0  0  0  0  0  0  0  0  0  0  0  0
  133.7647  137.0091  160.4080 C   0  0  0  0  0  0  0  0  0  0  0  0
  133.3822  138.4854  160.2850 C   0  0  0  0  0  0  0  0  0  0  0  0
  134.5463  139.3430  160.7096 C   0  0  0  0  0  0  0  0  0  0  0  0
  135.4835  139.7466  159.7756 C   0  0  0  0  0  0  0  0  0  0  0  0
  136.5517  140.5377  160.1574 C   0  0  0  0  0  0  0  0  0  0  0  0
  136.6938  140.9202  161.4762 C   0  0  0  0  0  0  0  0  0  0  0  0
  135.7559  140.5122  162.4220 C   0  0  0  0  0  0  0  0  0  0  0  0
  135.9037  140.9198  163.8412 C   0  0  0  0  0  0  0  0  0  0  0  0
  136.5264  142.1248  164.1614 C   0  0  0  0  0  0  0  0  0  0  0  0
  136.6567  142.5020  165.4826 C   0  0  0  0  0  0  0  0  0  0  0  0
  136.1806  141.6815  166.4893 C   0  0  0  0  0  0  0  0  0  0  0  0
  135.5664  140.4809  166.1778 C   0  0  0  0  0  0  0  0  0  0  0  0
  134.9715  139.4567  167.4470 Cl  0  0  0  0  0  0  0  0  0  0  0  0
  135.4256  140.0966  164.8582 C   0  0  0  0  0  0  0  0  0  0  0  0
  134.6786  139.7196  162.0307 C   0  0  0  0  0  0  0  0  0  0  0  0
  133.1123  134.8292  159.6492 C   0  0  0  0  0  0  0  0  0  0  0  0
  131.9331  133.9635  159.2000 C   0  0  0  0  0  0  0  0  0  0  0  0
  129.7839  132.0027  161.8148 H   0  0  0  0  0  0  0  0  0  0  0  0
  128.7158  133.4231  161.7156 H   0  0  0  0  0  0  0  0  0  0  0  0
  128.2595  131.9079  160.9005 H   0  0  0  0  0  0  0  0  0  0  0  0
  130.6444  130.5459  160.8458 H   0  0  0  0  0  0  0  0  0  0  0  0
  131.5928  129.4265  155.5466 H   0  0  0  0  0  0  0  0  0  0  0  0
  131.0913  131.2172  153.9491 H   0  0  0  0  0  0  0  0  0  0  0  0
  130.2096  133.3750  154.7421 H   0  0  0  0  0  0  0  0  0  0  0  0
  129.8284  133.7576  157.1137 H   0  0  0  0  0  0  0  0  0  0  0  0
  129.9850  135.6904  159.8017 H   0  0  0  0  0  0  0  0  0  0  0  0
  129.7611  135.1435  161.4812 H   0  0  0  0  0  0  0  0  0  0  0  0
  132.1413  135.6217  161.9614 H   0  0  0  0  0  0  0  0  0  0  0  0
  131.3156  137.0792  161.3596 H   0  0  0  0  0  0  0  0  0  0  0  0
  134.0222  136.7855  161.4434 H   0  0  0  0  0  0  0  0  0  0  0  0
  134.6218  136.8013  159.7675 H   0  0  0  0  0  0  0  0  0  0  0  0
  133.1246  138.7089  159.2496 H   0  0  0  0  0  0  0  0  0  0  0  0
  132.5251  138.6933  160.9256 H   0  0  0  0  0  0  0  0  0  0  0  0
  135.3784  139.4462  158.7435 H   0  0  0  0  0  0  0  0  0  0  0  0
  137.2783  140.8534  159.4234 H   0  0  0  0  0  0  0  0  0  0  0  0
  137.5308  141.5343  161.7742 H   0  0  0  0  0  0  0  0  0  0  0  0
  136.9023  142.7645  163.3767 H   0  0  0  0  0  0  0  0  0  0  0  0
  137.1352  143.4378  165.7310 H   0  0  0  0  0  0  0  0  0  0  0  0
  136.2888  141.9787  167.5219 H   0  0  0  0  0  0  0  0  0  0  0  0
  134.9463  139.1597  164.6155 H   0  0  0  0  0  0  0  0  0  0  0  0
  133.9488  139.4002  162.7599 H   0  0  0  0  0  0  0  0  0  0  0  0
  133.5832  134.3772  160.5221 H   0  0  0  0  0  0  0  0  0  0  0  0
  133.8394  134.9008  158.8403 H   0  0  0  0  0  0  0  0  0  0  0  0
  132.2886  132.9619  158.9582 H   0  0  0  0  0  0  0  0  0  0  0  0
  131.4703  134.4078  158.3188 H   0  0  0  0  0  0  0  0  0  0  0  0
  1  2  1  0
  1 35  1  0
  1 36  1  0
  1 37  1  0
  2  3  1  6
  2  4  1  0
  2 13  1  0
  4 12  1  0
  4  5  2  0
  5  6  1  0
  5 38  1  0
  6  7  1  0
  7 12  2  0
  7  8  1  0
  8  9  2  0
  8 39  1  0
  9 10  1  0
  9 40  1  0
 10 11  2  0
 10 41  1  0
 11 12  1  0
 11 42  1  0
 13 34  1  0
 13 14  1  0
 14 15  1  0
 14 43  1  0
 14 44  1  0
 15 16  1  0
 15 45  1  0
 15 46  1  0
 16 17  1  0
 16 18  1  0
 16 33  1  0
 18 19  1  0
 18 47  1  0
 18 48  1  0
 19 20  1  0
 19 49  1  0
 19 50  1  0
 20 32  1  0
 20 21  2  0
 21 22  1  0
 21 51  1  0
 22 23  2  0
 22 52  1  0
 23 24  1  0
 23 53  1  0
 24 25  1  0
 24 32  2  0
 25 31  1  0
 25 26  2  0
 26 27  1  0
 26 54  1  0
 27 28  2  0
 27 55  1  0
 28 29  1  0
 28 56  1  0
 29 30  1  0
 29 31  2  0
 31 57  1  0
 32 58  1  0
 33 34  1  0
 33 59  1  0
 33 60  1  0
 34 61  1  0
 34 62  1  0
M  CHG  1  16   1
M  END
>  <DOCK_score>  (1) 
-58.348728

>  <SMILES>  (1) 
C[C@H](c1csc2ccccc12)N1CC[NH+](CCc2cccc(-c3cccc(Cl)c3)c2)CC1

$$$$
