CC=C[NH2+]C(N)=CNc1cccc(N)c1C
     RDKit          3D

 35 35  0  0  0  0  0  0  0  0999 V2000
  131.3645  129.8614  156.1806 C   0  0  0  0  0  0  0  0  0  0  0  0
  131.3528  131.3225  156.5499 C   0  0  0  0  0  0  0  0  0  0  0  0
  130.5937  132.1595  155.8871 C   0  0  0  0  0  0  0  0  0  0  0  0
  130.5827  133.5148  156.2295 N   0  0  0  0  0  0  0  0  0  0  0  0
  129.9478  134.0103  155.6216 H   0  0  0  0  0  0  0  0  0  0  0  0
  131.5119  133.8950  156.1273 H   0  0  0  0  0  0  0  0  0  0  0  0
  130.1645  133.6570  157.5558 C   0  0  0  0  0  0  0  0  0  0  0  0
  131.1061  133.6434  158.5924 N   0  0  0  0  0  0  0  0  0  0  0  0
  128.8774  133.8044  157.8323 C   0  0  0  0  0  0  0  0  0  0  0  0
  128.4582  133.9469  159.1616 N   0  0  0  0  0  0  0  0  0  0  0  0
  127.1968  133.4911  159.5482 C   0  0  0  0  0  0  0  0  0  0  0  0
  126.8704  132.1463  159.4115 C   0  0  0  0  0  0  0  0  0  0  0  0
  125.6224  131.6950  159.7934 C   0  0  0  0  0  0  0  0  0  0  0  0
  124.6943  132.5771  160.3133 C   0  0  0  0  0  0  0  0  0  0  0  0
  125.0140  133.9221  160.4535 C   0  0  0  0  0  0  0  0  0  0  0  0
  124.0751  134.8127  160.9791 N   0  0  0  0  0  0  0  0  0  0  0  0
  126.2686  134.3787  160.0750 C   0  0  0  0  0  0  0  0  0  0  0  0
  126.6209  135.8356  160.2310 C   0  0  0  0  0  0  0  0  0  0  0  0
  130.3609  129.4507  156.2908 H   0  0  0  0  0  0  0  0  0  0  0  0
  131.6908  129.7507  155.1465 H   0  0  0  0  0  0  0  0  0  0  0  0
  132.0503  129.3262  156.8374 H   0  0  0  0  0  0  0  0  0  0  0  0
  131.9701  131.6795  157.3609 H   0  0  0  0  0  0  0  0  0  0  0  0
  129.9762  131.8024  155.0759 H   0  0  0  0  0  0  0  0  0  0  0  0
  130.8160  133.7419  159.5127 H   0  0  0  0  0  0  0  0  0  0  0  0
  132.0486  133.5354  158.3901 H   0  0  0  0  0  0  0  0  0  0  0  0
  128.1512  133.8149  157.0330 H   0  0  0  0  0  0  0  0  0  0  0  0
  129.0430  134.3658  159.8123 H   0  0  0  0  0  0  0  0  0  0  0  0
  127.5936  131.4543  159.0058 H   0  0  0  0  0  0  0  0  0  0  0  0
  125.3712  130.6502  159.6859 H   0  0  0  0  0  0  0  0  0  0  0  0
  123.7192  132.2206  160.6113 H   0  0  0  0  0  0  0  0  0  0  0  0
  123.1994  134.4926  161.2463 H   0  0  0  0  0  0  0  0  0  0  0  0
  124.2990  135.7516  161.0768 H   0  0  0  0  0  0  0  0  0  0  0  0
  126.3488  136.3745  159.3234 H   0  0  0  0  0  0  0  0  0  0  0  0
  126.0762  136.2525  161.0781 H   0  0  0  0  0  0  0  0  0  0  0  0
  127.6926  135.9338  160.4043 H   0  0  0  0  0  0  0  0  0  0  0  0
  1  2  1  0
  1 19  1  0
  1 20  1  0
  1 21  1  0
  2  3  2  0
  2 22  1  0
  3  4  1  0
  3 23  1  0
  4  5  1  0
  4  6  1  0
  4  7  1  0
  7  8  1  0
  7  9  2  0
  8 24  1  0
  8 25  1  0
  9 10  1  0
  9 26  1  0
 10 11  1  0
 10 27  1  0
 11 17  2  0
 11 12  1  0
 12 13  2  0
 12 28  1  0
 13 14  1  0
 13 29  1  0
 14 15  2  0
 14 30  1  0
 15 16  1  0
 15 17  1  0
 16 31  1  0
 16 32  1  0
 17 18  1  0
 18 33  1  0
 18 34  1  0
 18 35  1  0
M  CHG  1   4   1
M  END
>  <DOCK_score>  (1) 
-43.694

>  <SMILES>  (1) 
CC=C[NH2+]C(N)=CNc1cccc(N)c1C

$$$$
