Cc1ccc([N+](=O)[O-])cc1C[NH+]=C(NCCc1ccccc1)N[C@H]1C[C@@H](O)C1
     RDKit          3D

 55 57  0  0  1  0  0  0  0  0999 V2000
  129.9651  140.2870  160.7906 C   0  0  0  0  0  0  0  0  0  0  0  0
  130.7734  139.1921  161.4374 C   0  0  0  0  0  0  0  0  0  0  0  0
  131.4805  139.4479  162.5977 C   0  0  0  0  0  0  0  0  0  0  0  0
  132.2260  138.4457  163.1879 C   0  0  0  0  0  0  0  0  0  0  0  0
  132.2613  137.1846  162.6208 C   0  0  0  0  0  0  0  0  0  0  0  0
  133.0605  136.1107  163.2525 N   0  0  0  0  0  0  0  0  0  0  0  0
  133.6874  136.3376  164.2719 O   0  0  0  0  0  0  0  0  0  0  0  0
  133.0912  135.0003  162.7530 O   0  0  0  0  0  0  0  0  0  0  0  0
  131.5504  136.9274  161.4638 C   0  0  0  0  0  0  0  0  0  0  0  0
  130.8042  137.9305  160.8735 C   0  0  0  0  0  0  0  0  0  0  0  0
  130.0294  137.6502  159.6116 C   0  0  0  0  0  0  0  0  0  0  0  0
  130.2238  136.2520  159.2197 N   0  0  0  0  0  0  0  0  0  0  0  0
  130.9558  136.0108  158.6307 H   0  0  0  0  0  0  0  0  0  0  0  0
  129.4133  135.3324  159.6624 C   0  0  0  0  0  0  0  0  0  0  0  0
  129.1615  134.2145  158.9027 N   0  0  0  0  0  0  0  0  0  0  0  0
  129.8041  134.0570  157.5956 C   0  0  0  0  0  0  0  0  0  0  0  0
  131.1372  133.3262  157.7674 C   0  0  0  0  0  0  0  0  0  0  0  0
  130.8914  131.9683  158.3732 C   0  0  0  0  0  0  0  0  0  0  0  0
  130.8995  131.8124  159.7467 C   0  0  0  0  0  0  0  0  0  0  0  0
  130.6693  130.5678  160.3024 C   0  0  0  0  0  0  0  0  0  0  0  0
  130.4413  129.4771  159.4844 C   0  0  0  0  0  0  0  0  0  0  0  0
  130.4383  129.6320  158.1107 C   0  0  0  0  0  0  0  0  0  0  0  0
  130.6634  130.8776  157.5551 C   0  0  0  0  0  0  0  0  0  0  0  0
  128.8145  135.4775  160.8914 N   0  0  0  0  0  0  0  0  0  0  0  0
  127.9035  134.4437  161.3890 C   0  0  1  0  0  0  0  0  0  0  0  0
  128.3821  133.4694  161.4875 H   0  0  0  0  0  0  0  0  0  0  0  0
  127.1108  134.8696  162.6361 C   0  0  0  0  0  0  0  0  0  0  0  0
  125.8997  134.1546  162.0139 C   0  0  1  0  0  0  0  0  0  0  0  0
  125.8286  133.1010  162.2839 H   0  0  0  0  0  0  0  0  0  0  0  0
  124.6678  134.8570  162.1900 O   0  0  0  0  0  0  0  0  0  0  0  0
  126.5579  134.3988  160.6456 C   0  0  0  0  0  0  0  0  0  0  0  0
  128.9535  140.2800  161.1964 H   0  0  0  0  0  0  0  0  0  0  0  0
  130.4314  141.2512  160.9936 H   0  0  0  0  0  0  0  0  0  0  0  0
  129.9258  140.1220  159.7139 H   0  0  0  0  0  0  0  0  0  0  0  0
  131.4534  140.4327  163.0405 H   0  0  0  0  0  0  0  0  0  0  0  0
  132.7822  138.6462  164.0918 H   0  0  0  0  0  0  0  0  0  0  0  0
  131.5780  135.9429  161.0207 H   0  0  0  0  0  0  0  0  0  0  0  0
  130.3843  138.3037  158.8146 H   0  0  0  0  0  0  0  0  0  0  0  0
  128.9696  137.8342  159.7876 H   0  0  0  0  0  0  0  0  0  0  0  0
  128.5582  133.5301  159.2321 H   0  0  0  0  0  0  0  0  0  0  0  0
  129.1546  133.4784  156.9388 H   0  0  0  0  0  0  0  0  0  0  0  0
  129.9819  135.0390  157.1576 H   0  0  0  0  0  0  0  0  0  0  0  0
  131.6153  133.2091  156.7949 H   0  0  0  0  0  0  0  0  0  0  0  0
  131.7867  133.9049  158.4243 H   0  0  0  0  0  0  0  0  0  0  0  0
  131.0821  132.6638  160.3857 H   0  0  0  0  0  0  0  0  0  0  0  0
  130.6720  130.4467  161.3755 H   0  0  0  0  0  0  0  0  0  0  0  0
  130.2658  128.5039  159.9183 H   0  0  0  0  0  0  0  0  0  0  0  0
  130.2605  128.7798  157.4715 H   0  0  0  0  0  0  0  0  0  0  0  0
  130.6614  130.9986  156.4819 H   0  0  0  0  0  0  0  0  0  0  0  0
  128.9953  136.2642  161.4291 H   0  0  0  0  0  0  0  0  0  0  0  0
  127.4649  134.4072  163.5574 H   0  0  0  0  0  0  0  0  0  0  0  0
  126.9841  135.9485  162.7256 H   0  0  0  0  0  0  0  0  0  0  0  0
  124.6601  135.7415  161.7994 H   0  0  0  0  0  0  0  0  0  0  0  0
  126.2788  135.3490  160.1902 H   0  0  0  0  0  0  0  0  0  0  0  0
  126.4657  133.5564  159.9602 H   0  0  0  0  0  0  0  0  0  0  0  0
  1  2  1  0
  1 32  1  0
  1 33  1  0
  1 34  1  0
  2 10  2  0
  2  3  1  0
  3  4  2  0
  3 35  1  0
  4  5  1  0
  4 36  1  0
  5  6  1  0
  5  9  2  0
  6  7  2  0
  6  8  1  0
  9 10  1  0
  9 37  1  0
 10 11  1  0
 11 12  1  0
 11 38  1  0
 11 39  1  0
 12 13  1  0
 14 12  2  0
 14 15  1  0
 14 24  1  0
 15 16  1  0
 15 40  1  0
 16 17  1  0
 16 41  1  0
 16 42  1  0
 17 18  1  0
 17 43  1  0
 17 44  1  0
 18 23  1  0
 18 19  2  0
 19 20  1  0
 19 45  1  0
 20 21  2  0
 20 46  1  0
 21 22  1  0
 21 47  1  0
 22 23  2  0
 22 48  1  0
 23 49  1  0
 24 25  1  0
 24 50  1  0
 25 26  1  1
 25 31  1  0
 25 27  1  0
 27 28  1  0
 27 51  1  0
 27 52  1  0
 28 29  1  1
 28 30  1  0
 28 31  1  0
 30 53  1  0
 31 54  1  0
 31 55  1  0
M  CHG  3   6   1   8  -1  12   1
M  END
>  <DOCK_score>  (1) 
-45.61808

>  <SMILES>  (1) 
Cc1ccc([N+](=O)[O-])cc1C[NH+]=C(NCCc1ccccc1)N[C@H]1C[C@@H](O)C1

$$$$
