O=C1CC[C@H]([NH+]=C(NCCC2=CCCC2)NC2CC=CC2)CN1
     RDKit          3D

 52 54  0  0  1  0  0  0  0  0999 V2000
  124.2991  133.7130  162.3318 O   0  0  0  0  0  0  0  0  0  0  0  0
  125.3801  134.1032  161.9444 C   0  0  0  0  0  0  0  0  0  0  0  0
  126.2828  133.1232  161.2514 C   0  0  0  0  0  0  0  0  0  0  0  0
  127.7171  133.6575  161.2355 C   0  0  0  0  0  0  0  0  0  0  0  0
  127.6887  135.1081  160.7392 C   0  0  2  0  0  0  0  0  0  0  0  0
  127.1470  135.1636  159.7950 H   0  0  0  0  0  0  0  0  0  0  0  0
  129.0594  135.5891  160.5485 N   0  0  0  0  0  0  0  0  0  0  0  0
  129.3780  136.3567  161.0486 H   0  0  0  0  0  0  0  0  0  0  0  0
  129.8506  134.9855  159.7067 C   0  0  0  0  0  0  0  0  0  0  0  0
  131.2076  134.9728  159.9271 N   0  0  0  0  0  0  0  0  0  0  0  0
  131.7278  135.0096  161.2962 C   0  0  0  0  0  0  0  0  0  0  0  0
  133.0872  135.7117  161.3066 C   0  0  0  0  0  0  0  0  0  0  0  0
  132.9296  137.1190  160.7912 C   0  0  0  0  0  0  0  0  0  0  0  0
  133.5408  137.5932  159.7401 C   0  0  0  0  0  0  0  0  0  0  0  0
  133.1636  139.0358  159.4957 C   0  0  0  0  0  0  0  0  0  0  0  0
  132.5294  139.5067  160.8252 C   0  0  0  0  0  0  0  0  0  0  0  0
  132.0382  138.1646  161.4200 C   0  0  0  0  0  0  0  0  0  0  0  0
  129.3282  134.3616  158.5986 N   0  0  0  0  0  0  0  0  0  0  0  0
  130.2177  133.6832  157.6526 C   0  0  0  0  0  0  0  0  0  0  0  0
  129.4079  132.8902  156.6006 C   0  0  0  0  0  0  0  0  0  0  0  0
  130.2124  131.6320  156.3660 C   0  0  0  0  0  0  0  0  0  0  0  0
  131.0853  131.4476  157.3188 C   0  0  0  0  0  0  0  0  0  0  0  0
  131.0084  132.5511  158.3483 C   0  0  0  0  0  0  0  0  0  0  0  0
  126.9835  135.9704  161.7868 C   0  0  0  0  0  0  0  0  0  0  0  0
  125.7034  135.3795  162.1561 N   0  0  0  0  0  0  0  0  0  0  0  0
  126.2571  132.1706  161.7804 H   0  0  0  0  0  0  0  0  0  0  0  0
  125.9397  132.9766  160.2272 H   0  0  0  0  0  0  0  0  0  0  0  0
  128.3268  133.0520  160.5651 H   0  0  0  0  0  0  0  0  0  0  0  0
  128.1325  133.6223  162.2427 H   0  0  0  0  0  0  0  0  0  0  0  0
  131.8207  134.9395  159.1761 H   0  0  0  0  0  0  0  0  0  0  0  0
  131.8418  133.9915  161.6689 H   0  0  0  0  0  0  0  0  0  0  0  0
  131.0324  135.5546  161.9346 H   0  0  0  0  0  0  0  0  0  0  0  0
  133.7825  135.1667  160.6684 H   0  0  0  0  0  0  0  0  0  0  0  0
  133.4741  135.7391  162.3253 H   0  0  0  0  0  0  0  0  0  0  0  0
  134.2266  137.0286  159.1256 H   0  0  0  0  0  0  0  0  0  0  0  0
  134.0507  139.6269  159.2679 H   0  0  0  0  0  0  0  0  0  0  0  0
  132.4399  139.1068  158.6837 H   0  0  0  0  0  0  0  0  0  0  0  0
  133.2733  139.9756  161.4691 H   0  0  0  0  0  0  0  0  0  0  0  0
  131.6922  140.1805  160.6422 H   0  0  0  0  0  0  0  0  0  0  0  0
  130.9967  137.9864  161.1524 H   0  0  0  0  0  0  0  0  0  0  0  0
  132.1583  138.1643  162.5034 H   0  0  0  0  0  0  0  0  0  0  0  0
  128.3709  134.3704  158.4432 H   0  0  0  0  0  0  0  0  0  0  0  0
  130.8912  134.3938  157.1736 H   0  0  0  0  0  0  0  0  0  0  0  0
  128.4203  132.6424  156.9895 H   0  0  0  0  0  0  0  0  0  0  0  0
  129.3206  133.4634  155.6776 H   0  0  0  0  0  0  0  0  0  0  0  0
  130.0822  130.9726  155.5208 H   0  0  0  0  0  0  0  0  0  0  0  0
  131.7720  130.6152  157.3655 H   0  0  0  0  0  0  0  0  0  0  0  0
  132.0088  132.8937  158.6128 H   0  0  0  0  0  0  0  0  0  0  0  0
  130.4782  132.2078  159.2366 H   0  0  0  0  0  0  0  0  0  0  0  0
  127.6135  136.0481  162.6729 H   0  0  0  0  0  0  0  0  0  0  0  0
  126.8159  136.9674  161.3792 H   0  0  0  0  0  0  0  0  0  0  0  0
  125.0454  135.9503  162.5828 H   0  0  0  0  0  0  0  0  0  0  0  0
  1  2  2  0
  2 25  1  0
  2  3  1  0
  3  4  1  0
  3 26  1  0
  3 27  1  0
  4  5  1  0
  4 28  1  0
  4 29  1  0
  5  6  1  6
  5  7  1  0
  5 24  1  0
  7  8  1  0
  9  7  2  0
  9 10  1  0
  9 18  1  0
 10 11  1  0
 10 30  1  0
 11 12  1  0
 11 31  1  0
 11 32  1  0
 12 13  1  0
 12 33  1  0
 12 34  1  0
 13 17  1  0
 13 14  2  0
 14 15  1  0
 14 35  1  0
 15 16  1  0
 15 36  1  0
 15 37  1  0
 16 17  1  0
 16 38  1  0
 16 39  1  0
 17 40  1  0
 17 41  1  0
 18 19  1  0
 18 42  1  0
 19 23  1  0
 19 20  1  0
 19 43  1  0
 20 21  1  0
 20 44  1  0
 20 45  1  0
 21 22  2  0
 21 46  1  0
 22 23  1  0
 22 47  1  0
 23 48  1  0
 23 49  1  0
 24 25  1  0
 24 50  1  0
 24 51  1  0
 25 52  1  0
M  CHG  1   7   1
M  END
>  <DOCK_score>  (1) 
-45.007553

>  <SMILES>  (1) 
O=C1CC[C@H]([NH+]=C(NCCC2=CCCC2)NC2CC=CC2)CN1

$$$$
