C[NH2+]Cc1ccccc1C1=CC[C@H](Nc2ccc(Cl)cc2)CC1
     RDKit          3D

 47 49  0  0  1  0  0  0  0  0999 V2000
  132.0439  133.7948  159.1244 C   0  0  0  0  0  0  0  0  0  0  0  0
  131.2941  134.2180  157.9341 N   0  0  0  0  0  0  0  0  0  0  0  0
  131.5787  133.6615  157.1420 H   0  0  0  0  0  0  0  0  0  0  0  0
  131.4824  135.1913  157.7463 H   0  0  0  0  0  0  0  0  0  0  0  0
  129.8559  134.0342  158.1703 C   0  0  0  0  0  0  0  0  0  0  0  0
  129.5746  132.5805  158.4505 C   0  0  0  0  0  0  0  0  0  0  0  0
  130.1526  131.6012  157.6688 C   0  0  0  0  0  0  0  0  0  0  0  0
  129.8909  130.2665  157.9211 C   0  0  0  0  0  0  0  0  0  0  0  0
  129.0532  129.9043  158.9611 C   0  0  0  0  0  0  0  0  0  0  0  0
  128.4734  130.8733  159.7533 C   0  0  0  0  0  0  0  0  0  0  0  0
  128.7333  132.2217  159.5040 C   0  0  0  0  0  0  0  0  0  0  0  0
  128.1151  133.2652  160.3486 C   0  0  0  0  0  0  0  0  0  0  0  0
  126.9470  133.7389  159.9881 C   0  0  0  0  0  0  0  0  0  0  0  0
  126.2075  134.8044  160.7434 C   0  0  0  0  0  0  0  0  0  0  0  0
  126.7744  134.9370  162.1584 C   0  0  2  0  0  0  0  0  0  0  0  0
  126.5120  134.0566  162.7451 H   0  0  0  0  0  0  0  0  0  0  0  0
  126.2269  136.1359  162.7978 N   0  0  0  0  0  0  0  0  0  0  0  0
  126.6033  136.4656  164.1026 C   0  0  0  0  0  0  0  0  0  0  0  0
  126.3487  135.5828  165.1443 C   0  0  0  0  0  0  0  0  0  0  0  0
  126.7222  135.9110  166.4327 C   0  0  0  0  0  0  0  0  0  0  0  0
  127.3497  137.1185  166.6862 C   0  0  0  0  0  0  0  0  0  0  0  0
  127.8174  137.5281  168.3071 Cl  0  0  0  0  0  0  0  0  0  0  0  0
  127.6044  137.9994  165.6506 C   0  0  0  0  0  0  0  0  0  0  0  0
  127.2331  137.6765  164.3602 C   0  0  0  0  0  0  0  0  0  0  0  0
  128.3005  135.0557  162.0619 C   0  0  0  0  0  0  0  0  0  0  0  0
  128.8611  133.7200  161.5690 C   0  0  0  0  0  0  0  0  0  0  0  0
  133.1109  133.9312  158.9492 H   0  0  0  0  0  0  0  0  0  0  0  0
  131.7365  134.3959  159.9802 H   0  0  0  0  0  0  0  0  0  0  0  0
  131.8404  132.7433  159.3272 H   0  0  0  0  0  0  0  0  0  0  0  0
  129.2997  134.3483  157.2870 H   0  0  0  0  0  0  0  0  0  0  0  0
  129.5485  134.6353  159.0261 H   0  0  0  0  0  0  0  0  0  0  0  0
  130.8072  131.8775  156.8555 H   0  0  0  0  0  0  0  0  0  0  0  0
  130.3427  129.5040  157.3040 H   0  0  0  0  0  0  0  0  0  0  0  0
  128.8532  128.8605  159.1533 H   0  0  0  0  0  0  0  0  0  0  0  0
  127.8195  130.5894  160.5646 H   0  0  0  0  0  0  0  0  0  0  0  0
  126.4901  133.3389  159.0950 H   0  0  0  0  0  0  0  0  0  0  0  0
  125.1516  134.5401  160.8005 H   0  0  0  0  0  0  0  0  0  0  0  0
  126.3121  135.7558  160.2216 H   0  0  0  0  0  0  0  0  0  0  0  0
  125.6032  136.7008  162.3154 H   0  0  0  0  0  0  0  0  0  0  0  0
  125.8588  134.6407  164.9468 H   0  0  0  0  0  0  0  0  0  0  0  0
  126.5205  135.2269  167.2437 H   0  0  0  0  0  0  0  0  0  0  0  0
  128.0939  138.9409  165.8514 H   0  0  0  0  0  0  0  0  0  0  0  0
  127.4326  138.3647  163.5520 H   0  0  0  0  0  0  0  0  0  0  0  0
  128.5625  135.8452  161.3574 H   0  0  0  0  0  0  0  0  0  0  0  0
  128.7125  135.2893  163.0436 H   0  0  0  0  0  0  0  0  0  0  0  0
  129.9164  133.8395  161.3237 H   0  0  0  0  0  0  0  0  0  0  0  0
  128.7552  132.9718  162.3546 H   0  0  0  0  0  0  0  0  0  0  0  0
  1  2  1  0
  1 27  1  0
  1 28  1  0
  1 29  1  0
  2  3  1  0
  2  4  1  0
  2  5  1  0
  5  6  1  0
  5 30  1  0
  5 31  1  0
  6 11  2  0
  6  7  1  0
  7  8  2  0
  7 32  1  0
  8  9  1  0
  8 33  1  0
  9 10  2  0
  9 34  1  0
 10 11  1  0
 10 35  1  0
 11 12  1  0
 12 26  1  0
 12 13  2  0
 13 14  1  0
 13 36  1  0
 14 15  1  0
 14 37  1  0
 14 38  1  0
 15 16  1  1
 15 17  1  0
 15 25  1  0
 17 18  1  0
 17 39  1  0
 18 24  1  0
 18 19  2  0
 19 20  1  0
 19 40  1  0
 20 21  2  0
 20 41  1  0
 21 22  1  0
 21 23  1  0
 23 24  2  0
 23 42  1  0
 24 43  1  0
 25 26  1  0
 25 44  1  0
 25 45  1  0
 26 46  1  0
 26 47  1  0
M  CHG  1   2   1
M  END
>  <DOCK_score>  (1) 
-41.912407

>  <SMILES>  (1) 
C[NH2+]Cc1ccccc1C1=CC[C@H](Nc2ccc(Cl)cc2)CC1

$$$$
