Nc1ccc(-c2c[nH]c(Nc3cc(S[C@@H]4C=CCCC4)c(O)cc3F)[nH+]2)cc1
     RDKit          3D

 50 53  0  0  1  0  0  0  0  0999 V2000
  131.4745  129.5456  151.9652 N   0  0  0  0  0  0  0  0  0  0  0  0
  131.1441  130.2378  153.1329 C   0  0  0  0  0  0  0  0  0  0  0  0
  130.3259  131.3601  153.0653 C   0  0  0  0  0  0  0  0  0  0  0  0
  129.9983  132.0456  154.2161 C   0  0  0  0  0  0  0  0  0  0  0  0
  130.4878  131.6124  155.4473 C   0  0  0  0  0  0  0  0  0  0  0  0
  130.1373  132.3486  156.6867 C   0  0  0  0  0  0  0  0  0  0  0  0
  129.4756  131.8412  157.7561 C   0  0  0  0  0  0  0  0  0  0  0  0
  129.3637  132.8574  158.6748 N   0  0  0  0  0  0  0  0  0  0  0  0
  128.9380  132.8016  159.5446 H   0  0  0  0  0  0  0  0  0  0  0  0
  129.9612  133.9566  158.1385 C   0  0  0  0  0  0  0  0  0  0  0  0
  130.0651  135.1961  158.7473 N   0  0  0  0  0  0  0  0  0  0  0  0
  129.0784  135.6194  159.6479 C   0  0  0  0  0  0  0  0  0  0  0  0
  129.4181  135.9158  160.9607 C   0  0  0  0  0  0  0  0  0  0  0  0
  128.4393  136.3292  161.8522 C   0  0  0  0  0  0  0  0  0  0  0  0
  128.8658  136.6985  163.5214 S   0  0  0  0  0  0  0  0  0  0  0  0
  128.3814  138.4384  163.6910 C   0  0  2  0  0  0  0  0  0  0  0  0
  127.3128  138.5364  163.4993 H   0  0  0  0  0  0  0  0  0  0  0  0
  129.1429  139.2659  162.6972 C   0  0  0  0  0  0  0  0  0  0  0  0
  129.6765  140.4141  162.9667 C   0  0  0  0  0  0  0  0  0  0  0  0
  129.6163  141.0738  164.3133 C   0  0  0  0  0  0  0  0  0  0  0  0
  128.5149  140.4369  165.1636 C   0  0  0  0  0  0  0  0  0  0  0  0
  128.6873  138.9138  165.1129 C   0  0  0  0  0  0  0  0  0  0  0  0
  127.1191  136.4575  161.4249 C   0  0  0  0  0  0  0  0  0  0  0  0
  126.1585  136.8687  162.2968 O   0  0  0  0  0  0  0  0  0  0  0  0
  126.7838  136.1613  160.1142 C   0  0  0  0  0  0  0  0  0  0  0  0
  127.7597  135.7429  159.2264 C   0  0  0  0  0  0  0  0  0  0  0  0
  127.4299  135.4545  157.9483 F   0  0  0  0  0  0  0  0  0  0  0  0
  130.4170  133.6496  156.9482 N   0  0  0  0  0  0  0  0  0  0  0  0
  130.8821  134.2559  156.3507 H   0  0  0  0  0  0  0  0  0  0  0  0
  131.3120  130.4901  155.5116 C   0  0  0  0  0  0  0  0  0  0  0  0
  131.6331  129.8048  154.3588 C   0  0  0  0  0  0  0  0  0  0  0  0
  131.1331  129.8475  151.1089 H   0  0  0  0  0  0  0  0  0  0  0  0
  132.0453  128.7626  152.0111 H   0  0  0  0  0  0  0  0  0  0  0  0
  129.9469  131.6953  152.1112 H   0  0  0  0  0  0  0  0  0  0  0  0
  129.3627  132.9171  154.1635 H   0  0  0  0  0  0  0  0  0  0  0  0
  129.1065  130.8320  157.8649 H   0  0  0  0  0  0  0  0  0  0  0  0
  130.8208  135.7714  158.5504 H   0  0  0  0  0  0  0  0  0  0  0  0
  130.4426  135.8206  161.2887 H   0  0  0  0  0  0  0  0  0  0  0  0
  129.2530  138.8792  161.6949 H   0  0  0  0  0  0  0  0  0  0  0  0
  130.1969  140.9294  162.1731 H   0  0  0  0  0  0  0  0  0  0  0  0
  130.5756  140.9553  164.8169 H   0  0  0  0  0  0  0  0  0  0  0  0
  129.4036  142.1353  164.1863 H   0  0  0  0  0  0  0  0  0  0  0  0
  128.6019  140.7818  166.1939 H   0  0  0  0  0  0  0  0  0  0  0  0
  127.5386  140.7137  164.7657 H   0  0  0  0  0  0  0  0  0  0  0  0
  127.9952  138.4455  165.8128 H   0  0  0  0  0  0  0  0  0  0  0  0
  129.7121  138.6507  165.3748 H   0  0  0  0  0  0  0  0  0  0  0  0
  125.2745  136.9273  161.9091 H   0  0  0  0  0  0  0  0  0  0  0  0
  125.7599  136.2572  159.7846 H   0  0  0  0  0  0  0  0  0  0  0  0
  131.6958  130.1552  156.4640 H   0  0  0  0  0  0  0  0  0  0  0  0
  132.2686  128.9331  154.4085 H   0  0  0  0  0  0  0  0  0  0  0  0
  1  2  1  0
  1 32  1  0
  1 33  1  0
  2 31  2  0
  2  3  1  0
  3  4  2  0
  3 34  1  0
  4  5  1  0
  4 35  1  0
  5  6  1  0
  5 30  2  0
  6 28  1  0
  6  7  2  0
  7  8  1  0
  7 36  1  0
  8  9  1  0
  8 10  1  0
 10 11  1  0
 10 28  2  0
 11 12  1  0
 11 37  1  0
 12 26  1  0
 12 13  2  0
 13 14  1  0
 13 38  1  0
 14 15  1  0
 14 23  2  0
 15 16  1  0
 16 17  1  6
 16 22  1  0
 16 18  1  0
 18 19  2  0
 18 39  1  0
 19 20  1  0
 19 40  1  0
 20 21  1  0
 20 41  1  0
 20 42  1  0
 21 22  1  0
 21 43  1  0
 21 44  1  0
 22 45  1  0
 22 46  1  0
 23 24  1  0
 23 25  1  0
 24 47  1  0
 25 26  2  0
 25 48  1  0
 26 27  1  0
 28 29  1  0
 30 31  1  0
 30 49  1  0
 31 50  1  0
M  CHG  1  28   1
M  END
>  <DOCK_score>  (1) 
-56.513126

>  <SMILES>  (1) 
Nc1ccc(-c2c[nH]c(Nc3cc(S[C@@H]4C=CCCC4)c(O)cc3F)[nH+]2)cc1

$$$$
