Cc1n[nH]cc1C[NH2+]Cc1c[nH]nc1-c1ccc(NCCc2ccco2)o1
     RDKit          3D

 50 53  0  0  0  0  0  0  0  0999 V2000
  133.6751  140.5864  162.0106 C   0  0  0  0  0  0  0  0  0  0  0  0
  134.0837  139.9554  160.7046 C   0  0  0  0  0  0  0  0  0  0  0  0
  134.9257  140.4594  159.8392 N   0  0  0  0  0  0  0  0  0  0  0  0
  135.0325  139.5692  158.7629 N   0  0  0  0  0  0  0  0  0  0  0  0
  135.5877  139.6886  157.9766 H   0  0  0  0  0  0  0  0  0  0  0  0
  134.2306  138.5137  159.0157 C   0  0  0  0  0  0  0  0  0  0  0  0
  133.6279  138.7299  160.2079 C   0  0  0  0  0  0  0  0  0  0  0  0
  132.6443  137.8096  160.8839 C   0  0  0  0  0  0  0  0  0  0  0  0
  132.4244  136.6253  160.0431 N   0  0  0  0  0  0  0  0  0  0  0  0
  133.2994  136.1415  159.9080 H   0  0  0  0  0  0  0  0  0  0  0  0
  132.0566  136.9118  159.1482 H   0  0  0  0  0  0  0  0  0  0  0  0
  131.4655  135.7284  160.7020 C   0  0  0  0  0  0  0  0  0  0  0  0
  131.2398  134.5133  159.8395 C   0  0  0  0  0  0  0  0  0  0  0  0
  132.1955  133.7947  159.2122 C   0  0  0  0  0  0  0  0  0  0  0  0
  131.5914  132.7873  158.5455 N   0  0  0  0  0  0  0  0  0  0  0  0
  132.0365  132.1132  158.0085 H   0  0  0  0  0  0  0  0  0  0  0  0
  130.2106  132.8880  158.7586 N   0  0  0  0  0  0  0  0  0  0  0  0
  129.9917  133.9280  159.5389 C   0  0  0  0  0  0  0  0  0  0  0  0
  128.6738  134.3968  160.0145 C   0  0  0  0  0  0  0  0  0  0  0  0
  127.4744  133.8259  159.7267 C   0  0  0  0  0  0  0  0  0  0  0  0
  126.4902  134.5919  160.3823 C   0  0  0  0  0  0  0  0  0  0  0  0
  127.1356  135.5898  161.0360 C   0  0  0  0  0  0  0  0  0  0  0  0
  126.5342  136.5752  161.8103 N   0  0  0  0  0  0  0  0  0  0  0  0
  127.3562  137.5972  162.4630 C   0  0  0  0  0  0  0  0  0  0  0  0
  128.3412  136.9240  163.4210 C   0  0  0  0  0  0  0  0  0  0  0  0
  129.1868  137.9752  164.0925 C   0  0  0  0  0  0  0  0  0  0  0  0
  128.8930  138.6028  165.2455 C   0  0  0  0  0  0  0  0  0  0  0  0
  129.9540  139.5005  165.5051 C   0  0  0  0  0  0  0  0  0  0  0  0
  130.8286  139.3739  164.4909 C   0  0  0  0  0  0  0  0  0  0  0  0
  130.3587  138.4486  163.6383 O   0  0  0  0  0  0  0  0  0  0  0  0
  128.4549  135.4621  160.8139 O   0  0  0  0  0  0  0  0  0  0  0  0
  134.3513  140.2581  162.8000 H   0  0  0  0  0  0  0  0  0  0  0  0
  133.7220  141.6716  161.9202 H   0  0  0  0  0  0  0  0  0  0  0  0
  132.6567  140.2859  162.2565 H   0  0  0  0  0  0  0  0  0  0  0  0
  134.0926  137.6522  158.3794 H   0  0  0  0  0  0  0  0  0  0  0  0
  131.6991  138.3323  161.0299 H   0  0  0  0  0  0  0  0  0  0  0  0
  133.0416  137.5002  161.8506 H   0  0  0  0  0  0  0  0  0  0  0  0
  130.5202  136.2510  160.8480 H   0  0  0  0  0  0  0  0  0  0  0  0
  131.8627  135.4191  161.6688 H   0  0  0  0  0  0  0  0  0  0  0  0
  133.2572  133.9901  159.2404 H   0  0  0  0  0  0  0  0  0  0  0  0
  127.3078  132.9525  159.1138 H   0  0  0  0  0  0  0  0  0  0  0  0
  125.4245  134.4174  160.3674 H   0  0  0  0  0  0  0  0  0  0  0  0
  125.5703  136.5861  161.9184 H   0  0  0  0  0  0  0  0  0  0  0  0
  127.9084  138.1562  161.7077 H   0  0  0  0  0  0  0  0  0  0  0  0
  126.7139  138.2780  163.0217 H   0  0  0  0  0  0  0  0  0  0  0  0
  127.7889  136.3650  164.1763 H   0  0  0  0  0  0  0  0  0  0  0  0
  128.9835  136.2433  162.8624 H   0  0  0  0  0  0  0  0  0  0  0  0
  128.0161  138.4486  165.8568 H   0  0  0  0  0  0  0  0  0  0  0  0
  130.0433  140.1634  166.3530 H   0  0  0  0  0  0  0  0  0  0  0  0
  131.7518  139.9234  164.3807 H   0  0  0  0  0  0  0  0  0  0  0  0
  1  2  1  0
  1 32  1  0
  1 33  1  0
  1 34  1  0
  2  7  1  0
  2  3  2  0
  3  4  1  0
  4  5  1  0
  4  6  1  0
  6  7  2  0
  6 35  1  0
  7  8  1  0
  8  9  1  0
  8 36  1  0
  8 37  1  0
  9 10  1  0
  9 11  1  0
  9 12  1  0
 12 13  1  0
 12 38  1  0
 12 39  1  0
 13 18  1  0
 13 14  2  0
 14 15  1  0
 14 40  1  0
 15 16  1  0
 15 17  1  0
 17 18  2  0
 18 19  1  0
 19 31  1  0
 19 20  2  0
 20 21  1  0
 20 41  1  0
 21 22  2  0
 21 42  1  0
 22 23  1  0
 22 31  1  0
 23 24  1  0
 23 43  1  0
 24 25  1  0
 24 44  1  0
 24 45  1  0
 25 26  1  0
 25 46  1  0
 25 47  1  0
 26 30  1  0
 26 27  2  0
 27 28  1  0
 27 48  1  0
 28 29  2  0
 28 49  1  0
 29 30  1  0
 29 50  1  0
M  CHG  1   9   1
M  END
>  <DOCK_score>  (1) 
-46.511658

>  <SMILES>  (1) 
Cc1n[nH]cc1C[NH2+]Cc1c[nH]nc1-c1ccc(NCCc2ccco2)o1

$$$$
