Cn1nccc1[C@@H](Nc1[nH]cc(-c2ccc(N)cc2)[nH+]1)c1ccc2c3c(cccc13)CC2
     RDKit          3D

 57 62  0  0  1  0  0  0  0  0999 V2000
  127.7285  133.4082  161.2771 C   0  0  0  0  0  0  0  0  0  0  0  0
  127.2608  134.3951  160.3007 N   0  0  0  0  0  0  0  0  0  0  0  0
  125.9323  134.5969  159.9046 N   0  0  0  0  0  0  0  0  0  0  0  0
  125.9113  135.5607  159.0200 C   0  0  0  0  0  0  0  0  0  0  0  0
  127.2233  136.0062  158.8282 C   0  0  0  0  0  0  0  0  0  0  0  0
  128.0334  135.2699  159.6235 C   0  0  0  0  0  0  0  0  0  0  0  0
  129.5299  135.4068  159.7373 C   0  0  1  0  0  0  0  0  0  0  0  0
  129.9070  134.6832  160.4600 H   0  0  0  0  0  0  0  0  0  0  0  0
  130.1439  135.1576  158.4308 N   0  0  0  0  0  0  0  0  0  0  0  0
  129.9666  133.9358  157.8043 C   0  0  0  0  0  0  0  0  0  0  0  0
  129.2432  132.8921  158.2931 N   0  0  0  0  0  0  0  0  0  0  0  0
  128.7636  132.8701  159.1360 H   0  0  0  0  0  0  0  0  0  0  0  0
  129.3180  131.8745  157.3719 C   0  0  0  0  0  0  0  0  0  0  0  0
  130.0843  132.3262  156.3484 C   0  0  0  0  0  0  0  0  0  0  0  0
  130.4398  131.5684  155.1236 C   0  0  0  0  0  0  0  0  0  0  0  0
  130.0649  132.0511  153.8707 C   0  0  0  0  0  0  0  0  0  0  0  0
  130.4015  131.3480  152.7332 C   0  0  0  0  0  0  0  0  0  0  0  0
  131.1040  130.1531  152.8360 C   0  0  0  0  0  0  0  0  0  0  0  0
  131.4394  129.4396  151.6826 N   0  0  0  0  0  0  0  0  0  0  0  0
  131.4739  129.6672  154.0844 C   0  0  0  0  0  0  0  0  0  0  0  0
  131.1445  130.3697  155.2242 C   0  0  0  0  0  0  0  0  0  0  0  0
  130.4633  133.5957  156.6399 N   0  0  0  0  0  0  0  0  0  0  0  0
  131.0154  134.1609  156.0773 H   0  0  0  0  0  0  0  0  0  0  0  0
  129.8734  136.8006  160.1961 C   0  0  0  0  0  0  0  0  0  0  0  0
  130.0843  137.7985  159.2887 C   0  0  0  0  0  0  0  0  0  0  0  0
  130.3988  139.1036  159.6736 C   0  0  0  0  0  0  0  0  0  0  0  0
  130.5121  139.4236  160.9923 C   0  0  0  0  0  0  0  0  0  0  0  0
  130.3051  138.4156  161.9280 C   0  0  0  0  0  0  0  0  0  0  0  0
  130.4368  138.8197  163.2530 C   0  0  0  0  0  0  0  0  0  0  0  0
  130.2474  137.8874  164.2264 C   0  0  0  0  0  0  0  0  0  0  0  0
  129.9319  136.5688  163.8893 C   0  0  0  0  0  0  0  0  0  0  0  0
  129.7999  136.1581  162.5946 C   0  0  0  0  0  0  0  0  0  0  0  0
  129.9879  137.0946  161.5645 C   0  0  0  0  0  0  0  0  0  0  0  0
  130.7781  140.2899  163.2445 C   0  0  0  0  0  0  0  0  0  0  0  0
  130.8279  140.6882  161.7532 C   0  0  0  0  0  0  0  0  0  0  0  0
  127.6443  133.8228  162.2816 H   0  0  0  0  0  0  0  0  0  0  0  0
  127.1194  132.5072  161.2035 H   0  0  0  0  0  0  0  0  0  0  0  0
  128.7701  133.1603  161.0725 H   0  0  0  0  0  0  0  0  0  0  0  0
  125.0324  135.9479  158.5260 H   0  0  0  0  0  0  0  0  0  0  0  0
  127.5348  136.7966  158.1614 H   0  0  0  0  0  0  0  0  0  0  0  0
  130.6747  135.8487  158.0045 H   0  0  0  0  0  0  0  0  0  0  0  0
  128.8552  130.9017  157.4486 H   0  0  0  0  0  0  0  0  0  0  0  0
  129.5148  132.9771  153.7907 H   0  0  0  0  0  0  0  0  0  0  0  0
  130.1149  131.7235  151.7620 H   0  0  0  0  0  0  0  0  0  0  0  0
  131.9299  128.6061  151.7533 H   0  0  0  0  0  0  0  0  0  0  0  0
  131.1815  129.7784  150.8109 H   0  0  0  0  0  0  0  0  0  0  0  0
  132.0194  128.7383  154.1619 H   0  0  0  0  0  0  0  0  0  0  0  0
  131.4323  129.9919  156.1941 H   0  0  0  0  0  0  0  0  0  0  0  0
  130.0005  137.5718  158.2362 H   0  0  0  0  0  0  0  0  0  0  0  0
  130.5536  139.8629  158.9214 H   0  0  0  0  0  0  0  0  0  0  0  0
  130.3420  138.1683  165.2650 H   0  0  0  0  0  0  0  0  0  0  0  0
  129.7869  135.8492  164.6814 H   0  0  0  0  0  0  0  0  0  0  0  0
  129.5554  135.1313  162.3658 H   0  0  0  0  0  0  0  0  0  0  0  0
  130.0066  140.8598  163.7621 H   0  0  0  0  0  0  0  0  0  0  0  0
  131.7487  140.4550  163.7122 H   0  0  0  0  0  0  0  0  0  0  0  0
  131.8228  141.0482  161.4913 H   0  0  0  0  0  0  0  0  0  0  0  0
  130.0807  141.4530  161.5414 H   0  0  0  0  0  0  0  0  0  0  0  0
  1  2  1  0
  1 36  1  0
  1 37  1  0
  1 38  1  0
  2  6  1  0
  2  3  1  0
  3  4  2  0
  4  5  1  0
  4 39  1  0
  5  6  2  0
  5 40  1  0
  6  7  1  0
  7  8  1  1
  7  9  1  0
  7 24  1  0
  9 41  1  0
 10  9  1  0
 10 22  2  0
 10 11  1  0
 11 12  1  0
 11 13  1  0
 13 14  2  0
 13 42  1  0
 14 15  1  0
 14 22  1  0
 15 21  1  0
 15 16  2  0
 16 17  1  0
 16 43  1  0
 17 18  2  0
 17 44  1  0
 18 19  1  0
 18 20  1  0
 19 45  1  0
 19 46  1  0
 20 21  2  0
 20 47  1  0
 21 48  1  0
 22 23  1  0
 24 33  1  0
 24 25  2  0
 25 26  1  0
 25 49  1  0
 26 27  2  0
 26 50  1  0
 27 35  1  0
 27 28  1  0
 28 33  2  0
 28 29  1  0
 29 30  2  0
 29 34  1  0
 30 31  1  0
 30 51  1  0
 31 32  2  0
 31 52  1  0
 32 33  1  0
 32 53  1  0
 34 35  1  0
 34 54  1  0
 34 55  1  0
 35 56  1  0
 35 57  1  0
M  CHG  1  22   1
M  END
>  <DOCK_score>  (1) 
-61.243004

>  <SMILES>  (1) 
Cn1nccc1[C@@H](Nc1[nH]cc(-c2ccc(N)cc2)[nH+]1)c1ccc2c3c(cccc13)CC2

$$$$
