Nc1cccc2[nH+]c(Nc3ccccc3Nc3ccccc3Nc3ncc(-c4ccccc4)cn3)[nH]c12
     RDKit          3D

 62 67  0  0  1  0  0  0  0  0999 V2000
  131.1436  131.0179  158.7688 N   0  0  0  0  0  0  0  0  0  0  0  0
  130.9276  131.6981  157.5659 C   0  0  0  0  0  0  0  0  0  0  0  0
  131.4346  131.1917  156.3793 C   0  0  0  0  0  0  0  0  0  0  0  0
  131.2231  131.8623  155.1847 C   0  0  0  0  0  0  0  0  0  0  0  0
  130.5069  133.0381  155.1591 C   0  0  0  0  0  0  0  0  0  0  0  0
  129.9872  133.5642  156.3463 C   0  0  0  0  0  0  0  0  0  0  0  0
  129.2539  134.6715  156.6332 N   0  0  0  0  0  0  0  0  0  0  0  0
  128.9547  135.3272  155.9841 H   0  0  0  0  0  0  0  0  0  0  0  0
  129.0154  134.7206  157.9203 C   0  0  0  0  0  0  0  0  0  0  0  0
  128.2995  135.7140  158.5569 N   0  0  0  0  0  0  0  0  0  0  0  0
  128.1081  135.6606  159.9433 C   0  0  0  0  0  0  0  0  0  0  0  0
  127.0045  135.0050  160.4684 C   0  0  0  0  0  0  0  0  0  0  0  0
  126.8148  134.9580  161.8369 C   0  0  0  0  0  0  0  0  0  0  0  0
  127.7254  135.5592  162.6865 C   0  0  0  0  0  0  0  0  0  0  0  0
  128.8313  136.2099  162.1724 C   0  0  0  0  0  0  0  0  0  0  0  0
  129.0301  136.2617  160.8004 C   0  0  0  0  0  0  0  0  0  0  0  0
  130.1487  136.9199  160.2778 N   0  0  0  0  0  0  0  0  0  0  0  0
  130.3444  138.2809  160.5370 C   0  0  0  0  0  0  0  0  0  0  0  0
  129.2537  139.1157  160.7328 C   0  0  0  0  0  0  0  0  0  0  0  0
  129.4493  140.4608  160.9836 C   0  0  0  0  0  0  0  0  0  0  0  0
  130.7305  140.9766  161.0517 C   0  0  0  0  0  0  0  0  0  0  0  0
  131.8233  140.1523  160.8581 C   0  0  0  0  0  0  0  0  0  0  0  0
  131.6367  138.8026  160.6001 C   0  0  0  0  0  0  0  0  0  0  0  0
  132.7423  137.9655  160.4040 N   0  0  0  0  0  0  0  0  0  0  0  0
  133.6866  137.8201  161.4055 C   0  0  0  0  0  0  0  0  0  0  0  0
  134.7257  137.0231  161.2003 N   0  0  0  0  0  0  0  0  0  0  0  0
  135.6507  136.8626  162.1295 C   0  0  0  0  0  0  0  0  0  0  0  0
  135.5156  137.5383  163.3453 C   0  0  0  0  0  0  0  0  0  0  0  0
  136.5276  137.3819  164.4189 C   0  0  0  0  0  0  0  0  0  0  0  0
  136.1530  137.5018  165.7558 C   0  0  0  0  0  0  0  0  0  0  0  0
  137.0974  137.3502  166.7507 C   0  0  0  0  0  0  0  0  0  0  0  0
  138.4158  137.0901  166.4224 C   0  0  0  0  0  0  0  0  0  0  0  0
  138.7943  136.9758  165.0969 C   0  0  0  0  0  0  0  0  0  0  0  0
  137.8572  137.1203  164.0941 C   0  0  0  0  0  0  0  0  0  0  0  0
  134.4030  138.3644  163.5244 C   0  0  0  0  0  0  0  0  0  0  0  0
  133.5236  138.4775  162.5450 N   0  0  0  0  0  0  0  0  0  0  0  0
  129.5757  133.6394  158.5371 N   0  0  0  0  0  0  0  0  0  0  0  0
  129.5424  133.4361  159.4850 H   0  0  0  0  0  0  0  0  0  0  0  0
  130.2016  132.8859  157.5552 C   0  0  0  0  0  0  0  0  0  0  0  0
  130.7873  131.3738  159.5979 H   0  0  0  0  0  0  0  0  0  0  0  0
  131.6498  130.1905  158.7740 H   0  0  0  0  0  0  0  0  0  0  0  0
  131.9981  130.2704  156.3858 H   0  0  0  0  0  0  0  0  0  0  0  0
  131.6231  131.4589  154.2662 H   0  0  0  0  0  0  0  0  0  0  0  0
  130.3466  133.5533  154.2235 H   0  0  0  0  0  0  0  0  0  0  0  0
  127.9288  136.4492  158.0441 H   0  0  0  0  0  0  0  0  0  0  0  0
  126.2909  134.5352  159.8078 H   0  0  0  0  0  0  0  0  0  0  0  0
  125.9527  134.4507  162.2438 H   0  0  0  0  0  0  0  0  0  0  0  0
  127.5723  135.5199  163.7549 H   0  0  0  0  0  0  0  0  0  0  0  0
  129.5409  136.6777  162.8389 H   0  0  0  0  0  0  0  0  0  0  0  0
  130.7890  136.4325  159.7357 H   0  0  0  0  0  0  0  0  0  0  0  0
  128.2519  138.7153  160.6849 H   0  0  0  0  0  0  0  0  0  0  0  0
  128.5990  141.1103  161.1310 H   0  0  0  0  0  0  0  0  0  0  0  0
  130.8779  142.0276  161.2525 H   0  0  0  0  0  0  0  0  0  0  0  0
  132.8224  140.5596  160.9072 H   0  0  0  0  0  0  0  0  0  0  0  0
  132.8463  137.4876  159.5662 H   0  0  0  0  0  0  0  0  0  0  0  0
  136.4972  136.2151  161.9539 H   0  0  0  0  0  0  0  0  0  0  0  0
  135.1246  137.7089  166.0131 H   0  0  0  0  0  0  0  0  0  0  0  0
  136.8074  137.4384  167.7873 H   0  0  0  0  0  0  0  0  0  0  0  0
  139.1524  136.9763  167.2040 H   0  0  0  0  0  0  0  0  0  0  0  0
  139.8250  136.7725  164.8462 H   0  0  0  0  0  0  0  0  0  0  0  0
  138.1539  137.0311  163.0594 H   0  0  0  0  0  0  0  0  0  0  0  0
  134.2642  138.9033  164.4499 H   0  0  0  0  0  0  0  0  0  0  0  0
  1  2  1  0
  1 40  1  0
  1 41  1  0
  2 39  2  0
  2  3  1  0
  3  4  2  0
  3 42  1  0
  4  5  1  0
  4 43  1  0
  5  6  2  0
  5 44  1  0
  6 39  1  0
  6  7  1  0
  7  8  1  0
  7  9  2  0
  9 10  1  0
  9 37  1  0
 10 11  1  0
 10 45  1  0
 11 16  1  0
 11 12  2  0
 12 13  1  0
 12 46  1  0
 13 14  2  0
 13 47  1  0
 14 15  1  0
 14 48  1  0
 15 16  2  0
 15 49  1  0
 16 17  1  0
 17 18  1  0
 17 50  1  0
 18 23  1  0
 18 19  2  0
 19 20  1  0
 19 51  1  0
 20 21  2  0
 20 52  1  0
 21 22  1  0
 21 53  1  0
 22 23  2  0
 22 54  1  0
 23 24  1  0
 24 25  1  0
 24 55  1  0
 25 36  1  0
 25 26  2  0
 26 27  1  0
 27 28  2  0
 27 56  1  0
 28 29  1  0
 28 35  1  0
 29 34  1  0
 29 30  2  0
 30 31  1  0
 30 57  1  0
 31 32  2  0
 31 58  1  0
 32 33  1  0
 32 59  1  0
 33 34  2  0
 33 60  1  0
 34 61  1  0
 35 36  2  0
 35 62  1  0
 37 38  1  0
 37 39  1  0
M  CHG  1   7   1
M  END
>  <DOCK_score>  (1) 
-57.700127

>  <SMILES>  (1) 
Nc1cccc2[nH+]c(Nc3ccccc3Nc3ccccc3Nc3ncc(-c4ccccc4)cn3)[nH]c12

$$$$
