[NH3+][C@@H](CN[C@@H]1c2ccccc2-c2ccc(O)cc21)C(=O)Nc1cc(O)cc(O)c1
     RDKit          3D

 51 54  0  0  1  0  0  0  0  0999 V2000
  129.8575  136.1413  158.5724 N   0  0  0  0  0  0  0  0  0  0  0  0
  130.7623  136.4867  158.2896 H   0  0  0  0  0  0  0  0  0  0  0  0
  129.3943  135.7230  157.7796 H   0  0  0  0  0  0  0  0  0  0  0  0
  129.3001  136.9058  158.9229 H   0  0  0  0  0  0  0  0  0  0  0  0
  130.0261  135.1340  159.6283 C   0  0  1  0  0  0  0  0  0  0  0  0
  130.6282  134.3080  159.2498 H   0  0  0  0  0  0  0  0  0  0  0  0
  130.7285  135.7680  160.8306 C   0  0  0  0  0  0  0  0  0  0  0  0
  132.0459  136.2709  160.4188 N   0  0  0  0  0  0  0  0  0  0  0  0
  132.5452  137.2763  161.3664 C   0  0  2  0  0  0  0  0  0  0  0  0
  131.7311  137.9260  161.6873 H   0  0  0  0  0  0  0  0  0  0  0  0
  133.6425  138.0923  160.7281 C   0  0  0  0  0  0  0  0  0  0  0  0
  133.6612  138.9115  159.6189 C   0  0  0  0  0  0  0  0  0  0  0  0
  134.8309  139.5523  159.2508 C   0  0  0  0  0  0  0  0  0  0  0  0
  135.9836  139.3731  159.9946 C   0  0  0  0  0  0  0  0  0  0  0  0
  135.9741  138.5555  161.1052 C   0  0  0  0  0  0  0  0  0  0  0  0
  134.7973  137.9053  161.4823 C   0  0  0  0  0  0  0  0  0  0  0  0
  134.5077  136.9860  162.6106 C   0  0  0  0  0  0  0  0  0  0  0  0
  135.3268  136.4974  163.6310 C   0  0  0  0  0  0  0  0  0  0  0  0
  134.8112  135.6394  164.5781 C   0  0  0  0  0  0  0  0  0  0  0  0
  133.4774  135.2574  164.5224 C   0  0  0  0  0  0  0  0  0  0  0  0
  132.9732  134.4112  165.4582 O   0  0  0  0  0  0  0  0  0  0  0  0
  132.6594  135.7401  163.5096 C   0  0  0  0  0  0  0  0  0  0  0  0
  133.1711  136.5987  162.5610 C   0  0  0  0  0  0  0  0  0  0  0  0
  128.6747  134.6180  160.0508 C   0  0  0  0  0  0  0  0  0  0  0  0
  127.7017  135.3388  159.9818 O   0  0  0  0  0  0  0  0  0  0  0  0
  128.5471  133.3556  160.5052 N   0  0  0  0  0  0  0  0  0  0  0  0
  127.2924  132.8766  160.8974 C   0  0  0  0  0  0  0  0  0  0  0  0
  126.9928  131.5273  160.7680 C   0  0  0  0  0  0  0  0  0  0  0  0
  125.7492  131.0533  161.1563 C   0  0  0  0  0  0  0  0  0  0  0  0
  125.4556  129.7326  161.0293 O   0  0  0  0  0  0  0  0  0  0  0  0
  124.8026  131.9277  161.6691 C   0  0  0  0  0  0  0  0  0  0  0  0
  125.1031  133.2750  161.8036 C   0  0  0  0  0  0  0  0  0  0  0  0
  124.1769  134.1303  162.3109 O   0  0  0  0  0  0  0  0  0  0  0  0
  126.3464  133.7503  161.4157 C   0  0  0  0  0  0  0  0  0  0  0  0
  130.1263  136.5940  161.2092 H   0  0  0  0  0  0  0  0  0  0  0  0
  130.8536  135.0206  161.6141 H   0  0  0  0  0  0  0  0  0  0  0  0
  132.7050  135.5144  160.3134 H   0  0  0  0  0  0  0  0  0  0  0  0
  132.7622  139.0532  159.0374 H   0  0  0  0  0  0  0  0  0  0  0  0
  134.8439  140.1935  158.3820 H   0  0  0  0  0  0  0  0  0  0  0  0
  136.8946  139.8751  159.7038 H   0  0  0  0  0  0  0  0  0  0  0  0
  136.8764  138.4184  161.6828 H   0  0  0  0  0  0  0  0  0  0  0  0
  136.3647  136.7919  163.6776 H   0  0  0  0  0  0  0  0  0  0  0  0
  135.4466  135.2626  165.3660 H   0  0  0  0  0  0  0  0  0  0  0  0
  132.0366  134.2034  165.3367 H   0  0  0  0  0  0  0  0  0  0  0  0
  131.6217  135.4435  163.4658 H   0  0  0  0  0  0  0  0  0  0  0  0
  129.3253  132.7790  160.5604 H   0  0  0  0  0  0  0  0  0  0  0  0
  127.7285  130.8469  160.3653 H   0  0  0  0  0  0  0  0  0  0  0  0
  124.5658  129.4971  161.3259 H   0  0  0  0  0  0  0  0  0  0  0  0
  123.8325  131.5587  161.9677 H   0  0  0  0  0  0  0  0  0  0  0  0
  124.4775  135.0478  162.3663 H   0  0  0  0  0  0  0  0  0  0  0  0
  126.5790  134.8001  161.5169 H   0  0  0  0  0  0  0  0  0  0  0  0
  1  2  1  0
  1  3  1  0
  1  4  1  0
  1  5  1  0
  5  6  1  6
  5  7  1  0
  5 24  1  0
  7  8  1  0
  7 35  1  0
  7 36  1  0
  8  9  1  0
  8 37  1  0
  9 10  1  1
  9 23  1  0
  9 11  1  0
 11 16  1  0
 11 12  2  0
 12 13  1  0
 12 38  1  0
 13 14  2  0
 13 39  1  0
 14 15  1  0
 14 40  1  0
 15 16  2  0
 15 41  1  0
 16 17  1  0
 17 23  2  0
 17 18  1  0
 18 19  2  0
 18 42  1  0
 19 20  1  0
 19 43  1  0
 20 21  1  0
 20 22  2  0
 21 44  1  0
 22 23  1  0
 22 45  1  0
 24 25  2  0
 24 26  1  0
 26 27  1  0
 26 46  1  0
 27 34  1  0
 27 28  2  0
 28 29  1  0
 28 47  1  0
 29 30  1  0
 29 31  2  0
 30 48  1  0
 31 32  1  0
 31 49  1  0
 32 33  1  0
 32 34  2  0
 33 50  1  0
 34 51  1  0
M  CHG  1   1   1
M  END
>  <DOCK_score>  (1) 
-41.313194

>  <SMILES>  (1) 
[NH3+][C@@H](CN[C@@H]1c2ccccc2-c2ccc(O)cc21)C(=O)Nc1cc(O)cc(O)c1

$$$$
