CCn1ncnc1CNc1cccc(N2CC[NH+]([C@@H](C(=O)N3CC=CC3)c3ccccc3)CC2)c1
     RDKit          3D

 69 73  0  0  1  0  0  0  0  0999 V2000
  136.0020  139.0849  167.6888 C   0  0  0  0  0  0  0  0  0  0  0  0
  137.1927  139.4285  166.7916 C   0  0  0  0  0  0  0  0  0  0  0  0
  137.1625  140.8565  166.4655 N   0  0  0  0  0  0  0  0  0  0  0  0
  137.7665  141.8980  167.1887 N   0  0  0  0  0  0  0  0  0  0  0  0
  137.4932  143.0069  166.5532 C   0  0  0  0  0  0  0  0  0  0  0  0
  136.7614  142.7200  165.4773 N   0  0  0  0  0  0  0  0  0  0  0  0
  136.5506  141.4303  165.4152 C   0  0  0  0  0  0  0  0  0  0  0  0
  135.7643  140.7124  164.3485 C   0  0  0  0  0  0  0  0  0  0  0  0
  136.1434  141.2292  163.0312 N   0  0  0  0  0  0  0  0  0  0  0  0
  135.5441  140.7137  161.8798 C   0  0  0  0  0  0  0  0  0  0  0  0
  135.8992  141.2074  160.6300 C   0  0  0  0  0  0  0  0  0  0  0  0
  135.3115  140.6937  159.4903 C   0  0  0  0  0  0  0  0  0  0  0  0
  134.3602  139.6964  159.5893 C   0  0  0  0  0  0  0  0  0  0  0  0
  133.9966  139.2023  160.8360 C   0  0  0  0  0  0  0  0  0  0  0  0
  133.0348  138.1943  160.9351 N   0  0  0  0  0  0  0  0  0  0  0  0
  133.4983  136.9588  160.2878 C   0  0  0  0  0  0  0  0  0  0  0  0
  132.4440  135.8648  160.4700 C   0  0  0  0  0  0  0  0  0  0  0  0
  131.1749  136.3034  159.8746 N   0  0  0  0  0  0  0  0  0  0  0  0
  131.3117  136.4921  158.8929 H   0  0  0  0  0  0  0  0  0  0  0  0
  130.1681  135.2455  160.0337 C   0  0  1  0  0  0  0  0  0  0  0  0
  130.0207  135.0409  161.0942 H   0  0  0  0  0  0  0  0  0  0  0  0
  128.8661  135.6954  159.4230 C   0  0  0  0  0  0  0  0  0  0  0  0
  128.8699  136.4602  158.4819 O   0  0  0  0  0  0  0  0  0  0  0  0
  127.6971  135.2476  159.9227 N   0  0  0  0  0  0  0  0  0  0  0  0
  127.5071  134.3196  161.0465 C   0  0  0  0  0  0  0  0  0  0  0  0
  126.0232  134.1316  161.2206 C   0  0  0  0  0  0  0  0  0  0  0  0
  125.3751  134.8314  160.3316 C   0  0  0  0  0  0  0  0  0  0  0  0
  126.3440  135.5796  159.4547 C   0  0  0  0  0  0  0  0  0  0  0  0
  130.6416  133.9932  159.3417 C   0  0  0  0  0  0  0  0  0  0  0  0
  130.3197  133.7728  158.0155 C   0  0  0  0  0  0  0  0  0  0  0  0
  130.7577  132.6263  157.3794 C   0  0  0  0  0  0  0  0  0  0  0  0
  131.5099  131.6959  158.0722 C   0  0  0  0  0  0  0  0  0  0  0  0
  131.8273  131.9140  159.3998 C   0  0  0  0  0  0  0  0  0  0  0  0
  131.3929  133.0626  160.0346 C   0  0  0  0  0  0  0  0  0  0  0  0
  130.7125  137.5242  160.5478 C   0  0  0  0  0  0  0  0  0  0  0  0
  131.7523  138.6322  160.3663 C   0  0  0  0  0  0  0  0  0  0  0  0
  134.5895  139.7120  161.9827 C   0  0  0  0  0  0  0  0  0  0  0  0
  136.0591  139.6687  168.6076 H   0  0  0  0  0  0  0  0  0  0  0  0
  135.0742  139.3189  167.1667 H   0  0  0  0  0  0  0  0  0  0  0  0
  136.0245  138.0226  167.9314 H   0  0  0  0  0  0  0  0  0  0  0  0
  137.1357  138.8447  165.8728 H   0  0  0  0  0  0  0  0  0  0  0  0
  138.1205  139.1946  167.3136 H   0  0  0  0  0  0  0  0  0  0  0  0
  137.8128  143.9951  166.8495 H   0  0  0  0  0  0  0  0  0  0  0  0
  135.9789  139.6449  164.3957 H   0  0  0  0  0  0  0  0  0  0  0  0
  134.6989  140.8764  164.5102 H   0  0  0  0  0  0  0  0  0  0  0  0
  136.8109  141.9294  162.9586 H   0  0  0  0  0  0  0  0  0  0  0  0
  136.6389  141.9902  160.5495 H   0  0  0  0  0  0  0  0  0  0  0  0
  135.5925  141.0760  158.5201 H   0  0  0  0  0  0  0  0  0  0  0  0
  133.8992  139.3004  158.6965 H   0  0  0  0  0  0  0  0  0  0  0  0
  133.6530  137.1414  159.2244 H   0  0  0  0  0  0  0  0  0  0  0  0
  134.4360  136.6396  160.7426 H   0  0  0  0  0  0  0  0  0  0  0  0
  132.2994  135.6729  161.5332 H   0  0  0  0  0  0  0  0  0  0  0  0
  132.7795  134.9515  159.9784 H   0  0  0  0  0  0  0  0  0  0  0  0
  127.9803  133.3635  160.8223 H   0  0  0  0  0  0  0  0  0  0  0  0
  127.9346  134.7441  161.9548 H   0  0  0  0  0  0  0  0  0  0  0  0
  125.5628  133.5052  161.9704 H   0  0  0  0  0  0  0  0  0  0  0  0
  124.2998  134.8687  160.2377 H   0  0  0  0  0  0  0  0  0  0  0  0
  126.1731  136.6525  159.5441 H   0  0  0  0  0  0  0  0  0  0  0  0
  126.2240  135.2702  158.4164 H   0  0  0  0  0  0  0  0  0  0  0  0
  129.7289  134.4978  157.4754 H   0  0  0  0  0  0  0  0  0  0  0  0
  130.5100  132.4559  156.3421 H   0  0  0  0  0  0  0  0  0  0  0  0
  131.8496  130.7989  157.5761 H   0  0  0  0  0  0  0  0  0  0  0  0
  132.4148  131.1872  159.9409 H   0  0  0  0  0  0  0  0  0  0  0  0
  131.6409  133.2330  161.0718 H   0  0  0  0  0  0  0  0  0  0  0  0
  130.5767  137.3240  161.6106 H   0  0  0  0  0  0  0  0  0  0  0  0
  129.7641  137.8414  160.1139 H   0  0  0  0  0  0  0  0  0  0  0  0
  131.4162  139.5338  160.8784 H   0  0  0  0  0  0  0  0  0  0  0  0
  131.8783  138.8422  159.3042 H   0  0  0  0  0  0  0  0  0  0  0  0
  134.3089  139.3295  162.9529 H   0  0  0  0  0  0  0  0  0  0  0  0
  1  2  1  0
  1 38  1  0
  1 39  1  0
  1 40  1  0
  2  3  1  0
  2 41  1  0
  2 42  1  0
  3  7  1  0
  3  4  1  0
  4  5  2  0
  5  6  1  0
  5 43  1  0
  6  7  2  0
  7  8  1  0
  8  9  1  0
  8 44  1  0
  8 45  1  0
  9 10  1  0
  9 46  1  0
 10 37  1  0
 10 11  2  0
 11 12  1  0
 11 47  1  0
 12 13  2  0
 12 48  1  0
 13 14  1  0
 13 49  1  0
 14 15  1  0
 14 37  2  0
 15 36  1  0
 15 16  1  0
 16 17  1  0
 16 50  1  0
 16 51  1  0
 17 18  1  0
 17 52  1  0
 17 53  1  0
 18 19  1  0
 18 20  1  0
 18 35  1  0
 20 21  1  1
 20 22  1  0
 20 29  1  0
 22 23  2  0
 22 24  1  0
 24 28  1  0
 24 25  1  0
 25 26  1  0
 25 54  1  0
 25 55  1  0
 26 27  2  0
 26 56  1  0
 27 28  1  0
 27 57  1  0
 28 58  1  0
 28 59  1  0
 29 34  1  0
 29 30  2  0
 30 31  1  0
 30 60  1  0
 31 32  2  0
 31 61  1  0
 32 33  1  0
 32 62  1  0
 33 34  2  0
 33 63  1  0
 34 64  1  0
 35 36  1  0
 35 65  1  0
 35 66  1  0
 36 67  1  0
 36 68  1  0
 37 69  1  0
M  CHG  1  18   1
M  END
>  <DOCK_score>  (1) 
-57.256069

>  <SMILES>  (1) 
CCn1ncnc1CNc1cccc(N2CC[NH+]([C@@H](C(=O)N3CC=CC3)c3ccccc3)CC2)c1

$$$$
