CCc1ccc(-c2c[nH]c(NCCc3ccccc3CCc3ccc(O)cc3)[nH+]2)cc1
     RDKit          3D

 61 64  0  0  1  0  0  0  0  0999 V2000
  130.3706  128.6045  151.9143 C   0  0  0  0  0  0  0  0  0  0  0  0
  131.4601  129.6310  152.2339 C   0  0  0  0  0  0  0  0  0  0  0  0
  131.0731  130.4067  153.4666 C   0  0  0  0  0  0  0  0  0  0  0  0
  131.4569  129.9518  154.7156 C   0  0  0  0  0  0  0  0  0  0  0  0
  131.1054  130.6580  155.8479 C   0  0  0  0  0  0  0  0  0  0  0  0
  130.3624  131.8314  155.7315 C   0  0  0  0  0  0  0  0  0  0  0  0
  129.9815  132.5950  156.9449 C   0  0  0  0  0  0  0  0  0  0  0  0
  129.2296  132.1335  157.9748 C   0  0  0  0  0  0  0  0  0  0  0  0
  129.1259  133.1587  158.8832 N   0  0  0  0  0  0  0  0  0  0  0  0
  128.6502  133.1317  159.7281 H   0  0  0  0  0  0  0  0  0  0  0  0
  129.8114  134.2202  158.3777 C   0  0  0  0  0  0  0  0  0  0  0  0
  129.9496  135.4552  158.9877 N   0  0  0  0  0  0  0  0  0  0  0  0
  129.3274  135.7025  160.2907 C   0  0  0  0  0  0  0  0  0  0  0  0
  128.9622  137.1835  160.4088 C   0  0  0  0  0  0  0  0  0  0  0  0
  130.2092  138.0201  160.2808 C   0  0  0  0  0  0  0  0  0  0  0  0
  130.6225  138.4587  159.0366 C   0  0  0  0  0  0  0  0  0  0  0  0
  131.7661  139.2262  158.9194 C   0  0  0  0  0  0  0  0  0  0  0  0
  132.4966  139.5550  160.0462 C   0  0  0  0  0  0  0  0  0  0  0  0
  132.0808  139.1201  161.2905 C   0  0  0  0  0  0  0  0  0  0  0  0
  130.9397  138.3482  161.4073 C   0  0  0  0  0  0  0  0  0  0  0  0
  130.4890  137.8701  162.7635 C   0  0  0  0  0  0  0  0  0  0  0  0
  129.5498  138.9067  163.3835 C   0  0  0  0  0  0  0  0  0  0  0  0
  129.0991  138.4285  164.7396 C   0  0  0  0  0  0  0  0  0  0  0  0
  129.8309  138.7576  165.8658 C   0  0  0  0  0  0  0  0  0  0  0  0
  129.4231  138.3156  167.1095 C   0  0  0  0  0  0  0  0  0  0  0  0
  128.2718  137.5507  167.2294 C   0  0  0  0  0  0  0  0  0  0  0  0
  127.8657  137.1193  168.4524 O   0  0  0  0  0  0  0  0  0  0  0  0
  127.5391  137.2224  166.0980 C   0  0  0  0  0  0  0  0  0  0  0  0
  127.9544  137.6619  164.8559 C   0  0  0  0  0  0  0  0  0  0  0  0
  130.3237  133.8785  157.2207 N   0  0  0  0  0  0  0  0  0  0  0  0
  130.8617  134.4517  156.6524 H   0  0  0  0  0  0  0  0  0  0  0  0
  129.9736  132.2817  154.4711 C   0  0  0  0  0  0  0  0  0  0  0  0
  130.3353  131.5701  153.3452 C   0  0  0  0  0  0  0  0  0  0  0  0
  130.6505  128.0435  151.0226 H   0  0  0  0  0  0  0  0  0  0  0  0
  130.2591  127.9193  152.7546 H   0  0  0  0  0  0  0  0  0  0  0  0
  129.4265  129.1198  151.7378 H   0  0  0  0  0  0  0  0  0  0  0  0
  131.5713  130.3157  151.3937 H   0  0  0  0  0  0  0  0  0  0  0  0
  132.4039  129.1152  152.4105 H   0  0  0  0  0  0  0  0  0  0  0  0
  132.0327  129.0425  154.8046 H   0  0  0  0  0  0  0  0  0  0  0  0
  131.4058  130.3023  156.8225 H   0  0  0  0  0  0  0  0  0  0  0  0
  128.7979  131.1477  158.0651 H   0  0  0  0  0  0  0  0  0  0  0  0
  130.4586  136.1570  158.5524 H   0  0  0  0  0  0  0  0  0  0  0  0
  130.0265  135.4362  161.0835 H   0  0  0  0  0  0  0  0  0  0  0  0
  128.4255  135.0974  160.3832 H   0  0  0  0  0  0  0  0  0  0  0  0
  128.4992  137.3673  161.3784 H   0  0  0  0  0  0  0  0  0  0  0  0
  128.2632  137.4497  159.6160 H   0  0  0  0  0  0  0  0  0  0  0  0
  130.0520  138.2019  158.1564 H   0  0  0  0  0  0  0  0  0  0  0  0
  132.0891  139.5689  157.9474 H   0  0  0  0  0  0  0  0  0  0  0  0
  133.3904  140.1545  159.9544 H   0  0  0  0  0  0  0  0  0  0  0  0
  132.6492  139.3804  162.1711 H   0  0  0  0  0  0  0  0  0  0  0  0
  131.3574  137.7351  163.4082 H   0  0  0  0  0  0  0  0  0  0  0  0
  129.9637  136.9209  162.6581 H   0  0  0  0  0  0  0  0  0  0  0  0
  128.6813  139.0416  162.7388 H   0  0  0  0  0  0  0  0  0  0  0  0
  130.0751  139.8559  163.4890 H   0  0  0  0  0  0  0  0  0  0  0  0
  130.7245  139.3567  165.7724 H   0  0  0  0  0  0  0  0  0  0  0  0
  129.9976  138.5689  167.9881 H   0  0  0  0  0  0  0  0  0  0  0  0
  128.4423  137.3948  169.1781 H   0  0  0  0  0  0  0  0  0  0  0  0
  126.6451  136.6233  166.1883 H   0  0  0  0  0  0  0  0  0  0  0  0
  127.3844  137.4062  163.9749 H   0  0  0  0  0  0  0  0  0  0  0  0
  129.3935  133.1877  154.3753 H   0  0  0  0  0  0  0  0  0  0  0  0
  130.0380  131.9202  152.3677 H   0  0  0  0  0  0  0  0  0  0  0  0
  1  2  1  0
  1 34  1  0
  1 35  1  0
  1 36  1  0
  2  3  1  0
  2 37  1  0
  2 38  1  0
  3 33  2  0
  3  4  1  0
  4  5  2  0
  4 39  1  0
  5  6  1  0
  5 40  1  0
  6  7  1  0
  6 32  2  0
  7 30  1  0
  7  8  2  0
  8  9  1  0
  8 41  1  0
  9 10  1  0
  9 11  1  0
 11 12  1  0
 11 30  2  0
 12 13  1  0
 12 42  1  0
 13 14  1  0
 13 43  1  0
 13 44  1  0
 14 15  1  0
 14 45  1  0
 14 46  1  0
 15 20  1  0
 15 16  2  0
 16 17  1  0
 16 47  1  0
 17 18  2  0
 17 48  1  0
 18 19  1  0
 18 49  1  0
 19 20  2  0
 19 50  1  0
 20 21  1  0
 21 22  1  0
 21 51  1  0
 21 52  1  0
 22 23  1  0
 22 53  1  0
 22 54  1  0
 23 29  1  0
 23 24  2  0
 24 25  1  0
 24 55  1  0
 25 26  2  0
 25 56  1  0
 26 27  1  0
 26 28  1  0
 27 57  1  0
 28 29  2  0
 28 58  1  0
 29 59  1  0
 30 31  1  0
 32 33  1  0
 32 60  1  0
 33 61  1  0
M  CHG  1  30   1
M  END
>  <DOCK_score>  (1) 
-57.261524

>  <SMILES>  (1) 
CCc1ccc(-c2c[nH]c(NCCc3ccccc3CCc3ccc(O)cc3)[nH+]2)cc1

$$$$
