O=C1CCC(NC(NC2CC2)=[NH+][C@H]2COc3cc(F)ccc3C2)CN1
     RDKit          3D

 49 52  0  0  1  0  0  0  0  0999 V2000
  123.6565  133.7209  161.5143 O   0  0  0  0  0  0  0  0  0  0  0  0
  124.8192  133.9444  161.2511 C   0  0  0  0  0  0  0  0  0  0  0  0
  125.6576  132.8164  160.7216 C   0  0  0  0  0  0  0  0  0  0  0  0
  127.1425  133.1589  160.8659 C   0  0  0  0  0  0  0  0  0  0  0  0
  127.3711  134.5688  160.3078 C   0  0  2  0  0  0  0  0  0  0  0  0
  128.8066  134.8589  160.2694 N   0  0  0  0  0  0  0  0  0  0  0  0
  129.5408  134.5488  159.1491 C   0  0  0  0  0  0  0  0  0  0  0  0
  128.9278  133.9665  158.0650 N   0  0  0  0  0  0  0  0  0  0  0  0
  129.7099  133.6360  156.8712 C   0  0  0  0  0  0  0  0  0  0  0  0
  129.5939  132.2125  156.3223 C   0  0  0  0  0  0  0  0  0  0  0  0
  130.8726  132.6556  157.0375 C   0  0  0  0  0  0  0  0  0  0  0  0
  130.8179  134.8071  159.1148 N   0  0  0  0  0  0  0  0  0  0  0  0
  131.2490  135.0108  158.2701 H   0  0  0  0  0  0  0  0  0  0  0  0
  131.6022  134.7895  160.3521 C   0  0  1  0  0  0  0  0  0  0  0  0
  130.9550  134.5433  161.1938 H   0  0  0  0  0  0  0  0  0  0  0  0
  132.7229  133.7480  160.2394 C   0  0  0  0  0  0  0  0  0  0  0  0
  133.4033  133.6808  161.4932 O   0  0  0  0  0  0  0  0  0  0  0  0
  133.7992  134.8479  162.0645 C   0  0  0  0  0  0  0  0  0  0  0  0
  134.7574  134.8020  163.0717 C   0  0  0  0  0  0  0  0  0  0  0  0
  135.1819  135.9674  163.6810 C   0  0  0  0  0  0  0  0  0  0  0  0
  136.1122  135.9192  164.6596 F   0  0  0  0  0  0  0  0  0  0  0  0
  134.6519  137.1852  163.2873 C   0  0  0  0  0  0  0  0  0  0  0  0
  133.7024  137.2324  162.2861 C   0  0  0  0  0  0  0  0  0  0  0  0
  133.2748  136.0668  161.6715 C   0  0  0  0  0  0  0  0  0  0  0  0
  132.2418  136.1619  160.5771 C   0  0  0  0  0  0  0  0  0  0  0  0
  126.6682  135.5761  161.2188 C   0  0  0  0  0  0  0  0  0  0  0  0
  125.2848  135.1785  161.4473 N   0  0  0  0  0  0  0  0  0  0  0  0
  125.4239  132.6547  159.6694 H   0  0  0  0  0  0  0  0  0  0  0  0
  125.4388  131.9091  161.2848 H   0  0  0  0  0  0  0  0  0  0  0  0
  127.7408  132.4408  160.3054 H   0  0  0  0  0  0  0  0  0  0  0  0
  127.4256  133.1304  161.9181 H   0  0  0  0  0  0  0  0  0  0  0  0
  126.9576  134.6353  159.3015 H   0  0  0  0  0  0  0  0  0  0  0  0
  129.2390  135.2697  161.0342 H   0  0  0  0  0  0  0  0  0  0  0  0
  127.9772  133.7746  158.0905 H   0  0  0  0  0  0  0  0  0  0  0  0
  129.8327  134.4448  156.1508 H   0  0  0  0  0  0  0  0  0  0  0  0
  128.9356  131.5220  156.8494 H   0  0  0  0  0  0  0  0  0  0  0  0
  129.6407  132.0848  155.2409 H   0  0  0  0  0  0  0  0  0  0  0  0
  131.7603  132.8191  156.4263 H   0  0  0  0  0  0  0  0  0  0  0  0
  131.0557  132.2565  158.0352 H   0  0  0  0  0  0  0  0  0  0  0  0
  132.2960  132.7739  160.0006 H   0  0  0  0  0  0  0  0  0  0  0  0
  133.4221  134.0443  159.4576 H   0  0  0  0  0  0  0  0  0  0  0  0
  135.1706  133.8527  163.3790 H   0  0  0  0  0  0  0  0  0  0  0  0
  134.9815  138.0972  163.7628 H   0  0  0  0  0  0  0  0  0  0  0  0
  133.2906  138.1830  161.9807 H   0  0  0  0  0  0  0  0  0  0  0  0
  132.7195  136.4950  159.6558 H   0  0  0  0  0  0  0  0  0  0  0  0
  131.4719  136.8780  160.8651 H   0  0  0  0  0  0  0  0  0  0  0  0
  126.6877  136.5601  160.7505 H   0  0  0  0  0  0  0  0  0  0  0  0
  127.1916  135.6245  162.1737 H   0  0  0  0  0  0  0  0  0  0  0  0
  124.6647  135.8529  161.7658 H   0  0  0  0  0  0  0  0  0  0  0  0
  1  2  2  0
  2 27  1  0
  2  3  1  0
  3  4  1  0
  3 28  1  0
  3 29  1  0
  4  5  1  0
  4 30  1  0
  4 31  1  0
  5  6  1  0
  5 26  1  0
  5 32  1  6
  6 33  1  0
  7  6  1  0
  7  8  1  0
  7 12  2  0
  8  9  1  0
  8 34  1  0
  9 11  1  0
  9 10  1  0
  9 35  1  0
 10 11  1  0
 10 36  1  0
 10 37  1  0
 11 38  1  0
 11 39  1  0
 12 13  1  0
 12 14  1  0
 14 15  1  1
 14 25  1  0
 14 16  1  0
 16 17  1  0
 16 40  1  0
 16 41  1  0
 17 18  1  0
 18 24  2  0
 18 19  1  0
 19 20  2  0
 19 42  1  0
 20 21  1  0
 20 22  1  0
 22 23  2  0
 22 43  1  0
 23 24  1  0
 23 44  1  0
 24 25  1  0
 25 45  1  0
 25 46  1  0
 26 27  1  0
 26 47  1  0
 26 48  1  0
 27 49  1  0
M  CHG  1  12   1
M  END
>  <DOCK_score>  (1) 
-47.709496

>  <SMILES>  (1) 
O=C1CCC(NC(NC2CC2)=[NH+][C@H]2COc3cc(F)ccc3C2)CN1

$$$$
