Cc1[nH]c(Nc2c(F)cc(NC(=O)NC[C@@H]3CC3(F)F)cc2NC2CC=CC2)[nH+]c1C
     RDKit          3D

 57 60  0  0  1  0  0  0  0  0999 V2000
  130.8394  131.3869  156.0133 C   0  0  0  0  0  0  0  0  0  0  0  0
  130.6292  132.2282  157.2458 C   0  0  0  0  0  0  0  0  0  0  0  0
  130.7787  133.5774  157.3342 N   0  0  0  0  0  0  0  0  0  0  0  0
  131.0402  134.1693  156.6116 H   0  0  0  0  0  0  0  0  0  0  0  0
  130.5038  133.9450  158.5830 C   0  0  0  0  0  0  0  0  0  0  0  0
  130.5442  135.2377  159.0700 N   0  0  0  0  0  0  0  0  0  0  0  0
  130.2298  135.4915  160.4152 C   0  0  0  0  0  0  0  0  0  0  0  0
  129.3271  134.6754  161.0838 C   0  0  0  0  0  0  0  0  0  0  0  0
  128.7505  133.6368  160.4401 F   0  0  0  0  0  0  0  0  0  0  0  0
  129.0178  134.9253  162.4092 C   0  0  0  0  0  0  0  0  0  0  0  0
  129.6089  135.9919  163.0731 C   0  0  0  0  0  0  0  0  0  0  0  0
  129.2935  136.2423  164.4154 N   0  0  0  0  0  0  0  0  0  0  0  0
  128.0760  135.9178  164.8934 C   0  0  0  0  0  0  0  0  0  0  0  0
  127.2511  135.4077  164.1600 O   0  0  0  0  0  0  0  0  0  0  0  0
  127.7727  136.1587  166.1843 N   0  0  0  0  0  0  0  0  0  0  0  0
  126.4491  135.8059  166.7039 C   0  0  0  0  0  0  0  0  0  0  0  0
  126.3659  136.1814  168.1848 C   0  0  2  0  0  0  0  0  0  0  0  0
  126.5129  137.2375  168.4109 H   0  0  0  0  0  0  0  0  0  0  0  0
  126.8832  135.1623  169.2020 C   0  0  0  0  0  0  0  0  0  0  0  0
  125.3787  135.4028  169.0566 C   0  0  0  0  0  0  0  0  0  0  0  0
  124.7338  136.1008  170.0835 F   0  0  0  0  0  0  0  0  0  0  0  0
  124.6209  134.4022  168.4386 F   0  0  0  0  0  0  0  0  0  0  0  0
  130.5115  136.8106  162.4087 C   0  0  0  0  0  0  0  0  0  0  0  0
  130.8235  136.5627  161.0803 C   0  0  0  0  0  0  0  0  0  0  0  0
  131.7331  137.3874  160.4086 N   0  0  0  0  0  0  0  0  0  0  0  0
  132.8133  138.0430  161.1498 C   0  0  0  0  0  0  0  0  0  0  0  0
  132.4410  139.5028  161.4984 C   0  0  0  0  0  0  0  0  0  0  0  0
  133.7319  140.2741  161.3509 C   0  0  0  0  0  0  0  0  0  0  0  0
  134.6127  139.5909  160.6717 C   0  0  0  0  0  0  0  0  0  0  0  0
  134.0559  138.2500  160.2530 C   0  0  0  0  0  0  0  0  0  0  0  0
  130.1892  132.8604  159.2862 N   0  0  0  0  0  0  0  0  0  0  0  0
  129.9491  132.8416  160.2258 H   0  0  0  0  0  0  0  0  0  0  0  0
  130.2596  131.7826  158.4590 C   0  0  0  0  0  0  0  0  0  0  0  0
  129.9797  130.3504  158.8354 C   0  0  0  0  0  0  0  0  0  0  0  0
  131.8776  131.0576  155.9709 H   0  0  0  0  0  0  0  0  0  0  0  0
  130.1835  130.5172  156.0509 H   0  0  0  0  0  0  0  0  0  0  0  0
  130.6090  131.9776  155.1266 H   0  0  0  0  0  0  0  0  0  0  0  0
  130.7897  135.9697  158.4830 H   0  0  0  0  0  0  0  0  0  0  0  0
  128.3188  134.2870  162.9292 H   0  0  0  0  0  0  0  0  0  0  0  0
  129.9516  136.6492  165.0004 H   0  0  0  0  0  0  0  0  0  0  0  0
  128.4307  136.5656  166.7693 H   0  0  0  0  0  0  0  0  0  0  0  0
  125.6841  136.3482  166.1480 H   0  0  0  0  0  0  0  0  0  0  0  0
  126.2886  134.7336  166.5913 H   0  0  0  0  0  0  0  0  0  0  0  0
  127.2829  134.2244  168.8163 H   0  0  0  0  0  0  0  0  0  0  0  0
  127.3706  135.5480  170.0976 H   0  0  0  0  0  0  0  0  0  0  0  0
  130.9701  137.6404  162.9258 H   0  0  0  0  0  0  0  0  0  0  0  0
  131.6482  137.5250  159.4521 H   0  0  0  0  0  0  0  0  0  0  0  0
  133.0680  137.4785  162.0468 H   0  0  0  0  0  0  0  0  0  0  0  0
  131.6917  139.8801  160.8026 H   0  0  0  0  0  0  0  0  0  0  0  0
  132.0753  139.5670  162.5233 H   0  0  0  0  0  0  0  0  0  0  0  0
  133.9036  141.2609  161.7547 H   0  0  0  0  0  0  0  0  0  0  0  0
  135.6086  139.9383  160.4397 H   0  0  0  0  0  0  0  0  0  0  0  0
  134.7882  137.4625  160.4310 H   0  0  0  0  0  0  0  0  0  0  0  0
  133.7666  138.2704  159.2022 H   0  0  0  0  0  0  0  0  0  0  0  0
  130.8998  129.8790  159.1806 H   0  0  0  0  0  0  0  0  0  0  0  0
  129.2362  130.3228  159.6319 H   0  0  0  0  0  0  0  0  0  0  0  0
  129.6005  129.8137  157.9657 H   0  0  0  0  0  0  0  0  0  0  0  0
  1  2  1  0
  1 35  1  0
  1 36  1  0
  1 37  1  0
  2 33  2  0
  2  3  1  0
  3  4  1  0
  3  5  1  0
  5  6  1  0
  5 31  2  0
  6  7  1  0
  6 38  1  0
  7 24  1  0
  7  8  2  0
  8  9  1  0
  8 10  1  0
 10 11  2  0
 10 39  1  0
 11 12  1  0
 11 23  1  0
 12 13  1  0
 12 40  1  0
 13 14  2  0
 13 15  1  0
 15 16  1  0
 15 41  1  0
 16 17  1  0
 16 42  1  0
 16 43  1  0
 17 18  1  6
 17 20  1  0
 17 19  1  0
 19 20  1  0
 19 44  1  0
 19 45  1  0
 20 21  1  0
 20 22  1  0
 23 24  2  0
 23 46  1  0
 24 25  1  0
 25 26  1  0
 25 47  1  0
 26 30  1  0
 26 27  1  0
 26 48  1  0
 27 28  1  0
 27 49  1  0
 27 50  1  0
 28 29  2  0
 28 51  1  0
 29 30  1  0
 29 52  1  0
 30 53  1  0
 30 54  1  0
 31 32  1  0
 31 33  1  0
 33 34  1  0
 34 55  1  0
 34 56  1  0
 34 57  1  0
M  CHG  1  31   1
M  END
>  <DOCK_score>  (1) 
-56.376419

>  <SMILES>  (1) 
Cc1[nH]c(Nc2c(F)cc(NC(=O)NC[C@@H]3CC3(F)F)cc2NC2CC=CC2)[nH+]c1C

$$$$
