Nc1ccc(-c2c[nH]c(N[C@@H]3C=C(c4cccc(NCC5=CCCCC5)c4)CCCC3)[nH+]2)cc1
     RDKit          3D

 70 74  0  0  1  0  0  0  0  0999 V2000
  130.9133  129.9198  152.1587 N   0  0  0  0  0  0  0  0  0  0  0  0
  130.8582  130.5406  153.4088 C   0  0  0  0  0  0  0  0  0  0  0  0
  130.4041  131.8500  153.5139 C   0  0  0  0  0  0  0  0  0  0  0  0
  130.3493  132.4650  154.7470 C   0  0  0  0  0  0  0  0  0  0  0  0
  130.7497  131.7723  155.8885 C   0  0  0  0  0  0  0  0  0  0  0  0
  130.6917  132.4317  157.2161 C   0  0  0  0  0  0  0  0  0  0  0  0
  130.4794  131.8147  158.4048 C   0  0  0  0  0  0  0  0  0  0  0  0
  130.5024  132.7924  159.3711 N   0  0  0  0  0  0  0  0  0  0  0  0
  130.3800  132.6612  160.3244 H   0  0  0  0  0  0  0  0  0  0  0  0
  130.7283  133.9782  158.7431 C   0  0  0  0  0  0  0  0  0  0  0  0
  130.8229  135.2131  159.3617 N   0  0  0  0  0  0  0  0  0  0  0  0
  130.6762  135.3171  160.8130 C   0  0  2  0  0  0  0  0  0  0  0  0
  129.8685  134.6344  161.1187 H   0  0  0  0  0  0  0  0  0  0  0  0
  130.2709  136.7096  161.1879 C   0  0  0  0  0  0  0  0  0  0  0  0
  131.0844  137.6498  161.5948 C   0  0  0  0  0  0  0  0  0  0  0  0
  130.4898  138.9642  161.9174 C   0  0  0  0  0  0  0  0  0  0  0  0
  130.3757  139.9428  160.9286 C   0  0  0  0  0  0  0  0  0  0  0  0
  129.8155  141.1672  161.2308 C   0  0  0  0  0  0  0  0  0  0  0  0
  129.3752  141.4333  162.5138 C   0  0  0  0  0  0  0  0  0  0  0  0
  129.4894  140.4677  163.5068 C   0  0  0  0  0  0  0  0  0  0  0  0
  129.0440  140.7415  164.8022 N   0  0  0  0  0  0  0  0  0  0  0  0
  129.5362  139.9460  165.9295 C   0  0  0  0  0  0  0  0  0  0  0  0
  128.6313  138.7594  166.1400 C   0  0  0  0  0  0  0  0  0  0  0  0
  129.1512  137.6782  166.6260 C   0  0  0  0  0  0  0  0  0  0  0  0
  128.3801  136.4173  166.8858 C   0  0  0  0  0  0  0  0  0  0  0  0
  126.8781  136.7095  166.8964 C   0  0  0  0  0  0  0  0  0  0  0  0
  126.5332  137.5238  165.6430 C   0  0  0  0  0  0  0  0  0  0  0  0
  127.1846  138.9028  165.7675 C   0  0  0  0  0  0  0  0  0  0  0  0
  130.0463  139.2323  163.2116 C   0  0  0  0  0  0  0  0  0  0  0  0
  132.5711  137.5142  161.7579 C   0  0  0  0  0  0  0  0  0  0  0  0
  133.1902  136.8468  160.5267 C   0  0  0  0  0  0  0  0  0  0  0  0
  133.1773  135.3310  160.7288 C   0  0  0  0  0  0  0  0  0  0  0  0
  131.9580  134.8883  161.5221 C   0  0  0  0  0  0  0  0  0  0  0  0
  130.8360  133.7592  157.4552 N   0  0  0  0  0  0  0  0  0  0  0  0
  130.9954  134.4380  156.7807 H   0  0  0  0  0  0  0  0  0  0  0  0
  131.2103  130.4611  155.7799 C   0  0  0  0  0  0  0  0  0  0  0  0
  131.2580  129.8481  154.5456 C   0  0  0  0  0  0  0  0  0  0  0  0
  130.6348  130.4026  151.3647 H   0  0  0  0  0  0  0  0  0  0  0  0
  131.2302  129.0061  152.0844 H   0  0  0  0  0  0  0  0  0  0  0  0
  130.0936  132.3860  152.6293 H   0  0  0  0  0  0  0  0  0  0  0  0
  129.9961  133.4823  154.8282 H   0  0  0  0  0  0  0  0  0  0  0  0
  130.3220  130.7580  158.5622 H   0  0  0  0  0  0  0  0  0  0  0  0
  130.9865  136.0095  158.8325 H   0  0  0  0  0  0  0  0  0  0  0  0
  129.2170  136.9599  161.1153 H   0  0  0  0  0  0  0  0  0  0  0  0
  130.7223  139.7403  159.9260 H   0  0  0  0  0  0  0  0  0  0  0  0
  129.7244  141.9216  160.4632 H   0  0  0  0  0  0  0  0  0  0  0  0
  128.9413  142.3949  162.7454 H   0  0  0  0  0  0  0  0  0  0  0  0
  128.4089  141.4586  164.9552 H   0  0  0  0  0  0  0  0  0  0  0  0
  130.5470  139.5986  165.7151 H   0  0  0  0  0  0  0  0  0  0  0  0
  129.5463  140.5596  166.8304 H   0  0  0  0  0  0  0  0  0  0  0  0
  130.2051  137.6851  166.8626 H   0  0  0  0  0  0  0  0  0  0  0  0
  128.6744  136.0033  167.8501 H   0  0  0  0  0  0  0  0  0  0  0  0
  128.6020  135.6938  166.1013 H   0  0  0  0  0  0  0  0  0  0  0  0
  126.6226  137.2827  167.7876 H   0  0  0  0  0  0  0  0  0  0  0  0
  126.3223  135.7718  166.8885 H   0  0  0  0  0  0  0  0  0  0  0  0
  125.4518  137.6351  165.5646 H   0  0  0  0  0  0  0  0  0  0  0  0
  126.9175  137.0155  164.7587 H   0  0  0  0  0  0  0  0  0  0  0  0
  126.6690  139.4779  166.5365 H   0  0  0  0  0  0  0  0  0  0  0  0
  127.1072  139.4263  164.8147 H   0  0  0  0  0  0  0  0  0  0  0  0
  130.1365  138.4806  163.9817 H   0  0  0  0  0  0  0  0  0  0  0  0
  133.0043  138.5101  161.8748 H   0  0  0  0  0  0  0  0  0  0  0  0
  132.7909  136.9269  162.6452 H   0  0  0  0  0  0  0  0  0  0  0  0
  132.6235  137.1124  159.6357 H   0  0  0  0  0  0  0  0  0  0  0  0
  134.2213  137.1906  160.4103 H   0  0  0  0  0  0  0  0  0  0  0  0
  133.2093  134.8278  159.7628 H   0  0  0  0  0  0  0  0  0  0  0  0
  134.0824  135.0451  161.2811 H   0  0  0  0  0  0  0  0  0  0  0  0
  131.9674  133.7938  161.6139 H   0  0  0  0  0  0  0  0  0  0  0  0
  131.9864  135.3089  162.5294 H   0  0  0  0  0  0  0  0  0  0  0  0
  131.5255  129.9242  156.6625 H   0  0  0  0  0  0  0  0  0  0  0  0
  131.6102  128.8307  154.4616 H   0  0  0  0  0  0  0  0  0  0  0  0
  1  2  1  0
  1 38  1  0
  1 39  1  0
  2 37  2  0
  2  3  1  0
  3  4  2  0
  3 40  1  0
  4  5  1  0
  4 41  1  0
  5  6  1  0
  5 36  2  0
  6 34  1  0
  6  7  2  0
  7  8  1  0
  7 42  1  0
  8  9  1  0
  8 10  1  0
 10 11  1  0
 10 34  2  0
 11 12  1  0
 11 43  1  0
 12 13  1  1
 12 33  1  0
 12 14  1  0
 14 15  2  0
 14 44  1  0
 15 16  1  0
 15 30  1  0
 16 29  1  0
 16 17  2  0
 17 18  1  0
 17 45  1  0
 18 19  2  0
 18 46  1  0
 19 20  1  0
 19 47  1  0
 20 21  1  0
 20 29  2  0
 21 22  1  0
 21 48  1  0
 22 23  1  0
 22 49  1  0
 22 50  1  0
 23 28  1  0
 23 24  2  0
 24 25  1  0
 24 51  1  0
 25 26  1  0
 25 52  1  0
 25 53  1  0
 26 27  1  0
 26 54  1  0
 26 55  1  0
 27 28  1  0
 27 56  1  0
 27 57  1  0
 28 58  1  0
 28 59  1  0
 29 60  1  0
 30 31  1  0
 30 61  1  0
 30 62  1  0
 31 32  1  0
 31 63  1  0
 31 64  1  0
 32 33  1  0
 32 65  1  0
 32 66  1  0
 33 67  1  0
 33 68  1  0
 34 35  1  0
 36 37  1  0
 36 69  1  0
 37 70  1  0
M  CHG  1  34   1
M  END
>  <DOCK_score>  (1) 
-58.159981

>  <SMILES>  (1) 
Nc1ccc(-c2c[nH]c(N[C@@H]3C=C(c4cccc(NCC5=CCCCC5)c4)CCCC3)[nH+]2)cc1

$$$$
