COc1ccc2[nH]cc(C3=CC[N@H+](C(c4ccccc4)c4ccccc4)CC3)c2c1
     RDKit          3D

 57 61  0  0  1  0  0  0  0  0999 V2000
  133.5448  141.0414  166.0959 C   0  0  0  0  0  0  0  0  0  0  0  0
  133.0773  140.0706  165.1574 O   0  0  0  0  0  0  0  0  0  0  0  0
  133.7120  140.0179  163.9558 C   0  0  0  0  0  0  0  0  0  0  0  0
  134.7660  140.8876  163.6890 C   0  0  0  0  0  0  0  0  0  0  0  0
  135.4188  140.8464  162.4775 C   0  0  0  0  0  0  0  0  0  0  0  0
  135.0267  139.9303  161.5065 C   0  0  0  0  0  0  0  0  0  0  0  0
  135.4759  139.6574  160.2304 N   0  0  0  0  0  0  0  0  0  0  0  0
  136.2066  140.1179  159.7887 H   0  0  0  0  0  0  0  0  0  0  0  0
  134.7473  138.6430  159.6818 C   0  0  0  0  0  0  0  0  0  0  0  0
  133.8023  138.2280  160.5642 C   0  0  0  0  0  0  0  0  0  0  0  0
  132.8109  137.1550  160.3543 C   0  0  0  0  0  0  0  0  0  0  0  0
  131.5293  137.4531  160.4172 C   0  0  0  0  0  0  0  0  0  0  0  0
  130.4438  136.4335  160.2245 C   0  0  0  0  0  0  0  0  0  0  0  0
  130.9749  135.2415  159.5532 N   0  0  2  0  0  0  0  0  0  0  0  0
  131.2370  135.4740  158.6069 H   0  0  0  0  0  0  0  0  0  0  0  0
  129.9496  134.1897  159.5350 C   0  0  0  0  0  0  0  0  0  0  0  0
  128.7355  134.6845  158.7917 C   0  0  0  0  0  0  0  0  0  0  0  0
  127.4797  134.2157  159.1295 C   0  0  0  0  0  0  0  0  0  0  0  0
  126.3660  134.6699  158.4481 C   0  0  0  0  0  0  0  0  0  0  0  0
  126.5082  135.5927  157.4287 C   0  0  0  0  0  0  0  0  0  0  0  0
  127.7645  136.0573  157.0871 C   0  0  0  0  0  0  0  0  0  0  0  0
  128.8776  135.6071  157.7721 C   0  0  0  0  0  0  0  0  0  0  0  0
  130.4967  132.9666  158.8453 C   0  0  0  0  0  0  0  0  0  0  0  0
  130.3394  132.8143  157.4804 C   0  0  0  0  0  0  0  0  0  0  0  0
  130.8448  131.6942  156.8472 C   0  0  0  0  0  0  0  0  0  0  0  0
  131.5003  130.7227  157.5801 C   0  0  0  0  0  0  0  0  0  0  0  0
  131.6529  130.8724  158.9459 C   0  0  0  0  0  0  0  0  0  0  0  0
  131.1510  131.9943  159.5785 C   0  0  0  0  0  0  0  0  0  0  0  0
  132.1568  134.7644  160.2885 C   0  0  0  0  0  0  0  0  0  0  0  0
  133.2996  135.7603  160.0754 C   0  0  0  0  0  0  0  0  0  0  0  0
  133.9633  139.0526  161.7740 C   0  0  0  0  0  0  0  0  0  0  0  0
  133.3087  139.1019  163.0039 C   0  0  0  0  0  0  0  0  0  0  0  0
  134.5926  140.8486  166.3264 H   0  0  0  0  0  0  0  0  0  0  0  0
  133.4445  142.0387  165.6678 H   0  0  0  0  0  0  0  0  0  0  0  0
  132.9541  140.9771  167.0098 H   0  0  0  0  0  0  0  0  0  0  0  0
  135.0743  141.6006  164.4394 H   0  0  0  0  0  0  0  0  0  0  0  0
  136.2358  141.5250  162.2811 H   0  0  0  0  0  0  0  0  0  0  0  0
  134.8976  138.2336  158.6937 H   0  0  0  0  0  0  0  0  0  0  0  0
  131.2467  138.4760  160.6166 H   0  0  0  0  0  0  0  0  0  0  0  0
  129.6482  136.8650  159.6170 H   0  0  0  0  0  0  0  0  0  0  0  0
  130.0386  136.1498  161.1958 H   0  0  0  0  0  0  0  0  0  0  0  0
  129.6710  133.9361  160.5578 H   0  0  0  0  0  0  0  0  0  0  0  0
  127.3686  133.4947  159.9259 H   0  0  0  0  0  0  0  0  0  0  0  0
  125.3849  134.3035  158.7119 H   0  0  0  0  0  0  0  0  0  0  0  0
  125.6380  135.9472  156.8961 H   0  0  0  0  0  0  0  0  0  0  0  0
  127.8760  136.7749  156.2878 H   0  0  0  0  0  0  0  0  0  0  0  0
  129.8588  135.9731  157.5080 H   0  0  0  0  0  0  0  0  0  0  0  0
  129.8244  133.5718  156.9083 H   0  0  0  0  0  0  0  0  0  0  0  0
  130.7252  131.5770  155.7803 H   0  0  0  0  0  0  0  0  0  0  0  0
  131.8927  129.8463  157.0858 H   0  0  0  0  0  0  0  0  0  0  0  0
  132.1648  130.1132  159.5185 H   0  0  0  0  0  0  0  0  0  0  0  0
  131.2703  132.1115  160.6454 H   0  0  0  0  0  0  0  0  0  0  0  0
  131.9238  134.6966  161.3511 H   0  0  0  0  0  0  0  0  0  0  0  0
  132.4505  133.7843  159.9124 H   0  0  0  0  0  0  0  0  0  0  0  0
  134.1204  135.5212  160.7517 H   0  0  0  0  0  0  0  0  0  0  0  0
  133.6488  135.6972  159.0447 H   0  0  0  0  0  0  0  0  0  0  0  0
  132.4905  138.4280  163.2110 H   0  0  0  0  0  0  0  0  0  0  0  0
  1  2  1  0
  1 33  1  0
  1 34  1  0
  1 35  1  0
  2  3  1  0
  3 32  2  0
  3  4  1  0
  4  5  2  0
  4 36  1  0
  5  6  1  0
  5 37  1  0
  6 31  2  0
  6  7  1  0
  7  8  1  0
  7  9  1  0
  9 10  2  0
  9 38  1  0
 10 11  1  0
 10 31  1  0
 11 30  1  0
 11 12  2  0
 12 13  1  0
 12 39  1  0
 13 14  1  0
 13 40  1  0
 13 41  1  0
 14 15  1  6
 14 16  1  0
 14 29  1  0
 16 17  1  0
 16 23  1  0
 16 42  1  0
 17 22  1  0
 17 18  2  0
 18 19  1  0
 18 43  1  0
 19 20  2  0
 19 44  1  0
 20 21  1  0
 20 45  1  0
 21 22  2  0
 21 46  1  0
 22 47  1  0
 23 28  1  0
 23 24  2  0
 24 25  1  0
 24 48  1  0
 25 26  2  0
 25 49  1  0
 26 27  1  0
 26 50  1  0
 27 28  2  0
 27 51  1  0
 28 52  1  0
 29 30  1  0
 29 53  1  0
 29 54  1  0
 30 55  1  0
 30 56  1  0
 31 32  1  0
 32 57  1  0
M  CHG  1  14   1
M  END
>  <DOCK_score>  (1) 
-56.172157

>  <SMILES>  (1) 
COc1ccc2[nH]cc(C3=CC[N@H+](C(c4ccccc4)c4ccccc4)CC3)c2c1

$$$$
