CCc1ccc(-c2c[nH]c(NC(C=CC=O)[C@@H](Br)Cc3ccccc3)[nH+]2)cc1
     RDKit          3D

 53 55  0  0  1  0  0  0  0  0999 V2000
  129.8622  128.8097  151.6916 C   0  0  0  0  0  0  0  0  0  0  0  0
  130.9966  129.8219  151.8660 C   0  0  0  0  0  0  0  0  0  0  0  0
  130.8678  130.4944  153.2085 C   0  0  0  0  0  0  0  0  0  0  0  0
  131.4935  129.9490  154.3152 C   0  0  0  0  0  0  0  0  0  0  0  0
  131.3789  130.5604  155.5471 C   0  0  0  0  0  0  0  0  0  0  0  0
  130.6310  131.7296  155.6750 C   0  0  0  0  0  0  0  0  0  0  0  0
  130.5043  132.3914  156.9963 C   0  0  0  0  0  0  0  0  0  0  0  0
  129.9735  131.8416  158.1166 C   0  0  0  0  0  0  0  0  0  0  0  0
  130.0577  132.7917  159.1053 N   0  0  0  0  0  0  0  0  0  0  0  0
  129.7616  132.6929  160.0236 H   0  0  0  0  0  0  0  0  0  0  0  0
  130.6306  133.8980  158.5576 C   0  0  0  0  0  0  0  0  0  0  0  0
  130.8923  135.0836  159.2227 N   0  0  0  0  0  0  0  0  0  0  0  0
  130.5456  135.2207  160.6395 C   0  0  2  0  0  0  0  0  0  0  0  0
  129.1416  135.7542  160.7637 C   0  0  0  0  0  0  0  0  0  0  0  0
  128.2100  135.0397  161.3982 C   0  0  0  0  0  0  0  0  0  0  0  0
  126.8474  135.5575  161.5187 C   0  0  0  0  0  0  0  0  0  0  0  0
  125.9093  134.7900  161.5726 O   0  0  0  0  0  0  0  0  0  0  0  0
  131.5205  136.1894  161.3117 C   0  0  1  0  0  0  0  0  0  0  0  0
  131.0792  136.5677  162.2338 H   0  0  0  0  0  0  0  0  0  0  0  0
  133.1973  135.2500  161.7251 Br  0  0  0  0  0  0  0  0  0  0  0  0
  131.8102  137.3583  160.3679 C   0  0  0  0  0  0  0  0  0  0  0  0
  132.3441  138.5235  161.1606 C   0  0  0  0  0  0  0  0  0  0  0  0
  131.4736  139.4650  161.6771 C   0  0  0  0  0  0  0  0  0  0  0  0
  131.9629  140.5312  162.4083 C   0  0  0  0  0  0  0  0  0  0  0  0
  133.3236  140.6617  162.6140 C   0  0  0  0  0  0  0  0  0  0  0  0
  134.1946  139.7231  162.0931 C   0  0  0  0  0  0  0  0  0  0  0  0
  133.7047  138.6540  161.3664 C   0  0  0  0  0  0  0  0  0  0  0  0
  130.8987  133.6540  157.2981 N   0  0  0  0  0  0  0  0  0  0  0  0
  131.3131  134.2766  156.6803 H   0  0  0  0  0  0  0  0  0  0  0  0
  129.9981  132.2713  154.5576 C   0  0  0  0  0  0  0  0  0  0  0  0
  130.1238  131.6543  153.3296 C   0  0  0  0  0  0  0  0  0  0  0  0
  129.9554  128.3233  150.7207 H   0  0  0  0  0  0  0  0  0  0  0  0
  129.9199  128.0598  152.4806 H   0  0  0  0  0  0  0  0  0  0  0  0
  128.9033  129.3248  151.7494 H   0  0  0  0  0  0  0  0  0  0  0  0
  130.9386  130.5716  151.0771 H   0  0  0  0  0  0  0  0  0  0  0  0
  131.9550  129.3065  151.8083 H   0  0  0  0  0  0  0  0  0  0  0  0
  132.0728  129.0430  154.2149 H   0  0  0  0  0  0  0  0  0  0  0  0
  131.8681  130.1340  156.4103 H   0  0  0  0  0  0  0  0  0  0  0  0
  129.5666  130.8460  158.2141 H   0  0  0  0  0  0  0  0  0  0  0  0
  131.3053  135.8235  158.7507 H   0  0  0  0  0  0  0  0  0  0  0  0
  130.6084  134.2467  161.1249 H   0  0  0  0  0  0  0  0  0  0  0  0
  128.8895  136.7148  160.3393 H   0  0  0  0  0  0  0  0  0  0  0  0
  128.4621  134.0791  161.8227 H   0  0  0  0  0  0  0  0  0  0  0  0
  126.6763  136.6231  161.5598 H   0  0  0  0  0  0  0  0  0  0  0  0
  132.5499  137.0531  159.6278 H   0  0  0  0  0  0  0  0  0  0  0  0
  130.8907  137.6537  159.8625 H   0  0  0  0  0  0  0  0  0  0  0  0
  130.4107  139.3654  161.5127 H   0  0  0  0  0  0  0  0  0  0  0  0
  131.2825  141.2647  162.8151 H   0  0  0  0  0  0  0  0  0  0  0  0
  133.7063  141.4970  163.1815 H   0  0  0  0  0  0  0  0  0  0  0  0
  135.2577  139.8252  162.2535 H   0  0  0  0  0  0  0  0  0  0  0  0
  134.3853  137.9209  160.9590 H   0  0  0  0  0  0  0  0  0  0  0  0
  129.4134  133.1745  154.6520 H   0  0  0  0  0  0  0  0  0  0  0  0
  129.6371  132.0755  152.4624 H   0  0  0  0  0  0  0  0  0  0  0  0
  1  2  1  0
  1 32  1  0
  1 33  1  0
  1 34  1  0
  2  3  1  0
  2 35  1  0
  2 36  1  0
  3 31  2  0
  3  4  1  0
  4  5  2  0
  4 37  1  0
  5  6  1  0
  5 38  1  0
  6  7  1  0
  6 30  2  0
  7 28  1  0
  7  8  2  0
  8  9  1  0
  8 39  1  0
  9 10  1  0
  9 11  1  0
 11 12  1  0
 11 28  2  0
 12 13  1  0
 12 40  1  0
 13 14  1  0
 13 18  1  0
 13 41  1  1
 14 15  2  0
 14 42  1  0
 15 16  1  0
 15 43  1  0
 16 17  2  0
 16 44  1  0
 18 19  1  1
 18 20  1  0
 18 21  1  0
 21 22  1  0
 21 45  1  0
 21 46  1  0
 22 27  1  0
 22 23  2  0
 23 24  1  0
 23 47  1  0
 24 25  2  0
 24 48  1  0
 25 26  1  0
 25 49  1  0
 26 27  2  0
 26 50  1  0
 27 51  1  0
 28 29  1  0
 30 31  1  0
 30 52  1  0
 31 53  1  0
M  CHG  1  28   1
M  END
>  <DOCK_score>  (1) 
-58.056969

>  <SMILES>  (1) 
CCc1ccc(-c2c[nH]c(NC(C=CC=O)[C@@H](Br)Cc3ccccc3)[nH+]2)cc1

$$$$
