O=C1CC[C@H]([NH+]=C(NCc2cccc(C3COC3)c2)NC2CC=CC2)CN1
     RDKit          3D

 56 59  0  0  1  0  0  0  0  0999 V2000
  124.1137  133.0101  160.9018 O   0  0  0  0  0  0  0  0  0  0  0  0
  125.2429  133.3757  160.6524 C   0  0  0  0  0  0  0  0  0  0  0  0
  126.2231  132.3583  160.1427 C   0  0  0  0  0  0  0  0  0  0  0  0
  127.6513  132.8843  160.3048 C   0  0  0  0  0  0  0  0  0  0  0  0
  127.7104  134.3085  159.7393 C   0  0  2  0  0  0  0  0  0  0  0  0
  127.3091  134.3165  158.7259 H   0  0  0  0  0  0  0  0  0  0  0  0
  129.0997  134.7731  159.7214 N   0  0  0  0  0  0  0  0  0  0  0  0
  129.3533  135.5632  160.2236 H   0  0  0  0  0  0  0  0  0  0  0  0
  129.9949  134.1247  159.0307 C   0  0  0  0  0  0  0  0  0  0  0  0
  131.3069  134.1168  159.4415 N   0  0  0  0  0  0  0  0  0  0  0  0
  131.6288  134.2193  160.8668 C   0  0  0  0  0  0  0  0  0  0  0  0
  131.7827  135.6701  161.2441 C   0  0  0  0  0  0  0  0  0  0  0  0
  131.1993  136.1488  162.4026 C   0  0  0  0  0  0  0  0  0  0  0  0
  131.3406  137.4794  162.7487 C   0  0  0  0  0  0  0  0  0  0  0  0
  132.0658  138.3317  161.9366 C   0  0  0  0  0  0  0  0  0  0  0  0
  132.6490  137.8532  160.7786 C   0  0  0  0  0  0  0  0  0  0  0  0
  133.4396  138.7821  159.8937 C   0  0  0  0  0  0  0  0  0  0  0  0
  134.8633  138.2829  159.5827 C   0  0  0  0  0  0  0  0  0  0  0  0
  135.2698  139.6479  159.8235 O   0  0  0  0  0  0  0  0  0  0  0  0
  134.1265  139.9317  160.6548 C   0  0  0  0  0  0  0  0  0  0  0  0
  132.5119  136.5210  160.4350 C   0  0  0  0  0  0  0  0  0  0  0  0
  129.6271  133.4487  157.8915 N   0  0  0  0  0  0  0  0  0  0  0  0
  130.6333  132.7198  157.1152 C   0  0  0  0  0  0  0  0  0  0  0  0
  129.9714  131.8793  155.9989 C   0  0  0  0  0  0  0  0  0  0  0  0
  130.7864  130.6073  155.9424 C   0  0  0  0  0  0  0  0  0  0  0  0
  131.5135  130.4665  157.0172 C   0  0  0  0  0  0  0  0  0  0  0  0
  131.3047  131.6202  157.9703 C   0  0  0  0  0  0  0  0  0  0  0  0
  126.8743  135.2252  160.6331 C   0  0  0  0  0  0  0  0  0  0  0  0
  125.5480  134.6593  160.8457 N   0  0  0  0  0  0  0  0  0  0  0  0
  126.0266  132.1626  159.0886 H   0  0  0  0  0  0  0  0  0  0  0  0
  126.1111  131.4340  160.7096 H   0  0  0  0  0  0  0  0  0  0  0  0
  128.3427  132.2434  159.7577 H   0  0  0  0  0  0  0  0  0  0  0  0
  127.9199  132.8974  161.3611 H   0  0  0  0  0  0  0  0  0  0  0  0
  132.0195  134.0432  158.7874 H   0  0  0  0  0  0  0  0  0  0  0  0
  130.8253  133.7745  161.4538 H   0  0  0  0  0  0  0  0  0  0  0  0
  132.5608  133.6908  161.0677 H   0  0  0  0  0  0  0  0  0  0  0  0
  130.6332  135.4828  163.0370 H   0  0  0  0  0  0  0  0  0  0  0  0
  130.8852  137.8532  163.6539 H   0  0  0  0  0  0  0  0  0  0  0  0
  132.1764  139.3714  162.2073 H   0  0  0  0  0  0  0  0  0  0  0  0
  132.8848  139.1067  159.0134 H   0  0  0  0  0  0  0  0  0  0  0  0
  135.2507  137.5722  160.3124 H   0  0  0  0  0  0  0  0  0  0  0  0
  135.0005  137.9560  158.5519 H   0  0  0  0  0  0  0  0  0  0  0  0
  133.6806  140.9095  160.4728 H   0  0  0  0  0  0  0  0  0  0  0  0
  134.2864  139.7262  161.7132 H   0  0  0  0  0  0  0  0  0  0  0  0
  132.9714  136.1461  159.5324 H   0  0  0  0  0  0  0  0  0  0  0  0
  128.7015  133.4543  157.6017 H   0  0  0  0  0  0  0  0  0  0  0  0
  131.3761  133.4027  156.7026 H   0  0  0  0  0  0  0  0  0  0  0  0
  128.9359  131.6556  156.2553 H   0  0  0  0  0  0  0  0  0  0  0  0
  130.0222  132.4061  155.0460 H   0  0  0  0  0  0  0  0  0  0  0  0
  130.7696  129.9073  155.1201 H   0  0  0  0  0  0  0  0  0  0  0  0
  132.1770  129.6344  157.2013 H   0  0  0  0  0  0  0  0  0  0  0  0
  132.2614  131.9712  158.3571 H   0  0  0  0  0  0  0  0  0  0  0  0
  130.6501  131.3241  158.7900 H   0  0  0  0  0  0  0  0  0  0  0  0
  127.3736  135.3441  161.5947 H   0  0  0  0  0  0  0  0  0  0  0  0
  126.7775  136.2014  160.1579 H   0  0  0  0  0  0  0  0  0  0  0  0
  124.8430  135.2538  161.1466 H   0  0  0  0  0  0  0  0  0  0  0  0
  1  2  2  0
  2 29  1  0
  2  3  1  0
  3  4  1  0
  3 30  1  0
  3 31  1  0
  4  5  1  0
  4 32  1  0
  4 33  1  0
  5  6  1  6
  5  7  1  0
  5 28  1  0
  7  8  1  0
  9  7  2  0
  9 10  1  0
  9 22  1  0
 10 11  1  0
 10 34  1  0
 11 12  1  0
 11 35  1  0
 11 36  1  0
 12 21  1  0
 12 13  2  0
 13 14  1  0
 13 37  1  0
 14 15  2  0
 14 38  1  0
 15 16  1  0
 15 39  1  0
 16 17  1  0
 16 21  2  0
 17 20  1  0
 17 18  1  0
 17 40  1  0
 18 19  1  0
 18 41  1  0
 18 42  1  0
 19 20  1  0
 20 43  1  0
 20 44  1  0
 21 45  1  0
 22 23  1  0
 22 46  1  0
 23 27  1  0
 23 24  1  0
 23 47  1  0
 24 25  1  0
 24 48  1  0
 24 49  1  0
 25 26  2  0
 25 50  1  0
 26 27  1  0
 26 51  1  0
 27 52  1  0
 27 53  1  0
 28 29  1  0
 28 54  1  0
 28 55  1  0
 29 56  1  0
M  CHG  1   7   1
M  END
>  <DOCK_score>  (1) 
-43.889622

>  <SMILES>  (1) 
O=C1CC[C@H]([NH+]=C(NCc2cccc(C3COC3)c2)NC2CC=CC2)CN1

$$$$
