C=C[C@H](O)CNc1n[nH]cc1C[NH2+]C(C)Cc1c[nH]c2cc(F)c(F)cc12
     RDKit          3D

 51 53  0  0  1  0  0  0  0  0999 V2000
  124.7058  132.5473  161.5729 C   0  0  0  0  0  0  0  0  0  0  0  0
  125.0600  133.4812  160.7253 C   0  0  0  0  0  0  0  0  0  0  0  0
  126.3603  134.2185  160.9163 C   0  0  2  0  0  0  0  0  0  0  0  0
  126.8650  133.8405  161.8054 H   0  0  0  0  0  0  0  0  0  0  0  0
  126.0977  135.6142  161.0747 O   0  0  0  0  0  0  0  0  0  0  0  0
  127.2534  134.0032  159.6928 C   0  0  0  0  0  0  0  0  0  0  0  0
  128.6455  134.2898  160.0478 N   0  0  0  0  0  0  0  0  0  0  0  0
  129.6865  133.6178  159.3963 C   0  0  0  0  0  0  0  0  0  0  0  0
  129.5505  132.7137  158.4551 N   0  0  0  0  0  0  0  0  0  0  0  0
  130.8282  132.2893  158.0689 N   0  0  0  0  0  0  0  0  0  0  0  0
  131.0274  131.6259  157.3899 H   0  0  0  0  0  0  0  0  0  0  0  0
  131.7343  132.9697  158.8023 C   0  0  0  0  0  0  0  0  0  0  0  0
  131.0591  133.7938  159.6354 C   0  0  0  0  0  0  0  0  0  0  0  0
  131.6711  134.7379  160.6379 C   0  0  0  0  0  0  0  0  0  0  0  0
  131.9100  136.0403  160.0016 N   0  0  0  0  0  0  0  0  0  0  0  0
  131.0347  136.4198  159.6732 H   0  0  0  0  0  0  0  0  0  0  0  0
  132.5395  135.9234  159.2219 H   0  0  0  0  0  0  0  0  0  0  0  0
  132.5065  136.9607  160.9789 C   0  0  1  0  0  0  0  0  0  0  0  0
  134.0039  136.6722  161.1033 C   0  0  0  0  0  0  0  0  0  0  0  0
  132.3021  138.4033  160.5117 C   0  0  0  0  0  0  0  0  0  0  0  0
  132.9142  139.3474  161.5143 C   0  0  0  0  0  0  0  0  0  0  0  0
  132.3015  139.8877  162.5792 C   0  0  0  0  0  0  0  0  0  0  0  0
  133.1733  140.6950  163.2589 N   0  0  0  0  0  0  0  0  0  0  0  0
  132.9594  141.1945  164.0625 H   0  0  0  0  0  0  0  0  0  0  0  0
  134.3999  140.6931  162.6306 C   0  0  0  0  0  0  0  0  0  0  0  0
  135.6097  141.3268  162.8953 C   0  0  0  0  0  0  0  0  0  0  0  0
  136.6891  141.1246  162.0615 C   0  0  0  0  0  0  0  0  0  0  0  0
  137.8617  141.7426  162.3227 F   0  0  0  0  0  0  0  0  0  0  0  0
  136.5816  140.2892  160.9530 C   0  0  0  0  0  0  0  0  0  0  0  0
  137.6508  140.0973  160.1495 F   0  0  0  0  0  0  0  0  0  0  0  0
  135.3921  139.6528  160.6747 C   0  0  0  0  0  0  0  0  0  0  0  0
  134.2909  139.8493  161.5112 C   0  0  0  0  0  0  0  0  0  0  0  0
  125.3457  132.3058  162.4086 H   0  0  0  0  0  0  0  0  0  0  0  0
  123.7740  132.0189  161.4359 H   0  0  0  0  0  0  0  0  0  0  0  0
  124.4201  133.7227  159.8893 H   0  0  0  0  0  0  0  0  0  0  0  0
  125.5359  135.8251  161.8330 H   0  0  0  0  0  0  0  0  0  0  0  0
  126.9381  134.6709  158.8909 H   0  0  0  0  0  0  0  0  0  0  0  0
  127.1691  132.9691  159.3588 H   0  0  0  0  0  0  0  0  0  0  0  0
  128.8460  134.9450  160.7342 H   0  0  0  0  0  0  0  0  0  0  0  0
  132.8078  132.8715  158.7372 H   0  0  0  0  0  0  0  0  0  0  0  0
  132.6168  134.3280  160.9926 H   0  0  0  0  0  0  0  0  0  0  0  0
  130.9910  134.8643  161.4803 H   0  0  0  0  0  0  0  0  0  0  0  0
  132.0279  136.8214  161.9483 H   0  0  0  0  0  0  0  0  0  0  0  0
  134.4466  137.3551  161.8283 H   0  0  0  0  0  0  0  0  0  0  0  0
  134.1495  135.6445  161.4360 H   0  0  0  0  0  0  0  0  0  0  0  0
  134.4824  136.8115  160.1339 H   0  0  0  0  0  0  0  0  0  0  0  0
  131.2355  138.6089  160.4231 H   0  0  0  0  0  0  0  0  0  0  0  0
  132.7808  138.5425  159.5424 H   0  0  0  0  0  0  0  0  0  0  0  0
  131.2733  139.7117  162.8585 H   0  0  0  0  0  0  0  0  0  0  0  0
  135.7032  141.9771  163.7525 H   0  0  0  0  0  0  0  0  0  0  0  0
  135.3112  139.0055  159.8139 H   0  0  0  0  0  0  0  0  0  0  0  0
  1  2  2  0
  1 33  1  0
  1 34  1  0
  2  3  1  0
  2 35  1  0
  3  4  1  1
  3  5  1  0
  3  6  1  0
  5 36  1  0
  6  7  1  0
  6 37  1  0
  6 38  1  0
  7  8  1  0
  7 39  1  0
  8 13  1  0
  8  9  2  0
  9 10  1  0
 10 11  1  0
 10 12  1  0
 12 13  2  0
 12 40  1  0
 13 14  1  0
 14 15  1  0
 14 41  1  0
 14 42  1  0
 15 16  1  0
 15 17  1  0
 15 18  1  0
 18 19  1  0
 18 20  1  0
 18 43  1  1
 19 44  1  0
 19 45  1  0
 19 46  1  0
 20 21  1  0
 20 47  1  0
 20 48  1  0
 21 32  1  0
 21 22  2  0
 22 23  1  0
 22 49  1  0
 23 24  1  0
 23 25  1  0
 25 32  2  0
 25 26  1  0
 26 27  2  0
 26 50  1  0
 27 28  1  0
 27 29  1  0
 29 30  1  0
 29 31  2  0
 31 32  1  0
 31 51  1  0
M  CHG  1  15   1
M  END
>  <DOCK_score>  (1) 
-45.998573

>  <SMILES>  (1) 
C=C[C@H](O)CNc1n[nH]cc1C[NH2+]C(C)Cc1c[nH]c2cc(F)c(F)cc12

$$$$
