CCc1ccc(-c2c[nH]c(N[C@@H](Cc3ccccc3)C(=O)N[C@H]3CCC(=O)NC3)[nH+]2)cc1
     RDKit          3D

 62 65  0  0  1  0  0  0  0  0999 V2000
  129.4348  129.3087  150.9274 C   0  0  0  0  0  0  0  0  0  0  0  0
  130.8445  129.8306  151.2127 C   0  0  0  0  0  0  0  0  0  0  0  0
  130.9078  130.3646  152.6206 C   0  0  0  0  0  0  0  0  0  0  0  0
  131.2570  129.5236  153.6616 C   0  0  0  0  0  0  0  0  0  0  0  0
  131.3155  130.0071  154.9528 C   0  0  0  0  0  0  0  0  0  0  0  0
  131.0217  131.3456  155.2069 C   0  0  0  0  0  0  0  0  0  0  0  0
  131.0829  131.8711  156.5927 C   0  0  0  0  0  0  0  0  0  0  0  0
  130.8446  131.1646  157.7255 C   0  0  0  0  0  0  0  0  0  0  0  0
  131.0042  132.0329  158.7779 N   0  0  0  0  0  0  0  0  0  0  0  0
  130.8968  131.8216  159.7184 H   0  0  0  0  0  0  0  0  0  0  0  0
  131.3404  133.2446  158.2572 C   0  0  0  0  0  0  0  0  0  0  0  0
  131.5896  134.3945  158.9866 N   0  0  0  0  0  0  0  0  0  0  0  0
  131.4996  134.3685  160.4487 C   0  0  1  0  0  0  0  0  0  0  0  0
  132.2136  133.6461  160.8439 H   0  0  0  0  0  0  0  0  0  0  0  0
  131.8192  135.7577  161.0041 C   0  0  0  0  0  0  0  0  0  0  0  0
  132.2087  135.6411  162.4553 C   0  0  0  0  0  0  0  0  0  0  0  0
  131.2420  135.7296  163.4395 C   0  0  0  0  0  0  0  0  0  0  0  0
  131.5984  135.6172  164.7704 C   0  0  0  0  0  0  0  0  0  0  0  0
  132.9229  135.4274  165.1175 C   0  0  0  0  0  0  0  0  0  0  0  0
  133.8903  135.3445  164.1336 C   0  0  0  0  0  0  0  0  0  0  0  0
  133.5331  135.4512  162.8025 C   0  0  0  0  0  0  0  0  0  0  0  0
  130.1046  133.9722  160.8589 C   0  0  0  0  0  0  0  0  0  0  0  0
  129.9295  132.9767  161.5290 O   0  0  0  0  0  0  0  0  0  0  0  0
  129.0518  134.7240  160.4810 N   0  0  0  0  0  0  0  0  0  0  0  0
  127.6959  134.3388  160.8797 C   0  0  1  0  0  0  0  0  0  0  0  0
  127.6263  134.3188  161.9673 H   0  0  0  0  0  0  0  0  0  0  0  0
  126.6880  135.3490  160.3182 C   0  0  0  0  0  0  0  0  0  0  0  0
  125.3080  135.0289  160.8982 C   0  0  0  0  0  0  0  0  0  0  0  0
  125.0177  133.5632  160.7469 C   0  0  0  0  0  0  0  0  0  0  0  0
  123.8674  133.1925  160.8489 O   0  0  0  0  0  0  0  0  0  0  0  0
  125.9570  132.6475  160.5069 N   0  0  0  0  0  0  0  0  0  0  0  0
  127.3688  132.9556  160.3157 C   0  0  0  0  0  0  0  0  0  0  0  0
  131.3895  133.1431  156.9514 N   0  0  0  0  0  0  0  0  0  0  0  0
  131.6062  133.8636  156.3391 H   0  0  0  0  0  0  0  0  0  0  0  0
  130.6646  132.1871  154.1548 C   0  0  0  0  0  0  0  0  0  0  0  0
  130.6140  131.6939  152.8670 C   0  0  0  0  0  0  0  0  0  0  0  0
  128.7169  130.1212  151.0401 H   0  0  0  0  0  0  0  0  0  0  0  0
  129.3895  128.9225  149.9091 H   0  0  0  0  0  0  0  0  0  0  0  0
  129.1937  128.5108  151.6298 H   0  0  0  0  0  0  0  0  0  0  0  0
  131.0856  130.6285  150.5105 H   0  0  0  0  0  0  0  0  0  0  0  0
  131.5624  129.0181  151.1000 H   0  0  0  0  0  0  0  0  0  0  0  0
  131.4844  128.4864  153.4635 H   0  0  0  0  0  0  0  0  0  0  0  0
  131.5880  129.3493  155.7651 H   0  0  0  0  0  0  0  0  0  0  0  0
  130.5768  130.1202  157.7880 H   0  0  0  0  0  0  0  0  0  0  0  0
  131.8239  135.2175  158.5297 H   0  0  0  0  0  0  0  0  0  0  0  0
  132.6442  136.1935  160.4404 H   0  0  0  0  0  0  0  0  0  0  0  0
  130.9405  136.3963  160.9140 H   0  0  0  0  0  0  0  0  0  0  0  0
  130.2078  135.8824  163.1684 H   0  0  0  0  0  0  0  0  0  0  0  0
  130.8426  135.6817  165.5392 H   0  0  0  0  0  0  0  0  0  0  0  0
  133.2018  135.3433  166.1575 H   0  0  0  0  0  0  0  0  0  0  0  0
  134.9252  135.1962  164.4047 H   0  0  0  0  0  0  0  0  0  0  0  0
  134.2889  135.3865  162.0337 H   0  0  0  0  0  0  0  0  0  0  0  0
  129.1920  135.5203  159.9449 H   0  0  0  0  0  0  0  0  0  0  0  0
  126.9815  136.3586  160.6055 H   0  0  0  0  0  0  0  0  0  0  0  0
  126.6570  135.2710  159.2315 H   0  0  0  0  0  0  0  0  0  0  0  0
  125.2890  135.2946  161.9551 H   0  0  0  0  0  0  0  0  0  0  0  0
  124.5499  135.6048  160.3676 H   0  0  0  0  0  0  0  0  0  0  0  0
  125.6835  131.7183  160.4564 H   0  0  0  0  0  0  0  0  0  0  0  0
  127.6006  132.9366  159.2508 H   0  0  0  0  0  0  0  0  0  0  0  0
  127.9734  132.2061  160.8264 H   0  0  0  0  0  0  0  0  0  0  0  0
  130.4313  133.2240  154.3466 H   0  0  0  0  0  0  0  0  0  0  0  0
  130.3411  132.3459  152.0504 H   0  0  0  0  0  0  0  0  0  0  0  0
  1  2  1  0
  1 37  1  0
  1 38  1  0
  1 39  1  0
  2  3  1  0
  2 40  1  0
  2 41  1  0
  3 36  2  0
  3  4  1  0
  4  5  2  0
  4 42  1  0
  5  6  1  0
  5 43  1  0
  6  7  1  0
  6 35  2  0
  7 33  1  0
  7  8  2  0
  8  9  1  0
  8 44  1  0
  9 10  1  0
  9 11  1  0
 11 12  1  0
 11 33  2  0
 12 13  1  0
 12 45  1  0
 13 14  1  1
 13 15  1  0
 13 22  1  0
 15 16  1  0
 15 46  1  0
 15 47  1  0
 16 21  1  0
 16 17  2  0
 17 18  1  0
 17 48  1  0
 18 19  2  0
 18 49  1  0
 19 20  1  0
 19 50  1  0
 20 21  2  0
 20 51  1  0
 21 52  1  0
 22 23  2  0
 22 24  1  0
 24 25  1  0
 24 53  1  0
 25 26  1  1
 25 32  1  0
 25 27  1  0
 27 28  1  0
 27 54  1  0
 27 55  1  0
 28 29  1  0
 28 56  1  0
 28 57  1  0
 29 30  2  0
 29 31  1  0
 31 32  1  0
 31 58  1  0
 32 59  1  0
 32 60  1  0
 33 34  1  0
 35 36  1  0
 35 61  1  0
 36 62  1  0
M  CHG  1  33   1
M  END
>  <DOCK_score>  (1) 
-59.070168

>  <SMILES>  (1) 
CCc1ccc(-c2c[nH]c(N[C@@H](Cc3ccccc3)C(=O)N[C@H]3CCC(=O)NC3)[nH+]2)cc1

$$$$
