Cc1[nH+]c(NCc2cccc3ccccc23)[nH]c1[C@@H](O)c1cccc2ccccc12
     RDKit          3D

 54 58  0  0  1  0  0  0  0  0999 V2000
  127.9049  135.1044  161.0253 C   0  0  0  0  0  0  0  0  0  0  0  0
  129.2782  135.1266  160.4054 C   0  0  0  0  0  0  0  0  0  0  0  0
  130.4107  135.5162  161.0152 N   0  0  0  0  0  0  0  0  0  0  0  0
  130.4756  135.8301  161.9308 H   0  0  0  0  0  0  0  0  0  0  0  0
  131.4137  135.4101  160.1761 C   0  0  0  0  0  0  0  0  0  0  0  0
  132.7345  135.7257  160.4486 N   0  0  0  0  0  0  0  0  0  0  0  0
  133.1095  136.2275  161.7729 C   0  0  0  0  0  0  0  0  0  0  0  0
  134.2975  137.1460  161.6441 C   0  0  0  0  0  0  0  0  0  0  0  0
  135.3403  137.0414  162.5128 C   0  0  0  0  0  0  0  0  0  0  0  0
  136.4492  137.8784  162.4067 C   0  0  0  0  0  0  0  0  0  0  0  0
  136.5176  138.8314  161.4372 C   0  0  0  0  0  0  0  0  0  0  0  0
  135.4578  138.9727  160.5254 C   0  0  0  0  0  0  0  0  0  0  0  0
  135.4928  139.9448  159.5108 C   0  0  0  0  0  0  0  0  0  0  0  0
  134.4483  140.0524  158.6453 C   0  0  0  0  0  0  0  0  0  0  0  0
  133.3409  139.2125  158.7489 C   0  0  0  0  0  0  0  0  0  0  0  0
  133.2722  138.2595  159.7181 C   0  0  0  0  0  0  0  0  0  0  0  0
  134.3319  138.1182  160.6305 C   0  0  0  0  0  0  0  0  0  0  0  0
  130.9365  134.9374  158.9932 N   0  0  0  0  0  0  0  0  0  0  0  0
  131.4536  134.7610  158.1918 H   0  0  0  0  0  0  0  0  0  0  0  0
  129.5806  134.7574  159.1491 C   0  0  0  0  0  0  0  0  0  0  0  0
  128.6175  134.2493  158.1073 C   0  0  1  0  0  0  0  0  0  0  0  0
  127.7952  133.7274  158.5964 H   0  0  0  0  0  0  0  0  0  0  0  0
  128.1031  135.3511  157.3565 O   0  0  0  0  0  0  0  0  0  0  0  0
  129.3341  133.3011  157.1808 C   0  0  0  0  0  0  0  0  0  0  0  0
  129.4079  133.5710  155.8486 C   0  0  0  0  0  0  0  0  0  0  0  0
  130.0658  132.7059  154.9767 C   0  0  0  0  0  0  0  0  0  0  0  0
  130.6538  131.5656  155.4317 C   0  0  0  0  0  0  0  0  0  0  0  0
  130.5983  131.2534  156.8004 C   0  0  0  0  0  0  0  0  0  0  0  0
  131.1931  130.0851  157.3073 C   0  0  0  0  0  0  0  0  0  0  0  0
  131.1189  129.8151  158.6390 C   0  0  0  0  0  0  0  0  0  0  0  0
  130.4605  130.6803  159.5112 C   0  0  0  0  0  0  0  0  0  0  0  0
  129.8734  131.8207  159.0566 C   0  0  0  0  0  0  0  0  0  0  0  0
  129.9292  132.1335  157.6875 C   0  0  0  0  0  0  0  0  0  0  0  0
  127.6914  134.1032  161.3998 H   0  0  0  0  0  0  0  0  0  0  0  0
  127.8668  135.8163  161.8498 H   0  0  0  0  0  0  0  0  0  0  0  0
  127.1630  135.3775  160.2749 H   0  0  0  0  0  0  0  0  0  0  0  0
  133.4111  135.6145  159.7625 H   0  0  0  0  0  0  0  0  0  0  0  0
  132.2719  136.7754  162.2044 H   0  0  0  0  0  0  0  0  0  0  0  0
  133.3669  135.3890  162.4196 H   0  0  0  0  0  0  0  0  0  0  0  0
  135.3093  136.2960  163.2939 H   0  0  0  0  0  0  0  0  0  0  0  0
  137.2649  137.7720  163.1065 H   0  0  0  0  0  0  0  0  0  0  0  0
  137.3816  139.4757  161.3693 H   0  0  0  0  0  0  0  0  0  0  0  0
  136.3441  140.6030  159.4189 H   0  0  0  0  0  0  0  0  0  0  0  0
  134.4777  140.8002  157.8666 H   0  0  0  0  0  0  0  0  0  0  0  0
  132.5250  139.3191  158.0492 H   0  0  0  0  0  0  0  0  0  0  0  0
  132.4081  137.6152  159.7858 H   0  0  0  0  0  0  0  0  0  0  0  0
  128.7810  135.8622  156.8934 H   0  0  0  0  0  0  0  0  0  0  0  0
  128.9493  134.4690  155.4616 H   0  0  0  0  0  0  0  0  0  0  0  0
  130.1095  132.9434  153.9240 H   0  0  0  0  0  0  0  0  0  0  0  0
  131.1565  130.9022  154.7435 H   0  0  0  0  0  0  0  0  0  0  0  0
  131.7067  129.4055  156.6434 H   0  0  0  0  0  0  0  0  0  0  0  0
  131.5768  128.9167  159.0258 H   0  0  0  0  0  0  0  0  0  0  0  0
  130.4160  130.4422  160.5637 H   0  0  0  0  0  0  0  0  0  0  0  0
  129.3673  132.4821  159.7443 H   0  0  0  0  0  0  0  0  0  0  0  0
  1  2  1  0
  1 34  1  0
  1 35  1  0
  1 36  1  0
  2 20  2  0
  2  3  1  0
  3  4  1  0
  3  5  2  0
  5  6  1  0
  5 18  1  0
  6  7  1  0
  6 37  1  0
  7  8  1  0
  7 38  1  0
  7 39  1  0
  8 17  1  0
  8  9  2  0
  9 10  1  0
  9 40  1  0
 10 11  2  0
 10 41  1  0
 11 12  1  0
 11 42  1  0
 12 17  2  0
 12 13  1  0
 13 14  2  0
 13 43  1  0
 14 15  1  0
 14 44  1  0
 15 16  2  0
 15 45  1  0
 16 17  1  0
 16 46  1  0
 18 19  1  0
 18 20  1  0
 20 21  1  0
 21 22  1  1
 21 23  1  0
 21 24  1  0
 23 47  1  0
 24 33  1  0
 24 25  2  0
 25 26  1  0
 25 48  1  0
 26 27  2  0
 26 49  1  0
 27 28  1  0
 27 50  1  0
 28 33  2  0
 28 29  1  0
 29 30  2  0
 29 51  1  0
 30 31  1  0
 30 52  1  0
 31 32  2  0
 31 53  1  0
 32 33  1  0
 32 54  1  0
M  CHG  1   3   1
M  END
>  <DOCK_score>  (1) 
-57.396816

>  <SMILES>  (1) 
Cc1[nH+]c(NCc2cccc3ccccc23)[nH]c1[C@@H](O)c1cccc2ccccc12

$$$$
