Cc1[nH]c(C)c(C[NH2+]C(c2cccnc2)c2ccccc2[C@](O)(CCl)c2c[nH]c3ccccc23)c1C
     RDKit          3D

 68 72  0  0  1  0  0  0  0  0999 V2000
  130.7961  131.7519  157.5000 C   0  0  0  0  0  0  0  0  0  0  0  0
  130.5339  133.0899  158.1419 C   0  0  0  0  0  0  0  0  0  0  0  0
  129.5763  133.9839  157.7638 N   0  0  0  0  0  0  0  0  0  0  0  0
  128.9478  133.8644  157.0347 H   0  0  0  0  0  0  0  0  0  0  0  0
  129.6477  135.0733  158.5805 C   0  0  0  0  0  0  0  0  0  0  0  0
  128.7674  136.2941  158.5040 C   0  0  0  0  0  0  0  0  0  0  0  0
  130.6424  134.8704  159.4682 C   0  0  0  0  0  0  0  0  0  0  0  0
  131.0724  135.8181  160.5580 C   0  0  0  0  0  0  0  0  0  0  0  0
  132.1106  136.7200  160.0413 N   0  0  0  0  0  0  0  0  0  0  0  0
  131.7418  137.2467  159.2638 H   0  0  0  0  0  0  0  0  0  0  0  0
  132.9044  136.1781  159.7343 H   0  0  0  0  0  0  0  0  0  0  0  0
  132.5299  137.6437  161.1038 C   0  0  2  0  0  0  0  0  0  0  0  0
  131.5259  138.7614  161.2227 C   0  0  0  0  0  0  0  0  0  0  0  0
  130.4408  138.6423  162.0781 C   0  0  0  0  0  0  0  0  0  0  0  0
  129.5453  139.6973  162.1586 C   0  0  0  0  0  0  0  0  0  0  0  0
  129.7567  140.8211  161.3818 C   0  0  0  0  0  0  0  0  0  0  0  0
  130.7972  140.8976  160.5756 N   0  0  0  0  0  0  0  0  0  0  0  0
  131.6717  139.9153  160.4769 C   0  0  0  0  0  0  0  0  0  0  0  0
  133.8819  138.2171  160.7662 C   0  0  0  0  0  0  0  0  0  0  0  0
  134.2531  138.3807  159.4445 C   0  0  0  0  0  0  0  0  0  0  0  0
  135.4928  138.9075  159.1349 C   0  0  0  0  0  0  0  0  0  0  0  0
  136.3627  139.2690  160.1470 C   0  0  0  0  0  0  0  0  0  0  0  0
  135.9922  139.1040  161.4683 C   0  0  0  0  0  0  0  0  0  0  0  0
  134.7517  138.5779  161.7780 C   0  0  0  0  0  0  0  0  0  0  0  0
  134.3503  138.3924  163.2186 C   0  0  2  0  0  0  0  0  0  0  0  0
  133.4605  137.2794  163.3255 O   0  0  0  0  0  0  0  0  0  0  0  0
  133.6485  139.6563  163.7194 C   0  0  0  0  0  0  0  0  0  0  0  0
  132.6687  139.2610  165.1804 Cl  0  0  0  0  0  0  0  0  0  0  0  0
  135.5785  138.1356  164.0533 C   0  0  0  0  0  0  0  0  0  0  0  0
  136.0152  138.8801  165.0813 C   0  0  0  0  0  0  0  0  0  0  0  0
  137.1595  138.3361  165.5982 N   0  0  0  0  0  0  0  0  0  0  0  0
  137.6581  138.6961  166.3482 H   0  0  0  0  0  0  0  0  0  0  0  0
  137.5010  137.2052  164.8910 C   0  0  0  0  0  0  0  0  0  0  0  0
  138.5480  136.2943  164.9884 C   0  0  0  0  0  0  0  0  0  0  0  0
  138.6179  135.2355  164.1099 C   0  0  0  0  0  0  0  0  0  0  0  0
  137.6529  135.0670  163.1262 C   0  0  0  0  0  0  0  0  0  0  0  0
  136.6162  135.9495  163.0124 C   0  0  0  0  0  0  0  0  0  0  0  0
  136.5259  137.0298  163.8925 C   0  0  0  0  0  0  0  0  0  0  0  0
  131.2097  133.6121  159.1854 C   0  0  0  0  0  0  0  0  0  0  0  0
  132.3584  132.9669  159.9169 C   0  0  0  0  0  0  0  0  0  0  0  0
  131.5255  131.8701  156.6987 H   0  0  0  0  0  0  0  0  0  0  0  0
  131.1858  131.0606  158.2471 H   0  0  0  0  0  0  0  0  0  0  0  0
  129.8665  131.3574  157.0897 H   0  0  0  0  0  0  0  0  0  0  0  0
  129.2217  137.0287  157.8392 H   0  0  0  0  0  0  0  0  0  0  0  0
  127.7877  136.0119  158.1183 H   0  0  0  0  0  0  0  0  0  0  0  0
  128.6558  136.7245  159.4992 H   0  0  0  0  0  0  0  0  0  0  0  0
  131.4708  135.2491  161.3981 H   0  0  0  0  0  0  0  0  0  0  0  0
  130.2149  136.4035  160.8899 H   0  0  0  0  0  0  0  0  0  0  0  0
  132.5892  137.1063  162.0502 H   0  0  0  0  0  0  0  0  0  0  0  0
  130.2990  137.7503  162.6704 H   0  0  0  0  0  0  0  0  0  0  0  0
  128.6910  139.6405  162.8168 H   0  0  0  0  0  0  0  0  0  0  0  0
  129.0618  141.6460  161.4362 H   0  0  0  0  0  0  0  0  0  0  0  0
  132.5118  140.0141  159.8053 H   0  0  0  0  0  0  0  0  0  0  0  0
  133.5734  138.0990  158.6539 H   0  0  0  0  0  0  0  0  0  0  0  0
  135.7820  139.0370  158.1024 H   0  0  0  0  0  0  0  0  0  0  0  0
  137.3315  139.6806  159.9051 H   0  0  0  0  0  0  0  0  0  0  0  0
  136.6716  139.3864  162.2589 H   0  0  0  0  0  0  0  0  0  0  0  0
  133.9058  136.4217  163.3594 H   0  0  0  0  0  0  0  0  0  0  0  0
  134.3943  140.4090  163.9749 H   0  0  0  0  0  0  0  0  0  0  0  0
  132.9951  140.0432  162.9374 H   0  0  0  0  0  0  0  0  0  0  0  0
  135.5334  139.7744  165.4479 H   0  0  0  0  0  0  0  0  0  0  0  0
  139.3038  136.4170  165.7501 H   0  0  0  0  0  0  0  0  0  0  0  0
  139.4313  134.5294  164.1875 H   0  0  0  0  0  0  0  0  0  0  0  0
  137.7221  134.2313  162.4455 H   0  0  0  0  0  0  0  0  0  0  0  0
  135.8693  135.8122  162.2444 H   0  0  0  0  0  0  0  0  0  0  0  0
  131.9732  132.3672  160.7415 H   0  0  0  0  0  0  0  0  0  0  0  0
  132.9129  132.3272  159.2304 H   0  0  0  0  0  0  0  0  0  0  0  0
  133.0202  133.7399  160.3080 H   0  0  0  0  0  0  0  0  0  0  0  0
  1  2  1  0
  1 41  1  0
  1 42  1  0
  1 43  1  0
  2 39  2  0
  2  3  1  0
  3  4  1  0
  3  5  1  0
  5  6  1  0
  5  7  2  0
  6 44  1  0
  6 45  1  0
  6 46  1  0
  7  8  1  0
  7 39  1  0
  8  9  1  0
  8 47  1  0
  8 48  1  0
  9 10  1  0
  9 11  1  0
  9 12  1  0
 12 13  1  0
 12 19  1  0
 12 49  1  1
 13 18  1  0
 13 14  2  0
 14 15  1  0
 14 50  1  0
 15 16  2  0
 15 51  1  0
 16 17  1  0
 16 52  1  0
 17 18  2  0
 18 53  1  0
 19 24  1  0
 19 20  2  0
 20 21  1  0
 20 54  1  0
 21 22  2  0
 21 55  1  0
 22 23  1  0
 22 56  1  0
 23 24  2  0
 23 57  1  0
 24 25  1  0
 25 26  1  6
 25 27  1  0
 25 29  1  0
 26 58  1  0
 27 28  1  0
 27 59  1  0
 27 60  1  0
 29 38  1  0
 29 30  2  0
 30 31  1  0
 30 61  1  0
 31 32  1  0
 31 33  1  0
 33 38  2  0
 33 34  1  0
 34 35  2  0
 34 62  1  0
 35 36  1  0
 35 63  1  0
 36 37  2  0
 36 64  1  0
 37 38  1  0
 37 65  1  0
 39 40  1  0
 40 66  1  0
 40 67  1  0
 40 68  1  0
M  CHG  1   9   1
M  END
>  <DOCK_score>  (1) 
-57.213745

>  <SMILES>  (1) 
Cc1[nH]c(C)c(C[NH2+]C(c2cccnc2)c2ccccc2[C@](O)(CCl)c2c[nH]c3ccccc23)c1C

$$$$
