O=C1CC[C@H]([NH+]=C(NCc2ncccc2Cl)NC2CC=CC2)CN1
     RDKit          3D

 47 49  0  0  1  0  0  0  0  0999 V2000
  123.7434  133.9293  161.8457 O   0  0  0  0  0  0  0  0  0  0  0  0
  124.9266  133.9764  161.5833 C   0  0  0  0  0  0  0  0  0  0  0  0
  125.7548  132.7446  161.8118 C   0  0  0  0  0  0  0  0  0  0  0  0
  127.2396  133.1147  161.8480 C   0  0  0  0  0  0  0  0  0  0  0  0
  127.5501  133.9928  160.6298 C   0  0  2  0  0  0  0  0  0  0  0  0
  127.2019  133.4973  159.7235 H   0  0  0  0  0  0  0  0  0  0  0  0
  128.9949  134.2189  160.5423 N   0  0  0  0  0  0  0  0  0  0  0  0
  129.5330  134.2355  161.3492 H   0  0  0  0  0  0  0  0  0  0  0  0
  129.5573  134.3977  159.3802 C   0  0  0  0  0  0  0  0  0  0  0  0
  128.7947  134.3741  158.2365 N   0  0  0  0  0  0  0  0  0  0  0  0
  129.3825  133.9212  156.9732 C   0  0  0  0  0  0  0  0  0  0  0  0
  129.8593  132.4995  157.1222 C   0  0  0  0  0  0  0  0  0  0  0  0
  129.7109  131.8796  158.2767 N   0  0  0  0  0  0  0  0  0  0  0  0
  130.1085  130.6347  158.4517 C   0  0  0  0  0  0  0  0  0  0  0  0
  130.7101  129.9329  157.4240 C   0  0  0  0  0  0  0  0  0  0  0  0
  130.8885  130.5521  156.1968 C   0  0  0  0  0  0  0  0  0  0  0  0
  130.4527  131.8613  156.0482 C   0  0  0  0  0  0  0  0  0  0  0  0
  130.6493  132.6870  154.5338 Cl  0  0  0  0  0  0  0  0  0  0  0  0
  130.9132  134.6100  159.2980 N   0  0  0  0  0  0  0  0  0  0  0  0
  131.7257  134.6353  160.5166 C   0  0  0  0  0  0  0  0  0  0  0  0
  131.3932  135.8743  161.3801 C   0  0  0  0  0  0  0  0  0  0  0  0
  132.3941  136.9229  160.9533 C   0  0  0  0  0  0  0  0  0  0  0  0
  133.3894  136.3850  160.3022 C   0  0  0  0  0  0  0  0  0  0  0  0
  133.2182  134.8882  160.1861 C   0  0  0  0  0  0  0  0  0  0  0  0
  126.8304  135.3318  160.7952 C   0  0  0  0  0  0  0  0  0  0  0  0
  125.4226  135.1193  161.1077 N   0  0  0  0  0  0  0  0  0  0  0  0
  125.5782  132.0345  161.0040 H   0  0  0  0  0  0  0  0  0  0  0  0
  125.4719  132.2891  162.7608 H   0  0  0  0  0  0  0  0  0  0  0  0
  127.8446  132.2087  161.8111 H   0  0  0  0  0  0  0  0  0  0  0  0
  127.4584  133.6656  162.7628 H   0  0  0  0  0  0  0  0  0  0  0  0
  127.8674  134.6573  158.2660 H   0  0  0  0  0  0  0  0  0  0  0  0
  128.6319  133.9721  156.1845 H   0  0  0  0  0  0  0  0  0  0  0  0
  130.2255  134.5620  156.7144 H   0  0  0  0  0  0  0  0  0  0  0  0
  129.9664  130.1591  159.4109 H   0  0  0  0  0  0  0  0  0  0  0  0
  131.0374  128.9149  157.5754 H   0  0  0  0  0  0  0  0  0  0  0  0
  131.3558  130.0284  155.3760 H   0  0  0  0  0  0  0  0  0  0  0  0
  131.3318  134.7430  158.4331 H   0  0  0  0  0  0  0  0  0  0  0  0
  131.6005  133.7153  161.0877 H   0  0  0  0  0  0  0  0  0  0  0  0
  131.5136  135.6430  162.4385 H   0  0  0  0  0  0  0  0  0  0  0  0
  130.3774  136.2151  161.1796 H   0  0  0  0  0  0  0  0  0  0  0  0
  132.2988  137.9784  161.1602 H   0  0  0  0  0  0  0  0  0  0  0  0
  134.2256  136.9373  159.8995 H   0  0  0  0  0  0  0  0  0  0  0  0
  133.4433  134.5579  159.1720 H   0  0  0  0  0  0  0  0  0  0  0  0
  133.8599  134.3759  160.9027 H   0  0  0  0  0  0  0  0  0  0  0  0
  127.2977  135.8947  161.6033 H   0  0  0  0  0  0  0  0  0  0  0  0
  126.9119  135.9015  159.8695 H   0  0  0  0  0  0  0  0  0  0  0  0
  124.8081  135.8552  160.9604 H   0  0  0  0  0  0  0  0  0  0  0  0
  1  2  2  0
  2 26  1  0
  2  3  1  0
  3  4  1  0
  3 27  1  0
  3 28  1  0
  4  5  1  0
  4 29  1  0
  4 30  1  0
  5  6  1  6
  5  7  1  0
  5 25  1  0
  7  8  1  0
  9  7  2  0
  9 10  1  0
  9 19  1  0
 10 11  1  0
 10 31  1  0
 11 12  1  0
 11 32  1  0
 11 33  1  0
 12 17  1  0
 12 13  2  0
 13 14  1  0
 14 15  2  0
 14 34  1  0
 15 16  1  0
 15 35  1  0
 16 17  2  0
 16 36  1  0
 17 18  1  0
 19 20  1  0
 19 37  1  0
 20 24  1  0
 20 21  1  0
 20 38  1  0
 21 22  1  0
 21 39  1  0
 21 40  1  0
 22 23  2  0
 22 41  1  0
 23 24  1  0
 23 42  1  0
 24 43  1  0
 24 44  1  0
 25 26  1  0
 25 45  1  0
 25 46  1  0
 26 47  1  0
M  CHG  1   7   1
M  END
>  <DOCK_score>  (1) 
-48.977272

>  <SMILES>  (1) 
O=C1CC[C@H]([NH+]=C(NCc2ncccc2Cl)NC2CC=CC2)CN1

$$$$
