CC1(C)C(O)C[C@@H]1Sc1cc(Nc2[nH]cc(-c3ccc(N)cc3)[nH+]2)c(F)cc1O
     RDKit          3D

 53 56  0  0  1  0  0  0  0  0999 V2000
  132.2729  140.3350  162.6859 C   0  0  0  0  0  0  0  0  0  0  0  0
  130.7893  140.5033  163.0197 C   0  0  0  0  0  0  0  0  0  0  0  0
  130.5017  140.3971  164.5186 C   0  0  0  0  0  0  0  0  0  0  0  0
  130.1434  141.7298  162.3539 C   0  0  2  0  0  0  0  0  0  0  0  0
  129.9026  142.8109  163.2569 O   0  0  0  0  0  0  0  0  0  0  0  0
  128.9087  140.8472  162.1065 C   0  0  0  0  0  0  0  0  0  0  0  0
  129.8605  139.6401  162.1496 C   0  0  2  0  0  0  0  0  0  0  0  0
  130.2850  139.3838  161.1788 H   0  0  0  0  0  0  0  0  0  0  0  0
  129.1766  138.2034  163.0207 S   0  0  0  0  0  0  0  0  0  0  0  0
  128.6895  137.1371  161.7052 C   0  0  0  0  0  0  0  0  0  0  0  0
  129.6331  136.6789  160.7970 C   0  0  0  0  0  0  0  0  0  0  0  0
  129.2471  135.8389  159.7622 C   0  0  0  0  0  0  0  0  0  0  0  0
  130.1988  135.3751  158.8440 N   0  0  0  0  0  0  0  0  0  0  0  0
  130.0319  134.1414  158.2372 C   0  0  0  0  0  0  0  0  0  0  0  0
  129.4036  133.0662  158.7866 N   0  0  0  0  0  0  0  0  0  0  0  0
  128.9957  133.0262  159.6658 H   0  0  0  0  0  0  0  0  0  0  0  0
  129.4520  132.0482  157.8644 C   0  0  0  0  0  0  0  0  0  0  0  0
  130.1147  132.5284  156.7829 C   0  0  0  0  0  0  0  0  0  0  0  0
  130.4118  131.7789  155.5376 C   0  0  0  0  0  0  0  0  0  0  0  0
  129.9188  132.2328  154.3152 C   0  0  0  0  0  0  0  0  0  0  0  0
  130.2009  131.5378  153.1582 C   0  0  0  0  0  0  0  0  0  0  0  0
  130.9667  130.3790  153.2116 C   0  0  0  0  0  0  0  0  0  0  0  0
  131.2470  129.6734  152.0390 N   0  0  0  0  0  0  0  0  0  0  0  0
  131.4545  129.9215  154.4299 C   0  0  0  0  0  0  0  0  0  0  0  0
  131.1796  130.6165  155.5887 C   0  0  0  0  0  0  0  0  0  0  0  0
  130.4579  133.8147  157.0411 N   0  0  0  0  0  0  0  0  0  0  0  0
  130.9415  134.3998  156.4372 H   0  0  0  0  0  0  0  0  0  0  0  0
  127.9161  135.4568  159.6365 C   0  0  0  0  0  0  0  0  0  0  0  0
  127.5413  134.6381  158.6291 F   0  0  0  0  0  0  0  0  0  0  0  0
  126.9750  135.9137  160.5420 C   0  0  0  0  0  0  0  0  0  0  0  0
  127.3578  136.7485  161.5792 C   0  0  0  0  0  0  0  0  0  0  0  0
  126.4319  137.1929  162.4721 O   0  0  0  0  0  0  0  0  0  0  0  0
  132.8631  141.0130  163.3024 H   0  0  0  0  0  0  0  0  0  0  0  0
  132.5756  139.3069  162.8844 H   0  0  0  0  0  0  0  0  0  0  0  0
  132.4370  140.5653  161.6332 H   0  0  0  0  0  0  0  0  0  0  0  0
  129.4637  140.6694  164.7096 H   0  0  0  0  0  0  0  0  0  0  0  0
  130.6756  139.3735  164.8503 H   0  0  0  0  0  0  0  0  0  0  0  0
  131.1608  141.0726  165.0636 H   0  0  0  0  0  0  0  0  0  0  0  0
  130.6461  142.0458  161.4397 H   0  0  0  0  0  0  0  0  0  0  0  0
  129.3119  142.5874  163.9891 H   0  0  0  0  0  0  0  0  0  0  0  0
  128.1884  140.8647  162.9243 H   0  0  0  0  0  0  0  0  0  0  0  0
  128.4475  141.0048  161.1315 H   0  0  0  0  0  0  0  0  0  0  0  0
  130.6669  136.9754  160.8955 H   0  0  0  0  0  0  0  0  0  0  0  0
  130.9745  135.9181  158.6335 H   0  0  0  0  0  0  0  0  0  0  0  0
  129.0439  131.0550  157.9802 H   0  0  0  0  0  0  0  0  0  0  0  0
  129.3200  133.1307  154.2739 H   0  0  0  0  0  0  0  0  0  0  0  0
  129.8232  131.8916  152.2103 H   0  0  0  0  0  0  0  0  0  0  0  0
  131.7814  128.8650  152.0752 H   0  0  0  0  0  0  0  0  0  0  0  0
  130.9067  129.9923  151.1881 H   0  0  0  0  0  0  0  0  0  0  0  0
  132.0490  129.0207  154.4691 H   0  0  0  0  0  0  0  0  0  0  0  0
  131.5592  130.2608  156.5351 H   0  0  0  0  0  0  0  0  0  0  0  0
  125.9417  135.6158  160.4428 H   0  0  0  0  0  0  0  0  0  0  0  0
  125.5361  136.8702  162.3033 H   0  0  0  0  0  0  0  0  0  0  0  0
  1  2  1  0
  1 33  1  0
  1 34  1  0
  1 35  1  0
  2  7  1  0
  2  3  1  0
  2  4  1  0
  3 36  1  0
  3 37  1  0
  3 38  1  0
  4  5  1  0
  4  6  1  0
  4 39  1  6
  5 40  1  0
  6  7  1  0
  6 41  1  0
  6 42  1  0
  7  8  1  6
  7  9  1  0
  9 10  1  0
 10 31  1  0
 10 11  2  0
 11 12  1  0
 11 43  1  0
 12 13  1  0
 12 28  2  0
 13 44  1  0
 14 13  1  0
 14 26  2  0
 14 15  1  0
 15 16  1  0
 15 17  1  0
 17 18  2  0
 17 45  1  0
 18 19  1  0
 18 26  1  0
 19 25  1  0
 19 20  2  0
 20 21  1  0
 20 46  1  0
 21 22  2  0
 21 47  1  0
 22 23  1  0
 22 24  1  0
 23 48  1  0
 23 49  1  0
 24 25  2  0
 24 50  1  0
 25 51  1  0
 26 27  1  0
 28 29  1  0
 28 30  1  0
 30 31  2  0
 30 52  1  0
 31 32  1  0
 32 53  1  0
M  CHG  1  26   1
M  END
>  <DOCK_score>  (1) 
-56.869225

>  <SMILES>  (1) 
CC1(C)C(O)C[C@@H]1Sc1cc(Nc2[nH]cc(-c3ccc(N)cc3)[nH+]2)c(F)cc1O

$$$$
