O=C1CC[C@H](NC(N[C@H]2C=CCC2)=[NH+]C2CCCOC2)CN1
     RDKit          3D

 49 51  0  0  1  0  0  0  0  0999 V2000
  123.9015  133.6564  162.2312 O   0  0  0  0  0  0  0  0  0  0  0  0
  125.0307  133.9896  161.9402 C   0  0  0  0  0  0  0  0  0  0  0  0
  125.9921  132.9267  161.4915 C   0  0  0  0  0  0  0  0  0  0  0  0
  127.4282  133.4465  161.5941 C   0  0  0  0  0  0  0  0  0  0  0  0
  127.4935  134.8252  160.9260 C   0  0  2  0  0  0  0  0  0  0  0  0
  127.0767  134.7646  159.9207 H   0  0  0  0  0  0  0  0  0  0  0  0
  128.8872  135.2711  160.8543 N   0  0  0  0  0  0  0  0  0  0  0  0
  129.6530  134.9590  159.7559 C   0  0  0  0  0  0  0  0  0  0  0  0
  129.1109  134.2286  158.7249 N   0  0  0  0  0  0  0  0  0  0  0  0
  129.9271  133.8962  157.5547 C   0  0  1  0  0  0  0  0  0  0  0  0
  130.2753  134.8054  157.0648 H   0  0  0  0  0  0  0  0  0  0  0  0
  131.0984  133.0311  157.9582 C   0  0  0  0  0  0  0  0  0  0  0  0
  131.2537  132.0341  157.1301 C   0  0  0  0  0  0  0  0  0  0  0  0
  130.2119  132.0682  156.0361 C   0  0  0  0  0  0  0  0  0  0  0  0
  129.1189  133.0263  156.5639 C   0  0  0  0  0  0  0  0  0  0  0  0
  130.8929  135.3558  159.6921 N   0  0  0  0  0  0  0  0  0  0  0  0
  131.2993  135.5403  158.8309 H   0  0  0  0  0  0  0  0  0  0  0  0
  131.6726  135.5234  160.9210 C   0  0  2  0  0  0  0  0  0  0  0  0
  133.0896  135.9866  160.5691 C   0  0  0  0  0  0  0  0  0  0  0  0
  133.9174  136.0831  161.8543 C   0  0  0  0  0  0  0  0  0  0  0  0
  133.9087  134.7251  162.5609 C   0  0  0  0  0  0  0  0  0  0  0  0
  132.5597  134.3390  162.8316 O   0  0  0  0  0  0  0  0  0  0  0  0
  131.7506  134.1869  161.6635 C   0  0  0  0  0  0  0  0  0  0  0  0
  126.6801  135.8160  161.7597 C   0  0  0  0  0  0  0  0  0  0  0  0
  125.3522  135.2803  162.0354 N   0  0  0  0  0  0  0  0  0  0  0  0
  125.7774  132.6576  160.4573 H   0  0  0  0  0  0  0  0  0  0  0  0
  125.8792  132.0472  162.1254 H   0  0  0  0  0  0  0  0  0  0  0  0
  128.1043  132.7596  161.0849 H   0  0  0  0  0  0  0  0  0  0  0  0
  127.7132  133.5329  162.6426 H   0  0  0  0  0  0  0  0  0  0  0  0
  129.2696  135.7864  161.5816 H   0  0  0  0  0  0  0  0  0  0  0  0
  128.1882  133.9334  158.7724 H   0  0  0  0  0  0  0  0  0  0  0  0
  131.7250  133.2139  158.8187 H   0  0  0  0  0  0  0  0  0  0  0  0
  132.0258  131.2838  157.2154 H   0  0  0  0  0  0  0  0  0  0  0  0
  129.7985  131.0727  155.8746 H   0  0  0  0  0  0  0  0  0  0  0  0
  130.6431  132.4556  155.1130 H   0  0  0  0  0  0  0  0  0  0  0  0
  128.3315  132.4759  157.0787 H   0  0  0  0  0  0  0  0  0  0  0  0
  128.7070  133.6324  155.7569 H   0  0  0  0  0  0  0  0  0  0  0  0
  131.1942  136.2669  161.5585 H   0  0  0  0  0  0  0  0  0  0  0  0
  133.0451  136.9644  160.0897 H   0  0  0  0  0  0  0  0  0  0  0  0
  133.5505  135.2677  159.8916 H   0  0  0  0  0  0  0  0  0  0  0  0
  134.9426  136.3587  161.6074 H   0  0  0  0  0  0  0  0  0  0  0  0
  133.4843  136.8379  162.5107 H   0  0  0  0  0  0  0  0  0  0  0  0
  134.3786  133.9788  161.9200 H   0  0  0  0  0  0  0  0  0  0  0  0
  134.4607  134.7992  163.4978 H   0  0  0  0  0  0  0  0  0  0  0  0
  132.1922  133.4337  161.0110 H   0  0  0  0  0  0  0  0  0  0  0  0
  130.7480  133.8732  161.9542 H   0  0  0  0  0  0  0  0  0  0  0  0
  127.1945  136.0010  162.7027 H   0  0  0  0  0  0  0  0  0  0  0  0
  126.5867  136.7548  161.2136 H   0  0  0  0  0  0  0  0  0  0  0  0
  124.6583  135.9031  162.3027 H   0  0  0  0  0  0  0  0  0  0  0  0
  1  2  2  0
  2 25  1  0
  2  3  1  0
  3  4  1  0
  3 26  1  0
  3 27  1  0
  4  5  1  0
  4 28  1  0
  4 29  1  0
  5  6  1  6
  5  7  1  0
  5 24  1  0
  7 30  1  0
  8  7  1  0
  8  9  1  0
  8 16  2  0
  9 10  1  0
  9 31  1  0
 10 11  1  6
 10 15  1  0
 10 12  1  0
 12 13  2  0
 12 32  1  0
 13 14  1  0
 13 33  1  0
 14 15  1  0
 14 34  1  0
 14 35  1  0
 15 36  1  0
 15 37  1  0
 16 17  1  0
 16 18  1  0
 18 23  1  0
 18 19  1  0
 18 38  1  1
 19 20  1  0
 19 39  1  0
 19 40  1  0
 20 21  1  0
 20 41  1  0
 20 42  1  0
 21 22  1  0
 21 43  1  0
 21 44  1  0
 22 23  1  0
 23 45  1  0
 23 46  1  0
 24 25  1  0
 24 47  1  0
 24 48  1  0
 25 49  1  0
M  CHG  1  16   1
M  END
>  <DOCK_score>  (1) 
-45.309902

>  <SMILES>  (1) 
O=C1CC[C@H](NC(N[C@H]2C=CCC2)=[NH+]C2CCCOC2)CN1

$$$$
