CCc1ccc(-c2c[nH]c(Nc3ccc4c(c3)C[C@@H](NC(=S)NC3CC3)CO4)[nH+]2)cc1
     RDKit          3D

 59 63  0  0  1  0  0  0  0  0999 V2000
  130.1742  128.5364  151.6039 C   0  0  0  0  0  0  0  0  0  0  0  0
  131.2021  129.6497  151.8168 C   0  0  0  0  0  0  0  0  0  0  0  0
  130.9300  130.3404  153.1284 C   0  0  0  0  0  0  0  0  0  0  0  0
  131.5296  129.8796  154.2873 C   0  0  0  0  0  0  0  0  0  0  0  0
  131.2839  130.5084  155.4911 C   0  0  0  0  0  0  0  0  0  0  0  0
  130.4301  131.6089  155.5379 C   0  0  0  0  0  0  0  0  0  0  0  0
  130.1618  132.2886  156.8288 C   0  0  0  0  0  0  0  0  0  0  0  0
  129.6109  131.7206  157.9305 C   0  0  0  0  0  0  0  0  0  0  0  0
  129.5493  132.6973  158.8939 N   0  0  0  0  0  0  0  0  0  0  0  0
  129.2056  132.5943  159.7951 H   0  0  0  0  0  0  0  0  0  0  0  0
  130.0562  133.8373  158.3496 C   0  0  0  0  0  0  0  0  0  0  0  0
  130.1698  135.0579  158.9942 N   0  0  0  0  0  0  0  0  0  0  0  0
  129.2542  135.4098  159.9933 C   0  0  0  0  0  0  0  0  0  0  0  0
  127.8999  135.4961  159.6976 C   0  0  0  0  0  0  0  0  0  0  0  0
  127.0016  135.8411  160.6855 C   0  0  0  0  0  0  0  0  0  0  0  0
  127.4454  136.1029  161.9782 C   0  0  0  0  0  0  0  0  0  0  0  0
  128.7948  136.0199  162.2723 C   0  0  0  0  0  0  0  0  0  0  0  0
  129.6973  135.6726  161.2812 C   0  0  0  0  0  0  0  0  0  0  0  0
  129.3157  136.3016  163.6591 C   0  0  0  0  0  0  0  0  0  0  0  0
  128.1660  136.2273  164.6668 C   0  0  1  0  0  0  0  0  0  0  0  0
  127.8566  135.1902  164.7958 H   0  0  0  0  0  0  0  0  0  0  0  0
  128.6008  136.7765  165.9535 N   0  0  0  0  0  0  0  0  0  0  0  0
  128.0663  136.3112  167.0999 C   0  0  0  0  0  0  0  0  0  0  0  0
  126.8791  135.0788  167.0527 S   0  0  0  0  0  0  0  0  0  0  0  0
  128.4666  136.8162  168.2837 N   0  0  0  0  0  0  0  0  0  0  0  0
  127.8855  136.3106  169.5299 C   0  0  0  0  0  0  0  0  0  0  0  0
  127.9724  137.2090  170.7654 C   0  0  0  0  0  0  0  0  0  0  0  0
  126.6302  137.0091  170.0587 C   0  0  0  0  0  0  0  0  0  0  0  0
  126.9931  137.0529  164.1223 C   0  0  0  0  0  0  0  0  0  0  0  0
  126.5255  136.4341  162.9231 O   0  0  0  0  0  0  0  0  0  0  0  0
  130.4242  133.5879  157.1165 N   0  0  0  0  0  0  0  0  0  0  0  0
  130.8212  134.2297  156.5071 H   0  0  0  0  0  0  0  0  0  0  0  0
  129.8248  132.0650  154.3682 C   0  0  0  0  0  0  0  0  0  0  0  0
  130.0815  131.4316  153.1693 C   0  0  0  0  0  0  0  0  0  0  0  0
  129.1724  128.9657  151.5874 H   0  0  0  0  0  0  0  0  0  0  0  0
  130.3710  128.0367  150.6553 H   0  0  0  0  0  0  0  0  0  0  0  0
  130.2465  127.8140  152.4169 H   0  0  0  0  0  0  0  0  0  0  0  0
  131.1299  130.3715  151.0042 H   0  0  0  0  0  0  0  0  0  0  0  0
  132.2040  129.2199  151.8338 H   0  0  0  0  0  0  0  0  0  0  0  0
  132.1908  129.0265  154.2498 H   0  0  0  0  0  0  0  0  0  0  0  0
  131.7528  130.1484  156.3949 H   0  0  0  0  0  0  0  0  0  0  0  0
  129.2871  130.6953  158.0319 H   0  0  0  0  0  0  0  0  0  0  0  0
  130.8836  135.6690  158.7534 H   0  0  0  0  0  0  0  0  0  0  0  0
  127.5509  135.2937  158.6957 H   0  0  0  0  0  0  0  0  0  0  0  0
  125.9487  135.9081  160.4550 H   0  0  0  0  0  0  0  0  0  0  0  0
  130.7504  135.6065  161.5117 H   0  0  0  0  0  0  0  0  0  0  0  0
  129.7572  137.2978  163.6853 H   0  0  0  0  0  0  0  0  0  0  0  0
  130.0734  135.5621  163.9183 H   0  0  0  0  0  0  0  0  0  0  0  0
  129.2736  137.4748  165.9804 H   0  0  0  0  0  0  0  0  0  0  0  0
  129.1394  137.5145  168.3105 H   0  0  0  0  0  0  0  0  0  0  0  0
  127.9658  135.2345  169.6834 H   0  0  0  0  0  0  0  0  0  0  0  0
  128.1096  136.7238  171.7318 H   0  0  0  0  0  0  0  0  0  0  0  0
  128.4623  138.1760  170.6510 H   0  0  0  0  0  0  0  0  0  0  0  0
  125.8843  136.3924  170.5602 H   0  0  0  0  0  0  0  0  0  0  0  0
  126.2372  137.8445  169.4791 H   0  0  0  0  0  0  0  0  0  0  0  0
  126.1902  137.0805  164.8590 H   0  0  0  0  0  0  0  0  0  0  0  0
  127.3277  138.0672  163.9048 H   0  0  0  0  0  0  0  0  0  0  0  0
  129.1591  132.9149  154.3994 H   0  0  0  0  0  0  0  0  0  0  0  0
  129.6156  131.7861  152.2618 H   0  0  0  0  0  0  0  0  0  0  0  0
  1  2  1  0
  1 35  1  0
  1 36  1  0
  1 37  1  0
  2  3  1  0
  2 38  1  0
  2 39  1  0
  3 34  2  0
  3  4  1  0
  4  5  2  0
  4 40  1  0
  5  6  1  0
  5 41  1  0
  6  7  1  0
  6 33  2  0
  7 31  1  0
  7  8  2  0
  8  9  1  0
  8 42  1  0
  9 10  1  0
  9 11  1  0
 11 12  1  0
 11 31  2  0
 12 13  1  0
 12 43  1  0
 13 18  1  0
 13 14  2  0
 14 15  1  0
 14 44  1  0
 15 16  2  0
 15 45  1  0
 16 30  1  0
 16 17  1  0
 17 18  2  0
 17 19  1  0
 18 46  1  0
 19 20  1  0
 19 47  1  0
 19 48  1  0
 20 21  1  1
 20 22  1  0
 20 29  1  0
 22 23  1  0
 22 49  1  0
 23 24  2  0
 23 25  1  0
 25 26  1  0
 25 50  1  0
 26 28  1  0
 26 27  1  0
 26 51  1  0
 27 28  1  0
 27 52  1  0
 27 53  1  0
 28 54  1  0
 28 55  1  0
 29 30  1  0
 29 56  1  0
 29 57  1  0
 31 32  1  0
 33 34  1  0
 33 58  1  0
 34 59  1  0
M  CHG  1  31   1
M  END
>  <DOCK_score>  (1) 
-56.498447

>  <SMILES>  (1) 
CCc1ccc(-c2c[nH]c(Nc3ccc4c(c3)C[C@@H](NC(=S)NC3CC3)CO4)[nH+]2)cc1

$$$$
