CCc1ccc(-c2c[nH]c(N[C@@H](C3=CCOC3)c3ccccc3)[nH+]2)cc1
     RDKit          3D

 50 53  0  0  1  0  0  0  0  0999 V2000
  130.6346  128.3591  151.7988 C   0  0  0  0  0  0  0  0  0  0  0  0
  131.6964  129.4059  152.1411 C   0  0  0  0  0  0  0  0  0  0  0  0
  131.2830  130.1535  153.3826 C   0  0  0  0  0  0  0  0  0  0  0  0
  131.6703  129.6904  154.6266 C   0  0  0  0  0  0  0  0  0  0  0  0
  131.2988  130.3737  155.7667 C   0  0  0  0  0  0  0  0  0  0  0  0
  130.5226  131.5267  155.6632 C   0  0  0  0  0  0  0  0  0  0  0  0
  130.1159  132.2625  156.8851 C   0  0  0  0  0  0  0  0  0  0  0  0
  129.3790  131.7640  157.9086 C   0  0  0  0  0  0  0  0  0  0  0  0
  129.2371  132.7755  158.8273 N   0  0  0  0  0  0  0  0  0  0  0  0
  128.7583  132.7239  159.6693 H   0  0  0  0  0  0  0  0  0  0  0  0
  129.8921  133.8635  158.3379 C   0  0  0  0  0  0  0  0  0  0  0  0
  129.9885  135.0951  158.9625 N   0  0  0  0  0  0  0  0  0  0  0  0
  128.9127  135.5556  159.8438 C   0  0  1  0  0  0  0  0  0  0  0  0
  128.7909  134.8517  160.6670 H   0  0  0  0  0  0  0  0  0  0  0  0
  129.2605  136.9154  160.3929 C   0  0  0  0  0  0  0  0  0  0  0  0
  129.9891  137.8242  159.7883 C   0  0  0  0  0  0  0  0  0  0  0  0
  130.0846  139.0348  160.6886 C   0  0  0  0  0  0  0  0  0  0  0  0
  129.0288  138.8870  161.6571 O   0  0  0  0  0  0  0  0  0  0  0  0
  128.8347  137.4620  161.7363 C   0  0  0  0  0  0  0  0  0  0  0  0
  127.6266  135.6432  159.0631 C   0  0  0  0  0  0  0  0  0  0  0  0
  126.4167  135.4346  159.6984 C   0  0  0  0  0  0  0  0  0  0  0  0
  125.2369  135.5187  158.9830 C   0  0  0  0  0  0  0  0  0  0  0  0
  125.2674  135.8033  157.6307 C   0  0  0  0  0  0  0  0  0  0  0  0
  126.4775  136.0066  156.9943 C   0  0  0  0  0  0  0  0  0  0  0  0
  127.6571  135.9263  157.7104 C   0  0  0  0  0  0  0  0  0  0  0  0
  130.4201  133.5515  157.1795 N   0  0  0  0  0  0  0  0  0  0  0  0
  130.9433  134.1476  156.6210 H   0  0  0  0  0  0  0  0  0  0  0  0
  130.1308  131.9861  154.4071 C   0  0  0  0  0  0  0  0  0  0  0  0
  130.5126  131.2978  153.2735 C   0  0  0  0  0  0  0  0  0  0  0  0
  129.6793  128.8538  151.6239 H   0  0  0  0  0  0  0  0  0  0  0  0
  130.9337  127.8184  150.9008 H   0  0  0  0  0  0  0  0  0  0  0  0
  130.5347  127.6588  152.6282 H   0  0  0  0  0  0  0  0  0  0  0  0
  132.6517  128.9117  152.3157 H   0  0  0  0  0  0  0  0  0  0  0  0
  131.7962  130.1067  151.3114 H   0  0  0  0  0  0  0  0  0  0  0  0
  132.2681  128.7943  154.7060 H   0  0  0  0  0  0  0  0  0  0  0  0
  131.6057  130.0134  156.7376 H   0  0  0  0  0  0  0  0  0  0  0  0
  128.9798  130.7636  157.9865 H   0  0  0  0  0  0  0  0  0  0  0  0
  130.7684  135.6532  158.8168 H   0  0  0  0  0  0  0  0  0  0  0  0
  130.4417  137.7251  158.8127 H   0  0  0  0  0  0  0  0  0  0  0  0
  129.9409  139.9485  160.1117 H   0  0  0  0  0  0  0  0  0  0  0  0
  131.0533  139.0539  161.1878 H   0  0  0  0  0  0  0  0  0  0  0  0
  127.7845  137.2349  161.9195 H   0  0  0  0  0  0  0  0  0  0  0  0
  129.4541  137.0400  162.5278 H   0  0  0  0  0  0  0  0  0  0  0  0
  126.3932  135.2090  160.7543 H   0  0  0  0  0  0  0  0  0  0  0  0
  124.2914  135.3594  159.4801 H   0  0  0  0  0  0  0  0  0  0  0  0
  124.3457  135.8662  157.0712 H   0  0  0  0  0  0  0  0  0  0  0  0
  126.5014  136.2285  155.9375 H   0  0  0  0  0  0  0  0  0  0  0  0
  128.6027  136.0852  157.2131 H   0  0  0  0  0  0  0  0  0  0  0  0
  129.5291  132.8788  154.3208 H   0  0  0  0  0  0  0  0  0  0  0  0
  130.2097  131.6530  152.2995 H   0  0  0  0  0  0  0  0  0  0  0  0
  1  2  1  0
  1 30  1  0
  1 31  1  0
  1 32  1  0
  2  3  1  0
  2 33  1  0
  2 34  1  0
  3 29  2  0
  3  4  1  0
  4  5  2  0
  4 35  1  0
  5  6  1  0
  5 36  1  0
  6  7  1  0
  6 28  2  0
  7 26  1  0
  7  8  2  0
  8  9  1  0
  8 37  1  0
  9 10  1  0
  9 11  1  0
 11 12  1  0
 11 26  2  0
 12 13  1  0
 12 38  1  0
 13 14  1  1
 13 15  1  0
 13 20  1  0
 15 19  1  0
 15 16  2  0
 16 17  1  0
 16 39  1  0
 17 18  1  0
 17 40  1  0
 17 41  1  0
 18 19  1  0
 19 42  1  0
 19 43  1  0
 20 25  1  0
 20 21  2  0
 21 22  1  0
 21 44  1  0
 22 23  2  0
 22 45  1  0
 23 24  1  0
 23 46  1  0
 24 25  2  0
 24 47  1  0
 25 48  1  0
 26 27  1  0
 28 29  1  0
 28 49  1  0
 29 50  1  0
M  CHG  1  26   1
M  END
>  <DOCK_score>  (1) 
-60.86755

>  <SMILES>  (1) 
CCc1ccc(-c2c[nH]c(N[C@@H](C3=CCOC3)c3ccccc3)[nH+]2)cc1

$$$$
