CCc1ccc(-c2c[nH]c(N[C@@H](CO)Cc3ccc(N4CC=CCC4)cc3)[nH+]2)cc1
     RDKit          3D

 61 64  0  0  1  0  0  0  0  0999 V2000
  130.4230  129.2590  151.6851 C   0  0  0  0  0  0  0  0  0  0  0  0
  131.6727  129.7002  152.4498 C   0  0  0  0  0  0  0  0  0  0  0  0
  131.2631  130.4254  153.7057 C   0  0  0  0  0  0  0  0  0  0  0  0
  131.0756  129.7181  154.8796 C   0  0  0  0  0  0  0  0  0  0  0  0
  130.7060  130.3777  156.0341 C   0  0  0  0  0  0  0  0  0  0  0  0
  130.5106  131.7575  156.0131 C   0  0  0  0  0  0  0  0  0  0  0  0
  130.1080  132.4715  157.2494 C   0  0  0  0  0  0  0  0  0  0  0  0
  129.3732  131.9554  158.2656 C   0  0  0  0  0  0  0  0  0  0  0  0
  129.2344  132.9503  159.2025 N   0  0  0  0  0  0  0  0  0  0  0  0
  128.7576  132.8841  160.0446 H   0  0  0  0  0  0  0  0  0  0  0  0
  129.8892  134.0463  158.7311 C   0  0  0  0  0  0  0  0  0  0  0  0
  129.9886  135.2663  159.3777 N   0  0  0  0  0  0  0  0  0  0  0  0
  129.3557  135.4561  160.6852 C   0  0  1  0  0  0  0  0  0  0  0  0
  128.3832  134.9638  160.6929 H   0  0  0  0  0  0  0  0  0  0  0  0
  130.2430  134.8500  161.7742 C   0  0  0  0  0  0  0  0  0  0  0  0
  130.0470  133.4352  161.8156 O   0  0  0  0  0  0  0  0  0  0  0  0
  129.1723  136.9518  160.9507 C   0  0  0  0  0  0  0  0  0  0  0  0
  130.5167  137.6325  160.9400 C   0  0  0  0  0  0  0  0  0  0  0  0
  131.0237  138.1397  159.7576 C   0  0  0  0  0  0  0  0  0  0  0  0
  132.2529  138.7693  159.7452 C   0  0  0  0  0  0  0  0  0  0  0  0
  132.9854  138.8824  160.9202 C   0  0  0  0  0  0  0  0  0  0  0  0
  134.2311  139.5137  160.9104 N   0  0  0  0  0  0  0  0  0  0  0  0
  134.6049  139.9197  159.5495 C   0  0  0  0  0  0  0  0  0  0  0  0
  135.8771  140.7165  159.5751 C   0  0  0  0  0  0  0  0  0  0  0  0
  136.3558  141.2599  160.6525 C   0  0  0  0  0  0  0  0  0  0  0  0
  135.6875  141.1402  161.9935 C   0  0  0  0  0  0  0  0  0  0  0  0
  134.2388  140.6800  161.8091 C   0  0  0  0  0  0  0  0  0  0  0  0
  132.4756  138.3666  162.1050 C   0  0  0  0  0  0  0  0  0  0  0  0
  131.2432  137.7434  162.1113 C   0  0  0  0  0  0  0  0  0  0  0  0
  130.4148  133.7544  157.5664 N   0  0  0  0  0  0  0  0  0  0  0  0
  130.9375  134.3598  157.0176 H   0  0  0  0  0  0  0  0  0  0  0  0
  130.6955  132.4642  154.8260 C   0  0  0  0  0  0  0  0  0  0  0  0
  131.0706  131.7949  153.6788 C   0  0  0  0  0  0  0  0  0  0  0  0
  129.8300  130.1347  151.4219 H   0  0  0  0  0  0  0  0  0  0  0  0
  130.7194  128.7344  150.7767 H   0  0  0  0  0  0  0  0  0  0  0  0
  129.8297  128.5933  152.3119 H   0  0  0  0  0  0  0  0  0  0  0  0
  132.2658  128.8243  152.7129 H   0  0  0  0  0  0  0  0  0  0  0  0
  132.2661  130.3658  151.8230 H   0  0  0  0  0  0  0  0  0  0  0  0
  131.2227  128.6483  154.8937 H   0  0  0  0  0  0  0  0  0  0  0  0
  130.5645  129.8253  156.9514 H   0  0  0  0  0  0  0  0  0  0  0  0
  128.9733  130.9540  158.3265 H   0  0  0  0  0  0  0  0  0  0  0  0
  130.4776  135.9955  158.9651 H   0  0  0  0  0  0  0  0  0  0  0  0
  131.2883  135.0658  161.5531 H   0  0  0  0  0  0  0  0  0  0  0  0
  129.9793  135.2817  162.7397 H   0  0  0  0  0  0  0  0  0  0  0  0
  129.1373  133.1695  162.0079 H   0  0  0  0  0  0  0  0  0  0  0  0
  128.5403  137.3837  160.1747 H   0  0  0  0  0  0  0  0  0  0  0  0
  128.7012  137.0930  161.9234 H   0  0  0  0  0  0  0  0  0  0  0  0
  130.4560  138.0474  158.8435 H   0  0  0  0  0  0  0  0  0  0  0  0
  132.6464  139.1692  158.8225 H   0  0  0  0  0  0  0  0  0  0  0  0
  134.7477  139.0313  158.9344 H   0  0  0  0  0  0  0  0  0  0  0  0
  133.8070  140.5270  159.1222 H   0  0  0  0  0  0  0  0  0  0  0  0
  136.4212  140.8439  158.6509 H   0  0  0  0  0  0  0  0  0  0  0  0
  137.2751  141.8225  160.5823 H   0  0  0  0  0  0  0  0  0  0  0  0
  136.2244  140.4130  162.6026 H   0  0  0  0  0  0  0  0  0  0  0  0
  135.6985  142.1094  162.4920 H   0  0  0  0  0  0  0  0  0  0  0  0
  133.6512  141.4857  161.3688 H   0  0  0  0  0  0  0  0  0  0  0  0
  133.8175  140.4009  162.7749 H   0  0  0  0  0  0  0  0  0  0  0  0
  133.0423  138.4532  163.0204 H   0  0  0  0  0  0  0  0  0  0  0  0
  130.8462  137.3424  163.0322 H   0  0  0  0  0  0  0  0  0  0  0  0
  130.5452  133.5336  154.8039 H   0  0  0  0  0  0  0  0  0  0  0  0
  131.2138  132.3414  152.7584 H   0  0  0  0  0  0  0  0  0  0  0  0
  1  2  1  0
  1 34  1  0
  1 35  1  0
  1 36  1  0
  2  3  1  0
  2 37  1  0
  2 38  1  0
  3 33  2  0
  3  4  1  0
  4  5  2  0
  4 39  1  0
  5  6  1  0
  5 40  1  0
  6  7  1  0
  6 32  2  0
  7 30  1  0
  7  8  2  0
  8  9  1  0
  8 41  1  0
  9 10  1  0
  9 11  1  0
 11 12  1  0
 11 30  2  0
 12 13  1  0
 12 42  1  0
 13 14  1  6
 13 15  1  0
 13 17  1  0
 15 16  1  0
 15 43  1  0
 15 44  1  0
 16 45  1  0
 17 18  1  0
 17 46  1  0
 17 47  1  0
 18 29  1  0
 18 19  2  0
 19 20  1  0
 19 48  1  0
 20 21  2  0
 20 49  1  0
 21 22  1  0
 21 28  1  0
 22 27  1  0
 22 23  1  0
 23 24  1  0
 23 50  1  0
 23 51  1  0
 24 25  2  0
 24 52  1  0
 25 26  1  0
 25 53  1  0
 26 27  1  0
 26 54  1  0
 26 55  1  0
 27 56  1  0
 27 57  1  0
 28 29  2  0
 28 58  1  0
 29 59  1  0
 30 31  1  0
 32 33  1  0
 32 60  1  0
 33 61  1  0
M  CHG  1  30   1
M  END
>  <DOCK_score>  (1) 
-57.984028

>  <SMILES>  (1) 
CCc1ccc(-c2c[nH]c(N[C@@H](CO)Cc3ccc(N4CC=CCC4)cc3)[nH+]2)cc1

$$$$
