Cc1cccc(N2CC[NH+](C(c3ccccc3)c3ccccc3C(=O)NC[C@H]3CC3(F)F)CC2)c1C
     RDKit          3D

 70 74  0  0  1  0  0  0  0  0999 V2000
  136.0642  141.4664  162.5873 C   0  0  0  0  0  0  0  0  0  0  0  0
  135.5349  140.6459  161.4394 C   0  0  0  0  0  0  0  0  0  0  0  0
  136.0021  140.8698  160.1571 C   0  0  0  0  0  0  0  0  0  0  0  0
  135.5189  140.1196  159.1010 C   0  0  0  0  0  0  0  0  0  0  0  0
  134.5675  139.1432  159.3236 C   0  0  0  0  0  0  0  0  0  0  0  0
  134.0961  138.9158  160.6102 C   0  0  0  0  0  0  0  0  0  0  0  0
  133.1338  137.9296  160.8388 N   0  0  0  0  0  0  0  0  0  0  0  0
  131.8753  138.2524  160.1517 C   0  0  0  0  0  0  0  0  0  0  0  0
  130.8317  137.1810  160.4753 C   0  0  0  0  0  0  0  0  0  0  0  0
  131.3254  135.8685  160.0382 N   0  0  0  0  0  0  0  0  0  0  0  0
  131.5032  135.8899  159.0453 H   0  0  0  0  0  0  0  0  0  0  0  0
  130.3157  134.8430  160.3327 C   0  0  1  0  0  0  0  0  0  0  0  0
  129.0399  135.1693  159.6001 C   0  0  0  0  0  0  0  0  0  0  0  0
  127.8216  134.7869  160.1296 C   0  0  0  0  0  0  0  0  0  0  0  0
  126.6510  135.0900  159.4598 C   0  0  0  0  0  0  0  0  0  0  0  0
  126.6992  135.7673  158.2557 C   0  0  0  0  0  0  0  0  0  0  0  0
  127.9178  136.1456  157.7238 C   0  0  0  0  0  0  0  0  0  0  0  0
  129.0880  135.8462  158.3957 C   0  0  0  0  0  0  0  0  0  0  0  0
  130.8219  133.4963  159.8843 C   0  0  0  0  0  0  0  0  0  0  0  0
  131.1361  133.2822  158.5579 C   0  0  0  0  0  0  0  0  0  0  0  0
  131.5964  132.0451  158.1439 C   0  0  0  0  0  0  0  0  0  0  0  0
  131.7491  131.0160  159.0564 C   0  0  0  0  0  0  0  0  0  0  0  0
  131.4437  131.2182  160.3861 C   0  0  0  0  0  0  0  0  0  0  0  0
  130.9790  132.4643  160.8107 C   0  0  0  0  0  0  0  0  0  0  0  0
  130.6493  132.6880  162.2344 C   0  0  0  0  0  0  0  0  0  0  0  0
  131.5028  133.0923  162.9997 O   0  0  0  0  0  0  0  0  0  0  0  0
  129.4023  132.4438  162.6837 N   0  0  0  0  0  0  0  0  0  0  0  0
  129.0756  132.6654  164.0946 C   0  0  0  0  0  0  0  0  0  0  0  0
  129.3151  134.1344  164.4487 C   0  0  1  0  0  0  0  0  0  0  0  0
  130.3356  134.4911  164.3103 H   0  0  0  0  0  0  0  0  0  0  0  0
  128.1786  135.1216  164.1747 C   0  0  0  0  0  0  0  0  0  0  0  0
  128.5139  134.7201  165.6133 C   0  0  0  0  0  0  0  0  0  0  0  0
  127.6186  133.8713  166.2728 F   0  0  0  0  0  0  0  0  0  0  0  0
  129.1474  135.6722  166.4190 F   0  0  0  0  0  0  0  0  0  0  0  0
  132.5693  135.5495  160.7514 C   0  0  0  0  0  0  0  0  0  0  0  0
  133.6274  136.6071  160.4299 C   0  0  0  0  0  0  0  0  0  0  0  0
  134.5797  139.6752  161.6682 C   0  0  0  0  0  0  0  0  0  0  0  0
  134.0667  139.4362  163.0648 C   0  0  0  0  0  0  0  0  0  0  0  0
  135.4469  142.3557  162.7133 H   0  0  0  0  0  0  0  0  0  0  0  0
  136.0372  140.8726  163.5010 H   0  0  0  0  0  0  0  0  0  0  0  0
  137.0917  141.7640  162.3777 H   0  0  0  0  0  0  0  0  0  0  0  0
  136.7460  141.6326  159.9801 H   0  0  0  0  0  0  0  0  0  0  0  0
  135.8858  140.2970  158.1008 H   0  0  0  0  0  0  0  0  0  0  0  0
  134.1902  138.5577  158.4982 H   0  0  0  0  0  0  0  0  0  0  0  0
  132.0455  138.2810  159.0754 H   0  0  0  0  0  0  0  0  0  0  0  0
  131.5154  139.2243  160.4893 H   0  0  0  0  0  0  0  0  0  0  0  0
  129.9016  137.4109  159.9552 H   0  0  0  0  0  0  0  0  0  0  0  0
  130.6517  137.1620  161.5501 H   0  0  0  0  0  0  0  0  0  0  0  0
  130.1230  134.8201  161.4053 H   0  0  0  0  0  0  0  0  0  0  0  0
  127.7840  134.2542  161.0684 H   0  0  0  0  0  0  0  0  0  0  0  0
  125.6989  134.7948  159.8755 H   0  0  0  0  0  0  0  0  0  0  0  0
  125.7848  136.0013  157.7306 H   0  0  0  0  0  0  0  0  0  0  0  0
  127.9555  136.6747  156.7829 H   0  0  0  0  0  0  0  0  0  0  0  0
  130.0401  136.1414  157.9799 H   0  0  0  0  0  0  0  0  0  0  0  0
  131.0188  134.0811  157.8407 H   0  0  0  0  0  0  0  0  0  0  0  0
  131.8374  131.8817  157.1039 H   0  0  0  0  0  0  0  0  0  0  0  0
  132.1086  130.0524  158.7265 H   0  0  0  0  0  0  0  0  0  0  0  0
  131.5632  130.4142  161.0972 H   0  0  0  0  0  0  0  0  0  0  0  0
  128.7213  132.1212  162.0731 H   0  0  0  0  0  0  0  0  0  0  0  0
  128.0290  132.4156  164.2687 H   0  0  0  0  0  0  0  0  0  0  0  0
  129.7086  132.0336  164.7177 H   0  0  0  0  0  0  0  0  0  0  0  0
  128.4515  136.1276  163.8564 H   0  0  0  0  0  0  0  0  0  0  0  0
  127.2603  134.7243  163.7421 H   0  0  0  0  0  0  0  0  0  0  0  0
  132.3802  135.5390  161.8248 H   0  0  0  0  0  0  0  0  0  0  0  0
  132.9277  134.5696  160.4361 H   0  0  0  0  0  0  0  0  0  0  0  0
  133.8265  136.6086  159.3582 H   0  0  0  0  0  0  0  0  0  0  0  0
  134.5459  136.3786  160.9704 H   0  0  0  0  0  0  0  0  0  0  0  0
  134.6878  138.6878  163.5569 H   0  0  0  0  0  0  0  0  0  0  0  0
  134.1036  140.3676  163.6299 H   0  0  0  0  0  0  0  0  0  0  0  0
  133.0375  139.0803  163.0179 H   0  0  0  0  0  0  0  0  0  0  0  0
  1  2  1  0
  1 39  1  0
  1 40  1  0
  1 41  1  0
  2 37  2  0
  2  3  1  0
  3  4  2  0
  3 42  1  0
  4  5  1  0
  4 43  1  0
  5  6  2  0
  5 44  1  0
  6  7  1  0
  6 37  1  0
  7 36  1  0
  7  8  1  0
  8  9  1  0
  8 45  1  0
  8 46  1  0
  9 10  1  0
  9 47  1  0
  9 48  1  0
 10 11  1  0
 10 12  1  0
 10 35  1  0
 12 13  1  0
 12 19  1  0
 12 49  1  1
 13 18  1  0
 13 14  2  0
 14 15  1  0
 14 50  1  0
 15 16  2  0
 15 51  1  0
 16 17  1  0
 16 52  1  0
 17 18  2  0
 17 53  1  0
 18 54  1  0
 19 24  1  0
 19 20  2  0
 20 21  1  0
 20 55  1  0
 21 22  2  0
 21 56  1  0
 22 23  1  0
 22 57  1  0
 23 24  2  0
 23 58  1  0
 24 25  1  0
 25 26  2  0
 25 27  1  0
 27 28  1  0
 27 59  1  0
 28 29  1  0
 28 60  1  0
 28 61  1  0
 29 30  1  1
 29 32  1  0
 29 31  1  0
 31 32  1  0
 31 62  1  0
 31 63  1  0
 32 33  1  0
 32 34  1  0
 35 36  1  0
 35 64  1  0
 35 65  1  0
 36 66  1  0
 36 67  1  0
 37 38  1  0
 38 68  1  0
 38 69  1  0
 38 70  1  0
M  CHG  1  10   1
M  END
>  <DOCK_score>  (1) 
-58.964386

>  <SMILES>  (1) 
Cc1cccc(N2CC[NH+](C(c3ccccc3)c3ccccc3C(=O)NC[C@H]3CC3(F)F)CC2)c1C

$$$$
