Nc1ccc(-c2c[nH]c(NC(c3ccccc3)[C@H](Cl)c3ccccc3)[nH+]2)cc1
     RDKit          3D

 50 53  0  0  1  0  0  0  0  0999 V2000
  131.7138  129.8063  151.8630 N   0  0  0  0  0  0  0  0  0  0  0  0
  131.3526  130.4298  153.0598 C   0  0  0  0  0  0  0  0  0  0  0  0
  130.5667  131.5760  153.0355 C   0  0  0  0  0  0  0  0  0  0  0  0
  130.2097  132.1936  154.2155 C   0  0  0  0  0  0  0  0  0  0  0  0
  130.6379  131.6678  155.4335 C   0  0  0  0  0  0  0  0  0  0  0  0
  130.2552  132.3304  156.7045 C   0  0  0  0  0  0  0  0  0  0  0  0
  129.5430  131.7703  157.7133 C   0  0  0  0  0  0  0  0  0  0  0  0
  129.4218  132.7260  158.6941 N   0  0  0  0  0  0  0  0  0  0  0  0
  128.9662  132.6224  159.5441 H   0  0  0  0  0  0  0  0  0  0  0  0
  130.0561  133.8451  158.2505 C   0  0  0  0  0  0  0  0  0  0  0  0
  130.1615  135.0399  158.9421 N   0  0  0  0  0  0  0  0  0  0  0  0
  129.1071  135.4407  159.8768 C   0  0  2  0  0  0  0  0  0  0  0  0
  127.7998  135.5623  159.1372 C   0  0  0  0  0  0  0  0  0  0  0  0
  126.6087  135.3131  159.7934 C   0  0  0  0  0  0  0  0  0  0  0  0
  125.4095  135.4251  159.1152 C   0  0  0  0  0  0  0  0  0  0  0  0
  125.4011  135.7858  157.7806 C   0  0  0  0  0  0  0  0  0  0  0  0
  126.5925  136.0293  157.1231 C   0  0  0  0  0  0  0  0  0  0  0  0
  127.7914  135.9225  157.8027 C   0  0  0  0  0  0  0  0  0  0  0  0
  129.4664  136.7898  160.5027 C   0  0  2  0  0  0  0  0  0  0  0  0
  128.5664  137.2550  160.9046 H   0  0  0  0  0  0  0  0  0  0  0  0
  130.1874  137.8626  159.2458 Cl  0  0  0  0  0  0  0  0  0  0  0  0
  130.4619  136.5787  161.6142 C   0  0  0  0  0  0  0  0  0  0  0  0
  130.0202  136.3639  162.9063 C   0  0  0  0  0  0  0  0  0  0  0  0
  130.9333  136.1658  163.9251 C   0  0  0  0  0  0  0  0  0  0  0  0
  132.2885  136.1914  163.6532 C   0  0  0  0  0  0  0  0  0  0  0  0
  132.7303  136.4113  162.3620 C   0  0  0  0  0  0  0  0  0  0  0  0
  131.8171  136.6050  161.3425 C   0  0  0  0  0  0  0  0  0  0  0  0
  130.5557  133.6037  157.0629 N   0  0  0  0  0  0  0  0  0  0  0  0
  131.0599  134.2349  156.5261 H   0  0  0  0  0  0  0  0  0  0  0  0
  131.4310  130.5215  155.4552 C   0  0  0  0  0  0  0  0  0  0  0  0
  131.7806  129.9038  154.2730 C   0  0  0  0  0  0  0  0  0  0  0  0
  131.4155  130.1729  151.0159 H   0  0  0  0  0  0  0  0  0  0  0  0
  132.2624  129.0067  151.8791 H   0  0  0  0  0  0  0  0  0  0  0  0
  130.2352  131.9829  152.0917 H   0  0  0  0  0  0  0  0  0  0  0  0
  129.5988  133.0838  154.1962 H   0  0  0  0  0  0  0  0  0  0  0  0
  129.1503  130.7646  157.7427 H   0  0  0  0  0  0  0  0  0  0  0  0
  130.9336  135.6116  158.8075 H   0  0  0  0  0  0  0  0  0  0  0  0
  129.0124  134.6899  160.6613 H   0  0  0  0  0  0  0  0  0  0  0  0
  126.6153  135.0314  160.8358 H   0  0  0  0  0  0  0  0  0  0  0  0
  124.4790  135.2305  159.6276 H   0  0  0  0  0  0  0  0  0  0  0  0
  124.4642  135.8728  157.2506 H   0  0  0  0  0  0  0  0  0  0  0  0
  126.5863  136.3066  156.0793 H   0  0  0  0  0  0  0  0  0  0  0  0
  128.7219  136.1167  157.2901 H   0  0  0  0  0  0  0  0  0  0  0  0
  128.9615  136.3476  163.1193 H   0  0  0  0  0  0  0  0  0  0  0  0
  130.5880  135.9937  164.9337 H   0  0  0  0  0  0  0  0  0  0  0  0
  133.0019  136.0393  164.4497 H   0  0  0  0  0  0  0  0  0  0  0  0
  133.7890  136.4313  162.1497 H   0  0  0  0  0  0  0  0  0  0  0  0
  132.1623  136.7769  160.3337 H   0  0  0  0  0  0  0  0  0  0  0  0
  131.7677  130.1151  156.3974 H   0  0  0  0  0  0  0  0  0  0  0  0
  132.3913  129.0132  154.2895 H   0  0  0  0  0  0  0  0  0  0  0  0
  1  2  1  0
  1 32  1  0
  1 33  1  0
  2 31  2  0
  2  3  1  0
  3  4  2  0
  3 34  1  0
  4  5  1  0
  4 35  1  0
  5  6  1  0
  5 30  2  0
  6 28  1  0
  6  7  2  0
  7  8  1  0
  7 36  1  0
  8  9  1  0
  8 10  1  0
 10 11  1  0
 10 28  2  0
 11 12  1  0
 11 37  1  0
 12 13  1  0
 12 19  1  0
 12 38  1  1
 13 18  1  0
 13 14  2  0
 14 15  1  0
 14 39  1  0
 15 16  2  0
 15 40  1  0
 16 17  1  0
 16 41  1  0
 17 18  2  0
 17 42  1  0
 18 43  1  0
 19 20  1  1
 19 21  1  0
 19 22  1  0
 22 27  1  0
 22 23  2  0
 23 24  1  0
 23 44  1  0
 24 25  2  0
 24 45  1  0
 25 26  1  0
 25 46  1  0
 26 27  2  0
 26 47  1  0
 27 48  1  0
 28 29  1  0
 30 31  1  0
 30 49  1  0
 31 50  1  0
M  CHG  1  28   1
M  END
>  <DOCK_score>  (1) 
-59.410885

>  <SMILES>  (1) 
Nc1ccc(-c2c[nH]c(NC(c3ccccc3)[C@H](Cl)c3ccccc3)[nH+]2)cc1

$$$$
