C[C@@H]1CC1[NH+]=C(NC1CC=CC1)NC1CCSC1=O
     RDKit          3D

 41 43  0  0  1  0  0  0  0  0999 V2000
  133.1670  134.8736  162.2911 C   0  0  0  0  0  0  0  0  0  0  0  0
  132.6773  135.3711  160.9297 C   0  0  2  0  0  0  0  0  0  0  0  0
  133.3409  135.1690  160.0889 H   0  0  0  0  0  0  0  0  0  0  0  0
  131.8745  136.6741  160.9005 C   0  0  0  0  0  0  0  0  0  0  0  0
  131.1708  135.3362  160.6649 C   0  0  1  0  0  0  0  0  0  0  0  0
  130.7306  135.0343  159.3007 N   0  0  0  0  0  0  0  0  0  0  0  0
  131.2854  135.2846  158.5454 H   0  0  0  0  0  0  0  0  0  0  0  0
  129.5933  134.4293  159.1018 C   0  0  0  0  0  0  0  0  0  0  0  0
  129.4306  133.6141  158.0066 N   0  0  0  0  0  0  0  0  0  0  0  0
  130.5804  132.8967  157.4502 C   0  0  0  0  0  0  0  0  0  0  0  0
  130.1350  131.8963  156.3584 C   0  0  0  0  0  0  0  0  0  0  0  0
  131.0356  130.6968  156.5471 C   0  0  0  0  0  0  0  0  0  0  0  0
  131.6185  130.7254  157.7146 C   0  0  0  0  0  0  0  0  0  0  0  0
  131.2038  131.9478  158.5000 C   0  0  0  0  0  0  0  0  0  0  0  0
  128.5564  134.6063  159.9869 N   0  0  0  0  0  0  0  0  0  0  0  0
  127.2782  133.9263  159.7632 C   0  0  1  0  0  0  0  0  0  0  0  0
  127.5126  132.4152  159.7257 C   0  0  0  0  0  0  0  0  0  0  0  0
  126.1750  131.7449  160.0916 C   0  0  0  0  0  0  0  0  0  0  0  0
  125.3987  132.8966  161.2666 S   0  0  0  0  0  0  0  0  0  0  0  0
  126.3239  134.2879  160.8687 C   0  0  0  0  0  0  0  0  0  0  0  0
  126.2244  135.3787  161.3907 O   0  0  0  0  0  0  0  0  0  0  0  0
  132.8754  133.8318  162.4237 H   0  0  0  0  0  0  0  0  0  0  0  0
  134.2529  134.9559  162.3389 H   0  0  0  0  0  0  0  0  0  0  0  0
  132.7218  135.4788  163.0808 H   0  0  0  0  0  0  0  0  0  0  0  0
  132.0100  137.3298  160.0402 H   0  0  0  0  0  0  0  0  0  0  0  0
  131.6957  137.1765  161.8511 H   0  0  0  0  0  0  0  0  0  0  0  0
  130.5286  134.9584  161.4607 H   0  0  0  0  0  0  0  0  0  0  0  0
  128.5546  133.5139  157.6024 H   0  0  0  0  0  0  0  0  0  0  0  0
  131.3234  133.5937  157.0627 H   0  0  0  0  0  0  0  0  0  0  0  0
  129.0922  131.6147  156.5041 H   0  0  0  0  0  0  0  0  0  0  0  0
  130.2781  132.3272  155.3674 H   0  0  0  0  0  0  0  0  0  0  0  0
  131.1781  129.9186  155.8120 H   0  0  0  0  0  0  0  0  0  0  0  0
  132.3065  129.9737  158.0725 H   0  0  0  0  0  0  0  0  0  0  0  0
  132.0729  132.4137  158.9644 H   0  0  0  0  0  0  0  0  0  0  0  0
  130.4662  131.6825  159.2574 H   0  0  0  0  0  0  0  0  0  0  0  0
  128.6711  135.1815  160.7595 H   0  0  0  0  0  0  0  0  0  0  0  0
  126.8618  134.2491  158.8091 H   0  0  0  0  0  0  0  0  0  0  0  0
  127.8202  132.1109  158.7253 H   0  0  0  0  0  0  0  0  0  0  0  0
  128.2781  132.1391  160.4510 H   0  0  0  0  0  0  0  0  0  0  0  0
  126.3500  130.7786  160.5646 H   0  0  0  0  0  0  0  0  0  0  0  0
  125.5512  131.6269  159.2056 H   0  0  0  0  0  0  0  0  0  0  0  0
  1  2  1  0
  1 22  1  0
  1 23  1  0
  1 24  1  0
  2  3  1  6
  2  5  1  0
  2  4  1  0
  4  5  1  0
  4 25  1  0
  4 26  1  0
  5  6  1  0
  5 27  1  1
  6  7  1  0
  8  6  2  0
  8  9  1  0
  8 15  1  0
  9 10  1  0
  9 28  1  0
 10 14  1  0
 10 11  1  0
 10 29  1  0
 11 12  1  0
 11 30  1  0
 11 31  1  0
 12 13  2  0
 12 32  1  0
 13 14  1  0
 13 33  1  0
 14 34  1  0
 14 35  1  0
 15 16  1  0
 15 36  1  0
 16 20  1  0
 16 17  1  0
 16 37  1  6
 17 18  1  0
 17 38  1  0
 17 39  1  0
 18 19  1  0
 18 40  1  0
 18 41  1  0
 19 20  1  0
 20 21  2  0
M  CHG  1   6   1
M  END
>  <DOCK_score>  (1) 
-42.216145

>  <SMILES>  (1) 
C[C@@H]1CC1[NH+]=C(NC1CC=CC1)NC1CCSC1=O

$$$$
