O[C@H](c1ccccc1)[C@H](Nc1[nH]cc(-c2ccc(Br)cc2)[nH+]1)c1ccccc1
     RDKit          3D

 49 52  0  0  1  0  0  0  0  0999 V2000
  129.4107  138.2220  159.8912 O   0  0  0  0  0  0  0  0  0  0  0  0
  130.1475  137.4130  160.8101 C   0  0  2  0  0  0  0  0  0  0  0  0
  129.8307  137.6393  161.8283 H   0  0  0  0  0  0  0  0  0  0  0  0
  131.6194  137.7025  160.6659 C   0  0  0  0  0  0  0  0  0  0  0  0
  132.5477  136.7139  160.9337 C   0  0  0  0  0  0  0  0  0  0  0  0
  133.8976  136.9781  160.7971 C   0  0  0  0  0  0  0  0  0  0  0  0
  134.3197  138.2338  160.4018 C   0  0  0  0  0  0  0  0  0  0  0  0
  133.3914  139.2239  160.1391 C   0  0  0  0  0  0  0  0  0  0  0  0
  132.0413  138.9583  160.2714 C   0  0  0  0  0  0  0  0  0  0  0  0
  129.8867  135.9353  160.5115 C   0  0  2  0  0  0  0  0  0  0  0  0
  130.4486  135.3181  161.2124 H   0  0  0  0  0  0  0  0  0  0  0  0
  130.3123  135.6311  159.1430 N   0  0  0  0  0  0  0  0  0  0  0  0
  130.1735  134.3472  158.6441 C   0  0  0  0  0  0  0  0  0  0  0  0
  129.6588  133.2850  159.3215 N   0  0  0  0  0  0  0  0  0  0  0  0
  129.3265  133.2910  160.2328 H   0  0  0  0  0  0  0  0  0  0  0  0
  129.6973  132.2024  158.4765 C   0  0  0  0  0  0  0  0  0  0  0  0
  130.2285  132.6353  157.3063 C   0  0  0  0  0  0  0  0  0  0  0  0
  130.4576  131.8118  156.0940 C   0  0  0  0  0  0  0  0  0  0  0  0
  129.8298  132.1433  154.8946 C   0  0  0  0  0  0  0  0  0  0  0  0
  130.0497  131.3764  153.7686 C   0  0  0  0  0  0  0  0  0  0  0  0
  130.8841  130.2739  153.8314 C   0  0  0  0  0  0  0  0  0  0  0  0
  131.1757  129.2237  152.2860 Br  0  0  0  0  0  0  0  0  0  0  0  0
  131.5062  129.9375  155.0213 C   0  0  0  0  0  0  0  0  0  0  0  0
  131.2969  130.7005  156.1518 C   0  0  0  0  0  0  0  0  0  0  0  0
  130.5160  133.9543  157.4415 N   0  0  0  0  0  0  0  0  0  0  0  0
  130.9084  134.5176  156.7563 H   0  0  0  0  0  0  0  0  0  0  0  0
  128.4147  135.6458  160.6556 C   0  0  0  0  0  0  0  0  0  0  0  0
  127.9054  135.2449  161.8765 C   0  0  0  0  0  0  0  0  0  0  0  0
  126.5545  134.9837  162.0096 C   0  0  0  0  0  0  0  0  0  0  0  0
  125.7144  135.1147  160.9197 C   0  0  0  0  0  0  0  0  0  0  0  0
  126.2246  135.5105  159.6975 C   0  0  0  0  0  0  0  0  0  0  0  0
  127.5748  135.7760  159.5653 C   0  0  0  0  0  0  0  0  0  0  0  0
  129.6412  138.0734  158.9639 H   0  0  0  0  0  0  0  0  0  0  0  0
  132.2182  135.7340  161.2463 H   0  0  0  0  0  0  0  0  0  0  0  0
  134.6228  136.2044  161.0020 H   0  0  0  0  0  0  0  0  0  0  0  0
  135.3744  138.4410  160.2977 H   0  0  0  0  0  0  0  0  0  0  0  0
  133.7213  140.2049  159.8302 H   0  0  0  0  0  0  0  0  0  0  0  0
  131.3162  139.7319  160.0663 H   0  0  0  0  0  0  0  0  0  0  0  0
  130.6915  136.3293  158.5866 H   0  0  0  0  0  0  0  0  0  0  0  0
  129.3641  131.1996  158.6999 H   0  0  0  0  0  0  0  0  0  0  0  0
  129.1754  133.0011  154.8456 H   0  0  0  0  0  0  0  0  0  0  0  0
  129.5664  131.6345  152.8380 H   0  0  0  0  0  0  0  0  0  0  0  0
  132.1564  129.0763  155.0649 H   0  0  0  0  0  0  0  0  0  0  0  0
  131.7828  130.4372  157.0798 H   0  0  0  0  0  0  0  0  0  0  0  0
  128.5623  135.1390  162.7271 H   0  0  0  0  0  0  0  0  0  0  0  0
  126.1558  134.6747  162.9647 H   0  0  0  0  0  0  0  0  0  0  0  0
  124.6594  134.9081  161.0232 H   0  0  0  0  0  0  0  0  0  0  0  0
  125.5683  135.6129  158.8459 H   0  0  0  0  0  0  0  0  0  0  0  0
  127.9734  136.0852  158.6104 H   0  0  0  0  0  0  0  0  0  0  0  0
  1  2  1  0
  1 33  1  0
  2  3  1  1
  2  4  1  0
  2 10  1  0
  4  9  1  0
  4  5  2  0
  5  6  1  0
  5 34  1  0
  6  7  2  0
  6 35  1  0
  7  8  1  0
  7 36  1  0
  8  9  2  0
  8 37  1  0
  9 38  1  0
 10 11  1  1
 10 12  1  0
 10 27  1  0
 12 39  1  0
 13 12  1  0
 13 25  2  0
 13 14  1  0
 14 15  1  0
 14 16  1  0
 16 17  2  0
 16 40  1  0
 17 18  1  0
 17 25  1  0
 18 24  1  0
 18 19  2  0
 19 20  1  0
 19 41  1  0
 20 21  2  0
 20 42  1  0
 21 22  1  0
 21 23  1  0
 23 24  2  0
 23 43  1  0
 24 44  1  0
 25 26  1  0
 27 32  1  0
 27 28  2  0
 28 29  1  0
 28 45  1  0
 29 30  2  0
 29 46  1  0
 30 31  1  0
 30 47  1  0
 31 32  2  0
 31 48  1  0
 32 49  1  0
M  CHG  1  25   1
M  END
>  <DOCK_score>  (1) 
-58.734119

>  <SMILES>  (1) 
O[C@H](c1ccccc1)[C@H](Nc1[nH]cc(-c2ccc(Br)cc2)[nH+]1)c1ccccc1

$$$$
