C1=CCCC(Nc2ccc(Nc3[nH]c4ccccc4[nH+]3)cc2)CC1
     RDKit          3D

 47 50  0  0  1  0  0  0  0  0999 V2000
  127.4981  140.8673  165.1681 C   0  0  0  0  0  0  0  0  0  0  0  0
  127.9283  141.4127  164.0748 C   0  0  0  0  0  0  0  0  0  0  0  0
  128.7989  140.6258  163.1185 C   0  0  0  0  0  0  0  0  0  0  0  0
  127.9325  139.5747  162.4213 C   0  0  0  0  0  0  0  0  0  0  0  0
  127.8383  138.3132  163.2612 C   0  0  0  0  0  0  0  0  0  0  0  0
  127.1579  137.2789  162.4788 N   0  0  0  0  0  0  0  0  0  0  0  0
  127.7010  136.8504  161.2623 C   0  0  0  0  0  0  0  0  0  0  0  0
  129.0757  136.8780  161.0680 C   0  0  0  0  0  0  0  0  0  0  0  0
  129.6123  136.4507  159.8696 C   0  0  0  0  0  0  0  0  0  0  0  0
  128.7765  136.0038  158.8547 C   0  0  0  0  0  0  0  0  0  0  0  0
  129.3206  135.5757  157.6366 N   0  0  0  0  0  0  0  0  0  0  0  0
  129.6654  134.2550  157.4635 C   0  0  0  0  0  0  0  0  0  0  0  0
  130.1828  133.7417  156.3492 N   0  0  0  0  0  0  0  0  0  0  0  0
  130.3765  134.2325  155.5353 H   0  0  0  0  0  0  0  0  0  0  0  0
  130.3980  132.4034  156.5478 C   0  0  0  0  0  0  0  0  0  0  0  0
  130.9103  131.3821  155.7528 C   0  0  0  0  0  0  0  0  0  0  0  0
  130.9946  130.1011  156.2537 C   0  0  0  0  0  0  0  0  0  0  0  0
  130.5732  129.8217  157.5456 C   0  0  0  0  0  0  0  0  0  0  0  0
  130.0644  130.8212  158.3461 C   0  0  0  0  0  0  0  0  0  0  0  0
  129.9718  132.1207  157.8559 C   0  0  0  0  0  0  0  0  0  0  0  0
  129.5251  133.3032  158.3838 N   0  0  0  0  0  0  0  0  0  0  0  0
  129.1667  133.4262  159.2767 H   0  0  0  0  0  0  0  0  0  0  0  0
  127.4015  135.9808  159.0472 C   0  0  0  0  0  0  0  0  0  0  0  0
  126.8651  136.4031  160.2473 C   0  0  0  0  0  0  0  0  0  0  0  0
  127.0883  138.5045  164.5666 C   0  0  0  0  0  0  0  0  0  0  0  0
  127.8605  139.4362  165.5034 C   0  0  0  0  0  0  0  0  0  0  0  0
  126.8778  141.4368  165.8443 H   0  0  0  0  0  0  0  0  0  0  0  0
  127.6647  142.4343  163.8445 H   0  0  0  0  0  0  0  0  0  0  0  0
  129.5978  140.1328  163.6723 H   0  0  0  0  0  0  0  0  0  0  0  0
  129.2267  141.2987  162.3753 H   0  0  0  0  0  0  0  0  0  0  0  0
  126.9320  139.9789  162.2675 H   0  0  0  0  0  0  0  0  0  0  0  0
  128.3731  139.3302  161.4547 H   0  0  0  0  0  0  0  0  0  0  0  0
  128.8475  137.9680  163.4860 H   0  0  0  0  0  0  0  0  0  0  0  0
  126.3305  136.8911  162.8038 H   0  0  0  0  0  0  0  0  0  0  0  0
  129.7254  137.2300  161.8556 H   0  0  0  0  0  0  0  0  0  0  0  0
  130.6816  136.4685  159.7199 H   0  0  0  0  0  0  0  0  0  0  0  0
  129.4541  136.2104  156.9154 H   0  0  0  0  0  0  0  0  0  0  0  0
  131.2407  131.5929  154.7466 H   0  0  0  0  0  0  0  0  0  0  0  0
  131.3918  129.3091  155.6362 H   0  0  0  0  0  0  0  0  0  0  0  0
  130.6448  128.8137  157.9267 H   0  0  0  0  0  0  0  0  0  0  0  0
  129.7388  130.5970  159.3512 H   0  0  0  0  0  0  0  0  0  0  0  0
  126.7515  135.6329  158.2579 H   0  0  0  0  0  0  0  0  0  0  0  0
  125.7956  136.3852  160.3969 H   0  0  0  0  0  0  0  0  0  0  0  0
  126.9575  137.5368  165.0508 H   0  0  0  0  0  0  0  0  0  0  0  0
  126.1096  138.9364  164.3577 H   0  0  0  0  0  0  0  0  0  0  0  0
  128.9315  139.2882  165.3654 H   0  0  0  0  0  0  0  0  0  0  0  0
  127.5891  139.2227  166.5371 H   0  0  0  0  0  0  0  0  0  0  0  0
  1 26  1  0
  1  2  2  0
  1 27  1  0
  2  3  1  0
  2 28  1  0
  3  4  1  0
  3 29  1  0
  3 30  1  0
  4  5  1  0
  4 31  1  0
  4 32  1  0
  5  6  1  0
  5 25  1  0
  5 33  1  0
  6  7  1  0
  6 34  1  0
  7 24  1  0
  7  8  2  0
  8  9  1  0
  8 35  1  0
  9 10  2  0
  9 36  1  0
 10 11  1  0
 10 23  1  0
 11 12  1  0
 11 37  1  0
 12 21  1  0
 12 13  2  0
 13 14  1  0
 13 15  1  0
 15 20  2  0
 15 16  1  0
 16 17  2  0
 16 38  1  0
 17 18  1  0
 17 39  1  0
 18 19  2  0
 18 40  1  0
 19 20  1  0
 19 41  1  0
 20 21  1  0
 21 22  1  0
 23 24  2  0
 23 42  1  0
 24 43  1  0
 25 26  1  0
 25 44  1  0
 25 45  1  0
 26 46  1  0
 26 47  1  0
M  CHG  1  13   1
M  END
>  <DOCK_score>  (1) 
-42.970879

>  <SMILES>  (1) 
C1=CCCC(Nc2ccc(Nc3[nH]c4ccccc4[nH+]3)cc2)CC1

$$$$
