O=C1CC[C@H]([NH+]=C(NCC2CC(F)(F)C2)NC2CC=CC2)CN1
     RDKit          3D

 48 50  0  0  1  0  0  0  0  0999 V2000
  123.8407  133.7689  161.8334 O   0  0  0  0  0  0  0  0  0  0  0  0
  124.9940  134.0273  161.5614 C   0  0  0  0  0  0  0  0  0  0  0  0
  125.9030  132.8968  161.1727 C   0  0  0  0  0  0  0  0  0  0  0  0
  127.3637  133.3371  161.2958 C   0  0  0  0  0  0  0  0  0  0  0  0
  127.5250  134.6866  160.5857 C   0  0  2  0  0  0  0  0  0  0  0  0
  127.1294  134.6190  159.5723 H   0  0  0  0  0  0  0  0  0  0  0  0
  128.9435  135.0497  160.5364 N   0  0  0  0  0  0  0  0  0  0  0  0
  129.3371  135.5665  161.2568 H   0  0  0  0  0  0  0  0  0  0  0  0
  129.6765  134.6783  159.5247 C   0  0  0  0  0  0  0  0  0  0  0  0
  129.1186  133.9458  158.5038 N   0  0  0  0  0  0  0  0  0  0  0  0
  129.6443  134.0688  157.1419 C   0  0  0  0  0  0  0  0  0  0  0  0
  130.1443  132.7043  156.6631 C   0  0  0  0  0  0  0  0  0  0  0  0
  129.0661  131.6082  156.6927 C   0  0  0  0  0  0  0  0  0  0  0  0
  130.1620  130.6563  157.2059 C   0  0  0  0  0  0  0  0  0  0  0  0
  130.8616  130.0068  156.1832 F   0  0  0  0  0  0  0  0  0  0  0  0
  129.7248  129.7810  158.2059 F   0  0  0  0  0  0  0  0  0  0  0  0
  130.8810  131.9025  157.7490 C   0  0  0  0  0  0  0  0  0  0  0  0
  131.0077  135.0190  159.4785 N   0  0  0  0  0  0  0  0  0  0  0  0
  131.6022  135.7994  160.5665 C   0  0  0  0  0  0  0  0  0  0  0  0
  131.6638  134.9739  161.8726 C   0  0  0  0  0  0  0  0  0  0  0  0
  132.9690  135.3726  162.5209 C   0  0  0  0  0  0  0  0  0  0  0  0
  133.7555  135.9682  161.6663 C   0  0  0  0  0  0  0  0  0  0  0  0
  133.1060  136.0660  160.3055 C   0  0  0  0  0  0  0  0  0  0  0  0
  126.7508  135.7475  161.3689 C   0  0  0  0  0  0  0  0  0  0  0  0
  125.3872  135.3001  161.6231 N   0  0  0  0  0  0  0  0  0  0  0  0
  125.7246  132.0461  161.8304 H   0  0  0  0  0  0  0  0  0  0  0  0
  125.6983  132.6055  160.1425 H   0  0  0  0  0  0  0  0  0  0  0  0
  128.0112  132.5960  160.8270 H   0  0  0  0  0  0  0  0  0  0  0  0
  127.6275  133.4424  162.3482 H   0  0  0  0  0  0  0  0  0  0  0  0
  128.3767  133.3477  158.6851 H   0  0  0  0  0  0  0  0  0  0  0  0
  128.8545  134.4197  156.4777 H   0  0  0  0  0  0  0  0  0  0  0  0
  130.4691  134.7812  157.1337 H   0  0  0  0  0  0  0  0  0  0  0  0
  130.6852  132.7593  155.7184 H   0  0  0  0  0  0  0  0  0  0  0  0
  128.2743  131.7939  157.4184 H   0  0  0  0  0  0  0  0  0  0  0  0
  128.6843  131.3445  155.7064 H   0  0  0  0  0  0  0  0  0  0  0  0
  131.9624  131.8761  157.6142 H   0  0  0  0  0  0  0  0  0  0  0  0
  130.5875  132.1700  158.7641 H   0  0  0  0  0  0  0  0  0  0  0  0
  131.5532  134.7427  158.7256 H   0  0  0  0  0  0  0  0  0  0  0  0
  131.0594  136.7324  160.7185 H   0  0  0  0  0  0  0  0  0  0  0  0
  131.6615  133.9073  161.6481 H   0  0  0  0  0  0  0  0  0  0  0  0
  130.8248  135.2263  162.5212 H   0  0  0  0  0  0  0  0  0  0  0  0
  133.2184  135.1892  163.5555 H   0  0  0  0  0  0  0  0  0  0  0  0
  134.7413  136.3418  161.9010 H   0  0  0  0  0  0  0  0  0  0  0  0
  133.2477  137.0627  159.8879 H   0  0  0  0  0  0  0  0  0  0  0  0
  133.5162  135.3119  159.6339 H   0  0  0  0  0  0  0  0  0  0  0  0
  127.2525  135.9317  162.3188 H   0  0  0  0  0  0  0  0  0  0  0  0
  126.7249  136.6728  160.7933 H   0  0  0  0  0  0  0  0  0  0  0  0
  124.7241  135.9700  161.8519 H   0  0  0  0  0  0  0  0  0  0  0  0
  1  2  2  0
  2 25  1  0
  2  3  1  0
  3  4  1  0
  3 26  1  0
  3 27  1  0
  4  5  1  0
  4 28  1  0
  4 29  1  0
  5  6  1  6
  5  7  1  0
  5 24  1  0
  7  8  1  0
  9  7  2  0
  9 10  1  0
  9 18  1  0
 10 11  1  0
 10 30  1  0
 11 12  1  0
 11 31  1  0
 11 32  1  0
 12 17  1  0
 12 13  1  0
 12 33  1  0
 13 14  1  0
 13 34  1  0
 13 35  1  0
 14 15  1  0
 14 16  1  0
 14 17  1  0
 17 36  1  0
 17 37  1  0
 18 19  1  0
 18 38  1  0
 19 23  1  0
 19 20  1  0
 19 39  1  0
 20 21  1  0
 20 40  1  0
 20 41  1  0
 21 22  2  0
 21 42  1  0
 22 23  1  0
 22 43  1  0
 23 44  1  0
 23 45  1  0
 24 25  1  0
 24 46  1  0
 24 47  1  0
 25 48  1  0
M  CHG  1   7   1
M  END
>  <DOCK_score>  (1) 
-42.931778

>  <SMILES>  (1) 
O=C1CC[C@H]([NH+]=C(NCC2CC(F)(F)C2)NC2CC=CC2)CN1

$$$$
