NNc1ccc(Nc2[nH]c3ccccc3[nH+]2)c(-c2ccccc2)c1
     RDKit          3D

 42 45  0  0  0  0  0  0  0  0999 V2000
  125.3511  136.3169  163.5764 N   0  0  0  0  0  0  0  0  0  0  0  0
  126.6995  136.4625  163.4127 N   0  0  0  0  0  0  0  0  0  0  0  0
  127.2751  136.2777  162.1507 C   0  0  0  0  0  0  0  0  0  0  0  0
  126.4735  135.9460  161.0645 C   0  0  0  0  0  0  0  0  0  0  0  0
  127.0347  135.7626  159.8162 C   0  0  0  0  0  0  0  0  0  0  0  0
  128.4024  135.9128  159.6387 C   0  0  0  0  0  0  0  0  0  0  0  0
  128.9690  135.7314  158.3725 N   0  0  0  0  0  0  0  0  0  0  0  0
  129.4053  134.4849  157.9862 C   0  0  0  0  0  0  0  0  0  0  0  0
  129.9525  134.2002  156.8062 N   0  0  0  0  0  0  0  0  0  0  0  0
  130.1070  134.8311  156.0858 H   0  0  0  0  0  0  0  0  0  0  0  0
  130.2635  132.8664  156.7832 C   0  0  0  0  0  0  0  0  0  0  0  0
  130.8429  132.0289  155.8343 C   0  0  0  0  0  0  0  0  0  0  0  0
  131.0204  130.6920  156.1178 C   0  0  0  0  0  0  0  0  0  0  0  0
  130.6257  130.1743  157.3427 C   0  0  0  0  0  0  0  0  0  0  0  0
  130.0505  130.9894  158.2934 C   0  0  0  0  0  0  0  0  0  0  0  0
  129.8639  132.3421  158.0235 C   0  0  0  0  0  0  0  0  0  0  0  0
  129.3367  133.3867  158.7357 N   0  0  0  0  0  0  0  0  0  0  0  0
  128.9746  133.3351  159.6342 H   0  0  0  0  0  0  0  0  0  0  0  0
  129.2148  136.2417  160.7294 C   0  0  0  0  0  0  0  0  0  0  0  0
  130.6780  136.3996  160.5467 C   0  0  0  0  0  0  0  0  0  0  0  0
  131.5243  135.3025  160.6981 C   0  0  0  0  0  0  0  0  0  0  0  0
  132.8851  135.4554  160.5274 C   0  0  0  0  0  0  0  0  0  0  0  0
  133.4103  136.6957  160.2123 C   0  0  0  0  0  0  0  0  0  0  0  0
  132.5747  137.7869  160.0552 C   0  0  0  0  0  0  0  0  0  0  0  0
  131.2122  137.6457  160.2235 C   0  0  0  0  0  0  0  0  0  0  0  0
  128.6434  136.4261  161.9860 C   0  0  0  0  0  0  0  0  0  0  0  0
  125.0837  136.4800  164.5356 H   0  0  0  0  0  0  0  0  0  0  0  0
  124.8433  136.9244  162.9511 H   0  0  0  0  0  0  0  0  0  0  0  0
  127.2580  136.6942  164.1713 H   0  0  0  0  0  0  0  0  0  0  0  0
  125.4079  135.8319  161.1973 H   0  0  0  0  0  0  0  0  0  0  0  0
  126.4071  135.5058  158.9756 H   0  0  0  0  0  0  0  0  0  0  0  0
  129.0542  136.4843  157.7668 H   0  0  0  0  0  0  0  0  0  0  0  0
  131.1528  132.4256  154.8788 H   0  0  0  0  0  0  0  0  0  0  0  0
  131.4703  130.0429  155.3812 H   0  0  0  0  0  0  0  0  0  0  0  0
  130.7698  129.1247  157.5528 H   0  0  0  0  0  0  0  0  0  0  0  0
  129.7459  130.5799  159.2452 H   0  0  0  0  0  0  0  0  0  0  0  0
  131.1157  134.3345  160.9482 H   0  0  0  0  0  0  0  0  0  0  0  0
  133.5419  134.6060  160.6445 H   0  0  0  0  0  0  0  0  0  0  0  0
  134.4764  136.8117  160.0844 H   0  0  0  0  0  0  0  0  0  0  0  0
  132.9898  138.7520  159.8051 H   0  0  0  0  0  0  0  0  0  0  0  0
  130.5611  138.4992  160.1047 H   0  0  0  0  0  0  0  0  0  0  0  0
  129.2652  136.6844  162.8304 H   0  0  0  0  0  0  0  0  0  0  0  0
  1  2  1  0
  1 27  1  0
  1 28  1  0
  2  3  1  0
  2 29  1  0
  3 26  2  0
  3  4  1  0
  4  5  2  0
  4 30  1  0
  5  6  1  0
  5 31  1  0
  6  7  1  0
  6 19  2  0
  7  8  1  0
  7 32  1  0
  8 17  1  0
  8  9  2  0
  9 10  1  0
  9 11  1  0
 11 16  2  0
 11 12  1  0
 12 13  2  0
 12 33  1  0
 13 14  1  0
 13 34  1  0
 14 15  2  0
 14 35  1  0
 15 16  1  0
 15 36  1  0
 16 17  1  0
 17 18  1  0
 19 20  1  0
 19 26  1  0
 20 25  1  0
 20 21  2  0
 21 22  1  0
 21 37  1  0
 22 23  2  0
 22 38  1  0
 23 24  1  0
 23 39  1  0
 24 25  2  0
 24 40  1  0
 25 41  1  0
 26 42  1  0
M  CHG  1   9   1
M  END
>  <DOCK_score>  (1) 
-45.297157

>  <SMILES>  (1) 
NNc1ccc(Nc2[nH]c3ccccc3[nH+]2)c(-c2ccccc2)c1

$$$$
