Cc1cccc(N2CC[NH+]([C@@H](c3ccccc3)c3ccccc3Cl)CC2)c1Nc1cccc(O)c1
     RDKit          3D

 66 70  0  0  1  0  0  0  0  0999 V2000
  135.8184  137.6637  164.4456 C   0  0  0  0  0  0  0  0  0  0  0  0
  135.2530  137.5957  163.0502 C   0  0  0  0  0  0  0  0  0  0  0  0
  135.7422  138.4332  162.0645 C   0  0  0  0  0  0  0  0  0  0  0  0
  135.2264  138.3743  160.7834 C   0  0  0  0  0  0  0  0  0  0  0  0
  134.2179  137.4778  160.4800 C   0  0  0  0  0  0  0  0  0  0  0  0
  133.7251  136.6309  161.4607 C   0  0  0  0  0  0  0  0  0  0  0  0
  132.7085  135.7189  161.1545 N   0  0  0  0  0  0  0  0  0  0  0  0
  133.1650  134.7341  160.1635 C   0  0  0  0  0  0  0  0  0  0  0  0
  132.0471  133.7227  159.9013 C   0  0  0  0  0  0  0  0  0  0  0  0
  130.8567  134.4259  159.4057 N   0  0  0  0  0  0  0  0  0  0  0  0
  131.0863  134.9163  158.5543 H   0  0  0  0  0  0  0  0  0  0  0  0
  129.7897  133.4525  159.1371 C   0  0  1  0  0  0  0  0  0  0  0  0
  129.5419  132.9220  160.0565 H   0  0  0  0  0  0  0  0  0  0  0  0
  128.5681  134.1737  158.6284 C   0  0  0  0  0  0  0  0  0  0  0  0
  127.3091  133.6589  158.8744 C   0  0  0  0  0  0  0  0  0  0  0  0
  126.1885  134.3228  158.4116 C   0  0  0  0  0  0  0  0  0  0  0  0
  126.3272  135.4963  157.6944 C   0  0  0  0  0  0  0  0  0  0  0  0
  127.5866  136.0086  157.4441 C   0  0  0  0  0  0  0  0  0  0  0  0
  128.7070  135.3470  157.9107 C   0  0  0  0  0  0  0  0  0  0  0  0
  130.2593  132.4660  158.0991 C   0  0  0  0  0  0  0  0  0  0  0  0
  130.6315  132.9085  156.8434 C   0  0  0  0  0  0  0  0  0  0  0  0
  131.0672  132.0044  155.8929 C   0  0  0  0  0  0  0  0  0  0  0  0
  131.1200  130.6559  156.1937 C   0  0  0  0  0  0  0  0  0  0  0  0
  130.7432  130.2119  157.4469 C   0  0  0  0  0  0  0  0  0  0  0  0
  130.3124  131.1171  158.4007 C   0  0  0  0  0  0  0  0  0  0  0  0
  129.8383  130.5600  159.9750 Cl  0  0  0  0  0  0  0  0  0  0  0  0
  130.3980  135.3882  160.4162 C   0  0  0  0  0  0  0  0  0  0  0  0
  131.5022  136.4135  160.6825 C   0  0  0  0  0  0  0  0  0  0  0  0
  134.2421  136.6940  162.7552 C   0  0  0  0  0  0  0  0  0  0  0  0
  133.7452  135.8452  163.7518 N   0  0  0  0  0  0  0  0  0  0  0  0
  133.1660  136.3836  164.9029 C   0  0  0  0  0  0  0  0  0  0  0  0
  132.5219  137.6141  164.8477 C   0  0  0  0  0  0  0  0  0  0  0  0
  131.9438  138.1434  165.9848 C   0  0  0  0  0  0  0  0  0  0  0  0
  132.0146  137.4575  167.1827 C   0  0  0  0  0  0  0  0  0  0  0  0
  132.6613  136.2312  167.2454 C   0  0  0  0  0  0  0  0  0  0  0  0
  132.7301  135.5583  168.4240 O   0  0  0  0  0  0  0  0  0  0  0  0
  133.2376  135.6934  166.1052 C   0  0  0  0  0  0  0  0  0  0  0  0
  136.5970  136.9094  164.5592 H   0  0  0  0  0  0  0  0  0  0  0  0
  136.2429  138.6529  164.6178 H   0  0  0  0  0  0  0  0  0  0  0  0
  135.0244  137.4781  165.1689 H   0  0  0  0  0  0  0  0  0  0  0  0
  136.5297  139.1350  162.2961 H   0  0  0  0  0  0  0  0  0  0  0  0
  135.6120  139.0305  160.0172 H   0  0  0  0  0  0  0  0  0  0  0  0
  133.8173  137.4345  159.4779 H   0  0  0  0  0  0  0  0  0  0  0  0
  133.4192  135.2443  159.2344 H   0  0  0  0  0  0  0  0  0  0  0  0
  134.0436  134.2143  160.5454 H   0  0  0  0  0  0  0  0  0  0  0  0
  131.8027  133.2032  160.8280 H   0  0  0  0  0  0  0  0  0  0  0  0
  132.3787  132.9997  159.1561 H   0  0  0  0  0  0  0  0  0  0  0  0
  127.2008  132.7400  159.4313 H   0  0  0  0  0  0  0  0  0  0  0  0
  125.2046  133.9228  158.6073 H   0  0  0  0  0  0  0  0  0  0  0  0
  125.4518  136.0132  157.3297 H   0  0  0  0  0  0  0  0  0  0  0  0
  127.6951  136.9255  156.8838 H   0  0  0  0  0  0  0  0  0  0  0  0
  129.6909  135.7470  157.7150 H   0  0  0  0  0  0  0  0  0  0  0  0
  130.5858  133.9612  156.6064 H   0  0  0  0  0  0  0  0  0  0  0  0
  131.3625  132.3510  154.9136 H   0  0  0  0  0  0  0  0  0  0  0  0
  131.4563  129.9495  155.4491 H   0  0  0  0  0  0  0  0  0  0  0  0
  130.7846  129.1585  157.6817 H   0  0  0  0  0  0  0  0  0  0  0  0
  130.1620  134.8601  161.3401 H   0  0  0  0  0  0  0  0  0  0  0  0
  129.5070  135.9000  160.0526 H   0  0  0  0  0  0  0  0  0  0  0  0
  131.1678  137.1189  161.4433 H   0  0  0  0  0  0  0  0  0  0  0  0
  131.7290  136.9516  159.7622 H   0  0  0  0  0  0  0  0  0  0  0  0
  133.8069  134.8831  163.6445 H   0  0  0  0  0  0  0  0  0  0  0  0
  132.4696  138.1545  163.9140 H   0  0  0  0  0  0  0  0  0  0  0  0
  131.4398  139.0976  165.9390 H   0  0  0  0  0  0  0  0  0  0  0  0
  131.5657  137.8763  168.0712 H   0  0  0  0  0  0  0  0  0  0  0  0
  132.3004  136.0122  169.1618 H   0  0  0  0  0  0  0  0  0  0  0  0
  133.7409  134.7390  166.1521 H   0  0  0  0  0  0  0  0  0  0  0  0
  1  2  1  0
  1 38  1  0
  1 39  1  0
  1 40  1  0
  2 29  2  0
  2  3  1  0
  3  4  2  0
  3 41  1  0
  4  5  1  0
  4 42  1  0
  5  6  2  0
  5 43  1  0
  6  7  1  0
  6 29  1  0
  7 28  1  0
  7  8  1  0
  8  9  1  0
  8 44  1  0
  8 45  1  0
  9 10  1  0
  9 46  1  0
  9 47  1  0
 10 11  1  0
 10 12  1  0
 10 27  1  0
 12 13  1  1
 12 14  1  0
 12 20  1  0
 14 19  1  0
 14 15  2  0
 15 16  1  0
 15 48  1  0
 16 17  2  0
 16 49  1  0
 17 18  1  0
 17 50  1  0
 18 19  2  0
 18 51  1  0
 19 52  1  0
 20 25  1  0
 20 21  2  0
 21 22  1  0
 21 53  1  0
 22 23  2  0
 22 54  1  0
 23 24  1  0
 23 55  1  0
 24 25  2  0
 24 56  1  0
 25 26  1  0
 27 28  1  0
 27 57  1  0
 27 58  1  0
 28 59  1  0
 28 60  1  0
 29 30  1  0
 30 31  1  0
 30 61  1  0
 31 37  1  0
 31 32  2  0
 32 33  1  0
 32 62  1  0
 33 34  2  0
 33 63  1  0
 34 35  1  0
 34 64  1  0
 35 36  1  0
 35 37  2  0
 36 65  1  0
 37 66  1  0
M  CHG  1  10   1
M  END
>  <DOCK_score>  (1) 
-55.907581

>  <SMILES>  (1) 
Cc1cccc(N2CC[NH+]([C@@H](c3ccccc3)c3ccccc3Cl)CC2)c1Nc1cccc(O)c1

$$$$
