O=C1CC[C@H](NC(N[C@H]2COc3cc(-c4ccc(-c5ccccc5)cc4)ccc3C2)=[NH+]C2CC2)CN1
     RDKit          3D

 69 74  0  0  1  0  0  0  0  0999 V2000
  124.1058  134.1229  161.4994 O   0  0  0  0  0  0  0  0  0  0  0  0
  125.2800  134.3474  161.2951 C   0  0  0  0  0  0  0  0  0  0  0  0
  126.0919  133.2989  160.5903 C   0  0  0  0  0  0  0  0  0  0  0  0
  127.5839  133.5593  160.8120 C   0  0  0  0  0  0  0  0  0  0  0  0
  127.8686  135.0353  160.5090 C   0  0  2  0  0  0  0  0  0  0  0  0
  127.4798  135.2877  159.5225 H   0  0  0  0  0  0  0  0  0  0  0  0
  129.3136  135.2743  160.5437 N   0  0  0  0  0  0  0  0  0  0  0  0
  130.1435  134.5945  159.6838 C   0  0  0  0  0  0  0  0  0  0  0  0
  131.4355  134.3093  160.0573 N   0  0  0  0  0  0  0  0  0  0  0  0
  131.9280  134.7297  161.3714 C   0  0  1  0  0  0  0  0  0  0  0  0
  131.4160  135.6407  161.6814 H   0  0  0  0  0  0  0  0  0  0  0  0
  131.6749  133.6184  162.3981 C   0  0  0  0  0  0  0  0  0  0  0  0
  132.0686  134.0967  163.6850 O   0  0  0  0  0  0  0  0  0  0  0  0
  133.2921  134.6762  163.8003 C   0  0  0  0  0  0  0  0  0  0  0  0
  133.8382  134.8191  165.0698 C   0  0  0  0  0  0  0  0  0  0  0  0
  135.0849  135.4152  165.2306 C   0  0  0  0  0  0  0  0  0  0  0  0
  135.6682  135.5689  166.5854 C   0  0  0  0  0  0  0  0  0  0  0  0
  137.0522  135.5508  166.7550 C   0  0  0  0  0  0  0  0  0  0  0  0
  137.5942  135.6985  168.0127 C   0  0  0  0  0  0  0  0  0  0  0  0
  136.7583  135.8556  169.1179 C   0  0  0  0  0  0  0  0  0  0  0  0
  137.3417  136.0098  170.4729 C   0  0  0  0  0  0  0  0  0  0  0  0
  136.6743  136.7586  171.4407 C   0  0  0  0  0  0  0  0  0  0  0  0
  137.2199  136.8955  172.7009 C   0  0  0  0  0  0  0  0  0  0  0  0
  138.4311  136.2988  173.0015 C   0  0  0  0  0  0  0  0  0  0  0  0
  139.1003  135.5585  172.0436 C   0  0  0  0  0  0  0  0  0  0  0  0
  138.5620  135.4114  170.7813 C   0  0  0  0  0  0  0  0  0  0  0  0
  135.3742  135.8684  168.9492 C   0  0  0  0  0  0  0  0  0  0  0  0
  134.8326  135.7257  167.6907 C   0  0  0  0  0  0  0  0  0  0  0  0
  135.7830  135.8682  164.1119 C   0  0  0  0  0  0  0  0  0  0  0  0
  135.2354  135.7213  162.8554 C   0  0  0  0  0  0  0  0  0  0  0  0
  133.9936  135.1265  162.6942 C   0  0  0  0  0  0  0  0  0  0  0  0
  133.4355  134.9843  161.3002 C   0  0  0  0  0  0  0  0  0  0  0  0
  129.7054  134.2205  158.5145 N   0  0  0  0  0  0  0  0  0  0  0  0
  128.7938  134.4217  158.2511 H   0  0  0  0  0  0  0  0  0  0  0  0
  130.5899  133.4963  157.5983 C   0  0  0  0  0  0  0  0  0  0  0  0
  129.9347  132.6595  156.4977 C   0  0  0  0  0  0  0  0  0  0  0  0
  130.6028  131.9689  157.6884 C   0  0  0  0  0  0  0  0  0  0  0  0
  127.1804  135.8976  161.5678 C   0  0  0  0  0  0  0  0  0  0  0  0
  125.7810  135.5122  161.7079 N   0  0  0  0  0  0  0  0  0  0  0  0
  125.8737  133.3290  159.5227 H   0  0  0  0  0  0  0  0  0  0  0  0
  125.8335  132.3158  160.9838 H   0  0  0  0  0  0  0  0  0  0  0  0
  128.1698  132.9279  160.1440 H   0  0  0  0  0  0  0  0  0  0  0  0
  127.8448  133.3402  161.8474 H   0  0  0  0  0  0  0  0  0  0  0  0
  129.6848  135.9120  161.1732 H   0  0  0  0  0  0  0  0  0  0  0  0
  132.0223  133.8333  159.4490 H   0  0  0  0  0  0  0  0  0  0  0  0
  130.6153  133.3633  162.4095 H   0  0  0  0  0  0  0  0  0  0  0  0
  132.2624  132.7378  162.1382 H   0  0  0  0  0  0  0  0  0  0  0  0
  133.2940  134.4666  165.9335 H   0  0  0  0  0  0  0  0  0  0  0  0
  137.6993  135.4252  165.8995 H   0  0  0  0  0  0  0  0  0  0  0  0
  138.6662  135.6889  168.1434 H   0  0  0  0  0  0  0  0  0  0  0  0
  135.7305  137.2280  171.2058 H   0  0  0  0  0  0  0  0  0  0  0  0
  136.7021  137.4726  173.4527 H   0  0  0  0  0  0  0  0  0  0  0  0
  138.8563  136.4118  173.9879 H   0  0  0  0  0  0  0  0  0  0  0  0
  140.0458  135.0953  172.2836 H   0  0  0  0  0  0  0  0  0  0  0  0
  139.0857  134.8338  170.0338 H   0  0  0  0  0  0  0  0  0  0  0  0
  134.7269  135.9906  169.8050 H   0  0  0  0  0  0  0  0  0  0  0  0
  133.7604  135.7356  167.5599 H   0  0  0  0  0  0  0  0  0  0  0  0
  136.7509  136.3325  164.2294 H   0  0  0  0  0  0  0  0  0  0  0  0
  135.7779  136.0721  161.9900 H   0  0  0  0  0  0  0  0  0  0  0  0
  133.9214  134.1473  160.7989 H   0  0  0  0  0  0  0  0  0  0  0  0
  133.6227  135.9005  160.7402 H   0  0  0  0  0  0  0  0  0  0  0  0
  131.5298  133.9943  157.3602 H   0  0  0  0  0  0  0  0  0  0  0  0
  128.8455  132.6477  156.4553 H   0  0  0  0  0  0  0  0  0  0  0  0
  130.4434  132.6069  155.5352 H   0  0  0  0  0  0  0  0  0  0  0  0
  131.5510  131.4622  157.5092 H   0  0  0  0  0  0  0  0  0  0  0  0
  129.9532  131.5031  158.4295 H   0  0  0  0  0  0  0  0  0  0  0  0
  127.6857  135.7652  162.5244 H   0  0  0  0  0  0  0  0  0  0  0  0
  127.2407  136.9455  161.2739 H   0  0  0  0  0  0  0  0  0  0  0  0
  125.1759  136.1448  162.1259 H   0  0  0  0  0  0  0  0  0  0  0  0
  1  2  2  0
  2 39  1  0
  2  3  1  0
  3  4  1  0
  3 40  1  0
  3 41  1  0
  4  5  1  0
  4 42  1  0
  4 43  1  0
  5  6  1  6
  5  7  1  0
  5 38  1  0
  7 44  1  0
  8  7  1  0
  8  9  1  0
  8 33  2  0
  9 10  1  0
  9 45  1  0
 10 11  1  1
 10 32  1  0
 10 12  1  0
 12 13  1  0
 12 46  1  0
 12 47  1  0
 13 14  1  0
 14 31  2  0
 14 15  1  0
 15 16  2  0
 15 48  1  0
 16 17  1  0
 16 29  1  0
 17 28  1  0
 17 18  2  0
 18 19  1  0
 18 49  1  0
 19 20  2  0
 19 50  1  0
 20 21  1  0
 20 27  1  0
 21 26  1  0
 21 22  2  0
 22 23  1  0
 22 51  1  0
 23 24  2  0
 23 52  1  0
 24 25  1  0
 24 53  1  0
 25 26  2  0
 25 54  1  0
 26 55  1  0
 27 28  2  0
 27 56  1  0
 28 57  1  0
 29 30  2  0
 29 58  1  0
 30 31  1  0
 30 59  1  0
 31 32  1  0
 32 60  1  0
 32 61  1  0
 33 34  1  0
 33 35  1  0
 35 37  1  0
 35 36  1  0
 35 62  1  0
 36 37  1  0
 36 63  1  0
 36 64  1  0
 37 65  1  0
 37 66  1  0
 38 39  1  0
 38 67  1  0
 38 68  1  0
 39 69  1  0
M  CHG  1  33   1
M  END
>  <DOCK_score>  (1) 
-43.703861

>  <SMILES>  (1) 
O=C1CC[C@H](NC(N[C@H]2COc3cc(-c4ccc(-c5ccccc5)cc4)ccc3C2)=[NH+]C2CC2)CN1

$$$$
