O=C1CCC(NC(NC2CC2)=[NH+][C@H]2COc3ccc(-c4ccccc4)cc3C2)CN1
     RDKit          3D

 59 63  0  0  1  0  0  0  0  0999 V2000
  123.8618  133.6950  161.8283 O   0  0  0  0  0  0  0  0  0  0  0  0
  125.0149  133.9182  161.5260 C   0  0  0  0  0  0  0  0  0  0  0  0
  125.8732  132.7634  161.0961 C   0  0  0  0  0  0  0  0  0  0  0  0
  127.3511  133.1524  161.1824 C   0  0  0  0  0  0  0  0  0  0  0  0
  127.5377  134.5055  160.4856 C   0  0  2  0  0  0  0  0  0  0  0  0
  128.9650  134.8233  160.3961 N   0  0  0  0  0  0  0  0  0  0  0  0
  129.6913  134.4217  159.3000 C   0  0  0  0  0  0  0  0  0  0  0  0
  129.0782  133.7220  158.2879 N   0  0  0  0  0  0  0  0  0  0  0  0
  129.8521  133.2941  157.1199 C   0  0  0  0  0  0  0  0  0  0  0  0
  129.2977  132.1333  156.2915 C   0  0  0  0  0  0  0  0  0  0  0  0
  130.5244  131.9210  157.1822 C   0  0  0  0  0  0  0  0  0  0  0  0
  130.9612  134.7045  159.2205 N   0  0  0  0  0  0  0  0  0  0  0  0
  131.3759  134.8344  158.3533 H   0  0  0  0  0  0  0  0  0  0  0  0
  131.7624  134.8260  160.4409 C   0  0  1  0  0  0  0  0  0  0  0  0
  131.1329  134.6485  161.3130 H   0  0  0  0  0  0  0  0  0  0  0  0
  132.9069  133.8049  160.4120 C   0  0  0  0  0  0  0  0  0  0  0  0
  133.6045  133.8756  161.6563 O   0  0  0  0  0  0  0  0  0  0  0  0
  133.9818  135.1015  162.1039 C   0  0  0  0  0  0  0  0  0  0  0  0
  134.9541  135.1723  163.0986 C   0  0  0  0  0  0  0  0  0  0  0  0
  135.3616  136.3930  163.5888 C   0  0  0  0  0  0  0  0  0  0  0  0
  134.7975  137.5650  163.0872 C   0  0  0  0  0  0  0  0  0  0  0  0
  135.2304  138.8836  163.6114 C   0  0  0  0  0  0  0  0  0  0  0  0
  135.2046  140.0067  162.7868 C   0  0  0  0  0  0  0  0  0  0  0  0
  135.6039  141.2318  163.2810 C   0  0  0  0  0  0  0  0  0  0  0  0
  136.0395  141.3441  164.5891 C   0  0  0  0  0  0  0  0  0  0  0  0
  136.0718  140.2317  165.4106 C   0  0  0  0  0  0  0  0  0  0  0  0
  135.6698  139.0027  164.9285 C   0  0  0  0  0  0  0  0  0  0  0  0
  133.8266  137.4929  162.0921 C   0  0  0  0  0  0  0  0  0  0  0  0
  133.4221  136.2647  161.6018 C   0  0  0  0  0  0  0  0  0  0  0  0
  132.3712  136.2280  160.5210 C   0  0  0  0  0  0  0  0  0  0  0  0
  126.8231  135.5809  161.3049 C   0  0  0  0  0  0  0  0  0  0  0  0
  125.4528  135.1760  161.5933 N   0  0  0  0  0  0  0  0  0  0  0  0
  125.6292  132.4939  160.0684 H   0  0  0  0  0  0  0  0  0  0  0  0
  125.6844  131.9108  161.7485 H   0  0  0  0  0  0  0  0  0  0  0  0
  127.9592  132.3966  160.6852 H   0  0  0  0  0  0  0  0  0  0  0  0
  127.6492  133.2337  162.2277 H   0  0  0  0  0  0  0  0  0  0  0  0
  127.1090  134.4634  159.4843 H   0  0  0  0  0  0  0  0  0  0  0  0
  129.3976  135.3171  161.1102 H   0  0  0  0  0  0  0  0  0  0  0  0
  128.1332  133.5115  158.3470 H   0  0  0  0  0  0  0  0  0  0  0  0
  130.3764  134.0874  156.5870 H   0  0  0  0  0  0  0  0  0  0  0  0
  128.3570  131.6880  156.6156 H   0  0  0  0  0  0  0  0  0  0  0  0
  129.4574  132.1627  155.2138 H   0  0  0  0  0  0  0  0  0  0  0  0
  131.4907  131.8110  156.6900 H   0  0  0  0  0  0  0  0  0  0  0  0
  130.3908  131.3361  158.0922 H   0  0  0  0  0  0  0  0  0  0  0  0
  132.5012  132.8024  160.2752 H   0  0  0  0  0  0  0  0  0  0  0  0
  133.5885  134.0403  159.5947 H   0  0  0  0  0  0  0  0  0  0  0  0
  135.3914  134.2645  163.4875 H   0  0  0  0  0  0  0  0  0  0  0  0
  136.1160  136.4423  164.3601 H   0  0  0  0  0  0  0  0  0  0  0  0
  134.8691  139.9193  161.7638 H   0  0  0  0  0  0  0  0  0  0  0  0
  135.5804  142.1037  162.6440 H   0  0  0  0  0  0  0  0  0  0  0  0
  136.3554  142.3039  164.9704 H   0  0  0  0  0  0  0  0  0  0  0  0
  136.4126  140.3252  166.4312 H   0  0  0  0  0  0  0  0  0  0  0  0
  135.6961  138.1347  165.5706 H   0  0  0  0  0  0  0  0  0  0  0  0
  133.3878  138.3991  161.7018 H   0  0  0  0  0  0  0  0  0  0  0  0
  132.8267  136.4809  159.5635 H   0  0  0  0  0  0  0  0  0  0  0  0
  131.5887  136.9506  160.7524 H   0  0  0  0  0  0  0  0  0  0  0  0
  126.8121  136.5145  160.7424 H   0  0  0  0  0  0  0  0  0  0  0  0
  127.3580  135.7347  162.2421 H   0  0  0  0  0  0  0  0  0  0  0  0
  124.8209  135.8640  161.8542 H   0  0  0  0  0  0  0  0  0  0  0  0
  1  2  2  0
  2 32  1  0
  2  3  1  0
  3  4  1  0
  3 33  1  0
  3 34  1  0
  4  5  1  0
  4 35  1  0
  4 36  1  0
  5  6  1  0
  5 31  1  0
  5 37  1  6
  6 38  1  0
  7  6  1  0
  7  8  1  0
  7 12  2  0
  8  9  1  0
  8 39  1  0
  9 11  1  0
  9 10  1  0
  9 40  1  0
 10 11  1  0
 10 41  1  0
 10 42  1  0
 11 43  1  0
 11 44  1  0
 12 13  1  0
 12 14  1  0
 14 15  1  1
 14 30  1  0
 14 16  1  0
 16 17  1  0
 16 45  1  0
 16 46  1  0
 17 18  1  0
 18 29  2  0
 18 19  1  0
 19 20  2  0
 19 47  1  0
 20 21  1  0
 20 48  1  0
 21 22  1  0
 21 28  2  0
 22 27  1  0
 22 23  2  0
 23 24  1  0
 23 49  1  0
 24 25  2  0
 24 50  1  0
 25 26  1  0
 25 51  1  0
 26 27  2  0
 26 52  1  0
 27 53  1  0
 28 29  1  0
 28 54  1  0
 29 30  1  0
 30 55  1  0
 30 56  1  0
 31 32  1  0
 31 57  1  0
 31 58  1  0
 32 59  1  0
M  CHG  1  12   1
M  END
>  <DOCK_score>  (1) 
-51.912716

>  <SMILES>  (1) 
O=C1CCC(NC(NC2CC2)=[NH+][C@H]2COc3ccc(-c4ccccc4)cc3C2)CN1

$$$$
