Oc1cccc(Nc2ccc(Nc3[nH]cc(-c4cccnc4)[nH+]3)cc2)c1
     RDKit          3D

 44 47  0  0  1  0  0  0  0  0999 V2000
  128.6422  136.5261  166.5271 O   0  0  0  0  0  0  0  0  0  0  0  0
  127.8728  137.2570  165.6781 C   0  0  0  0  0  0  0  0  0  0  0  0
  127.4797  138.5415  166.0284 C   0  0  0  0  0  0  0  0  0  0  0  0
  126.6972  139.2861  165.1667 C   0  0  0  0  0  0  0  0  0  0  0  0
  126.3031  138.7549  163.9538 C   0  0  0  0  0  0  0  0  0  0  0  0
  126.6935  137.4698  163.5975 C   0  0  0  0  0  0  0  0  0  0  0  0
  126.2946  136.9322  162.3712 N   0  0  0  0  0  0  0  0  0  0  0  0
  127.2567  136.5382  161.4341 C   0  0  0  0  0  0  0  0  0  0  0  0
  126.9843  135.4978  160.5551 C   0  0  0  0  0  0  0  0  0  0  0  0
  127.9328  135.1093  159.6302 C   0  0  0  0  0  0  0  0  0  0  0  0
  129.1591  135.7592  159.5783 C   0  0  0  0  0  0  0  0  0  0  0  0
  130.1212  135.3652  158.6402 N   0  0  0  0  0  0  0  0  0  0  0  0
  130.1744  134.0486  158.2140 C   0  0  0  0  0  0  0  0  0  0  0  0
  129.8119  132.9618  158.9492 N   0  0  0  0  0  0  0  0  0  0  0  0
  129.4729  132.9700  159.8580 H   0  0  0  0  0  0  0  0  0  0  0  0
  130.0148  131.8515  158.1667 C   0  0  0  0  0  0  0  0  0  0  0  0
  130.4950  132.2908  156.9769 C   0  0  0  0  0  0  0  0  0  0  0  0
  130.8606  131.4425  155.8162 C   0  0  0  0  0  0  0  0  0  0  0  0
  130.7376  131.9314  154.5123 C   0  0  0  0  0  0  0  0  0  0  0  0
  131.0971  131.1022  153.4640 C   0  0  0  0  0  0  0  0  0  0  0  0
  131.5515  129.8246  153.7367 C   0  0  0  0  0  0  0  0  0  0  0  0
  131.6518  129.3891  154.9777 N   0  0  0  0  0  0  0  0  0  0  0  0
  131.3268  130.1433  156.0076 C   0  0  0  0  0  0  0  0  0  0  0  0
  130.5768  133.6436  157.0339 N   0  0  0  0  0  0  0  0  0  0  0  0
  130.8859  134.2191  156.3170 H   0  0  0  0  0  0  0  0  0  0  0  0
  129.4334  136.7960  160.4607 C   0  0  0  0  0  0  0  0  0  0  0  0
  128.4833  137.1878  161.3825 C   0  0  0  0  0  0  0  0  0  0  0  0
  127.4759  136.7186  164.4646 C   0  0  0  0  0  0  0  0  0  0  0  0
  128.8680  136.9858  167.3474 H   0  0  0  0  0  0  0  0  0  0  0  0
  127.7863  138.9595  166.9760 H   0  0  0  0  0  0  0  0  0  0  0  0
  126.3930  140.2850  165.4419 H   0  0  0  0  0  0  0  0  0  0  0  0
  125.6910  139.3387  163.2823 H   0  0  0  0  0  0  0  0  0  0  0  0
  125.3513  136.8323  162.1696 H   0  0  0  0  0  0  0  0  0  0  0  0
  126.0307  134.9924  160.5954 H   0  0  0  0  0  0  0  0  0  0  0  0
  127.7211  134.3002  158.9467 H   0  0  0  0  0  0  0  0  0  0  0  0
  130.7531  136.0136  158.2919 H   0  0  0  0  0  0  0  0  0  0  0  0
  129.8276  130.8250  158.4454 H   0  0  0  0  0  0  0  0  0  0  0  0
  130.3754  132.9319  154.3279 H   0  0  0  0  0  0  0  0  0  0  0  0
  131.0192  131.4477  152.4436 H   0  0  0  0  0  0  0  0  0  0  0  0
  131.8289  129.1737  152.9208 H   0  0  0  0  0  0  0  0  0  0  0  0
  131.4229  129.7514  157.0094 H   0  0  0  0  0  0  0  0  0  0  0  0
  130.3887  137.2986  160.4231 H   0  0  0  0  0  0  0  0  0  0  0  0
  128.6951  137.9968  162.0659 H   0  0  0  0  0  0  0  0  0  0  0  0
  127.7774  135.7180  164.1921 H   0  0  0  0  0  0  0  0  0  0  0  0
  1  2  1  0
  1 29  1  0
  2 28  2  0
  2  3  1  0
  3  4  2  0
  3 30  1  0
  4  5  1  0
  4 31  1  0
  5  6  2  0
  5 32  1  0
  6  7  1  0
  6 28  1  0
  7  8  1  0
  7 33  1  0
  8 27  1  0
  8  9  2  0
  9 10  1  0
  9 34  1  0
 10 11  2  0
 10 35  1  0
 11 12  1  0
 11 26  1  0
 12 36  1  0
 13 12  1  0
 13 24  2  0
 13 14  1  0
 14 15  1  0
 14 16  1  0
 16 17  2  0
 16 37  1  0
 17 18  1  0
 17 24  1  0
 18 23  1  0
 18 19  2  0
 19 20  1  0
 19 38  1  0
 20 21  2  0
 20 39  1  0
 21 22  1  0
 21 40  1  0
 22 23  2  0
 23 41  1  0
 24 25  1  0
 26 27  2  0
 26 42  1  0
 27 43  1  0
 28 44  1  0
M  CHG  1  24   1
M  END
>  <DOCK_score>  (1) 
-50.747173

>  <SMILES>  (1) 
Oc1cccc(Nc2ccc(Nc3[nH]cc(-c4cccnc4)[nH+]3)cc2)c1

$$$$
