OC/C=C\COc1ccc(-c2c[nH]c(N[C@H](c3ccccc3)c3cccc4ccccc34)[nH+]2)cc1
     RDKit          3D

 63 67  0  0  1  0  0  0  0  0999 V2000
  128.3326  126.7460  150.5449 O   0  0  0  0  0  0  0  0  0  0  0  0
  129.2422  127.7041  151.0895 C   0  0  0  0  0  0  0  0  0  0  0  0
  130.2328  128.1147  150.0306 C   0  0  0  0  0  0  0  0  0  0  0  0
  130.7524  129.3172  150.0509 C   0  0  0  0  0  0  0  0  0  0  0  0
  130.4724  130.2397  151.2092 C   0  0  0  0  0  0  0  0  0  0  0  0
  130.9408  129.6407  152.4191 O   0  0  0  0  0  0  0  0  0  0  0  0
  130.7640  130.3479  153.5663 C   0  0  0  0  0  0  0  0  0  0  0  0
  131.1957  129.8232  154.7768 C   0  0  0  0  0  0  0  0  0  0  0  0
  131.0178  130.5383  155.9427 C   0  0  0  0  0  0  0  0  0  0  0  0
  130.4037  131.7891  155.9046 C   0  0  0  0  0  0  0  0  0  0  0  0
  130.2108  132.5609  157.1568 C   0  0  0  0  0  0  0  0  0  0  0  0
  129.4942  132.1630  158.2369 C   0  0  0  0  0  0  0  0  0  0  0  0
  129.5779  133.1734  159.1651 N   0  0  0  0  0  0  0  0  0  0  0  0
  129.1671  133.1819  160.0439 H   0  0  0  0  0  0  0  0  0  0  0  0
  130.3440  134.1591  158.6238 C   0  0  0  0  0  0  0  0  0  0  0  0
  130.6717  135.3554  159.2389 N   0  0  0  0  0  0  0  0  0  0  0  0
  130.1815  135.6431  160.5890 C   0  0  2  0  0  0  0  0  0  0  0  0
  130.5489  134.8832  161.2786 H   0  0  0  0  0  0  0  0  0  0  0  0
  128.6745  135.6348  160.5887 C   0  0  0  0  0  0  0  0  0  0  0  0
  127.9852  135.2583  161.7264 C   0  0  0  0  0  0  0  0  0  0  0  0
  126.6028  135.2544  161.7274 C   0  0  0  0  0  0  0  0  0  0  0  0
  125.9099  135.6187  160.5881 C   0  0  0  0  0  0  0  0  0  0  0  0
  126.5992  135.9906  159.4491 C   0  0  0  0  0  0  0  0  0  0  0  0
  127.9814  135.9982  159.4492 C   0  0  0  0  0  0  0  0  0  0  0  0
  130.6762  136.9982  161.0248 C   0  0  0  0  0  0  0  0  0  0  0  0
  129.9372  138.1119  160.7667 C   0  0  0  0  0  0  0  0  0  0  0  0
  130.3785  139.3732  161.1614 C   0  0  0  0  0  0  0  0  0  0  0  0
  131.5618  139.5285  161.8164 C   0  0  0  0  0  0  0  0  0  0  0  0
  132.3521  138.4020  162.1004 C   0  0  0  0  0  0  0  0  0  0  0  0
  133.5788  138.5226  162.7758 C   0  0  0  0  0  0  0  0  0  0  0  0
  134.3171  137.4090  163.0346 C   0  0  0  0  0  0  0  0  0  0  0  0
  133.8759  136.1474  162.6394 C   0  0  0  0  0  0  0  0  0  0  0  0
  132.6933  135.9920  161.9840 C   0  0  0  0  0  0  0  0  0  0  0  0
  131.9029  137.1189  161.6992 C   0  0  0  0  0  0  0  0  0  0  0  0
  130.7160  133.7917  157.4218 N   0  0  0  0  0  0  0  0  0  0  0  0
  131.2666  134.3153  156.8189 H   0  0  0  0  0  0  0  0  0  0  0  0
  129.9662  132.3106  154.6883 C   0  0  0  0  0  0  0  0  0  0  0  0
  130.1517  131.5928  153.5251 C   0  0  0  0  0  0  0  0  0  0  0  0
  128.7573  125.9392  150.2233 H   0  0  0  0  0  0  0  0  0  0  0  0
  129.7736  127.2623  151.9324 H   0  0  0  0  0  0  0  0  0  0  0  0
  128.6882  128.5797  151.4279 H   0  0  0  0  0  0  0  0  0  0  0  0
  130.5143  127.4179  149.2551 H   0  0  0  0  0  0  0  0  0  0  0  0
  131.3815  129.6474  149.2374 H   0  0  0  0  0  0  0  0  0  0  0  0
  129.3991  130.4153  151.2825 H   0  0  0  0  0  0  0  0  0  0  0  0
  130.9858  131.1880  151.0509 H   0  0  0  0  0  0  0  0  0  0  0  0
  131.6712  128.8539  154.8058 H   0  0  0  0  0  0  0  0  0  0  0  0
  131.3543  130.1298  156.8841 H   0  0  0  0  0  0  0  0  0  0  0  0
  128.9595  131.2310  158.3467 H   0  0  0  0  0  0  0  0  0  0  0  0
  131.2258  136.0030  158.7757 H   0  0  0  0  0  0  0  0  0  0  0  0
  128.5267  134.9701  162.6152 H   0  0  0  0  0  0  0  0  0  0  0  0
  126.0644  134.9635  162.6172 H   0  0  0  0  0  0  0  0  0  0  0  0
  124.8298  135.6125  160.5879 H   0  0  0  0  0  0  0  0  0  0  0  0
  126.0578  136.2749  158.5589 H   0  0  0  0  0  0  0  0  0  0  0  0
  128.5201  136.2884  158.5593 H   0  0  0  0  0  0  0  0  0  0  0  0
  128.9945  138.0165  160.2485 H   0  0  0  0  0  0  0  0  0  0  0  0
  129.7729  140.2407  160.9444 H   0  0  0  0  0  0  0  0  0  0  0  0
  131.8935  140.5128  162.1120 H   0  0  0  0  0  0  0  0  0  0  0  0
  133.9337  139.4937  163.0874 H   0  0  0  0  0  0  0  0  0  0  0  0
  135.2593  137.5044  163.5537 H   0  0  0  0  0  0  0  0  0  0  0  0
  134.4812  135.2799  162.8570 H   0  0  0  0  0  0  0  0  0  0  0  0
  132.3636  135.0082  161.6844 H   0  0  0  0  0  0  0  0  0  0  0  0
  129.4860  133.2775  154.6562 H   0  0  0  0  0  0  0  0  0  0  0  0
  129.8163  131.9980  152.5819 H   0  0  0  0  0  0  0  0  0  0  0  0
  1  2  1  0
  1 39  1  0
  2  3  1  0
  2 40  1  0
  2 41  1  0
  3  4  2  0
  3 42  1  0
  4  5  1  0
  4 43  1  0
  5  6  1  0
  5 44  1  0
  5 45  1  0
  6  7  1  0
  7 38  2  0
  7  8  1  0
  8  9  2  0
  8 46  1  0
  9 10  1  0
  9 47  1  0
 10 11  1  0
 10 37  2  0
 11 35  1  0
 11 12  2  0
 12 13  1  0
 12 48  1  0
 13 14  1  0
 13 15  1  0
 15 16  1  0
 15 35  2  0
 16 17  1  0
 16 49  1  0
 17 18  1  1
 17 19  1  0
 17 25  1  0
 19 24  1  0
 19 20  2  0
 20 21  1  0
 20 50  1  0
 21 22  2  0
 21 51  1  0
 22 23  1  0
 22 52  1  0
 23 24  2  0
 23 53  1  0
 24 54  1  0
 25 34  1  0
 25 26  2  0
 26 27  1  0
 26 55  1  0
 27 28  2  0
 27 56  1  0
 28 29  1  0
 28 57  1  0
 29 34  2  0
 29 30  1  0
 30 31  2  0
 30 58  1  0
 31 32  1  0
 31 59  1  0
 32 33  2  0
 32 60  1  0
 33 34  1  0
 33 61  1  0
 35 36  1  0
 37 38  1  0
 37 62  1  0
 38 63  1  0
M  CHG  1  35   1
M  END
>  <DOCK_score>  (1) 
-60.835182

>  <SMILES>  (1) 
OC/C=C\COc1ccc(-c2c[nH]c(N[C@H](c3ccccc3)c3cccc4ccccc34)[nH+]2)cc1

$$$$
