O=C1CC[C@H](NC(NC2CCCCC2)=[NH+]C2CC(N[C@@H]3CCCC=C3F)C2)CN1
     RDKit          3D

 66 69  0  0  1  0  0  0  0  0999 V2000
  123.9015  134.2528  161.4504 O   0  0  0  0  0  0  0  0  0  0  0  0
  125.1015  134.3709  161.3205 C   0  0  0  0  0  0  0  0  0  0  0  0
  125.8864  133.1792  160.8524 C   0  0  0  0  0  0  0  0  0  0  0  0
  127.3715  133.3780  161.1656 C   0  0  0  0  0  0  0  0  0  0  0  0
  127.7880  134.7702  160.6761 C   0  0  2  0  0  0  0  0  0  0  0  0
  127.4955  134.8939  159.6334 H   0  0  0  0  0  0  0  0  0  0  0  0
  129.2398  134.9210  160.8004 N   0  0  0  0  0  0  0  0  0  0  0  0
  130.0600  134.5628  159.7569 C   0  0  0  0  0  0  0  0  0  0  0  0
  129.5179  134.0630  158.5965 N   0  0  0  0  0  0  0  0  0  0  0  0
  130.2774  133.1086  157.7850 C   0  0  0  0  0  0  0  0  0  0  0  0
  129.4532  132.7134  156.5579 C   0  0  0  0  0  0  0  0  0  0  0  0
  130.2463  131.7166  155.7103 C   0  0  0  0  0  0  0  0  0  0  0  0
  130.5522  130.4696  156.5426 C   0  0  0  0  0  0  0  0  0  0  0  0
  131.3764  130.8649  157.7695 C   0  0  0  0  0  0  0  0  0  0  0  0
  130.5833  131.8616  158.6171 C   0  0  0  0  0  0  0  0  0  0  0  0
  131.3519  134.6969  159.8677 N   0  0  0  0  0  0  0  0  0  0  0  0
  131.9306  134.4442  159.1315 H   0  0  0  0  0  0  0  0  0  0  0  0
  131.9297  135.2295  161.1041 C   0  0  2  0  0  0  0  0  0  0  0  0
  131.9138  136.7653  161.1801 C   0  0  0  0  0  0  0  0  0  0  0  0
  133.3153  136.6705  161.8057 C   0  0  2  0  0  0  0  0  0  0  0  0
  134.2436  137.7044  161.3290 N   0  0  0  0  0  0  0  0  0  0  0  0
  134.0127  138.9792  162.0215 C   0  0  2  0  0  0  0  0  0  0  0  0
  132.9406  139.1359  162.1415 H   0  0  0  0  0  0  0  0  0  0  0  0
  134.5995  140.1218  161.1900 C   0  0  0  0  0  0  0  0  0  0  0  0
  134.5814  141.3991  162.0392 C   0  0  0  0  0  0  0  0  0  0  0  0
  135.5735  141.2285  163.1916 C   0  0  0  0  0  0  0  0  0  0  0  0
  135.3402  139.9180  163.8848 C   0  0  0  0  0  0  0  0  0  0  0  0
  134.6636  138.9361  163.3731 C   0  0  0  0  0  0  0  0  0  0  0  0
  134.5377  137.8053  164.1015 F   0  0  0  0  0  0  0  0  0  0  0  0
  133.4642  135.3251  161.0757 C   0  0  0  0  0  0  0  0  0  0  0  0
  127.0842  135.8219  161.5346 C   0  0  0  0  0  0  0  0  0  0  0  0
  125.6527  135.5535  161.5960 N   0  0  0  0  0  0  0  0  0  0  0  0
  125.5255  132.2853  161.3611 H   0  0  0  0  0  0  0  0  0  0  0  0
  125.7573  133.0606  159.7765 H   0  0  0  0  0  0  0  0  0  0  0  0
  127.5327  133.3037  162.2410 H   0  0  0  0  0  0  0  0  0  0  0  0
  127.9597  132.6170  160.6529 H   0  0  0  0  0  0  0  0  0  0  0  0
  129.6225  135.2735  161.6191 H   0  0  0  0  0  0  0  0  0  0  0  0
  128.6327  134.3423  158.3152 H   0  0  0  0  0  0  0  0  0  0  0  0
  131.2115  133.5684  157.4624 H   0  0  0  0  0  0  0  0  0  0  0  0
  128.5190  132.2535  156.8805 H   0  0  0  0  0  0  0  0  0  0  0  0
  129.2352  133.6017  155.9651 H   0  0  0  0  0  0  0  0  0  0  0  0
  131.1806  132.1764  155.3880 H   0  0  0  0  0  0  0  0  0  0  0  0
  129.6593  131.4350  154.8362 H   0  0  0  0  0  0  0  0  0  0  0  0
  131.1173  129.7596  155.9387 H   0  0  0  0  0  0  0  0  0  0  0  0
  129.6182  130.0098  156.8649 H   0  0  0  0  0  0  0  0  0  0  0  0
  132.3106  131.3248  157.4471 H   0  0  0  0  0  0  0  0  0  0  0  0
  131.5944  129.9765  158.3624 H   0  0  0  0  0  0  0  0  0  0  0  0
  131.1704  132.1433  159.4911 H   0  0  0  0  0  0  0  0  0  0  0  0
  129.6491  131.4018  158.9395 H   0  0  0  0  0  0  0  0  0  0  0  0
  131.5390  134.7428  161.9978 H   0  0  0  0  0  0  0  0  0  0  0  0
  131.9031  137.2506  160.2041 H   0  0  0  0  0  0  0  0  0  0  0  0
  131.1584  137.1612  161.8589 H   0  0  0  0  0  0  0  0  0  0  0  0
  133.3035  136.5791  162.8917 H   0  0  0  0  0  0  0  0  0  0  0  0
  135.2019  137.4054  161.4320 H   0  0  0  0  0  0  0  0  0  0  0  0
  135.6254  139.8821  160.9105 H   0  0  0  0  0  0  0  0  0  0  0  0
  133.9973  140.2694  160.2935 H   0  0  0  0  0  0  0  0  0  0  0  0
  133.5800  141.5594  162.4386 H   0  0  0  0  0  0  0  0  0  0  0  0
  134.8752  142.2510  161.4259 H   0  0  0  0  0  0  0  0  0  0  0  0
  135.4426  142.0425  163.9045 H   0  0  0  0  0  0  0  0  0  0  0  0
  136.5896  141.2530  162.7977 H   0  0  0  0  0  0  0  0  0  0  0  0
  135.7616  139.7837  164.8700 H   0  0  0  0  0  0  0  0  0  0  0  0
  133.9606  134.5584  161.6705 H   0  0  0  0  0  0  0  0  0  0  0  0
  133.8775  135.4152  160.0711 H   0  0  0  0  0  0  0  0  0  0  0  0
  127.5016  135.8033  162.5414 H   0  0  0  0  0  0  0  0  0  0  0  0
  127.2448  136.8083  161.0996 H   0  0  0  0  0  0  0  0  0  0  0  0
  125.0646  136.2794  161.8570 H   0  0  0  0  0  0  0  0  0  0  0  0
  1  2  2  0
  2 32  1  0
  2  3  1  0
  3  4  1  0
  3 33  1  0
  3 34  1  0
  4  5  1  0
  4 35  1  0
  4 36  1  0
  5  6  1  6
  5  7  1  0
  5 31  1  0
  7 37  1  0
  8  7  1  0
  8  9  1  0
  8 16  2  0
  9 10  1  0
  9 38  1  0
 10 15  1  0
 10 11  1  0
 10 39  1  0
 11 12  1  0
 11 40  1  0
 11 41  1  0
 12 13  1  0
 12 42  1  0
 12 43  1  0
 13 14  1  0
 13 44  1  0
 13 45  1  0
 14 15  1  0
 14 46  1  0
 14 47  1  0
 15 48  1  0
 15 49  1  0
 16 17  1  0
 16 18  1  0
 18 30  1  0
 18 19  1  0
 18 50  1  1
 19 20  1  0
 19 51  1  0
 19 52  1  0
 20 21  1  0
 20 30  1  0
 20 53  1  1
 21 22  1  0
 21 54  1  0
 22 23  1  1
 22 28  1  0
 22 24  1  0
 24 25  1  0
 24 55  1  0
 24 56  1  0
 25 26  1  0
 25 57  1  0
 25 58  1  0
 26 27  1  0
 26 59  1  0
 26 60  1  0
 27 28  2  0
 27 61  1  0
 28 29  1  0
 30 62  1  0
 30 63  1  0
 31 32  1  0
 31 64  1  0
 31 65  1  0
 32 66  1  0
M  CHG  1  16   1
M  END
>  <DOCK_score>  (1) 
-46.233231

>  <SMILES>  (1) 
O=C1CC[C@H](NC(NC2CCCCC2)=[NH+]C2CC(N[C@@H]3CCCC=C3F)C2)CN1

$$$$
