Nc1ccc(-c2c[nH]c(Nc3ccc(O)c(O)c3)[nH+]2)cc1
     RDKit          3D

 36 38  0  0  1  0  0  0  0  0999 V2000
  131.4370  129.2103  151.5273 N   0  0  0  0  0  0  0  0  0  0  0  0
  131.1258  129.9041  152.6991 C   0  0  0  0  0  0  0  0  0  0  0  0
  130.1485  130.8928  152.6815 C   0  0  0  0  0  0  0  0  0  0  0  0
  129.8395  131.5785  153.8372 C   0  0  0  0  0  0  0  0  0  0  0  0
  130.5079  131.2800  155.0235 C   0  0  0  0  0  0  0  0  0  0  0  0
  130.1776  132.0169  156.2680 C   0  0  0  0  0  0  0  0  0  0  0  0
  129.7090  131.4714  157.4178 C   0  0  0  0  0  0  0  0  0  0  0  0
  129.5406  132.5039  158.3092 N   0  0  0  0  0  0  0  0  0  0  0  0
  129.2173  132.4292  159.2207 H   0  0  0  0  0  0  0  0  0  0  0  0
  129.9119  133.6504  157.6768 C   0  0  0  0  0  0  0  0  0  0  0  0
  129.8916  134.9200  158.2303 N   0  0  0  0  0  0  0  0  0  0  0  0
  128.9494  135.2394  159.2151 C   0  0  0  0  0  0  0  0  0  0  0  0
  127.7134  135.7577  158.8516 C   0  0  0  0  0  0  0  0  0  0  0  0
  126.7823  136.0739  159.8227 C   0  0  0  0  0  0  0  0  0  0  0  0
  127.0801  135.8742  161.1611 C   0  0  0  0  0  0  0  0  0  0  0  0
  126.1622  136.1859  162.1160 O   0  0  0  0  0  0  0  0  0  0  0  0
  128.3178  135.3554  161.5288 C   0  0  0  0  0  0  0  0  0  0  0  0
  128.6107  135.1591  162.8421 O   0  0  0  0  0  0  0  0  0  0  0  0
  129.2509  135.0386  160.5554 C   0  0  0  0  0  0  0  0  0  0  0  0
  130.2864  133.3557  156.4556 N   0  0  0  0  0  0  0  0  0  0  0  0
  130.5947  133.9931  155.7926 H   0  0  0  0  0  0  0  0  0  0  0  0
  131.4913  130.2921  155.0374 C   0  0  0  0  0  0  0  0  0  0  0  0
  131.7933  129.6052  153.8804 C   0  0  0  0  0  0  0  0  0  0  0  0
  130.9708  129.4188  150.7020 H   0  0  0  0  0  0  0  0  0  0  0  0
  132.1184  128.5209  151.5382 H   0  0  0  0  0  0  0  0  0  0  0  0
  129.6311  131.1240  151.7622 H   0  0  0  0  0  0  0  0  0  0  0  0
  129.0799  132.3462  153.8233 H   0  0  0  0  0  0  0  0  0  0  0  0
  129.5062  130.4260  157.5982 H   0  0  0  0  0  0  0  0  0  0  0  0
  130.5303  135.5879  157.9354 H   0  0  0  0  0  0  0  0  0  0  0  0
  127.4795  135.9137  157.8089 H   0  0  0  0  0  0  0  0  0  0  0  0
  125.8218  136.4772  159.5382 H   0  0  0  0  0  0  0  0  0  0  0  0
  125.3337  136.5398  161.7647 H   0  0  0  0  0  0  0  0  0  0  0  0
  129.4930  134.7956  162.9983 H   0  0  0  0  0  0  0  0  0  0  0  0
  130.2137  134.6399  160.8392 H   0  0  0  0  0  0  0  0  0  0  0  0
  132.0136  130.0622  155.9543 H   0  0  0  0  0  0  0  0  0  0  0  0
  132.5519  128.8365  153.8917 H   0  0  0  0  0  0  0  0  0  0  0  0
  1  2  1  0
  1 24  1  0
  1 25  1  0
  2 23  2  0
  2  3  1  0
  3  4  2  0
  3 26  1  0
  4  5  1  0
  4 27  1  0
  5  6  1  0
  5 22  2  0
  6 20  1  0
  6  7  2  0
  7  8  1  0
  7 28  1  0
  8  9  1  0
  8 10  1  0
 10 11  1  0
 10 20  2  0
 11 12  1  0
 11 29  1  0
 12 19  1  0
 12 13  2  0
 13 14  1  0
 13 30  1  0
 14 15  2  0
 14 31  1  0
 15 16  1  0
 15 17  1  0
 16 32  1  0
 17 18  1  0
 17 19  2  0
 18 33  1  0
 19 34  1  0
 20 21  1  0
 22 23  1  0
 22 35  1  0
 23 36  1  0
M  CHG  1  20   1
M  END
>  <DOCK_score>  (1) 
-48.913239

>  <SMILES>  (1) 
Nc1ccc(-c2c[nH]c(Nc3ccc(O)c(O)c3)[nH+]2)cc1

$$$$
