CCc1ccc(-c2c[nH]c(N[C@H](CBr)C/C=C/CBr)[nH+]2)cc1
     RDKit          3D

 44 45  0  0  1  0  0  0  0  0999 V2000
  130.2018  128.2195  151.6759 C   0  0  0  0  0  0  0  0  0  0  0  0
  131.2280  129.3479  151.7966 C   0  0  0  0  0  0  0  0  0  0  0  0
  130.9718  130.1269  153.0610 C   0  0  0  0  0  0  0  0  0  0  0  0
  131.5905  129.7506  154.2390 C   0  0  0  0  0  0  0  0  0  0  0  0
  131.3642  130.4636  155.3988 C   0  0  0  0  0  0  0  0  0  0  0  0
  130.5013  131.5580  155.3837 C   0  0  0  0  0  0  0  0  0  0  0  0
  130.2497  132.3249  156.6282 C   0  0  0  0  0  0  0  0  0  0  0  0
  129.7290  131.8308  157.7787 C   0  0  0  0  0  0  0  0  0  0  0  0
  129.6677  132.8749  158.6693 N   0  0  0  0  0  0  0  0  0  0  0  0
  129.3388  132.8339  159.5809 H   0  0  0  0  0  0  0  0  0  0  0  0
  130.1533  133.9775  158.0364 C   0  0  0  0  0  0  0  0  0  0  0  0
  130.2627  135.2419  158.5894 N   0  0  0  0  0  0  0  0  0  0  0  0
  129.3165  135.6749  159.6206 C   0  0  2  0  0  0  0  0  0  0  0  0
  129.3828  135.0056  160.4785 H   0  0  0  0  0  0  0  0  0  0  0  0
  127.8951  135.6402  159.0555 C   0  0  0  0  0  0  0  0  0  0  0  0
  126.6025  135.5851  160.5357 Br  0  0  0  0  0  0  0  0  0  0  0  0
  129.6567  137.1008  160.0586 C   0  0  0  0  0  0  0  0  0  0  0  0
  131.0567  137.1349  160.6152 C   0  0  0  0  0  0  0  0  0  0  0  0
  131.9646  137.8975  160.0581 C   0  0  0  0  0  0  0  0  0  0  0  0
  133.3646  137.9316  160.6147 C   0  0  0  0  0  0  0  0  0  0  0  0
  133.8016  139.7641  161.1773 Br  0  0  0  0  0  0  0  0  0  0  0  0
  130.5054  133.6436  156.8189 N   0  0  0  0  0  0  0  0  0  0  0  0
  130.8859  134.2440  156.1588 H   0  0  0  0  0  0  0  0  0  0  0  0
  129.8760  131.9294  154.1947 C   0  0  0  0  0  0  0  0  0  0  0  0
  130.1142  131.2126  153.0397 C   0  0  0  0  0  0  0  0  0  0  0  0
  130.3870  127.6562  150.7614 H   0  0  0  0  0  0  0  0  0  0  0  0
  130.2899  127.5555  152.5358 H   0  0  0  0  0  0  0  0  0  0  0  0
  129.1978  128.6427  151.6450 H   0  0  0  0  0  0  0  0  0  0  0  0
  132.2316  128.9252  151.8270 H   0  0  0  0  0  0  0  0  0  0  0  0
  131.1395  130.0125  150.9362 H   0  0  0  0  0  0  0  0  0  0  0  0
  132.2553  128.8995  154.2506 H   0  0  0  0  0  0  0  0  0  0  0  0
  131.8515  130.1716  156.3174 H   0  0  0  0  0  0  0  0  0  0  0  0
  129.4210  130.8116  157.9599 H   0  0  0  0  0  0  0  0  0  0  0  0
  130.9660  135.8412  158.2941 H   0  0  0  0  0  0  0  0  0  0  0  0
  127.7213  136.5327  158.4544 H   0  0  0  0  0  0  0  0  0  0  0  0
  127.7730  134.7536  158.4333 H   0  0  0  0  0  0  0  0  0  0  0  0
  129.5902  137.7700  159.2009 H   0  0  0  0  0  0  0  0  0  0  0  0
  128.9526  137.4229  160.8260 H   0  0  0  0  0  0  0  0  0  0  0  0
  131.3116  136.5305  161.4731 H   0  0  0  0  0  0  0  0  0  0  0  0
  131.7096  138.5019  159.2002 H   0  0  0  0  0  0  0  0  0  0  0  0
  133.4312  137.2626  161.4725 H   0  0  0  0  0  0  0  0  0  0  0  0
  134.0686  137.6096  159.8473 H   0  0  0  0  0  0  0  0  0  0  0  0
  129.2063  132.7766  154.1773 H   0  0  0  0  0  0  0  0  0  0  0  0
  129.6300  131.4993  152.1179 H   0  0  0  0  0  0  0  0  0  0  0  0
  1  2  1  0
  1 26  1  0
  1 27  1  0
  1 28  1  0
  2  3  1  0
  2 29  1  0
  2 30  1  0
  3 25  2  0
  3  4  1  0
  4  5  2  0
  4 31  1  0
  5  6  1  0
  5 32  1  0
  6  7  1  0
  6 24  2  0
  7 22  1  0
  7  8  2  0
  8  9  1  0
  8 33  1  0
  9 10  1  0
  9 11  1  0
 11 12  1  0
 11 22  2  0
 12 13  1  0
 12 34  1  0
 13 14  1  1
 13 15  1  0
 13 17  1  0
 15 16  1  0
 15 35  1  0
 15 36  1  0
 17 18  1  0
 17 37  1  0
 17 38  1  0
 18 19  2  0
 18 39  1  0
 19 20  1  0
 19 40  1  0
 20 21  1  0
 20 41  1  0
 20 42  1  0
 22 23  1  0
 24 25  1  0
 24 43  1  0
 25 44  1  0
M  CHG  1  22   1
M  END
>  <DOCK_score>  (1) 
-58.007324

>  <SMILES>  (1) 
CCc1ccc(-c2c[nH]c(N[C@H](CBr)C/C=C/CBr)[nH+]2)cc1

$$$$
