CC[C@H](Cc1ccc(Br)cc1)Nc1[nH]cc(-c2cccc(O)c2)[nH+]1
     RDKit          3D

 45 47  0  0  1  0  0  0  0  0999 V2000
  132.6794  137.1561  163.1541 C   0  0  0  0  0  0  0  0  0  0  0  0
  132.1851  137.3106  161.7143 C   0  0  0  0  0  0  0  0  0  0  0  0
  131.5995  135.9823  161.2310 C   0  0  2  0  0  0  0  0  0  0  0  0
  130.7657  135.6978  161.8728 H   0  0  0  0  0  0  0  0  0  0  0  0
  132.6786  134.8990  161.2863 C   0  0  0  0  0  0  0  0  0  0  0  0
  132.1019  133.5907  160.8101 C   0  0  0  0  0  0  0  0  0  0  0  0
  131.5184  132.7228  161.7143 C   0  0  0  0  0  0  0  0  0  0  0  0
  130.9852  131.5249  161.2773 C   0  0  0  0  0  0  0  0  0  0  0  0
  131.0446  131.1898  159.9364 C   0  0  0  0  0  0  0  0  0  0  0  0
  130.3219  129.5477  159.3391 Br  0  0  0  0  0  0  0  0  0  0  0  0
  131.6331  132.0563  159.0329 C   0  0  0  0  0  0  0  0  0  0  0  0
  132.1615  133.2562  159.4702 C   0  0  0  0  0  0  0  0  0  0  0  0
  131.1264  136.1301  159.8524 N   0  0  0  0  0  0  0  0  0  0  0  0
  130.0602  135.3710  159.4015 C   0  0  0  0  0  0  0  0  0  0  0  0
  129.8658  134.9605  158.1185 N   0  0  0  0  0  0  0  0  0  0  0  0
  130.4445  135.1452  157.3623 H   0  0  0  0  0  0  0  0  0  0  0  0
  128.7003  134.2339  158.0927 C   0  0  0  0  0  0  0  0  0  0  0  0
  128.2122  134.2278  159.3578 C   0  0  0  0  0  0  0  0  0  0  0  0
  126.9630  133.5670  159.8084 C   0  0  0  0  0  0  0  0  0  0  0  0
  126.8059  132.1901  159.6553 C   0  0  0  0  0  0  0  0  0  0  0  0
  125.6447  131.5770  160.0802 C   0  0  0  0  0  0  0  0  0  0  0  0
  124.6309  132.3258  160.6484 C   0  0  0  0  0  0  0  0  0  0  0  0
  124.7770  133.6979  160.7992 C   0  0  0  0  0  0  0  0  0  0  0  0
  123.7774  134.4302  161.3575 O   0  0  0  0  0  0  0  0  0  0  0  0
  125.9412  134.3209  160.3804 C   0  0  0  0  0  0  0  0  0  0  0  0
  129.0684  134.9338  160.1384 N   0  0  0  0  0  0  0  0  0  0  0  0
  128.9631  135.0904  161.0899 H   0  0  0  0  0  0  0  0  0  0  0  0
  133.0967  138.1023  163.4986 H   0  0  0  0  0  0  0  0  0  0  0  0
  131.8456  136.8716  163.7959 H   0  0  0  0  0  0  0  0  0  0  0  0
  133.4481  136.3842  163.1935 H   0  0  0  0  0  0  0  0  0  0  0  0
  131.4165  138.0824  161.6749 H   0  0  0  0  0  0  0  0  0  0  0  0
  133.0190  137.5950  161.0726 H   0  0  0  0  0  0  0  0  0  0  0  0
  133.5124  135.1835  160.6445 H   0  0  0  0  0  0  0  0  0  0  0  0
  133.0306  134.7889  162.3121 H   0  0  0  0  0  0  0  0  0  0  0  0
  131.4759  132.9827  162.7617 H   0  0  0  0  0  0  0  0  0  0  0  0
  130.5260  130.8487  161.9831 H   0  0  0  0  0  0  0  0  0  0  0  0
  131.6799  131.7949  157.9861 H   0  0  0  0  0  0  0  0  0  0  0  0
  132.6213  133.9326  158.7648 H   0  0  0  0  0  0  0  0  0  0  0  0
  131.5601  136.7599  159.2556 H   0  0  0  0  0  0  0  0  0  0  0  0
  128.2558  133.7611  157.2293 H   0  0  0  0  0  0  0  0  0  0  0  0
  127.5942  131.6031  159.2076 H   0  0  0  0  0  0  0  0  0  0  0  0
  125.5260  130.5097  159.9646 H   0  0  0  0  0  0  0  0  0  0  0  0
  123.7225  131.8419  160.9755 H   0  0  0  0  0  0  0  0  0  0  0  0
  123.9704  135.3755  161.4205 H   0  0  0  0  0  0  0  0  0  0  0  0
  126.0561  135.3885  160.4969 H   0  0  0  0  0  0  0  0  0  0  0  0
  1  2  1  0
  1 28  1  0
  1 29  1  0
  1 30  1  0
  2  3  1  0
  2 31  1  0
  2 32  1  0
  3  4  1  1
  3  5  1  0
  3 13  1  0
  5  6  1  0
  5 33  1  0
  5 34  1  0
  6 12  1  0
  6  7  2  0
  7  8  1  0
  7 35  1  0
  8  9  2  0
  8 36  1  0
  9 10  1  0
  9 11  1  0
 11 12  2  0
 11 37  1  0
 12 38  1  0
 13 39  1  0
 14 13  1  0
 14 26  2  0
 14 15  1  0
 15 16  1  0
 15 17  1  0
 17 18  2  0
 17 40  1  0
 18 19  1  0
 18 26  1  0
 19 25  1  0
 19 20  2  0
 20 21  1  0
 20 41  1  0
 21 22  2  0
 21 42  1  0
 22 23  1  0
 22 43  1  0
 23 24  1  0
 23 25  2  0
 24 44  1  0
 25 45  1  0
 26 27  1  0
M  CHG  1  26   1
M  END
>  <DOCK_score>  (1) 
-53.125053

>  <SMILES>  (1) 
CC[C@H](Cc1ccc(Br)cc1)Nc1[nH]cc(-c2cccc(O)c2)[nH+]1

$$$$
