CC(C)[C@H](Nc1[nH]cc(-c2ccc(N)cc2)[nH+]1)c1ccc(N)cc1
     RDKit          3D

 48 50  0  0  1  0  0  0  0  0999 V2000
  133.1181  135.8148  160.6736 C   0  0  0  0  0  0  0  0  0  0  0  0
  131.7483  136.0833  161.3000 C   0  0  0  0  0  0  0  0  0  0  0  0
  131.2552  137.4676  160.8738 C   0  0  0  0  0  0  0  0  0  0  0  0
  130.7544  135.0201  160.8281 C   0  0  2  0  0  0  0  0  0  0  0  0
  131.1058  134.0340  161.1318 H   0  0  0  0  0  0  0  0  0  0  0  0
  130.6421  135.0705  159.3683 N   0  0  0  0  0  0  0  0  0  0  0  0
  130.3488  133.9199  158.6565 C   0  0  0  0  0  0  0  0  0  0  0  0
  129.6091  132.8728  159.1126 N   0  0  0  0  0  0  0  0  0  0  0  0
  129.1953  132.7990  159.9868 H   0  0  0  0  0  0  0  0  0  0  0  0
  129.5561  131.9388  158.1051 C   0  0  0  0  0  0  0  0  0  0  0  0
  130.2645  132.4425  157.0644 C   0  0  0  0  0  0  0  0  0  0  0  0
  130.4828  131.7802  155.7549 C   0  0  0  0  0  0  0  0  0  0  0  0
  130.0390  132.3891  154.5821 C   0  0  0  0  0  0  0  0  0  0  0  0
  130.2482  131.7744  153.3657 C   0  0  0  0  0  0  0  0  0  0  0  0
  130.8902  130.5432  153.3092 C   0  0  0  0  0  0  0  0  0  0  0  0
  131.0957  129.9200  152.0761 N   0  0  0  0  0  0  0  0  0  0  0  0
  131.3288  129.9315  154.4780 C   0  0  0  0  0  0  0  0  0  0  0  0
  131.1268  130.5452  155.6961 C   0  0  0  0  0  0  0  0  0  0  0  0
  130.7386  133.6590  157.4325 N   0  0  0  0  0  0  0  0  0  0  0  0
  131.2795  134.2430  156.8782 H   0  0  0  0  0  0  0  0  0  0  0  0
  129.4052  135.2847  161.4451 C   0  0  0  0  0  0  0  0  0  0  0  0
  128.4948  136.0949  160.7918 C   0  0  0  0  0  0  0  0  0  0  0  0
  127.2552  136.3348  161.3517 C   0  0  0  0  0  0  0  0  0  0  0  0
  126.9279  135.7704  162.5780 C   0  0  0  0  0  0  0  0  0  0  0  0
  125.6772  136.0153  163.1496 N   0  0  0  0  0  0  0  0  0  0  0  0
  127.8470  134.9616  163.2343 C   0  0  0  0  0  0  0  0  0  0  0  0
  129.0825  134.7212  162.6660 C   0  0  0  0  0  0  0  0  0  0  0  0
  133.0347  135.8522  159.5875 H   0  0  0  0  0  0  0  0  0  0  0  0
  133.8262  136.5722  161.0100 H   0  0  0  0  0  0  0  0  0  0  0  0
  133.4695  134.8287  160.9774 H   0  0  0  0  0  0  0  0  0  0  0  0
  131.8319  136.0460  162.3862 H   0  0  0  0  0  0  0  0  0  0  0  0
  130.2793  137.6589  161.3201 H   0  0  0  0  0  0  0  0  0  0  0  0
  131.9632  138.2250  161.2101 H   0  0  0  0  0  0  0  0  0  0  0  0
  131.1717  137.5049  159.7877 H   0  0  0  0  0  0  0  0  0  0  0  0
  130.7731  135.9101  158.9005 H   0  0  0  0  0  0  0  0  0  0  0  0
  129.0510  130.9847  158.1380 H   0  0  0  0  0  0  0  0  0  0  0  0
  129.5359  133.3437  154.6258 H   0  0  0  0  0  0  0  0  0  0  0  0
  129.9083  132.2478  152.4564 H   0  0  0  0  0  0  0  0  0  0  0  0
  131.5437  129.0599  152.0363 H   0  0  0  0  0  0  0  0  0  0  0  0
  130.7897  130.3453  151.2604 H   0  0  0  0  0  0  0  0  0  0  0  0
  131.8276  128.9749  154.4318 H   0  0  0  0  0  0  0  0  0  0  0  0
  131.4677  130.0697  156.6039 H   0  0  0  0  0  0  0  0  0  0  0  0
  128.7516  136.5373  159.8407 H   0  0  0  0  0  0  0  0  0  0  0  0
  126.5430  136.9641  160.8388 H   0  0  0  0  0  0  0  0  0  0  0  0
  125.4496  135.6202  164.0059 H   0  0  0  0  0  0  0  0  0  0  0  0
  125.0362  136.5800  162.6904 H   0  0  0  0  0  0  0  0  0  0  0  0
  127.5957  134.5215  164.1880 H   0  0  0  0  0  0  0  0  0  0  0  0
  129.7974  134.0922  163.1756 H   0  0  0  0  0  0  0  0  0  0  0  0
  1  2  1  0
  1 28  1  0
  1 29  1  0
  1 30  1  0
  2  3  1  0
  2  4  1  0
  2 31  1  0
  3 32  1  0
  3 33  1  0
  3 34  1  0
  4  5  1  6
  4  6  1  0
  4 21  1  0
  6 35  1  0
  7  6  1  0
  7 19  2  0
  7  8  1  0
  8  9  1  0
  8 10  1  0
 10 11  2  0
 10 36  1  0
 11 12  1  0
 11 19  1  0
 12 18  1  0
 12 13  2  0
 13 14  1  0
 13 37  1  0
 14 15  2  0
 14 38  1  0
 15 16  1  0
 15 17  1  0
 16 39  1  0
 16 40  1  0
 17 18  2  0
 17 41  1  0
 18 42  1  0
 19 20  1  0
 21 27  1  0
 21 22  2  0
 22 23  1  0
 22 43  1  0
 23 24  2  0
 23 44  1  0
 24 25  1  0
 24 26  1  0
 25 45  1  0
 25 46  1  0
 26 27  2  0
 26 47  1  0
 27 48  1  0
M  CHG  1  19   1
M  END
>  <DOCK_score>  (1) 
-52.729107

>  <SMILES>  (1) 
CC(C)[C@H](Nc1[nH]cc(-c2ccc(N)cc2)[nH+]1)c1ccc(N)cc1

$$$$
