Cc1ccnc(Sc2ccc(Sc3ccccc3)c(NC(=O)[C@@H]([NH3+])CC3=CCCC3)c2)n1
     RDKit          3D

 59 62  0  0  1  0  0  0  0  0999 V2000
  126.1582  138.3807  164.6313 C   0  0  0  0  0  0  0  0  0  0  0  0
  126.4521  136.9442  164.2835 C   0  0  0  0  0  0  0  0  0  0  0  0
  127.1038  136.1219  165.1900 C   0  0  0  0  0  0  0  0  0  0  0  0
  127.3552  134.8071  164.8305 C   0  0  0  0  0  0  0  0  0  0  0  0
  126.9686  134.3783  163.6405 N   0  0  0  0  0  0  0  0  0  0  0  0
  126.3477  135.1901  162.7968 C   0  0  0  0  0  0  0  0  0  0  0  0
  125.8506  134.5769  161.2215 S   0  0  0  0  0  0  0  0  0  0  0  0
  127.4176  134.1047  160.5686 C   0  0  0  0  0  0  0  0  0  0  0  0
  127.6509  132.7823  160.2120 C   0  0  0  0  0  0  0  0  0  0  0  0
  128.8783  132.4088  159.6998 C   0  0  0  0  0  0  0  0  0  0  0  0
  129.8818  133.3538  159.5401 C   0  0  0  0  0  0  0  0  0  0  0  0
  131.4467  132.8762  158.8862 S   0  0  0  0  0  0  0  0  0  0  0  0
  131.0347  132.2444  157.2937 C   0  0  0  0  0  0  0  0  0  0  0  0
  130.4109  133.0629  156.3596 C   0  0  0  0  0  0  0  0  0  0  0  0
  130.0952  132.5662  155.1107 C   0  0  0  0  0  0  0  0  0  0  0  0
  130.3883  131.2523  154.7927 C   0  0  0  0  0  0  0  0  0  0  0  0
  131.0035  130.4331  155.7220 C   0  0  0  0  0  0  0  0  0  0  0  0
  131.3277  130.9247  156.9708 C   0  0  0  0  0  0  0  0  0  0  0  0
  129.6504  134.6823  159.8973 C   0  0  0  0  0  0  0  0  0  0  0  0
  130.6618  135.6384  159.7371 N   0  0  0  0  0  0  0  0  0  0  0  0
  130.7235  136.6994  160.5659 C   0  0  0  0  0  0  0  0  0  0  0  0
  129.9034  136.8265  161.4506 O   0  0  0  0  0  0  0  0  0  0  0  0
  131.8114  137.7280  160.3936 C   0  0  1  0  0  0  0  0  0  0  0  0
  131.7369  138.1730  159.4013 H   0  0  0  0  0  0  0  0  0  0  0  0
  131.6608  138.7754  161.4126 N   0  0  0  0  0  0  0  0  0  0  0  0
  131.7299  138.3635  162.3310 H   0  0  0  0  0  0  0  0  0  0  0  0
  132.3892  139.4640  161.2971 H   0  0  0  0  0  0  0  0  0  0  0  0
  130.7601  139.2181  161.3094 H   0  0  0  0  0  0  0  0  0  0  0  0
  133.1773  137.0567  160.5501 C   0  0  0  0  0  0  0  0  0  0  0  0
  134.2652  138.0852  160.3778 C   0  0  0  0  0  0  0  0  0  0  0  0
  135.1511  138.3828  161.2892 C   0  0  0  0  0  0  0  0  0  0  0  0
  136.0984  139.4527  160.7982 C   0  0  0  0  0  0  0  0  0  0  0  0
  135.3906  140.0711  159.5704 C   0  0  0  0  0  0  0  0  0  0  0  0
  134.4778  138.9028  159.1250 C   0  0  0  0  0  0  0  0  0  0  0  0
  128.4200  135.0534  160.4164 C   0  0  0  0  0  0  0  0  0  0  0  0
  126.0965  136.4541  163.1079 N   0  0  0  0  0  0  0  0  0  0  0  0
  126.9930  139.0082  164.3193 H   0  0  0  0  0  0  0  0  0  0  0  0
  125.2515  138.7006  164.1180 H   0  0  0  0  0  0  0  0  0  0  0  0
  126.0175  138.4723  165.7084 H   0  0  0  0  0  0  0  0  0  0  0  0
  127.4084  136.4976  166.1556 H   0  0  0  0  0  0  0  0  0  0  0  0
  127.8604  134.1408  165.5139 H   0  0  0  0  0  0  0  0  0  0  0  0
  126.8714  132.0451  160.3357 H   0  0  0  0  0  0  0  0  0  0  0  0
  129.0570  131.3800  159.4238 H   0  0  0  0  0  0  0  0  0  0  0  0
  130.1774  134.0874  156.6088 H   0  0  0  0  0  0  0  0  0  0  0  0
  129.6148  133.2029  154.3825 H   0  0  0  0  0  0  0  0  0  0  0  0
  130.1357  130.8651  153.8167 H   0  0  0  0  0  0  0  0  0  0  0  0
  131.2307  129.4078  155.4702 H   0  0  0  0  0  0  0  0  0  0  0  0
  131.8080  130.2845  157.6958 H   0  0  0  0  0  0  0  0  0  0  0  0
  131.3176  135.5369  159.0297 H   0  0  0  0  0  0  0  0  0  0  0  0
  133.2890  136.2796  159.7941 H   0  0  0  0  0  0  0  0  0  0  0  0
  133.2519  136.6117  161.5424 H   0  0  0  0  0  0  0  0  0  0  0  0
  135.2002  137.9247  162.2659 H   0  0  0  0  0  0  0  0  0  0  0  0
  136.2504  140.2082  161.5693 H   0  0  0  0  0  0  0  0  0  0  0  0
  137.0508  139.0111  160.5050 H   0  0  0  0  0  0  0  0  0  0  0  0
  134.8039  140.9443  159.8555 H   0  0  0  0  0  0  0  0  0  0  0  0
  136.1091  140.3230  158.7902 H   0  0  0  0  0  0  0  0  0  0  0  0
  134.9702  138.3034  158.3594 H   0  0  0  0  0  0  0  0  0  0  0  0
  133.5264  139.2855  158.7554 H   0  0  0  0  0  0  0  0  0  0  0  0
  128.2396  136.0803  160.6978 H   0  0  0  0  0  0  0  0  0  0  0  0
  1  2  1  0
  1 37  1  0
  1 38  1  0
  1 39  1  0
  2 36  2  0
  2  3  1  0
  3  4  2  0
  3 40  1  0
  4  5  1  0
  4 41  1  0
  5  6  2  0
  6  7  1  0
  6 36  1  0
  7  8  1  0
  8 35  1  0
  8  9  2  0
  9 10  1  0
  9 42  1  0
 10 11  2  0
 10 43  1  0
 11 12  1  0
 11 19  1  0
 12 13  1  0
 13 18  1  0
 13 14  2  0
 14 15  1  0
 14 44  1  0
 15 16  2  0
 15 45  1  0
 16 17  1  0
 16 46  1  0
 17 18  2  0
 17 47  1  0
 18 48  1  0
 19 20  1  0
 19 35  2  0
 20 21  1  0
 20 49  1  0
 21 22  2  0
 21 23  1  0
 23 24  1  6
 23 25  1  0
 23 29  1  0
 25 26  1  0
 25 27  1  0
 25 28  1  0
 29 30  1  0
 29 50  1  0
 29 51  1  0
 30 34  1  0
 30 31  2  0
 31 32  1  0
 31 52  1  0
 32 33  1  0
 32 53  1  0
 32 54  1  0
 33 34  1  0
 33 55  1  0
 33 56  1  0
 34 57  1  0
 34 58  1  0
 35 59  1  0
M  CHG  1  25   1
M  END
>  <DOCK_score>  (1) 
-47.965244

>  <SMILES>  (1) 
Cc1ccnc(Sc2ccc(Sc3ccccc3)c(NC(=O)[C@@H]([NH3+])CC3=CCCC3)c2)n1

$$$$
