CCc1ccc(-c2c[nH]c(N[C@@H](CC3=CCCC3)c3ncccc3C3CC3)[nH+]2)cc1
     RDKit          3D

 61 65  0  0  1  0  0  0  0  0999 V2000
  129.7248  128.8641  150.9386 C   0  0  0  0  0  0  0  0  0  0  0  0
  130.9363  129.7576  151.2117 C   0  0  0  0  0  0  0  0  0  0  0  0
  130.8393  130.3236  152.6050 C   0  0  0  0  0  0  0  0  0  0  0  0
  131.3973  129.6368  153.6677 C   0  0  0  0  0  0  0  0  0  0  0  0
  131.3166  130.1530  154.9452 C   0  0  0  0  0  0  0  0  0  0  0  0
  130.6613  131.3633  155.1647 C   0  0  0  0  0  0  0  0  0  0  0  0
  130.5664  131.9204  156.5362 C   0  0  0  0  0  0  0  0  0  0  0  0
  129.9818  131.3205  157.6026 C   0  0  0  0  0  0  0  0  0  0  0  0
  130.1186  132.1782  158.6669 N   0  0  0  0  0  0  0  0  0  0  0  0
  129.7998  132.0277  159.5706 H   0  0  0  0  0  0  0  0  0  0  0  0
  130.7834  133.2780  158.2194 C   0  0  0  0  0  0  0  0  0  0  0  0
  131.1227  134.3815  158.9833 N   0  0  0  0  0  0  0  0  0  0  0  0
  130.2823  134.7739  160.1173 C   0  0  1  0  0  0  0  0  0  0  0  0
  130.2404  133.9574  160.8381 H   0  0  0  0  0  0  0  0  0  0  0  0
  130.8757  136.0152  160.7865 C   0  0  0  0  0  0  0  0  0  0  0  0
  132.0127  135.6054  161.6868 C   0  0  0  0  0  0  0  0  0  0  0  0
  132.0507  135.8224  162.9733 C   0  0  0  0  0  0  0  0  0  0  0  0
  133.3278  135.2869  163.5779 C   0  0  0  0  0  0  0  0  0  0  0  0
  134.2718  135.0684  162.3727 C   0  0  0  0  0  0  0  0  0  0  0  0
  133.2554  134.8837  161.2198 C   0  0  0  0  0  0  0  0  0  0  0  0
  128.8910  135.0838  159.6279 C   0  0  0  0  0  0  0  0  0  0  0  0
  128.7191  135.5557  158.4084 N   0  0  0  0  0  0  0  0  0  0  0  0
  127.5204  135.8356  157.9358 C   0  0  0  0  0  0  0  0  0  0  0  0
  126.3931  135.6528  158.7145 C   0  0  0  0  0  0  0  0  0  0  0  0
  126.5348  135.1637  160.0039 C   0  0  0  0  0  0  0  0  0  0  0  0
  127.8107  134.8754  160.4639 C   0  0  0  0  0  0  0  0  0  0  0  0
  128.0166  134.3411  161.8578 C   0  0  0  0  0  0  0  0  0  0  0  0
  126.9092  134.5950  162.8825 C   0  0  0  0  0  0  0  0  0  0  0  0
  128.2312  135.3588  162.9800 C   0  0  0  0  0  0  0  0  0  0  0  0
  131.0544  133.1178  156.9470 N   0  0  0  0  0  0  0  0  0  0  0  0
  131.5264  133.7546  156.3879 H   0  0  0  0  0  0  0  0  0  0  0  0
  130.0959  132.0485  154.0908 C   0  0  0  0  0  0  0  0  0  0  0  0
  130.1876  131.5257  152.8168 C   0  0  0  0  0  0  0  0  0  0  0  0
  129.7053  128.0484  151.6614 H   0  0  0  0  0  0  0  0  0  0  0  0
  128.8114  129.4519  151.0295 H   0  0  0  0  0  0  0  0  0  0  0  0
  129.7949  128.4549  149.9308 H   0  0  0  0  0  0  0  0  0  0  0  0
  131.8494  129.1705  151.1205 H   0  0  0  0  0  0  0  0  0  0  0  0
  130.9555  130.5740  150.4886 H   0  0  0  0  0  0  0  0  0  0  0  0
  131.9007  128.6967  153.4971 H   0  0  0  0  0  0  0  0  0  0  0  0
  131.7567  129.6180  155.7737 H   0  0  0  0  0  0  0  0  0  0  0  0
  129.5005  130.3537  157.6131 H   0  0  0  0  0  0  0  0  0  0  0  0
  131.9171  134.8948  158.7679 H   0  0  0  0  0  0  0  0  0  0  0  0
  131.2456  136.6984  160.0220 H   0  0  0  0  0  0  0  0  0  0  0  0
  130.1060  136.5127  161.3768 H   0  0  0  0  0  0  0  0  0  0  0  0
  131.2719  136.3196  163.5323 H   0  0  0  0  0  0  0  0  0  0  0  0
  133.7553  136.0142  164.2681 H   0  0  0  0  0  0  0  0  0  0  0  0
  133.1393  134.3426  164.0886 H   0  0  0  0  0  0  0  0  0  0  0  0
  134.9029  135.9414  162.2069 H   0  0  0  0  0  0  0  0  0  0  0  0
  134.8758  134.1712  162.5065 H   0  0  0  0  0  0  0  0  0  0  0  0
  133.0437  133.8262  161.0624 H   0  0  0  0  0  0  0  0  0  0  0  0
  133.6356  135.3362  160.3039 H   0  0  0  0  0  0  0  0  0  0  0  0
  127.4186  136.2167  156.9304 H   0  0  0  0  0  0  0  0  0  0  0  0
  125.4143  135.8885  158.3234 H   0  0  0  0  0  0  0  0  0  0  0  0
  125.6718  135.0111  160.6352 H   0  0  0  0  0  0  0  0  0  0  0  0
  128.5575  133.3971  161.9245 H   0  0  0  0  0  0  0  0  0  0  0  0
  126.0316  135.1485  162.5483 H   0  0  0  0  0  0  0  0  0  0  0  0
  126.7211  133.8179  163.6234 H   0  0  0  0  0  0  0  0  0  0  0  0
  128.9129  135.0842  163.7849 H   0  0  0  0  0  0  0  0  0  0  0  0
  128.2235  136.4149  162.7099 H   0  0  0  0  0  0  0  0  0  0  0  0
  129.5867  132.9867  154.2552 H   0  0  0  0  0  0  0  0  0  0  0  0
  129.7496  132.0557  151.9839 H   0  0  0  0  0  0  0  0  0  0  0  0
  1  2  1  0
  1 34  1  0
  1 35  1  0
  1 36  1  0
  2  3  1  0
  2 37  1  0
  2 38  1  0
  3 33  2  0
  3  4  1  0
  4  5  2  0
  4 39  1  0
  5  6  1  0
  5 40  1  0
  6  7  1  0
  6 32  2  0
  7 30  1  0
  7  8  2  0
  8  9  1  0
  8 41  1  0
  9 10  1  0
  9 11  1  0
 11 12  1  0
 11 30  2  0
 12 13  1  0
 12 42  1  0
 13 14  1  1
 13 15  1  0
 13 21  1  0
 15 16  1  0
 15 43  1  0
 15 44  1  0
 16 20  1  0
 16 17  2  0
 17 18  1  0
 17 45  1  0
 18 19  1  0
 18 46  1  0
 18 47  1  0
 19 20  1  0
 19 48  1  0
 19 49  1  0
 20 50  1  0
 20 51  1  0
 21 26  1  0
 21 22  2  0
 22 23  1  0
 23 24  2  0
 23 52  1  0
 24 25  1  0
 24 53  1  0
 25 26  2  0
 25 54  1  0
 26 27  1  0
 27 29  1  0
 27 28  1  0
 27 55  1  0
 28 29  1  0
 28 56  1  0
 28 57  1  0
 29 58  1  0
 29 59  1  0
 30 31  1  0
 32 33  1  0
 32 60  1  0
 33 61  1  0
M  CHG  1  30   1
M  END
>  <DOCK_score>  (1) 
-63.251839

>  <SMILES>  (1) 
CCc1ccc(-c2c[nH]c(N[C@@H](CC3=CCCC3)c3ncccc3C3CC3)[nH+]2)cc1

$$$$
