Nc1ccc(-c2c[nH]c(Nc3ccc(N)c(SC4CC4)c3)[nH+]2)cc1
     RDKit          3D

 44 47  0  0  1  0  0  0  0  0999 V2000
  131.2147  129.1639  151.6491 N   0  0  0  0  0  0  0  0  0  0  0  0
  130.9728  129.9005  152.8110 C   0  0  0  0  0  0  0  0  0  0  0  0
  130.1089  130.9886  152.7755 C   0  0  0  0  0  0  0  0  0  0  0  0
  129.8686  131.7174  153.9213 C   0  0  0  0  0  0  0  0  0  0  0  0
  130.4930  131.3618  155.1158 C   0  0  0  0  0  0  0  0  0  0  0  0
  130.2360  132.1443  156.3499 C   0  0  0  0  0  0  0  0  0  0  0  0
  129.7035  131.6658  157.5016 C   0  0  0  0  0  0  0  0  0  0  0  0
  129.6416  132.7207  158.3806 N   0  0  0  0  0  0  0  0  0  0  0  0
  129.3061  132.6918  159.2902 H   0  0  0  0  0  0  0  0  0  0  0  0
  130.1386  133.8132  157.7388 C   0  0  0  0  0  0  0  0  0  0  0  0
  130.2513  135.0840  158.2781 N   0  0  0  0  0  0  0  0  0  0  0  0
  129.3416  135.5145  159.2520 C   0  0  0  0  0  0  0  0  0  0  0  0
  129.7396  136.4311  160.2162 C   0  0  0  0  0  0  0  0  0  0  0  0
  128.8441  136.8585  161.1789 C   0  0  0  0  0  0  0  0  0  0  0  0
  127.5445  136.3764  161.1817 C   0  0  0  0  0  0  0  0  0  0  0  0
  126.6352  136.8149  162.1558 N   0  0  0  0  0  0  0  0  0  0  0  0
  127.1429  135.4511  160.2180 C   0  0  0  0  0  0  0  0  0  0  0  0
  125.4934  134.8315  160.2225 S   0  0  0  0  0  0  0  0  0  0  0  0
  125.6815  133.1653  159.5302 C   0  0  0  0  0  0  0  0  0  0  0  0
  125.5082  131.9808  160.4830 C   0  0  0  0  0  0  0  0  0  0  0  0
  126.9006  132.3516  159.9689 C   0  0  0  0  0  0  0  0  0  0  0  0
  128.0429  135.0240  159.2530 C   0  0  0  0  0  0  0  0  0  0  0  0
  130.4878  133.4655  156.5238 N   0  0  0  0  0  0  0  0  0  0  0  0
  130.8679  134.0582  155.8566 H   0  0  0  0  0  0  0  0  0  0  0  0
  131.3636  130.2735  155.1479 C   0  0  0  0  0  0  0  0  0  0  0  0
  131.5960  129.5439  154.0012 C   0  0  0  0  0  0  0  0  0  0  0  0
  130.7799  129.4117  150.8183 H   0  0  0  0  0  0  0  0  0  0  0  0
  131.8175  128.4041  151.6731 H   0  0  0  0  0  0  0  0  0  0  0  0
  129.6257  131.2640  151.8497 H   0  0  0  0  0  0  0  0  0  0  0  0
  129.1970  132.5627  153.8932 H   0  0  0  0  0  0  0  0  0  0  0  0
  129.3882  130.6506  157.6917 H   0  0  0  0  0  0  0  0  0  0  0  0
  130.9603  135.6758  157.9813 H   0  0  0  0  0  0  0  0  0  0  0  0
  130.7505  136.8111  160.2139 H   0  0  0  0  0  0  0  0  0  0  0  0
  129.1562  137.5721  161.9271 H   0  0  0  0  0  0  0  0  0  0  0  0
  125.7267  136.4747  162.1595 H   0  0  0  0  0  0  0  0  0  0  0  0
  126.9148  137.4583  162.8257 H   0  0  0  0  0  0  0  0  0  0  0  0
  125.3358  133.0406  158.5041 H   0  0  0  0  0  0  0  0  0  0  0  0
  125.0485  131.0768  160.0836 H   0  0  0  0  0  0  0  0  0  0  0  0
  125.2812  132.2027  161.5258 H   0  0  0  0  0  0  0  0  0  0  0  0
  127.5897  132.8175  160.6732 H   0  0  0  0  0  0  0  0  0  0  0  0
  127.3571  131.6916  159.2312 H   0  0  0  0  0  0  0  0  0  0  0  0
  127.7335  134.3111  158.5031 H   0  0  0  0  0  0  0  0  0  0  0  0
  131.8520  129.9992  156.0713 H   0  0  0  0  0  0  0  0  0  0  0  0
  132.2666  128.6977  154.0266 H   0  0  0  0  0  0  0  0  0  0  0  0
  1  2  1  0
  1 27  1  0
  1 28  1  0
  2 26  2  0
  2  3  1  0
  3  4  2  0
  3 29  1  0
  4  5  1  0
  4 30  1  0
  5  6  1  0
  5 25  2  0
  6 23  1  0
  6  7  2  0
  7  8  1  0
  7 31  1  0
  8  9  1  0
  8 10  1  0
 10 11  1  0
 10 23  2  0
 11 12  1  0
 11 32  1  0
 12 22  1  0
 12 13  2  0
 13 14  1  0
 13 33  1  0
 14 15  2  0
 14 34  1  0
 15 16  1  0
 15 17  1  0
 16 35  1  0
 16 36  1  0
 17 18  1  0
 17 22  2  0
 18 19  1  0
 19 21  1  0
 19 20  1  0
 19 37  1  0
 20 21  1  0
 20 38  1  0
 20 39  1  0
 21 40  1  0
 21 41  1  0
 22 42  1  0
 23 24  1  0
 25 26  1  0
 25 43  1  0
 26 44  1  0
M  CHG  1  23   1
M  END
>  <DOCK_score>  (1) 
-57.031487

>  <SMILES>  (1) 
Nc1ccc(-c2c[nH]c(Nc3ccc(N)c(SC4CC4)c3)[nH+]2)cc1

$$$$
