CC([NH+]=C(NC1CCC(=O)NC1)N[C@H](C)C(F)F)C(F)F
     RDKit          3D

 42 42  0  0  1  0  0  0  0  0999 V2000
  133.2343  135.2040  160.7263 C   0  0  0  0  0  0  0  0  0  0  0  0
  131.7436  135.4864  160.9236 C   0  0  2  0  0  0  0  0  0  0  0  0
  131.0483  135.3590  159.6404 N   0  0  0  0  0  0  0  0  0  0  0  0
  131.5149  135.5595  158.8141 H   0  0  0  0  0  0  0  0  0  0  0  0
  129.8028  134.9760  159.6094 C   0  0  0  0  0  0  0  0  0  0  0  0
  128.9667  135.2704  160.6603 N   0  0  0  0  0  0  0  0  0  0  0  0
  127.5668  134.8400  160.6252 C   0  0  1  0  0  0  0  0  0  0  0  0
  127.4388  133.4530  161.2668 C   0  0  0  0  0  0  0  0  0  0  0  0
  126.0083  132.9517  161.0538 C   0  0  0  0  0  0  0  0  0  0  0  0
  125.0286  134.0196  161.4477 C   0  0  0  0  0  0  0  0  0  0  0  0
  123.8780  133.6956  161.6527 O   0  0  0  0  0  0  0  0  0  0  0  0
  125.3563  135.3050  161.5845 N   0  0  0  0  0  0  0  0  0  0  0  0
  126.7062  135.8288  161.4126 C   0  0  0  0  0  0  0  0  0  0  0  0
  129.3251  134.2777  158.5257 N   0  0  0  0  0  0  0  0  0  0  0  0
  130.2235  133.4104  157.7594 C   0  0  2  0  0  0  0  0  0  0  0  0
  131.0406  134.0045  157.3504 H   0  0  0  0  0  0  0  0  0  0  0  0
  129.4469  132.7555  156.6154 C   0  0  0  0  0  0  0  0  0  0  0  0
  130.7911  132.3258  158.6771 C   0  0  0  0  0  0  0  0  0  0  0  0
  131.5011  132.9246  159.7232 F   0  0  0  0  0  0  0  0  0  0  0  0
  129.7421  131.5633  159.2021 F   0  0  0  0  0  0  0  0  0  0  0  0
  131.5606  136.9060  161.4641 C   0  0  0  0  0  0  0  0  0  0  0  0
  132.0925  137.8243  160.5524 F   0  0  0  0  0  0  0  0  0  0  0  0
  130.1975  137.1642  161.6445 F   0  0  0  0  0  0  0  0  0  0  0  0
  133.3604  134.2279  160.2579 H   0  0  0  0  0  0  0  0  0  0  0  0
  133.6681  135.9727  160.0867 H   0  0  0  0  0  0  0  0  0  0  0  0
  133.7366  135.2103  161.6937 H   0  0  0  0  0  0  0  0  0  0  0  0
  131.3293  134.7710  161.6340 H   0  0  0  0  0  0  0  0  0  0  0  0
  129.3038  135.7628  161.4251 H   0  0  0  0  0  0  0  0  0  0  0  0
  127.2229  134.7980  159.5918 H   0  0  0  0  0  0  0  0  0  0  0  0
  128.1424  132.7653  160.7976 H   0  0  0  0  0  0  0  0  0  0  0  0
  127.6484  133.5217  162.3343 H   0  0  0  0  0  0  0  0  0  0  0  0
  125.8658  132.6994  160.0030 H   0  0  0  0  0  0  0  0  0  0  0  0
  125.8411  132.0641  161.6640 H   0  0  0  0  0  0  0  0  0  0  0  0
  124.6516  135.9322  161.8104 H   0  0  0  0  0  0  0  0  0  0  0  0
  127.1534  135.9948  162.3927 H   0  0  0  0  0  0  0  0  0  0  0  0
  126.6625  136.7760  160.8750 H   0  0  0  0  0  0  0  0  0  0  0  0
  128.3944  134.3623  158.2661 H   0  0  0  0  0  0  0  0  0  0  0  0
  128.5804  132.2308  157.0181 H   0  0  0  0  0  0  0  0  0  0  0  0
  129.1144  133.5225  155.9160 H   0  0  0  0  0  0  0  0  0  0  0  0
  130.0924  132.0464  156.0972 H   0  0  0  0  0  0  0  0  0  0  0  0
  131.4593  131.6805  158.1070 H   0  0  0  0  0  0  0  0  0  0  0  0
  132.0778  137.0009  162.4189 H   0  0  0  0  0  0  0  0  0  0  0  0
  1  2  1  0
  1 24  1  0
  1 25  1  0
  1 26  1  0
  2  3  1  0
  2 21  1  0
  2 27  1  1
  3  4  1  0
  5  3  2  0
  5  6  1  0
  5 14  1  0
  6  7  1  0
  6 28  1  0
  7 13  1  0
  7  8  1  0
  7 29  1  6
  8  9  1  0
  8 30  1  0
  8 31  1  0
  9 10  1  0
  9 32  1  0
  9 33  1  0
 10 11  2  0
 10 12  1  0
 12 13  1  0
 12 34  1  0
 13 35  1  0
 13 36  1  0
 14 15  1  0
 14 37  1  0
 15 16  1  6
 15 17  1  0
 15 18  1  0
 17 38  1  0
 17 39  1  0
 17 40  1  0
 18 19  1  0
 18 20  1  0
 18 41  1  0
 21 22  1  0
 21 23  1  0
 21 42  1  0
M  CHG  1   3   1
M  END
>  <DOCK_score>  (1) 
-41.288754

>  <SMILES>  (1) 
CC([NH+]=C(NC1CCC(=O)NC1)N[C@H](C)C(F)F)C(F)F

$$$$
