O=C1CC[C@H](NC(NC2CC=CC2)=[NH+]C2CC(F)(F)C2)CN1
     RDKit          3D

 45 47  0  0  1  0  0  0  0  0999 V2000
  124.1320  133.6521  161.8068 O   0  0  0  0  0  0  0  0  0  0  0  0
  125.2711  133.9902  161.5637 C   0  0  0  0  0  0  0  0  0  0  0  0
  126.2726  132.9229  161.2275 C   0  0  0  0  0  0  0  0  0  0  0  0
  127.6923  133.4729  161.3844 C   0  0  0  0  0  0  0  0  0  0  0  0
  127.7759  134.8163  160.6498 C   0  0  2  0  0  0  0  0  0  0  0  0
  127.4186  134.6993  159.6267 H   0  0  0  0  0  0  0  0  0  0  0  0
  129.1647  135.2828  160.6349 N   0  0  0  0  0  0  0  0  0  0  0  0
  129.9977  134.9284  159.6003 C   0  0  0  0  0  0  0  0  0  0  0  0
  129.5276  134.1362  158.5795 N   0  0  0  0  0  0  0  0  0  0  0  0
  130.4402  133.2346  157.8722 C   0  0  0  0  0  0  0  0  0  0  0  0
  129.6663  132.3057  156.9082 C   0  0  0  0  0  0  0  0  0  0  0  0
  130.3850  130.9786  156.9951 C   0  0  0  0  0  0  0  0  0  0  0  0
  131.1519  130.9273  158.0500 C   0  0  0  0  0  0  0  0  0  0  0  0
  131.0726  132.2109  158.8432 C   0  0  0  0  0  0  0  0  0  0  0  0
  131.2333  135.3435  159.5869 N   0  0  0  0  0  0  0  0  0  0  0  0
  131.8210  135.0934  158.8568 H   0  0  0  0  0  0  0  0  0  0  0  0
  131.7342  136.1875  160.6744 C   0  0  0  0  0  0  0  0  0  0  0  0
  131.3892  137.6767  160.5073 C   0  0  0  0  0  0  0  0  0  0  0  0
  132.8035  137.9821  161.0283 C   0  0  0  0  0  0  0  0  0  0  0  0
  132.8737  138.1047  162.4201 F   0  0  0  0  0  0  0  0  0  0  0  0
  133.4343  139.0354  160.3576 F   0  0  0  0  0  0  0  0  0  0  0  0
  133.2090  136.5917  160.5111 C   0  0  0  0  0  0  0  0  0  0  0  0
  126.9014  135.8322  161.3857 C   0  0  0  0  0  0  0  0  0  0  0  0
  125.5671  135.2896  161.6089 N   0  0  0  0  0  0  0  0  0  0  0  0
  126.1369  132.0746  161.8983 H   0  0  0  0  0  0  0  0  0  0  0  0
  126.1224  132.5967  160.1984 H   0  0  0  0  0  0  0  0  0  0  0  0
  128.4072  132.7729  160.9518 H   0  0  0  0  0  0  0  0  0  0  0  0
  127.9144  133.6183  162.4417 H   0  0  0  0  0  0  0  0  0  0  0  0
  129.4963  135.8416  161.3549 H   0  0  0  0  0  0  0  0  0  0  0  0
  128.5907  134.1714  158.3304 H   0  0  0  0  0  0  0  0  0  0  0  0
  131.2085  133.7968  157.3413 H   0  0  0  0  0  0  0  0  0  0  0  0
  128.6313  132.1989  157.2329 H   0  0  0  0  0  0  0  0  0  0  0  0
  129.7077  132.6948  155.8908 H   0  0  0  0  0  0  0  0  0  0  0  0
  130.2779  130.1781  156.2780 H   0  0  0  0  0  0  0  0  0  0  0  0
  131.7628  130.0788  158.3204 H   0  0  0  0  0  0  0  0  0  0  0  0
  132.0696  132.5355  159.1409 H   0  0  0  0  0  0  0  0  0  0  0  0
  130.4395  132.0786  159.7207 H   0  0  0  0  0  0  0  0  0  0  0  0
  131.4969  135.7911  161.6617 H   0  0  0  0  0  0  0  0  0  0  0  0
  131.2319  137.9749  159.4707 H   0  0  0  0  0  0  0  0  0  0  0  0
  130.5957  138.0185  161.1721 H   0  0  0  0  0  0  0  0  0  0  0  0
  133.8847  136.0574  161.1789 H   0  0  0  0  0  0  0  0  0  0  0  0
  133.5492  136.5932  159.4755 H   0  0  0  0  0  0  0  0  0  0  0  0
  127.3581  136.0720  162.3460 H   0  0  0  0  0  0  0  0  0  0  0  0
  126.8255  136.7413  160.7893 H   0  0  0  0  0  0  0  0  0  0  0  0
  124.8496  135.9128  161.8029 H   0  0  0  0  0  0  0  0  0  0  0  0
  1  2  2  0
  2 24  1  0
  2  3  1  0
  3  4  1  0
  3 25  1  0
  3 26  1  0
  4  5  1  0
  4 27  1  0
  4 28  1  0
  5  6  1  6
  5  7  1  0
  5 23  1  0
  7 29  1  0
  8  7  1  0
  8  9  1  0
  8 15  2  0
  9 10  1  0
  9 30  1  0
 10 14  1  0
 10 11  1  0
 10 31  1  0
 11 12  1  0
 11 32  1  0
 11 33  1  0
 12 13  2  0
 12 34  1  0
 13 14  1  0
 13 35  1  0
 14 36  1  0
 14 37  1  0
 15 16  1  0
 15 17  1  0
 17 22  1  0
 17 18  1  0
 17 38  1  0
 18 19  1  0
 18 39  1  0
 18 40  1  0
 19 20  1  0
 19 21  1  0
 19 22  1  0
 22 41  1  0
 22 42  1  0
 23 24  1  0
 23 43  1  0
 23 44  1  0
 24 45  1  0
M  CHG  1  15   1
M  END
>  <DOCK_score>  (1) 
-41.385643

>  <SMILES>  (1) 
O=C1CC[C@H](NC(NC2CC=CC2)=[NH+]C2CC(F)(F)C2)CN1

$$$$
