Cc1cccc(-c2ccc(-c3n[nH]cc3C[NH2+]Cc3cc4ccccc4[nH]3)cc2)c1
     RDKit          3D

 55 59  0  0  0  0  0  0  0  0999 V2000
  131.8373  132.4029  153.2609 C   0  0  0  0  0  0  0  0  0  0  0  0
  131.2832  131.7554  154.5036 C   0  0  0  0  0  0  0  0  0  0  0  0
  131.3162  130.3785  154.6384 C   0  0  0  0  0  0  0  0  0  0  0  0
  130.8097  129.7775  155.7762 C   0  0  0  0  0  0  0  0  0  0  0  0
  130.2675  130.5489  156.7843 C   0  0  0  0  0  0  0  0  0  0  0  0
  130.2314  131.9359  156.6540 C   0  0  0  0  0  0  0  0  0  0  0  0
  129.6501  132.7700  157.7339 C   0  0  0  0  0  0  0  0  0  0  0  0
  129.0402  133.9853  157.4245 C   0  0  0  0  0  0  0  0  0  0  0  0
  128.5000  134.7598  158.4274 C   0  0  0  0  0  0  0  0  0  0  0  0
  128.5625  134.3284  159.7519 C   0  0  0  0  0  0  0  0  0  0  0  0
  127.9807  135.1625  160.8319 C   0  0  0  0  0  0  0  0  0  0  0  0
  126.7193  135.5249  160.9365 N   0  0  0  0  0  0  0  0  0  0  0  0
  126.5836  136.2988  162.0961 N   0  0  0  0  0  0  0  0  0  0  0  0
  125.7615  136.6987  162.4205 H   0  0  0  0  0  0  0  0  0  0  0  0
  127.7958  136.3912  162.6844 C   0  0  0  0  0  0  0  0  0  0  0  0
  128.6791  135.7017  161.9302 C   0  0  0  0  0  0  0  0  0  0  0  0
  130.1502  135.5382  162.2133 C   0  0  0  0  0  0  0  0  0  0  0  0
  130.8963  136.6296  161.5730 N   0  0  0  0  0  0  0  0  0  0  0  0
  130.7408  136.6040  160.5763 H   0  0  0  0  0  0  0  0  0  0  0  0
  130.5793  137.5144  161.9401 H   0  0  0  0  0  0  0  0  0  0  0  0
  132.3303  136.4704  161.8490 C   0  0  0  0  0  0  0  0  0  0  0  0
  133.0956  137.5901  161.1921 C   0  0  0  0  0  0  0  0  0  0  0  0
  134.0802  138.2946  161.7722 C   0  0  0  0  0  0  0  0  0  0  0  0
  134.5428  139.2751  160.7872 C   0  0  0  0  0  0  0  0  0  0  0  0
  135.5226  140.2699  160.7944 C   0  0  0  0  0  0  0  0  0  0  0  0
  135.7159  141.0396  159.6822 C   0  0  0  0  0  0  0  0  0  0  0  0
  134.9454  140.8410  158.5445 C   0  0  0  0  0  0  0  0  0  0  0  0
  133.9733  139.8653  158.5158 C   0  0  0  0  0  0  0  0  0  0  0  0
  133.7596  139.0698  159.6368 C   0  0  0  0  0  0  0  0  0  0  0  0
  132.8943  138.0352  159.9140 N   0  0  0  0  0  0  0  0  0  0  0  0
  132.2378  137.6771  159.2962 H   0  0  0  0  0  0  0  0  0  0  0  0
  129.1770  133.1157  160.0619 C   0  0  0  0  0  0  0  0  0  0  0  0
  129.7130  132.3389  159.0585 C   0  0  0  0  0  0  0  0  0  0  0  0
  130.7384  132.5360  155.5025 C   0  0  0  0  0  0  0  0  0  0  0  0
  131.0474  132.4935  152.5152 H   0  0  0  0  0  0  0  0  0  0  0  0
  132.2198  133.3934  153.5070 H   0  0  0  0  0  0  0  0  0  0  0  0
  132.6455  131.7903  152.8614 H   0  0  0  0  0  0  0  0  0  0  0  0
  131.7392  129.7709  153.8521 H   0  0  0  0  0  0  0  0  0  0  0  0
  130.8383  128.7026  155.8760 H   0  0  0  0  0  0  0  0  0  0  0  0
  129.8718  130.0782  157.6722 H   0  0  0  0  0  0  0  0  0  0  0  0
  128.9912  134.3191  156.3986 H   0  0  0  0  0  0  0  0  0  0  0  0
  128.0276  135.7011  158.1879 H   0  0  0  0  0  0  0  0  0  0  0  0
  128.0193  136.9226  163.5975 H   0  0  0  0  0  0  0  0  0  0  0  0
  130.3183  135.5661  163.2900 H   0  0  0  0  0  0  0  0  0  0  0  0
  130.4926  134.5824  161.8168 H   0  0  0  0  0  0  0  0  0  0  0  0
  132.4983  136.4981  162.9257 H   0  0  0  0  0  0  0  0  0  0  0  0
  132.6727  135.5146  161.4524 H   0  0  0  0  0  0  0  0  0  0  0  0
  134.4588  138.1638  162.7751 H   0  0  0  0  0  0  0  0  0  0  0  0
  136.1259  140.4300  161.6757 H   0  0  0  0  0  0  0  0  0  0  0  0
  136.4739  141.8088  159.6882 H   0  0  0  0  0  0  0  0  0  0  0  0
  135.1100  141.4574  157.6730 H   0  0  0  0  0  0  0  0  0  0  0  0
  133.3789  139.7187  157.6260 H   0  0  0  0  0  0  0  0  0  0  0  0
  129.2294  132.7837  161.0883 H   0  0  0  0  0  0  0  0  0  0  0  0
  130.1853  131.3976  159.2982 H   0  0  0  0  0  0  0  0  0  0  0  0
  130.7085  133.6102  155.3942 H   0  0  0  0  0  0  0  0  0  0  0  0
  1  2  1  0
  1 35  1  0
  1 36  1  0
  1 37  1  0
  2 34  2  0
  2  3  1  0
  3  4  2  0
  3 38  1  0
  4  5  1  0
  4 39  1  0
  5  6  2  0
  5 40  1  0
  6  7  1  0
  6 34  1  0
  7 33  1  0
  7  8  2  0
  8  9  1  0
  8 41  1  0
  9 10  2  0
  9 42  1  0
 10 11  1  0
 10 32  1  0
 11 16  1  0
 11 12  2  0
 12 13  1  0
 13 14  1  0
 13 15  1  0
 15 16  2  0
 15 43  1  0
 16 17  1  0
 17 18  1  0
 17 44  1  0
 17 45  1  0
 18 19  1  0
 18 20  1  0
 18 21  1  0
 21 22  1  0
 21 46  1  0
 21 47  1  0
 22 30  1  0
 22 23  2  0
 23 24  1  0
 23 48  1  0
 24 29  2  0
 24 25  1  0
 25 26  2  0
 25 49  1  0
 26 27  1  0
 26 50  1  0
 27 28  2  0
 27 51  1  0
 28 29  1  0
 28 52  1  0
 29 30  1  0
 30 31  1  0
 32 33  2  0
 32 53  1  0
 33 54  1  0
 34 55  1  0
M  CHG  1  18   1
M  END
>  <DOCK_score>  (1) 
-47.246258

>  <SMILES>  (1) 
Cc1cccc(-c2ccc(-c3n[nH]cc3C[NH2+]Cc3cc4ccccc4[nH]3)cc2)c1

$$$$
