C[C@H](Cc1ccc(-c2ccccc2C=NO)cc1)Nc1[nH]cc(-c2ccc(N)cc2)[nH+]1
     RDKit          3D

 57 60  0  0  1  0  0  0  0  0999 V2000
  128.5687  136.7625  160.7648 C   0  0  0  0  0  0  0  0  0  0  0  0
  129.2328  135.4060  160.5207 C   0  0  2  0  0  0  0  0  0  0  0  0
  128.5113  134.6099  160.7044 H   0  0  0  0  0  0  0  0  0  0  0  0
  130.4237  135.2435  161.4673 C   0  0  0  0  0  0  0  0  0  0  0  0
  131.4212  136.3443  161.2130 C   0  0  0  0  0  0  0  0  0  0  0  0
  131.3251  137.5355  161.9097 C   0  0  0  0  0  0  0  0  0  0  0  0
  132.2349  138.5473  161.6806 C   0  0  0  0  0  0  0  0  0  0  0  0
  133.2529  138.3670  160.7450 C   0  0  0  0  0  0  0  0  0  0  0  0
  134.2329  139.4499  160.4939 C   0  0  0  0  0  0  0  0  0  0  0  0
  134.3554  140.0024  159.2222 C   0  0  0  0  0  0  0  0  0  0  0  0
  135.2691  141.0114  158.9926 C   0  0  0  0  0  0  0  0  0  0  0  0
  136.0690  141.4811  160.0212 C   0  0  0  0  0  0  0  0  0  0  0  0
  135.9584  140.9505  161.2896 C   0  0  0  0  0  0  0  0  0  0  0  0
  135.0444  139.9261  161.5393 C   0  0  0  0  0  0  0  0  0  0  0  0
  134.9261  139.3506  162.8916 C   0  0  0  0  0  0  0  0  0  0  0  0
  135.1782  140.0809  163.9299 N   0  0  0  0  0  0  0  0  0  0  0  0
  135.0646  139.5282  165.2286 O   0  0  0  0  0  0  0  0  0  0  0  0
  133.3419  137.1659  160.0424 C   0  0  0  0  0  0  0  0  0  0  0  0
  132.4290  136.1595  160.2837 C   0  0  0  0  0  0  0  0  0  0  0  0
  129.6980  135.3327  159.1334 N   0  0  0  0  0  0  0  0  0  0  0  0
  129.7506  134.1108  158.4846 C   0  0  0  0  0  0  0  0  0  0  0  0
  129.3937  132.9125  159.0213 N   0  0  0  0  0  0  0  0  0  0  0  0
  129.0602  132.7617  159.9196 H   0  0  0  0  0  0  0  0  0  0  0  0
  129.5937  131.9549  158.0553 C   0  0  0  0  0  0  0  0  0  0  0  0
  130.0664  132.5960  156.9581 C   0  0  0  0  0  0  0  0  0  0  0  0
  130.4256  131.9641  155.6648 C   0  0  0  0  0  0  0  0  0  0  0  0
  130.2909  132.6804  154.4765 C   0  0  0  0  0  0  0  0  0  0  0  0
  130.6309  132.0930  153.2764 C   0  0  0  0  0  0  0  0  0  0  0  0
  131.0965  130.7838  153.2495 C   0  0  0  0  0  0  0  0  0  0  0  0
  131.4357  130.1890  152.0317 N   0  0  0  0  0  0  0  0  0  0  0  0
  131.2265  130.0658  154.4324 C   0  0  0  0  0  0  0  0  0  0  0  0
  130.8931  130.6511  155.6355 C   0  0  0  0  0  0  0  0  0  0  0  0
  130.1470  133.9184  157.2500 N   0  0  0  0  0  0  0  0  0  0  0  0
  130.4514  134.6108  156.6428 H   0  0  0  0  0  0  0  0  0  0  0  0
  127.7202  136.8783  160.0905 H   0  0  0  0  0  0  0  0  0  0  0  0
  128.2225  136.8171  161.7968 H   0  0  0  0  0  0  0  0  0  0  0  0
  129.2901  137.5587  160.5809 H   0  0  0  0  0  0  0  0  0  0  0  0
  130.8969  134.2771  161.2934 H   0  0  0  0  0  0  0  0  0  0  0  0
  130.0777  135.2982  162.4994 H   0  0  0  0  0  0  0  0  0  0  0  0
  130.5361  137.6741  162.6341 H   0  0  0  0  0  0  0  0  0  0  0  0
  132.1590  139.4769  162.2251 H   0  0  0  0  0  0  0  0  0  0  0  0
  133.7352  139.6419  158.4149 H   0  0  0  0  0  0  0  0  0  0  0  0
  135.3612  141.4369  158.0042 H   0  0  0  0  0  0  0  0  0  0  0  0
  136.7804  142.2709  159.8300 H   0  0  0  0  0  0  0  0  0  0  0  0
  136.5821  141.3246  162.0880 H   0  0  0  0  0  0  0  0  0  0  0  0
  134.6290  138.3197  163.0156 H   0  0  0  0  0  0  0  0  0  0  0  0
  135.2725  140.1493  165.9400 H   0  0  0  0  0  0  0  0  0  0  0  0
  134.1257  137.0222  159.3135 H   0  0  0  0  0  0  0  0  0  0  0  0
  132.4991  135.2274  159.7427 H   0  0  0  0  0  0  0  0  0  0  0  0
  129.9692  136.1402  158.6695 H   0  0  0  0  0  0  0  0  0  0  0  0
  129.4095  130.8951  158.1519 H   0  0  0  0  0  0  0  0  0  0  0  0
  129.9244  133.6962  154.4965 H   0  0  0  0  0  0  0  0  0  0  0  0
  130.5306  132.6490  152.3558 H   0  0  0  0  0  0  0  0  0  0  0  0
  131.7611  129.2755  152.0123 H   0  0  0  0  0  0  0  0  0  0  0  0
  131.3454  130.6894  151.2058 H   0  0  0  0  0  0  0  0  0  0  0  0
  131.5883  129.0485  154.4091 H   0  0  0  0  0  0  0  0  0  0  0  0
  130.9944  130.0930  156.5545 H   0  0  0  0  0  0  0  0  0  0  0  0
  1  2  1  0
  1 35  1  0
  1 36  1  0
  1 37  1  0
  2  3  1  1
  2  4  1  0
  2 20  1  0
  4  5  1  0
  4 38  1  0
  4 39  1  0
  5 19  1  0
  5  6  2  0
  6  7  1  0
  6 40  1  0
  7  8  2  0
  7 41  1  0
  8  9  1  0
  8 18  1  0
  9 14  1  0
  9 10  2  0
 10 11  1  0
 10 42  1  0
 11 12  2  0
 11 43  1  0
 12 13  1  0
 12 44  1  0
 13 14  2  0
 13 45  1  0
 14 15  1  0
 15 16  2  0
 15 46  1  0
 16 17  1  0
 17 47  1  0
 18 19  2  0
 18 48  1  0
 19 49  1  0
 20 50  1  0
 21 20  1  0
 21 33  2  0
 21 22  1  0
 22 23  1  0
 22 24  1  0
 24 25  2  0
 24 51  1  0
 25 26  1  0
 25 33  1  0
 26 32  1  0
 26 27  2  0
 27 28  1  0
 27 52  1  0
 28 29  2  0
 28 53  1  0
 29 30  1  0
 29 31  1  0
 30 54  1  0
 30 55  1  0
 31 32  2  0
 31 56  1  0
 32 57  1  0
 33 34  1  0
M  CHG  1  33   1
M  END
>  <DOCK_score>  (1) 
-58.895023

>  <SMILES>  (1) 
C[C@H](Cc1ccc(-c2ccccc2C=NO)cc1)Nc1[nH]cc(-c2ccc(N)cc2)[nH+]1

$$$$
