CCOC(=O)c1[nH]c(CNc2[nH]cc(-c3ccc(-c4ccccc4)cc3)[nH+]2)cc1C
     RDKit          3D

 55 58  0  0  1  0  0  0  0  0999 V2000
  137.7463  140.4160  161.3446 C   0  0  0  0  0  0  0  0  0  0  0  0
  136.6227  140.4846  162.3808 C   0  0  0  0  0  0  0  0  0  0  0  0
  135.4854  139.7123  161.9134 O   0  0  0  0  0  0  0  0  0  0  0  0
  134.4024  139.6698  162.7165 C   0  0  0  0  0  0  0  0  0  0  0  0
  134.4093  140.2624  163.7785 O   0  0  0  0  0  0  0  0  0  0  0  0
  133.2182  138.9097  162.3093 C   0  0  0  0  0  0  0  0  0  0  0  0
  133.1679  137.5592  162.0460 N   0  0  0  0  0  0  0  0  0  0  0  0
  133.9166  136.9448  162.0988 H   0  0  0  0  0  0  0  0  0  0  0  0
  131.9048  137.2316  161.7014 C   0  0  0  0  0  0  0  0  0  0  0  0
  131.4277  135.8495  161.3359 C   0  0  0  0  0  0  0  0  0  0  0  0
  131.5706  135.6498  159.8916 N   0  0  0  0  0  0  0  0  0  0  0  0
  131.1942  134.4471  159.3186 C   0  0  0  0  0  0  0  0  0  0  0  0
  130.6796  133.3781  159.9855 N   0  0  0  0  0  0  0  0  0  0  0  0
  130.5131  133.3220  160.9395 H   0  0  0  0  0  0  0  0  0  0  0  0
  130.4358  132.3948  159.0581 C   0  0  0  0  0  0  0  0  0  0  0  0
  130.8155  132.8880  157.8526 C   0  0  0  0  0  0  0  0  0  0  0  0
  130.7375  132.1759  156.5547 C   0  0  0  0  0  0  0  0  0  0  0  0
  129.9692  132.7014  155.5157 C   0  0  0  0  0  0  0  0  0  0  0  0
  129.8970  132.0397  154.3099 C   0  0  0  0  0  0  0  0  0  0  0  0
  130.5921  130.8443  154.1277 C   0  0  0  0  0  0  0  0  0  0  0  0
  130.5147  130.1319  152.8293 C   0  0  0  0  0  0  0  0  0  0  0  0
  130.6375  128.7446  152.7838 C   0  0  0  0  0  0  0  0  0  0  0  0
  130.5593  128.0868  151.5730 C   0  0  0  0  0  0  0  0  0  0  0  0
  130.3697  128.8030  150.4048 C   0  0  0  0  0  0  0  0  0  0  0  0
  130.2529  130.1808  150.4431 C   0  0  0  0  0  0  0  0  0  0  0  0
  130.3242  130.8487  151.6485 C   0  0  0  0  0  0  0  0  0  0  0  0
  131.3605  130.3191  155.1660 C   0  0  0  0  0  0  0  0  0  0  0  0
  131.4327  130.9804  156.3721 C   0  0  0  0  0  0  0  0  0  0  0  0
  131.2738  134.1507  158.0445 N   0  0  0  0  0  0  0  0  0  0  0  0
  131.6073  134.7397  157.3496 H   0  0  0  0  0  0  0  0  0  0  0  0
  131.1363  138.3470  161.7315 C   0  0  0  0  0  0  0  0  0  0  0  0
  131.9487  139.4165  162.1191 C   0  0  0  0  0  0  0  0  0  0  0  0
  131.5211  140.8514  162.2904 C   0  0  0  0  0  0  0  0  0  0  0  0
  138.6000  140.9958  161.6954 H   0  0  0  0  0  0  0  0  0  0  0  0
  138.0461  139.3778  161.2020 H   0  0  0  0  0  0  0  0  0  0  0  0
  137.3932  140.8256  160.3981 H   0  0  0  0  0  0  0  0  0  0  0  0
  136.3229  141.5229  162.5234 H   0  0  0  0  0  0  0  0  0  0  0  0
  136.9758  140.0751  163.3272 H   0  0  0  0  0  0  0  0  0  0  0  0
  130.3800  135.7410  161.6159 H   0  0  0  0  0  0  0  0  0  0  0  0
  132.0244  135.1071  161.8660 H   0  0  0  0  0  0  0  0  0  0  0  0
  131.9287  136.3603  159.3368 H   0  0  0  0  0  0  0  0  0  0  0  0
  130.0225  131.4160  159.2516 H   0  0  0  0  0  0  0  0  0  0  0  0
  129.4349  133.6295  155.6553 H   0  0  0  0  0  0  0  0  0  0  0  0
  129.3022  132.4466  153.5054 H   0  0  0  0  0  0  0  0  0  0  0  0
  130.7895  128.1849  153.6948 H   0  0  0  0  0  0  0  0  0  0  0  0
  130.6503  127.0113  151.5372 H   0  0  0  0  0  0  0  0  0  0  0  0
  130.3133  128.2844  149.4591 H   0  0  0  0  0  0  0  0  0  0  0  0
  130.1057  130.7349  149.5277 H   0  0  0  0  0  0  0  0  0  0  0  0
  130.2330  131.9245  151.6772 H   0  0  0  0  0  0  0  0  0  0  0  0
  131.8988  129.3936  155.0247 H   0  0  0  0  0  0  0  0  0  0  0  0
  132.0276  130.5734  157.1765 H   0  0  0  0  0  0  0  0  0  0  0  0
  130.0830  138.4000  161.4993 H   0  0  0  0  0  0  0  0  0  0  0  0
  131.6392  141.3811  161.3452 H   0  0  0  0  0  0  0  0  0  0  0  0
  130.4757  140.8847  162.5974 H   0  0  0  0  0  0  0  0  0  0  0  0
  132.1389  141.3261  163.0526 H   0  0  0  0  0  0  0  0  0  0  0  0
  1  2  1  0
  1 34  1  0
  1 35  1  0
  1 36  1  0
  2  3  1  0
  2 37  1  0
  2 38  1  0
  3  4  1  0
  4  5  2  0
  4  6  1  0
  6 32  2  0
  6  7  1  0
  7  8  1  0
  7  9  1  0
  9 10  1  0
  9 31  2  0
 10 11  1  0
 10 39  1  0
 10 40  1  0
 11 41  1  0
 12 11  1  0
 12 29  2  0
 12 13  1  0
 13 14  1  0
 13 15  1  0
 15 16  2  0
 15 42  1  0
 16 17  1  0
 16 29  1  0
 17 28  1  0
 17 18  2  0
 18 19  1  0
 18 43  1  0
 19 20  2  0
 19 44  1  0
 20 21  1  0
 20 27  1  0
 21 26  1  0
 21 22  2  0
 22 23  1  0
 22 45  1  0
 23 24  2  0
 23 46  1  0
 24 25  1  0
 24 47  1  0
 25 26  2  0
 25 48  1  0
 26 49  1  0
 27 28  2  0
 27 50  1  0
 28 51  1  0
 29 30  1  0
 31 32  1  0
 31 52  1  0
 32 33  1  0
 33 53  1  0
 33 54  1  0
 33 55  1  0
M  CHG  1  29   1
M  END
>  <DOCK_score>  (1) 
-59.941261

>  <SMILES>  (1) 
CCOC(=O)c1[nH]c(CNc2[nH]cc(-c3ccc(-c4ccccc4)cc3)[nH+]2)cc1C

$$$$
