Cc1cccc(N2CC[NH+]([C@@H](c3ccccc3)c3cccc(Nc4cccc(O)c4)c3)CC2)c1C
     RDKit          3D

 69 73  0  0  1  0  0  0  0  0999 V2000
  135.7763  138.1635  164.1286 C   0  0  0  0  0  0  0  0  0  0  0  0
  135.2149  137.9566  162.7454 C   0  0  0  0  0  0  0  0  0  0  0  0
  135.7350  138.6631  161.6760 C   0  0  0  0  0  0  0  0  0  0  0  0
  135.2226  138.4767  160.4055 C   0  0  0  0  0  0  0  0  0  0  0  0
  134.1892  137.5834  160.2001 C   0  0  0  0  0  0  0  0  0  0  0  0
  133.6647  136.8725  161.2717 C   0  0  0  0  0  0  0  0  0  0  0  0
  132.6193  135.9688  161.0676 N   0  0  0  0  0  0  0  0  0  0  0  0
  131.4111  136.6590  160.5942 C   0  0  0  0  0  0  0  0  0  0  0  0
  130.2753  135.6452  160.4405 C   0  0  0  0  0  0  0  0  0  0  0  0
  130.6732  134.6055  159.4822 N   0  0  0  0  0  0  0  0  0  0  0  0
  130.8802  135.0312  158.5911 H   0  0  0  0  0  0  0  0  0  0  0  0
  129.5756  133.6425  159.3213 C   0  0  1  0  0  0  0  0  0  0  0  0
  129.3513  133.1830  160.2839 H   0  0  0  0  0  0  0  0  0  0  0  0
  128.3518  134.3568  158.8083 C   0  0  0  0  0  0  0  0  0  0  0  0
  127.0918  133.8914  159.1355 C   0  0  0  0  0  0  0  0  0  0  0  0
  125.9693  134.5424  158.6591 C   0  0  0  0  0  0  0  0  0  0  0  0
  126.1066  135.6599  157.8571 C   0  0  0  0  0  0  0  0  0  0  0  0
  127.3665  136.1258  157.5306 C   0  0  0  0  0  0  0  0  0  0  0  0
  128.4890  135.4741  158.0059 C   0  0  0  0  0  0  0  0  0  0  0  0
  129.9835  132.5756  158.3383 C   0  0  0  0  0  0  0  0  0  0  0  0
  130.0236  131.2509  158.7337 C   0  0  0  0  0  0  0  0  0  0  0  0
  130.3973  130.2687  157.8349 C   0  0  0  0  0  0  0  0  0  0  0  0
  130.7318  130.6078  156.5386 C   0  0  0  0  0  0  0  0  0  0  0  0
  130.6926  131.9373  156.1381 C   0  0  0  0  0  0  0  0  0  0  0  0
  131.0304  132.2840  154.8274 N   0  0  0  0  0  0  0  0  0  0  0  0
  130.8024  131.3817  153.7854 C   0  0  0  0  0  0  0  0  0  0  0  0
  129.5136  130.9322  153.5233 C   0  0  0  0  0  0  0  0  0  0  0  0
  129.2880  130.0442  152.4900 C   0  0  0  0  0  0  0  0  0  0  0  0
  130.3437  129.5915  151.7212 C   0  0  0  0  0  0  0  0  0  0  0  0
  131.6335  130.0327  151.9814 C   0  0  0  0  0  0  0  0  0  0  0  0
  132.6703  129.5866  151.2245 O   0  0  0  0  0  0  0  0  0  0  0  0
  131.8637  130.9284  153.0139 C   0  0  0  0  0  0  0  0  0  0  0  0
  130.3112  132.9211  157.0421 C   0  0  0  0  0  0  0  0  0  0  0  0
  131.8663  133.9088  159.9809 C   0  0  0  0  0  0  0  0  0  0  0  0
  133.0155  134.9081  160.1304 C   0  0  0  0  0  0  0  0  0  0  0  0
  134.1780  137.0665  162.5479 C   0  0  0  0  0  0  0  0  0  0  0  0
  133.6078  136.3017  163.7147 C   0  0  0  0  0  0  0  0  0  0  0  0
  135.2298  138.9644  164.6265 H   0  0  0  0  0  0  0  0  0  0  0  0
  135.6752  137.2428  164.7032 H   0  0  0  0  0  0  0  0  0  0  0  0
  136.8301  138.4329  164.0564 H   0  0  0  0  0  0  0  0  0  0  0  0
  136.5430  139.3620  161.8338 H   0  0  0  0  0  0  0  0  0  0  0  0
  135.6310  139.0299  159.5726 H   0  0  0  0  0  0  0  0  0  0  0  0
  133.7894  137.4383  159.2073 H   0  0  0  0  0  0  0  0  0  0  0  0
  131.6137  137.1273  159.6309 H   0  0  0  0  0  0  0  0  0  0  0  0
  131.1220  137.4226  161.3164 H   0  0  0  0  0  0  0  0  0  0  0  0
  129.3822  136.1528  160.0758 H   0  0  0  0  0  0  0  0  0  0  0  0
  130.0639  135.1872  161.4066 H   0  0  0  0  0  0  0  0  0  0  0  0
  126.9846  133.0185  159.7622 H   0  0  0  0  0  0  0  0  0  0  0  0
  124.9851  134.1788  158.9147 H   0  0  0  0  0  0  0  0  0  0  0  0
  125.2296  136.1692  157.4859 H   0  0  0  0  0  0  0  0  0  0  0  0
  127.4737  136.9990  156.9042 H   0  0  0  0  0  0  0  0  0  0  0  0
  129.4734  135.8379  157.7507 H   0  0  0  0  0  0  0  0  0  0  0  0
  129.7622  130.9828  159.7468 H   0  0  0  0  0  0  0  0  0  0  0  0
  130.4273  129.2352  158.1470 H   0  0  0  0  0  0  0  0  0  0  0  0
  131.0233  129.8403  155.8370 H   0  0  0  0  0  0  0  0  0  0  0  0
  131.4232  133.1511  154.6409 H   0  0  0  0  0  0  0  0  0  0  0  0
  128.6877  131.2807  154.1257 H   0  0  0  0  0  0  0  0  0  0  0  0
  128.2853  129.6991  152.2851 H   0  0  0  0  0  0  0  0  0  0  0  0
  130.1645  128.8937  150.9166 H   0  0  0  0  0  0  0  0  0  0  0  0
  132.4114  128.9656  150.5299 H   0  0  0  0  0  0  0  0  0  0  0  0
  132.8668  131.2730  153.2177 H   0  0  0  0  0  0  0  0  0  0  0  0
  130.2750  133.9552  156.7327 H   0  0  0  0  0  0  0  0  0  0  0  0
  131.6466  133.4598  160.9495 H   0  0  0  0  0  0  0  0  0  0  0  0
  132.1528  133.1288  159.2755 H   0  0  0  0  0  0  0  0  0  0  0  0
  133.2443  135.3475  159.1595 H   0  0  0  0  0  0  0  0  0  0  0  0
  133.8967  134.3942  160.5143 H   0  0  0  0  0  0  0  0  0  0  0  0
  134.1520  135.3651  163.8361 H   0  0  0  0  0  0  0  0  0  0  0  0
  133.7043  136.8982  164.6219 H   0  0  0  0  0  0  0  0  0  0  0  0
  132.5550  136.0890  163.5298 H   0  0  0  0  0  0  0  0  0  0  0  0
  1  2  1  0
  1 38  1  0
  1 39  1  0
  1 40  1  0
  2 36  2  0
  2  3  1  0
  3  4  2  0
  3 41  1  0
  4  5  1  0
  4 42  1  0
  5  6  2  0
  5 43  1  0
  6  7  1  0
  6 36  1  0
  7 35  1  0
  7  8  1  0
  8  9  1  0
  8 44  1  0
  8 45  1  0
  9 10  1  0
  9 46  1  0
  9 47  1  0
 10 11  1  0
 10 12  1  0
 10 34  1  0
 12 13  1  1
 12 14  1  0
 12 20  1  0
 14 19  1  0
 14 15  2  0
 15 16  1  0
 15 48  1  0
 16 17  2  0
 16 49  1  0
 17 18  1  0
 17 50  1  0
 18 19  2  0
 18 51  1  0
 19 52  1  0
 20 33  1  0
 20 21  2  0
 21 22  1  0
 21 53  1  0
 22 23  2  0
 22 54  1  0
 23 24  1  0
 23 55  1  0
 24 25  1  0
 24 33  2  0
 25 26  1  0
 25 56  1  0
 26 32  1  0
 26 27  2  0
 27 28  1  0
 27 57  1  0
 28 29  2  0
 28 58  1  0
 29 30  1  0
 29 59  1  0
 30 31  1  0
 30 32  2  0
 31 60  1  0
 32 61  1  0
 33 62  1  0
 34 35  1  0
 34 63  1  0
 34 64  1  0
 35 65  1  0
 35 66  1  0
 36 37  1  0
 37 67  1  0
 37 68  1  0
 37 69  1  0
M  CHG  1  10   1
M  END
>  <DOCK_score>  (1) 
-58.841927

>  <SMILES>  (1) 
Cc1cccc(N2CC[NH+]([C@@H](c3ccccc3)c3cccc(Nc4cccc(O)c4)c3)CC2)c1C

$$$$
