O=C1CCC(NC(N[C@H]2C=CCC2)=[NH+]C2CC(F)(CF)C2)CN1
     RDKit          3D

 48 50  0  0  1  0  0  0  0  0999 V2000
  123.8534  133.6638  161.8519 O   0  0  0  0  0  0  0  0  0  0  0  0
  124.9992  133.9669  161.5949 C   0  0  0  0  0  0  0  0  0  0  0  0
  125.9695  132.8677  161.2699 C   0  0  0  0  0  0  0  0  0  0  0  0
  127.4046  133.3819  161.4084 C   0  0  0  0  0  0  0  0  0  0  0  0
  127.5188  134.7101  160.6505 C   0  0  2  0  0  0  0  0  0  0  0  0
  128.9193  135.1388  160.6182 N   0  0  0  0  0  0  0  0  0  0  0  0
  129.7351  134.7448  159.5841 C   0  0  0  0  0  0  0  0  0  0  0  0
  129.2366  133.9485  158.5803 N   0  0  0  0  0  0  0  0  0  0  0  0
  130.1060  133.5288  157.4783 C   0  0  1  0  0  0  0  0  0  0  0  0
  130.4885  134.3989  156.9448 H   0  0  0  0  0  0  0  0  0  0  0  0
  131.2475  132.6873  157.9998 C   0  0  0  0  0  0  0  0  0  0  0  0
  131.4308  131.6313  157.2515 C   0  0  0  0  0  0  0  0  0  0  0  0
  130.4452  131.5970  156.1067 C   0  0  0  0  0  0  0  0  0  0  0  0
  129.3383  132.5981  156.5110 C   0  0  0  0  0  0  0  0  0  0  0  0
  130.9811  135.1261  159.5555 N   0  0  0  0  0  0  0  0  0  0  0  0
  131.5567  134.8481  158.8258 H   0  0  0  0  0  0  0  0  0  0  0  0
  131.5123  135.9746  160.6252 C   0  0  2  0  0  0  0  0  0  0  0  0
  131.2038  137.4693  160.4364 C   0  0  0  0  0  0  0  0  0  0  0  0
  132.6317  137.7453  160.9413 C   0  0  2  0  0  0  0  0  0  0  0  0
  132.7151  137.8894  162.3303 F   0  0  0  0  0  0  0  0  0  0  0  0
  133.3471  138.8658  160.1839 C   0  0  0  0  0  0  0  0  0  0  0  0
  134.7283  138.7490  160.3737 F   0  0  0  0  0  0  0  0  0  0  0  0
  132.9961  136.3362  160.4453 C   0  0  0  0  0  0  0  0  0  0  0  0
  126.6763  135.7632  161.3713 C   0  0  0  0  0  0  0  0  0  0  0  0
  125.3303  135.2586  161.6164 N   0  0  0  0  0  0  0  0  0  0  0  0
  125.8034  132.5287  160.2475 H   0  0  0  0  0  0  0  0  0  0  0  0
  125.8156  132.0346  161.9558 H   0  0  0  0  0  0  0  0  0  0  0  0
  128.0972  132.6558  160.9828 H   0  0  0  0  0  0  0  0  0  0  0  0
  127.6381  133.5391  162.4614 H   0  0  0  0  0  0  0  0  0  0  0  0
  127.1517  134.5826  159.6320 H   0  0  0  0  0  0  0  0  0  0  0  0
  129.2720  135.6973  161.3285 H   0  0  0  0  0  0  0  0  0  0  0  0
  128.3092  133.6648  158.6016 H   0  0  0  0  0  0  0  0  0  0  0  0
  131.8327  132.9267  158.8754 H   0  0  0  0  0  0  0  0  0  0  0  0
  132.1892  130.8826  157.4273 H   0  0  0  0  0  0  0  0  0  0  0  0
  130.0289  130.5958  155.9939 H   0  0  0  0  0  0  0  0  0  0  0  0
  130.9261  131.9156  155.1819 H   0  0  0  0  0  0  0  0  0  0  0  0
  128.5199  132.0912  157.0226 H   0  0  0  0  0  0  0  0  0  0  0  0
  128.9732  133.1497  155.6446 H   0  0  0  0  0  0  0  0  0  0  0  0
  131.2714  135.6013  161.6205 H   0  0  0  0  0  0  0  0  0  0  0  0
  131.0457  137.7545  159.3963 H   0  0  0  0  0  0  0  0  0  0  0  0
  130.4249  137.8417  161.1016 H   0  0  0  0  0  0  0  0  0  0  0  0
  133.1187  138.7893  159.1209 H   0  0  0  0  0  0  0  0  0  0  0  0
  133.0092  139.8317  160.5596 H   0  0  0  0  0  0  0  0  0  0  0  0
  133.6620  135.7951  161.1175 H   0  0  0  0  0  0  0  0  0  0  0  0
  133.3289  136.3110  159.4076 H   0  0  0  0  0  0  0  0  0  0  0  0
  127.1454  136.0094  162.3239 H   0  0  0  0  0  0  0  0  0  0  0  0
  126.6209  136.6621  160.7575 H   0  0  0  0  0  0  0  0  0  0  0  0
  124.6312  135.9040  161.8046 H   0  0  0  0  0  0  0  0  0  0  0  0
  1  2  2  0
  2 25  1  0
  2  3  1  0
  3  4  1  0
  3 26  1  0
  3 27  1  0
  4  5  1  0
  4 28  1  0
  4 29  1  0
  5  6  1  0
  5 24  1  0
  5 30  1  6
  6 31  1  0
  7  6  1  0
  7  8  1  0
  7 15  2  0
  8  9  1  0
  8 32  1  0
  9 10  1  6
  9 14  1  0
  9 11  1  0
 11 12  2  0
 11 33  1  0
 12 13  1  0
 12 34  1  0
 13 14  1  0
 13 35  1  0
 13 36  1  0
 14 37  1  0
 14 38  1  0
 15 16  1  0
 15 17  1  0
 17 23  1  0
 17 18  1  0
 17 39  1  1
 18 19  1  0
 18 40  1  0
 18 41  1  0
 19 20  1  1
 19 21  1  0
 19 23  1  0
 21 22  1  0
 21 42  1  0
 21 43  1  0
 23 44  1  0
 23 45  1  0
 24 25  1  0
 24 46  1  0
 24 47  1  0
 25 48  1  0
M  CHG  1  15   1
M  END
>  <DOCK_score>  (1) 
-44.617096

>  <SMILES>  (1) 
O=C1CCC(NC(N[C@H]2C=CCC2)=[NH+]C2CC(F)(CF)C2)CN1

$$$$
