Fc1cccc(N2CC[NH+](C(c3ccccc3)c3ccccc3)CC2)c1CC1CCC=CCC1
     RDKit          3D

 70 74  0  0  1  0  0  0  0  0999 V2000
  135.9970  140.8997  162.7585 F   0  0  0  0  0  0  0  0  0  0  0  0
  135.4167  140.3728  161.6581 C   0  0  0  0  0  0  0  0  0  0  0  0
  135.7249  140.8757  160.4046 C   0  0  0  0  0  0  0  0  0  0  0  0
  135.1327  140.3389  159.2769 C   0  0  0  0  0  0  0  0  0  0  0  0
  134.2307  139.2995  159.3962 C   0  0  0  0  0  0  0  0  0  0  0  0
  133.9233  138.7879  160.6506 C   0  0  0  0  0  0  0  0  0  0  0  0
  133.0164  137.7328  160.7728 N   0  0  0  0  0  0  0  0  0  0  0  0
  133.5250  136.5220  160.1133 C   0  0  0  0  0  0  0  0  0  0  0  0
  132.5320  135.3763  160.3208 C   0  0  0  0  0  0  0  0  0  0  0  0
  131.2279  135.7503  159.7578 N   0  0  0  0  0  0  0  0  0  0  0  0
  131.3304  135.9452  158.7730 H   0  0  0  0  0  0  0  0  0  0  0  0
  130.2800  134.6431  159.9412 C   0  0  0  0  0  0  0  0  0  0  0  0
  128.9418  135.0267  159.3635 C   0  0  0  0  0  0  0  0  0  0  0  0
  127.7812  134.5034  159.9018 C   0  0  0  0  0  0  0  0  0  0  0  0
  126.5535  134.8590  159.3750 C   0  0  0  0  0  0  0  0  0  0  0  0
  126.4869  135.7294  158.3041 C   0  0  0  0  0  0  0  0  0  0  0  0
  127.6482  136.2486  157.7617 C   0  0  0  0  0  0  0  0  0  0  0  0
  128.8757  135.8971  158.2918 C   0  0  0  0  0  0  0  0  0  0  0  0
  130.7983  133.4161  159.2363 C   0  0  0  0  0  0  0  0  0  0  0  0
  130.4547  133.1792  157.9185 C   0  0  0  0  0  0  0  0  0  0  0  0
  130.9341  132.0561  157.2705 C   0  0  0  0  0  0  0  0  0  0  0  0
  131.7486  131.1646  157.9436 C   0  0  0  0  0  0  0  0  0  0  0  0
  132.0877  131.3989  159.2631 C   0  0  0  0  0  0  0  0  0  0  0  0
  131.6126  132.5247  159.9095 C   0  0  0  0  0  0  0  0  0  0  0  0
  130.7216  136.9467  160.4432 C   0  0  0  0  0  0  0  0  0  0  0  0
  131.6996  138.1054  160.2366 C   0  0  0  0  0  0  0  0  0  0  0  0
  134.5148  139.3318  161.7835 C   0  0  0  0  0  0  0  0  0  0  0  0
  134.1790  138.7843  163.1467 C   0  0  0  0  0  0  0  0  0  0  0  0
  135.1452  137.6497  163.4928 C   0  0  0  0  0  0  0  0  0  0  0  0
  136.4673  138.2568  163.9273 C   0  0  0  0  0  0  0  0  0  0  0  0
  137.5302  137.1699  164.1071 C   0  0  0  0  0  0  0  0  0  0  0  0
  137.4116  136.6056  165.5067 C   0  0  0  0  0  0  0  0  0  0  0  0
  136.4101  135.8479  165.8242 C   0  0  0  0  0  0  0  0  0  0  0  0
  135.3455  135.5176  164.8000 C   0  0  0  0  0  0  0  0  0  0  0  0
  134.5023  136.7701  164.5506 C   0  0  0  0  0  0  0  0  0  0  0  0
  136.4292  141.6888  160.3083 H   0  0  0  0  0  0  0  0  0  0  0  0
  135.3749  140.7332  158.3009 H   0  0  0  0  0  0  0  0  0  0  0  0
  133.7684  138.8814  158.5142 H   0  0  0  0  0  0  0  0  0  0  0  0
  133.6437  136.7115  159.0464 H   0  0  0  0  0  0  0  0  0  0  0  0
  134.4887  136.2506  160.5442 H   0  0  0  0  0  0  0  0  0  0  0  0
  132.4239  135.1780  161.3872 H   0  0  0  0  0  0  0  0  0  0  0  0
  132.9006  134.4809  159.8202 H   0  0  0  0  0  0  0  0  0  0  0  0
  130.1695  134.4319  161.0047 H   0  0  0  0  0  0  0  0  0  0  0  0
  127.8332  133.8198  160.7363 H   0  0  0  0  0  0  0  0  0  0  0  0
  125.6465  134.4531  159.7979 H   0  0  0  0  0  0  0  0  0  0  0  0
  125.5283  136.0038  157.8889 H   0  0  0  0  0  0  0  0  0  0  0  0
  127.5966  136.9285  156.9242 H   0  0  0  0  0  0  0  0  0  0  0  0
  129.7828  136.3025  157.8684 H   0  0  0  0  0  0  0  0  0  0  0  0
  129.8149  133.8732  157.3940 H   0  0  0  0  0  0  0  0  0  0  0  0
  130.6688  131.8728  156.2398 H   0  0  0  0  0  0  0  0  0  0  0  0
  132.1194  130.2849  157.4387 H   0  0  0  0  0  0  0  0  0  0  0  0
  132.7237  130.7022  159.7890 H   0  0  0  0  0  0  0  0  0  0  0  0
  131.8774  132.7075  160.9404 H   0  0  0  0  0  0  0  0  0  0  0  0
  130.6228  136.7402  161.5089 H   0  0  0  0  0  0  0  0  0  0  0  0
  129.7481  137.2155  160.0334 H   0  0  0  0  0  0  0  0  0  0  0  0
  131.3315  138.9892  160.7577 H   0  0  0  0  0  0  0  0  0  0  0  0
  131.7882  138.3211  159.1719 H   0  0  0  0  0  0  0  0  0  0  0  0
  133.1576  138.4037  163.1439 H   0  0  0  0  0  0  0  0  0  0  0  0
  134.2691  139.5773  163.8890 H   0  0  0  0  0  0  0  0  0  0  0  0
  135.3138  137.0513  162.5974 H   0  0  0  0  0  0  0  0  0  0  0  0
  136.8032  138.9652  163.1699 H   0  0  0  0  0  0  0  0  0  0  0  0
  136.3278  138.7822  164.8721 H   0  0  0  0  0  0  0  0  0  0  0  0
  138.5218  137.6011  163.9693 H   0  0  0  0  0  0  0  0  0  0  0  0
  137.3690  136.3762  163.3776 H   0  0  0  0  0  0  0  0  0  0  0  0
  138.1661  136.8355  166.2442 H   0  0  0  0  0  0  0  0  0  0  0  0
  136.3341  135.4500  166.8254 H   0  0  0  0  0  0  0  0  0  0  0  0
  134.7093  134.7176  165.1785 H   0  0  0  0  0  0  0  0  0  0  0  0
  135.8181  135.2034  163.8695 H   0  0  0  0  0  0  0  0  0  0  0  0
  134.4128  137.3332  165.4795 H   0  0  0  0  0  0  0  0  0  0  0  0
  133.5089  136.4728  164.2148 H   0  0  0  0  0  0  0  0  0  0  0  0
  1  2  1  0
  2 27  2  0
  2  3  1  0
  3  4  2  0
  3 36  1  0
  4  5  1  0
  4 37  1  0
  5  6  2  0
  5 38  1  0
  6  7  1  0
  6 27  1  0
  7 26  1  0
  7  8  1  0
  8  9  1  0
  8 39  1  0
  8 40  1  0
  9 10  1  0
  9 41  1  0
  9 42  1  0
 10 11  1  0
 10 12  1  0
 10 25  1  0
 12 13  1  0
 12 19  1  0
 12 43  1  0
 13 18  1  0
 13 14  2  0
 14 15  1  0
 14 44  1  0
 15 16  2  0
 15 45  1  0
 16 17  1  0
 16 46  1  0
 17 18  2  0
 17 47  1  0
 18 48  1  0
 19 24  1  0
 19 20  2  0
 20 21  1  0
 20 49  1  0
 21 22  2  0
 21 50  1  0
 22 23  1  0
 22 51  1  0
 23 24  2  0
 23 52  1  0
 24 53  1  0
 25 26  1  0
 25 54  1  0
 25 55  1  0
 26 56  1  0
 26 57  1  0
 27 28  1  0
 28 29  1  0
 28 58  1  0
 28 59  1  0
 29 35  1  0
 29 30  1  0
 29 60  1  0
 30 31  1  0
 30 61  1  0
 30 62  1  0
 31 32  1  0
 31 63  1  0
 31 64  1  0
 32 33  2  0
 32 65  1  0
 33 34  1  0
 33 66  1  0
 34 35  1  0
 34 67  1  0
 34 68  1  0
 35 69  1  0
 35 70  1  0
M  CHG  1  10   1
M  END
>  <DOCK_score>  (1) 
-57.291042

>  <SMILES>  (1) 
Fc1cccc(N2CC[NH+](C(c3ccccc3)c3ccccc3)CC2)c1CC1CCC=CCC1

$$$$
