O=C1CC[C@H](Nc2ccncc2C[N@H+]2CCC=C(c3c(Cl)ccc4cc[nH]c34)CC2)CN1
     RDKit          3D

 61 65  0  0  1  0  0  0  0  0999 V2000
  123.4760  133.6382  161.1056 O   0  0  0  0  0  0  0  0  0  0  0  0
  124.6267  133.9675  160.9096 C   0  0  0  0  0  0  0  0  0  0  0  0
  125.5742  132.9435  160.3541 C   0  0  0  0  0  0  0  0  0  0  0  0
  127.0196  133.3914  160.5859 C   0  0  0  0  0  0  0  0  0  0  0  0
  127.1560  134.8466  160.1216 C   0  0  2  0  0  0  0  0  0  0  0  0
  126.7817  134.9445  159.1027 H   0  0  0  0  0  0  0  0  0  0  0  0
  128.5644  135.2474  160.1685 N   0  0  0  0  0  0  0  0  0  0  0  0
  129.5080  134.5639  159.4077 C   0  0  0  0  0  0  0  0  0  0  0  0
  129.1566  133.9725  158.1940 C   0  0  0  0  0  0  0  0  0  0  0  0
  130.1202  133.3001  157.4727 C   0  0  0  0  0  0  0  0  0  0  0  0
  131.3610  133.2157  157.9153 N   0  0  0  0  0  0  0  0  0  0  0  0
  131.7337  133.7649  159.0560 C   0  0  0  0  0  0  0  0  0  0  0  0
  130.8307  134.4558  159.8365 C   0  0  0  0  0  0  0  0  0  0  0  0
  131.2655  135.0796  161.1376 C   0  0  0  0  0  0  0  0  0  0  0  0
  131.7189  136.4554  160.8935 N   0  0  1  0  0  0  0  0  0  0  0  0
  131.0993  136.8784  160.2189 H   0  0  0  0  0  0  0  0  0  0  0  0
  131.6145  137.2003  162.1378 C   0  0  0  0  0  0  0  0  0  0  0  0
  131.8228  138.6980  161.8984 C   0  0  0  0  0  0  0  0  0  0  0  0
  133.3105  138.9852  161.9320 C   0  0  0  0  0  0  0  0  0  0  0  0
  134.0826  138.5579  160.9576 C   0  0  0  0  0  0  0  0  0  0  0  0
  135.5335  138.8304  160.9901 C   0  0  0  0  0  0  0  0  0  0  0  0
  136.1307  139.5671  159.9704 C   0  0  0  0  0  0  0  0  0  0  0  0
  135.1635  140.1643  158.6584 Cl  0  0  0  0  0  0  0  0  0  0  0  0
  137.4920  139.8272  159.9955 C   0  0  0  0  0  0  0  0  0  0  0  0
  138.2746  139.3615  161.0291 C   0  0  0  0  0  0  0  0  0  0  0  0
  137.6969  138.6200  162.0627 C   0  0  0  0  0  0  0  0  0  0  0  0
  138.2209  137.9914  163.2783 C   0  0  0  0  0  0  0  0  0  0  0  0
  137.1820  137.4073  163.8958 C   0  0  0  0  0  0  0  0  0  0  0  0
  136.0371  137.6114  163.1744 N   0  0  0  0  0  0  0  0  0  0  0  0
  135.1577  137.2848  163.4209 H   0  0  0  0  0  0  0  0  0  0  0  0
  136.3174  138.3538  162.0520 C   0  0  0  0  0  0  0  0  0  0  0  0
  133.4823  137.7795  159.8041 C   0  0  0  0  0  0  0  0  0  0  0  0
  133.0543  136.4033  160.3207 C   0  0  0  0  0  0  0  0  0  0  0  0
  126.3376  135.7377  161.0568 C   0  0  0  0  0  0  0  0  0  0  0  0
  124.9826  135.2198  161.1986 N   0  0  0  0  0  0  0  0  0  0  0  0
  125.4070  131.9881  160.8514 H   0  0  0  0  0  0  0  0  0  0  0  0
  125.3987  132.8305  159.2843 H   0  0  0  0  0  0  0  0  0  0  0  0
  127.6963  132.7583  160.0123 H   0  0  0  0  0  0  0  0  0  0  0  0
  127.2604  133.3205  161.6466 H   0  0  0  0  0  0  0  0  0  0  0  0
  128.8391  135.9892  160.7299 H   0  0  0  0  0  0  0  0  0  0  0  0
  128.1433  134.0375  157.8263 H   0  0  0  0  0  0  0  0  0  0  0  0
  129.8564  132.8364  156.5337 H   0  0  0  0  0  0  0  0  0  0  0  0
  132.7591  133.6727  159.3822 H   0  0  0  0  0  0  0  0  0  0  0  0
  132.0827  134.4979  161.5641 H   0  0  0  0  0  0  0  0  0  0  0  0
  130.4264  135.0914  161.8331 H   0  0  0  0  0  0  0  0  0  0  0  0
  130.6262  137.0406  162.5690 H   0  0  0  0  0  0  0  0  0  0  0  0
  132.3716  136.8411  162.8350 H   0  0  0  0  0  0  0  0  0  0  0  0
  131.4176  138.9740  160.9248 H   0  0  0  0  0  0  0  0  0  0  0  0
  131.3211  139.2681  162.6803 H   0  0  0  0  0  0  0  0  0  0  0  0
  133.7356  139.5397  162.7555 H   0  0  0  0  0  0  0  0  0  0  0  0
  137.9427  140.4000  159.1986 H   0  0  0  0  0  0  0  0  0  0  0  0
  139.3343  139.5692  161.0402 H   0  0  0  0  0  0  0  0  0  0  0  0
  139.2475  137.9971  163.6136 H   0  0  0  0  0  0  0  0  0  0  0  0
  137.2407  136.8586  164.8242 H   0  0  0  0  0  0  0  0  0  0  0  0
  132.6145  138.3116  159.4144 H   0  0  0  0  0  0  0  0  0  0  0  0
  134.2253  137.6607  159.0154 H   0  0  0  0  0  0  0  0  0  0  0  0
  133.0623  135.6924  159.4946 H   0  0  0  0  0  0  0  0  0  0  0  0
  133.7587  136.0723  161.0838 H   0  0  0  0  0  0  0  0  0  0  0  0
  126.8160  135.7680  162.0357 H   0  0  0  0  0  0  0  0  0  0  0  0
  126.2934  136.7464  160.6460 H   0  0  0  0  0  0  0  0  0  0  0  0
  124.2967  135.8239  161.5233 H   0  0  0  0  0  0  0  0  0  0  0  0
  1  2  2  0
  2 35  1  0
  2  3  1  0
  3  4  1  0
  3 36  1  0
  3 37  1  0
  4  5  1  0
  4 38  1  0
  4 39  1  0
  5  6  1  6
  5  7  1  0
  5 34  1  0
  7  8  1  0
  7 40  1  0
  8 13  1  0
  8  9  2  0
  9 10  1  0
  9 41  1  0
 10 11  2  0
 10 42  1  0
 11 12  1  0
 12 13  2  0
 12 43  1  0
 13 14  1  0
 14 15  1  0
 14 44  1  0
 14 45  1  0
 15 16  1  6
 15 33  1  0
 15 17  1  0
 17 18  1  0
 17 46  1  0
 17 47  1  0
 18 19  1  0
 18 48  1  0
 18 49  1  0
 19 20  2  0
 19 50  1  0
 20 21  1  0
 20 32  1  0
 21 31  1  0
 21 22  2  0
 22 23  1  0
 22 24  1  0
 24 25  2  0
 24 51  1  0
 25 26  1  0
 25 52  1  0
 26 31  2  0
 26 27  1  0
 27 28  2  0
 27 53  1  0
 28 29  1  0
 28 54  1  0
 29 30  1  0
 29 31  1  0
 32 33  1  0
 32 55  1  0
 32 56  1  0
 33 57  1  0
 33 58  1  0
 34 35  1  0
 34 59  1  0
 34 60  1  0
 35 61  1  0
M  CHG  1  15   1
M  END
>  <DOCK_score>  (1) 
-46.514877

>  <SMILES>  (1) 
O=C1CC[C@H](Nc2ccncc2C[N@H+]2CCC=C(c3c(Cl)ccc4cc[nH]c34)CC2)CN1

$$$$
