CN1CC[NH+]=C1NCc1ccc(Nc2cccc(Oc3ccccc3)c2)cc1
     RDKit          3D

 53 56  0  0  1  0  0  0  0  0999 V2000
  130.5073  130.0677  158.0695 C   0  0  0  0  0  0  0  0  0  0  0  0
  130.6363  130.8104  156.8133 N   0  0  0  0  0  0  0  0  0  0  0  0
  131.2348  130.3004  155.5684 C   0  0  0  0  0  0  0  0  0  0  0  0
  131.1018  131.4910  154.5981 C   0  0  0  0  0  0  0  0  0  0  0  0
  130.4467  132.5328  155.4012 N   0  0  0  0  0  0  0  0  0  0  0  0
  130.2171  133.4191  155.0809 H   0  0  0  0  0  0  0  0  0  0  0  0
  130.2215  132.0958  156.5971 C   0  0  0  0  0  0  0  0  0  0  0  0
  129.6174  132.8582  157.5687 N   0  0  0  0  0  0  0  0  0  0  0  0
  129.1977  134.2294  157.2683 C   0  0  0  0  0  0  0  0  0  0  0  0
  128.5678  134.8416  158.4929 C   0  0  0  0  0  0  0  0  0  0  0  0
  128.9100  136.1256  158.8758 C   0  0  0  0  0  0  0  0  0  0  0  0
  128.3304  136.6918  159.9942 C   0  0  0  0  0  0  0  0  0  0  0  0
  127.4114  135.9657  160.7412 C   0  0  0  0  0  0  0  0  0  0  0  0
  126.8274  136.5328  161.8767 N   0  0  0  0  0  0  0  0  0  0  0  0
  126.9975  135.9311  163.1251 C   0  0  0  0  0  0  0  0  0  0  0  0
  126.0077  136.0460  164.0942 C   0  0  0  0  0  0  0  0  0  0  0  0
  126.1763  135.4501  165.3287 C   0  0  0  0  0  0  0  0  0  0  0  0
  127.3286  134.7384  165.6040 C   0  0  0  0  0  0  0  0  0  0  0  0
  128.3210  134.6208  164.6408 C   0  0  0  0  0  0  0  0  0  0  0  0
  129.4538  133.9217  164.9134 O   0  0  0  0  0  0  0  0  0  0  0  0
  130.3983  133.8328  163.9407 C   0  0  0  0  0  0  0  0  0  0  0  0
  130.3660  132.7829  163.0341 C   0  0  0  0  0  0  0  0  0  0  0  0
  131.3245  132.6978  162.0430 C   0  0  0  0  0  0  0  0  0  0  0  0
  132.3219  133.6519  161.9605 C   0  0  0  0  0  0  0  0  0  0  0  0
  132.3597  134.6961  162.8662 C   0  0  0  0  0  0  0  0  0  0  0  0
  131.4004  134.7889  163.8557 C   0  0  0  0  0  0  0  0  0  0  0  0
  128.1531  135.2123  163.3981 C   0  0  0  0  0  0  0  0  0  0  0  0
  127.0741  134.6740  160.3568 C   0  0  0  0  0  0  0  0  0  0  0  0
  127.6533  134.1161  159.2341 C   0  0  0  0  0  0  0  0  0  0  0  0
  131.3949  130.2311  158.6809 H   0  0  0  0  0  0  0  0  0  0  0  0
  129.6260  130.4155  158.6084 H   0  0  0  0  0  0  0  0  0  0  0  0
  130.4052  129.0042  157.8540 H   0  0  0  0  0  0  0  0  0  0  0  0
  132.2832  130.0449  155.7223 H   0  0  0  0  0  0  0  0  0  0  0  0
  130.6783  129.4391  155.1988 H   0  0  0  0  0  0  0  0  0  0  0  0
  132.0849  131.8257  154.2669 H   0  0  0  0  0  0  0  0  0  0  0  0
  130.4814  131.2203  153.7438 H   0  0  0  0  0  0  0  0  0  0  0  0
  129.4689  132.4883  158.4530 H   0  0  0  0  0  0  0  0  0  0  0  0
  130.0659  134.8186  156.9731 H   0  0  0  0  0  0  0  0  0  0  0  0
  128.4728  134.2174  156.4543 H   0  0  0  0  0  0  0  0  0  0  0  0
  129.6282  136.6877  158.2974 H   0  0  0  0  0  0  0  0  0  0  0  0
  128.5951  137.6961  160.2905 H   0  0  0  0  0  0  0  0  0  0  0  0
  126.3029  137.3459  161.7971 H   0  0  0  0  0  0  0  0  0  0  0  0
  125.1062  136.6012  163.8816 H   0  0  0  0  0  0  0  0  0  0  0  0
  125.4060  135.5400  166.0803 H   0  0  0  0  0  0  0  0  0  0  0  0
  127.4573  134.2732  166.5703 H   0  0  0  0  0  0  0  0  0  0  0  0
  129.5894  132.0352  163.1006 H   0  0  0  0  0  0  0  0  0  0  0  0
  131.2973  131.8831  161.3347 H   0  0  0  0  0  0  0  0  0  0  0  0
  133.0729  133.5811  161.1877 H   0  0  0  0  0  0  0  0  0  0  0  0
  133.1400  135.4399  162.7996 H   0  0  0  0  0  0  0  0  0  0  0  0
  131.4305  135.6046  164.5627 H   0  0  0  0  0  0  0  0  0  0  0  0
  128.9219  135.1177  162.6454 H   0  0  0  0  0  0  0  0  0  0  0  0
  126.3596  134.1069  160.9351 H   0  0  0  0  0  0  0  0  0  0  0  0
  127.3918  133.1118  158.9349 H   0  0  0  0  0  0  0  0  0  0  0  0
  1  2  1  0
  1 30  1  0
  1 31  1  0
  1 32  1  0
  2  7  1  0
  2  3  1  0
  3  4  1  0
  3 33  1  0
  3 34  1  0
  4  5  1  0
  4 35  1  0
  4 36  1  0
  5  6  1  0
  5  7  2  0
  7  8  1  0
  8  9  1  0
  8 37  1  0
  9 10  1  0
  9 38  1  0
  9 39  1  0
 10 29  1  0
 10 11  2  0
 11 12  1  0
 11 40  1  0
 12 13  2  0
 12 41  1  0
 13 14  1  0
 13 28  1  0
 14 15  1  0
 14 42  1  0
 15 27  1  0
 15 16  2  0
 16 17  1  0
 16 43  1  0
 17 18  2  0
 17 44  1  0
 18 19  1  0
 18 45  1  0
 19 20  1  0
 19 27  2  0
 20 21  1  0
 21 26  1  0
 21 22  2  0
 22 23  1  0
 22 46  1  0
 23 24  2  0
 23 47  1  0
 24 25  1  0
 24 48  1  0
 25 26  2  0
 25 49  1  0
 26 50  1  0
 27 51  1  0
 28 29  2  0
 28 52  1  0
 29 53  1  0
M  CHG  1   5   1
M  END
>  <DOCK_score>  (1) 
-44.802246

>  <SMILES>  (1) 
CN1CC[NH+]=C1NCc1ccc(Nc2cccc(Oc3ccccc3)c2)cc1

$$$$
