Cc1c[nH]c(Nc2ccc(Nc3ccc(SCC4=CCCCC4)cc3)cc2)[nH+]1
     RDKit          3D

 55 58  0  0  1  0  0  0  0  0999 V2000
  130.5742  131.6182  154.7601 C   0  0  0  0  0  0  0  0  0  0  0  0
  130.2226  132.3072  156.0534 C   0  0  0  0  0  0  0  0  0  0  0  0
  129.6264  131.7348  157.1134 C   0  0  0  0  0  0  0  0  0  0  0  0
  129.4913  132.7114  158.0736 N   0  0  0  0  0  0  0  0  0  0  0  0
  129.0961  132.6050  158.9530 H   0  0  0  0  0  0  0  0  0  0  0  0
  130.0168  133.8545  157.5554 C   0  0  0  0  0  0  0  0  0  0  0  0
  130.0810  135.0807  158.1975 N   0  0  0  0  0  0  0  0  0  0  0  0
  129.1055  135.4296  159.1396 C   0  0  0  0  0  0  0  0  0  0  0  0
  129.4297  136.2716  160.1955 C   0  0  0  0  0  0  0  0  0  0  0  0
  128.4682  136.6153  161.1247 C   0  0  0  0  0  0  0  0  0  0  0  0
  127.1765  136.1192  161.0033 C   0  0  0  0  0  0  0  0  0  0  0  0
  126.2032  136.4629  161.9484 N   0  0  0  0  0  0  0  0  0  0  0  0
  126.5760  136.7345  163.2701 C   0  0  0  0  0  0  0  0  0  0  0  0
  126.3121  137.9806  163.8240 C   0  0  0  0  0  0  0  0  0  0  0  0
  126.6753  138.2470  165.1291 C   0  0  0  0  0  0  0  0  0  0  0  0
  127.3146  137.2721  165.8848 C   0  0  0  0  0  0  0  0  0  0  0  0
  127.7849  137.6144  167.5480 S   0  0  0  0  0  0  0  0  0  0  0  0
  128.5607  136.0635  168.0803 C   0  0  0  0  0  0  0  0  0  0  0  0
  129.0243  136.1979  169.5079 C   0  0  0  0  0  0  0  0  0  0  0  0
  130.2250  136.6338  169.7176 C   0  0  0  0  0  0  0  0  0  0  0  0
  130.8276  136.8154  171.0799 C   0  0  0  0  0  0  0  0  0  0  0  0
  129.7307  136.8193  172.1467 C   0  0  0  0  0  0  0  0  0  0  0  0
  128.8220  135.6058  171.9129 C   0  0  0  0  0  0  0  0  0  0  0  0
  128.0675  135.8123  170.5978 C   0  0  0  0  0  0  0  0  0  0  0  0
  127.5834  136.0276  165.3289 C   0  0  0  0  0  0  0  0  0  0  0  0
  127.2152  135.7599  164.0257 C   0  0  0  0  0  0  0  0  0  0  0  0
  126.8522  135.2774  159.9470 C   0  0  0  0  0  0  0  0  0  0  0  0
  127.8139  134.9338  159.0180 C   0  0  0  0  0  0  0  0  0  0  0  0
  130.4472  133.6000  156.3423 N   0  0  0  0  0  0  0  0  0  0  0  0
  130.8642  134.2435  155.7481 H   0  0  0  0  0  0  0  0  0  0  0  0
  129.7384  131.7010  154.0654 H   0  0  0  0  0  0  0  0  0  0  0  0
  131.4560  132.0891  154.3255 H   0  0  0  0  0  0  0  0  0  0  0  0
  130.7825  130.5659  154.9541 H   0  0  0  0  0  0  0  0  0  0  0  0
  129.3135  130.7045  157.1959 H   0  0  0  0  0  0  0  0  0  0  0  0
  130.8016  135.6973  157.9944 H   0  0  0  0  0  0  0  0  0  0  0  0
  130.4342  136.6573  160.2899 H   0  0  0  0  0  0  0  0  0  0  0  0
  128.7204  137.2701  161.9457 H   0  0  0  0  0  0  0  0  0  0  0  0
  125.2703  136.5128  161.6876 H   0  0  0  0  0  0  0  0  0  0  0  0
  125.8192  138.7398  163.2351 H   0  0  0  0  0  0  0  0  0  0  0  0
  126.4666  139.2146  165.5609 H   0  0  0  0  0  0  0  0  0  0  0  0
  127.8368  135.2517  168.0084 H   0  0  0  0  0  0  0  0  0  0  0  0
  129.4152  135.8462  167.4396 H   0  0  0  0  0  0  0  0  0  0  0  0
  130.8295  136.8857  168.8588 H   0  0  0  0  0  0  0  0  0  0  0  0
  131.3692  137.7607  171.1148 H   0  0  0  0  0  0  0  0  0  0  0  0
  131.5202  135.9971  171.2770 H   0  0  0  0  0  0  0  0  0  0  0  0
  129.1457  137.7357  172.0674 H   0  0  0  0  0  0  0  0  0  0  0  0
  130.1792  136.7557  173.1381 H   0  0  0  0  0  0  0  0  0  0  0  0
  128.1104  135.5173  172.7338 H   0  0  0  0  0  0  0  0  0  0  0  0
  129.4275  134.7016  171.8498 H   0  0  0  0  0  0  0  0  0  0  0  0
  127.3280  136.6029  170.7259 H   0  0  0  0  0  0  0  0  0  0  0  0
  127.5623  134.8860  170.3241 H   0  0  0  0  0  0  0  0  0  0  0  0
  128.0806  135.2699  165.9162 H   0  0  0  0  0  0  0  0  0  0  0  0
  127.4245  134.7925  163.5933 H   0  0  0  0  0  0  0  0  0  0  0  0
  125.8480  134.8914  159.8527 H   0  0  0  0  0  0  0  0  0  0  0  0
  127.5619  134.2790  158.1969 H   0  0  0  0  0  0  0  0  0  0  0  0
  1  2  1  0
  1 31  1  0
  1 32  1  0
  1 33  1  0
  2 29  1  0
  2  3  2  0
  3  4  1  0
  3 34  1  0
  4  5  1  0
  4  6  1  0
  6  7  1  0
  6 29  2  0
  7  8  1  0
  7 35  1  0
  8 28  1  0
  8  9  2  0
  9 10  1  0
  9 36  1  0
 10 11  2  0
 10 37  1  0
 11 12  1  0
 11 27  1  0
 12 13  1  0
 12 38  1  0
 13 26  1  0
 13 14  2  0
 14 15  1  0
 14 39  1  0
 15 16  2  0
 15 40  1  0
 16 17  1  0
 16 25  1  0
 17 18  1  0
 18 19  1  0
 18 41  1  0
 18 42  1  0
 19 24  1  0
 19 20  2  0
 20 21  1  0
 20 43  1  0
 21 22  1  0
 21 44  1  0
 21 45  1  0
 22 23  1  0
 22 46  1  0
 22 47  1  0
 23 24  1  0
 23 48  1  0
 23 49  1  0
 24 50  1  0
 24 51  1  0
 25 26  2  0
 25 52  1  0
 26 53  1  0
 27 28  2  0
 27 54  1  0
 28 55  1  0
 29 30  1  0
M  CHG  1  29   1
M  END
>  <DOCK_score>  (1) 
-50.761654

>  <SMILES>  (1) 
Cc1c[nH]c(Nc2ccc(Nc3ccc(SCC4=CCCCC4)cc3)cc2)[nH+]1

$$$$
