O=C1CC[C@H]([NH+]=C(NCc2ccccc2)NC2CC3C[C@@H]3C2)CN1
     RDKit          3D

 51 54  0  0  1  0  0  0  0  0999 V2000
  123.7361  133.8844  161.7681 O   0  0  0  0  0  0  0  0  0  0  0  0
  124.9104  134.1332  161.5948 C   0  0  0  0  0  0  0  0  0  0  0  0
  125.8380  132.9965  161.2747 C   0  0  0  0  0  0  0  0  0  0  0  0
  127.2874  133.4212  161.5231 C   0  0  0  0  0  0  0  0  0  0  0  0
  127.5201  134.7739  160.8393 C   0  0  2  0  0  0  0  0  0  0  0  0
  127.2107  134.7142  159.7959 H   0  0  0  0  0  0  0  0  0  0  0  0
  128.9410  135.1231  160.9114 N   0  0  0  0  0  0  0  0  0  0  0  0
  129.2781  135.6311  161.6659 H   0  0  0  0  0  0  0  0  0  0  0  0
  129.7525  134.7513  159.9616 C   0  0  0  0  0  0  0  0  0  0  0  0
  129.2751  134.0313  158.8920 N   0  0  0  0  0  0  0  0  0  0  0  0
  129.9140  134.1582  157.5798 C   0  0  0  0  0  0  0  0  0  0  0  0
  130.4314  132.8125  157.1408 C   0  0  0  0  0  0  0  0  0  0  0  0
  130.4934  132.5012  155.7955 C   0  0  0  0  0  0  0  0  0  0  0  0
  130.9726  131.2687  155.3926 C   0  0  0  0  0  0  0  0  0  0  0  0
  131.3807  130.3441  156.3352 C   0  0  0  0  0  0  0  0  0  0  0  0
  131.3131  130.6531  157.6814 C   0  0  0  0  0  0  0  0  0  0  0  0
  130.8389  131.8875  158.0839 C   0  0  0  0  0  0  0  0  0  0  0  0
  131.0861  135.0789  160.0294 N   0  0  0  0  0  0  0  0  0  0  0  0
  131.5050  136.3068  160.7099 C   0  0  1  0  0  0  0  0  0  0  0  0
  133.0232  136.5486  160.5206 C   0  0  0  0  0  0  0  0  0  0  0  0
  133.1915  138.0694  160.7177 C   0  0  2  0  0  0  0  0  0  0  0  0
  132.3900  138.7471  161.8309 C   0  0  0  0  0  0  0  0  0  0  0  0
  131.8251  138.7065  160.4096 C   0  0  2  0  0  0  0  0  0  0  0  0
  131.7470  139.6324  159.8400 H   0  0  0  0  0  0  0  0  0  0  0  0
  130.8701  137.5501  160.0392 C   0  0  0  0  0  0  0  0  0  0  0  0
  126.6928  135.8393  161.5596 C   0  0  0  0  0  0  0  0  0  0  0  0
  125.3089  135.4015  161.6993 N   0  0  0  0  0  0  0  0  0  0  0  0
  125.7176  132.7145  160.2287 H   0  0  0  0  0  0  0  0  0  0  0  0
  125.5967  132.1439  161.9095 H   0  0  0  0  0  0  0  0  0  0  0  0
  127.9649  132.6770  161.1044 H   0  0  0  0  0  0  0  0  0  0  0  0
  127.4633  133.5167  162.5946 H   0  0  0  0  0  0  0  0  0  0  0  0
  128.5126  133.4425  159.0053 H   0  0  0  0  0  0  0  0  0  0  0  0
  129.1858  134.5216  156.8548 H   0  0  0  0  0  0  0  0  0  0  0  0
  130.7433  134.8623  157.6461 H   0  0  0  0  0  0  0  0  0  0  0  0
  130.1711  133.2222  155.0589 H   0  0  0  0  0  0  0  0  0  0  0  0
  131.0248  131.0269  154.3414 H   0  0  0  0  0  0  0  0  0  0  0  0
  131.7516  129.3797  156.0207 H   0  0  0  0  0  0  0  0  0  0  0  0
  131.6313  129.9304  158.4181 H   0  0  0  0  0  0  0  0  0  0  0  0
  130.7862  132.1292  159.1353 H   0  0  0  0  0  0  0  0  0  0  0  0
  131.7495  134.4972  159.6265 H   0  0  0  0  0  0  0  0  0  0  0  0
  131.2495  136.2662  161.7687 H   0  0  0  0  0  0  0  0  0  0  0  0
  133.5932  136.0013  161.2713 H   0  0  0  0  0  0  0  0  0  0  0  0
  133.3336  136.2573  159.5171 H   0  0  0  0  0  0  0  0  0  0  0  0
  134.1194  138.5211  160.3671 H   0  0  0  0  0  0  0  0  0  0  0  0
  131.9222  138.1041  162.5764 H   0  0  0  0  0  0  0  0  0  0  0  0
  132.7539  139.7061  162.1998 H   0  0  0  0  0  0  0  0  0  0  0  0
  130.8305  137.4217  158.9575 H   0  0  0  0  0  0  0  0  0  0  0  0
  129.8727  137.7320  160.4395 H   0  0  0  0  0  0  0  0  0  0  0  0
  127.1144  136.0148  162.5493 H   0  0  0  0  0  0  0  0  0  0  0  0
  126.7243  136.7671  160.9883 H   0  0  0  0  0  0  0  0  0  0  0  0
  124.6353  136.0765  161.8770 H   0  0  0  0  0  0  0  0  0  0  0  0
  1  2  2  0
  2 27  1  0
  2  3  1  0
  3  4  1  0
  3 28  1  0
  3 29  1  0
  4  5  1  0
  4 30  1  0
  4 31  1  0
  5  6  1  6
  5  7  1  0
  5 26  1  0
  7  8  1  0
  9  7  2  0
  9 10  1  0
  9 18  1  0
 10 11  1  0
 10 32  1  0
 11 12  1  0
 11 33  1  0
 11 34  1  0
 12 17  1  0
 12 13  2  0
 13 14  1  0
 13 35  1  0
 14 15  2  0
 14 36  1  0
 15 16  1  0
 15 37  1  0
 16 17  2  0
 16 38  1  0
 17 39  1  0
 18 19  1  0
 18 40  1  0
 19 25  1  0
 19 20  1  0
 19 41  1  1
 20 21  1  0
 20 42  1  0
 20 43  1  0
 21 23  1  0
 21 22  1  0
 21 44  1  6
 22 23  1  0
 22 45  1  0
 22 46  1  0
 23 24  1  6
 23 25  1  0
 25 47  1  0
 25 48  1  0
 26 27  1  0
 26 49  1  0
 26 50  1  0
 27 51  1  0
M  CHG  1   7   1
M  END
>  <DOCK_score>  (1) 
-45.181442

>  <SMILES>  (1) 
O=C1CC[C@H]([NH+]=C(NCc2ccccc2)NC2CC3C[C@@H]3C2)CN1

$$$$
