NNc1ccc(Nc2[nH]cc(-c3ccc(N)cc3)[nH+]2)cc1
     RDKit          3D

 38 40  0  0  1  0  0  0  0  0999 V2000
  126.7498  136.0533  163.4007 N   0  0  0  0  0  0  0  0  0  0  0  0
  126.4471  136.2757  162.0875 N   0  0  0  0  0  0  0  0  0  0  0  0
  127.3663  135.9323  161.0896 C   0  0  0  0  0  0  0  0  0  0  0  0
  128.5863  135.3660  161.4343 C   0  0  0  0  0  0  0  0  0  0  0  0
  129.4906  135.0218  160.4493 C   0  0  0  0  0  0  0  0  0  0  0  0
  129.1852  135.2535  159.1145 C   0  0  0  0  0  0  0  0  0  0  0  0
  130.1051  134.9100  158.1158 N   0  0  0  0  0  0  0  0  0  0  0  0
  130.0687  133.6486  157.5449 C   0  0  0  0  0  0  0  0  0  0  0  0
  129.6625  132.5082  158.1671 N   0  0  0  0  0  0  0  0  0  0  0  0
  129.3494  132.4330  159.0820 H   0  0  0  0  0  0  0  0  0  0  0  0
  129.7750  131.4834  157.2580 C   0  0  0  0  0  0  0  0  0  0  0  0
  130.2549  132.0256  156.1113 C   0  0  0  0  0  0  0  0  0  0  0  0
  130.5421  131.2939  154.8531 C   0  0  0  0  0  0  0  0  0  0  0  0
  129.8749  131.6369  153.6783 C   0  0  0  0  0  0  0  0  0  0  0  0
  130.1481  130.9596  152.5086 C   0  0  0  0  0  0  0  0  0  0  0  0
  131.0786  129.9271  152.5033 C   0  0  0  0  0  0  0  0  0  0  0  0
  131.3490  129.2381  151.3187 N   0  0  0  0  0  0  0  0  0  0  0  0
  131.7408  129.5796  153.6748 C   0  0  0  0  0  0  0  0  0  0  0  0
  131.4753  130.2584  154.8453 C   0  0  0  0  0  0  0  0  0  0  0  0
  130.4252  133.3552  156.3178 N   0  0  0  0  0  0  0  0  0  0  0  0
  130.7579  133.9879  155.6623 H   0  0  0  0  0  0  0  0  0  0  0  0
  127.9679  135.8263  158.7700 C   0  0  0  0  0  0  0  0  0  0  0  0
  127.0610  136.1649  159.7546 C   0  0  0  0  0  0  0  0  0  0  0  0
  127.6140  136.5080  163.6547 H   0  0  0  0  0  0  0  0  0  0  0  0
  125.9951  136.3498  164.0011 H   0  0  0  0  0  0  0  0  0  0  0  0
  125.5951  136.6725  161.8465 H   0  0  0  0  0  0  0  0  0  0  0  0
  128.8256  135.1900  162.4725 H   0  0  0  0  0  0  0  0  0  0  0  0
  130.4373  134.5764  160.7171 H   0  0  0  0  0  0  0  0  0  0  0  0
  130.7677  135.5555  157.8239 H   0  0  0  0  0  0  0  0  0  0  0  0
  129.5322  130.4446  157.4262 H   0  0  0  0  0  0  0  0  0  0  0  0
  129.1481  132.4357  153.6831 H   0  0  0  0  0  0  0  0  0  0  0  0
  129.6350  131.2282  151.5971 H   0  0  0  0  0  0  0  0  0  0  0  0
  131.9986  128.5179  151.3140 H   0  0  0  0  0  0  0  0  0  0  0  0
  130.8874  129.4803  150.5005 H   0  0  0  0  0  0  0  0  0  0  0  0
  132.4635  128.7772  153.6683 H   0  0  0  0  0  0  0  0  0  0  0  0
  131.9905  129.9882  155.7554 H   0  0  0  0  0  0  0  0  0  0  0  0
  127.7304  136.0064  157.7320 H   0  0  0  0  0  0  0  0  0  0  0  0
  126.1143  136.6103  159.4867 H   0  0  0  0  0  0  0  0  0  0  0  0
  1  2  1  0
  1 24  1  0
  1 25  1  0
  2  3  1  0
  2 26  1  0
  3 23  2  0
  3  4  1  0
  4  5  2  0
  4 27  1  0
  5  6  1  0
  5 28  1  0
  6  7  1  0
  6 22  2  0
  7 29  1  0
  8  7  1  0
  8 20  2  0
  8  9  1  0
  9 10  1  0
  9 11  1  0
 11 12  2  0
 11 30  1  0
 12 13  1  0
 12 20  1  0
 13 19  1  0
 13 14  2  0
 14 15  1  0
 14 31  1  0
 15 16  2  0
 15 32  1  0
 16 17  1  0
 16 18  1  0
 17 33  1  0
 17 34  1  0
 18 19  2  0
 18 35  1  0
 19 36  1  0
 20 21  1  0
 22 23  1  0
 22 37  1  0
 23 38  1  0
M  CHG  1  20   1
M  END
>  <DOCK_score>  (1) 
-53.104759

>  <SMILES>  (1) 
NNc1ccc(Nc2[nH]cc(-c3ccc(N)cc3)[nH+]2)cc1

$$$$
