O[C@]1(c2cccc(C(Nc3[nH]c4ccccc4[nH+]3)C3=CCC3)c2)CC[C@H]2[C@@H]1[C@H]1C=C[C@@H]2C1
     RDKit          3D

 62 68  0  0  1  0  0  0  0  0999 V2000
  133.1850  137.8396  160.2183 O   0  0  0  0  0  0  0  0  0  0  0  0
  132.3914  138.6222  161.1126 C   0  0  2  0  0  0  0  0  0  0  0  0
  131.0044  138.0450  161.2302 C   0  0  0  0  0  0  0  0  0  0  0  0
  130.0703  138.6519  162.0493 C   0  0  0  0  0  0  0  0  0  0  0  0
  128.7979  138.1228  162.1567 C   0  0  0  0  0  0  0  0  0  0  0  0
  128.4594  136.9865  161.4455 C   0  0  0  0  0  0  0  0  0  0  0  0
  129.3930  136.3802  160.6264 C   0  0  0  0  0  0  0  0  0  0  0  0
  129.0238  135.1419  159.8508 C   0  0  2  0  0  0  0  0  0  0  0  0
  129.1798  135.3992  158.4170 N   0  0  0  0  0  0  0  0  0  0  0  0
  129.5110  134.3712  157.5662 C   0  0  0  0  0  0  0  0  0  0  0  0
  129.6715  134.4924  156.2503 N   0  0  0  0  0  0  0  0  0  0  0  0
  129.5742  135.3118  155.7402 H   0  0  0  0  0  0  0  0  0  0  0  0
  129.9999  133.2645  155.7387 C   0  0  0  0  0  0  0  0  0  0  0  0
  130.2800  132.7987  154.4574 C   0  0  0  0  0  0  0  0  0  0  0  0
  130.5776  131.4674  154.2623 C   0  0  0  0  0  0  0  0  0  0  0  0
  130.6001  130.5873  155.3344 C   0  0  0  0  0  0  0  0  0  0  0  0
  130.3255  131.0320  156.6095 C   0  0  0  0  0  0  0  0  0  0  0  0
  130.0228  132.3735  156.8240 C   0  0  0  0  0  0  0  0  0  0  0  0
  129.7125  133.1089  157.9377 N   0  0  0  0  0  0  0  0  0  0  0  0
  129.6506  132.7677  158.8436 H   0  0  0  0  0  0  0  0  0  0  0  0
  127.5916  134.7749  160.1424 C   0  0  0  0  0  0  0  0  0  0  0  0
  126.4292  135.0742  159.6156 C   0  0  0  0  0  0  0  0  0  0  0  0
  125.5467  134.2688  160.5353 C   0  0  0  0  0  0  0  0  0  0  0  0
  126.8953  133.9147  161.1665 C   0  0  0  0  0  0  0  0  0  0  0  0
  130.6642  136.9124  160.5148 C   0  0  0  0  0  0  0  0  0  0  0  0
  132.3094  140.1033  160.6475 C   0  0  0  0  0  0  0  0  0  0  0  0
  133.6592  140.6818  161.1375 C   0  0  0  0  0  0  0  0  0  0  0  0
  133.8841  140.0193  162.5105 C   0  0  1  0  0  0  0  0  0  0  0  0
  133.6165  140.6743  163.3396 H   0  0  0  0  0  0  0  0  0  0  0  0
  133.0612  138.7009  162.4983 C   0  0  2  0  0  0  0  0  0  0  0  0
  132.3482  138.6425  163.3208 H   0  0  0  0  0  0  0  0  0  0  0  0
  134.1528  137.5868  162.5694 C   0  0  1  0  0  0  0  0  0  0  0  0
  133.8096  136.5929  162.8567 H   0  0  0  0  0  0  0  0  0  0  0  0
  134.8965  137.7061  161.2337 C   0  0  0  0  0  0  0  0  0  0  0  0
  135.5964  138.8252  161.2446 C   0  0  0  0  0  0  0  0  0  0  0  0
  135.3665  139.5273  162.5882 C   0  0  2  0  0  0  0  0  0  0  0  0
  136.1073  140.2669  162.8924 H   0  0  0  0  0  0  0  0  0  0  0  0
  135.1994  138.2730  163.5214 C   0  0  0  0  0  0  0  0  0  0  0  0
  132.8108  137.7564  159.3305 H   0  0  0  0  0  0  0  0  0  0  0  0
  130.3345  139.5390  162.6054 H   0  0  0  0  0  0  0  0  0  0  0  0
  128.0681  138.5968  162.7965 H   0  0  0  0  0  0  0  0  0  0  0  0
  127.4652  136.5729  161.5298 H   0  0  0  0  0  0  0  0  0  0  0  0
  129.6767  134.3203  160.1456 H   0  0  0  0  0  0  0  0  0  0  0  0
  129.0492  136.2947  158.0679 H   0  0  0  0  0  0  0  0  0  0  0  0
  130.2645  133.4787  153.6185 H   0  0  0  0  0  0  0  0  0  0  0  0
  130.7952  131.1066  153.2679 H   0  0  0  0  0  0  0  0  0  0  0  0
  130.8344  129.5461  155.1685 H   0  0  0  0  0  0  0  0  0  0  0  0
  130.3446  130.3415  157.4397 H   0  0  0  0  0  0  0  0  0  0  0  0
  126.1792  135.7063  158.7762 H   0  0  0  0  0  0  0  0  0  0  0  0
  125.0375  133.4311  160.0588 H   0  0  0  0  0  0  0  0  0  0  0  0
  124.8950  134.8693  161.1700 H   0  0  0  0  0  0  0  0  0  0  0  0
  127.1451  132.8573  161.0796 H   0  0  0  0  0  0  0  0  0  0  0  0
  127.0045  134.2871  162.1851 H   0  0  0  0  0  0  0  0  0  0  0  0
  131.3925  136.4411  159.8716 H   0  0  0  0  0  0  0  0  0  0  0  0
  131.4735  140.6206  161.1185 H   0  0  0  0  0  0  0  0  0  0  0  0
  132.2355  140.1616  159.5616 H   0  0  0  0  0  0  0  0  0  0  0  0
  133.5934  141.7648  161.2435 H   0  0  0  0  0  0  0  0  0  0  0  0
  134.4620  140.4154  160.4499 H   0  0  0  0  0  0  0  0  0  0  0  0
  134.8559  136.9944  160.4223 H   0  0  0  0  0  0  0  0  0  0  0  0
  136.2256  139.1845  160.4436 H   0  0  0  0  0  0  0  0  0  0  0  0
  134.7757  138.5285  164.4926 H   0  0  0  0  0  0  0  0  0  0  0  0
  136.1197  137.6964  163.6148 H   0  0  0  0  0  0  0  0  0  0  0  0
  1 39  1  0
  2  1  1  6
  2 30  1  0
  2  3  1  0
  2 26  1  0
  3 25  1  0
  3  4  2  0
  4  5  1  0
  4 40  1  0
  5  6  2  0
  5 41  1  0
  6  7  1  0
  6 42  1  0
  7  8  1  0
  7 25  2  0
  8  9  1  0
  8 21  1  0
  8 43  1  1
  9 10  1  0
  9 44  1  0
 10 19  1  0
 10 11  2  0
 11 12  1  0
 11 13  1  0
 13 18  2  0
 13 14  1  0
 14 15  2  0
 14 45  1  0
 15 16  1  0
 15 46  1  0
 16 17  2  0
 16 47  1  0
 17 18  1  0
 17 48  1  0
 18 19  1  0
 19 20  1  0
 21 24  1  0
 21 22  2  0
 22 23  1  0
 22 49  1  0
 23 24  1  0
 23 50  1  0
 23 51  1  0
 24 52  1  0
 24 53  1  0
 25 54  1  0
 26 27  1  0
 26 55  1  0
 26 56  1  0
 27 28  1  0
 27 57  1  0
 27 58  1  0
 28 29  1  1
 28 36  1  0
 28 30  1  0
 30 31  1  1
 30 32  1  0
 32 33  1  1
 32 38  1  0
 32 34  1  0
 34 35  2  0
 34 59  1  0
 35 36  1  0
 35 60  1  0
 36 37  1  1
 36 38  1  0
 38 61  1  0
 38 62  1  0
M  CHG  1  11   1
M  END
>  <DOCK_score>  (1) 
-55.957729

>  <SMILES>  (1) 
O[C@]1(c2cccc(C(Nc3[nH]c4ccccc4[nH+]3)C3=CCC3)c2)CC[C@H]2[C@@H]1[C@H]1C=C[C@@H]2C1

$$$$
