Brc1cccc(-c2cccc(NC3CCC[N@H+]4CCCCC34)c2)c1
     RDKit          3D

 50 53  0  0  1  0  0  0  0  0999 V2000
  129.7889  128.3370  150.8693 Br  0  0  0  0  0  0  0  0  0  0  0  0
  130.1747  129.9804  151.7212 C   0  0  0  0  0  0  0  0  0  0  0  0
  130.2970  131.1365  150.9696 C   0  0  0  0  0  0  0  0  0  0  0  0
  130.5791  132.3415  151.5867 C   0  0  0  0  0  0  0  0  0  0  0  0
  130.7403  132.3976  152.9566 C   0  0  0  0  0  0  0  0  0  0  0  0
  130.6183  131.2375  153.7182 C   0  0  0  0  0  0  0  0  0  0  0  0
  130.7905  131.2923  155.1912 C   0  0  0  0  0  0  0  0  0  0  0  0
  131.2854  130.1852  155.8785 C   0  0  0  0  0  0  0  0  0  0  0  0
  131.4446  130.2371  157.2488 C   0  0  0  0  0  0  0  0  0  0  0  0
  131.1147  131.3853  157.9439 C   0  0  0  0  0  0  0  0  0  0  0  0
  130.6157  132.4919  157.2677 C   0  0  0  0  0  0  0  0  0  0  0  0
  130.2782  133.6489  157.9742 N   0  0  0  0  0  0  0  0  0  0  0  0
  129.8134  133.5515  159.3600 C   0  0  2  0  0  0  0  0  0  0  0  0
  128.4012  134.1299  159.4647 C   0  0  0  0  0  0  0  0  0  0  0  0
  128.4484  135.6148  159.0990 C   0  0  0  0  0  0  0  0  0  0  0  0
  129.4259  136.3237  160.0361 C   0  0  0  0  0  0  0  0  0  0  0  0
  130.7723  135.7505  159.8915 N   0  0  1  0  0  0  0  0  0  0  0  0
  131.0741  135.8390  158.9328 H   0  0  0  0  0  0  0  0  0  0  0  0
  131.6860  136.5050  160.7622 C   0  0  0  0  0  0  0  0  0  0  0  0
  133.1155  135.9877  160.6040 C   0  0  0  0  0  0  0  0  0  0  0  0
  133.1532  134.5087  161.0030 C   0  0  0  0  0  0  0  0  0  0  0  0
  132.1672  133.7390  160.1225 C   0  0  0  0  0  0  0  0  0  0  0  0
  130.7634  134.3347  160.2723 C   0  0  2  0  0  0  0  0  0  0  0  0
  130.4577  132.4492  155.8901 C   0  0  0  0  0  0  0  0  0  0  0  0
  130.3397  130.0245  153.0916 C   0  0  0  0  0  0  0  0  0  0  0  0
  130.1715  131.0974  149.8977 H   0  0  0  0  0  0  0  0  0  0  0  0
  130.6732  133.2406  150.9956 H   0  0  0  0  0  0  0  0  0  0  0  0
  130.9601  133.3396  153.4371 H   0  0  0  0  0  0  0  0  0  0  0  0
  131.5440  129.2861  155.3387 H   0  0  0  0  0  0  0  0  0  0  0  0
  131.8279  129.3780  157.7792 H   0  0  0  0  0  0  0  0  0  0  0  0
  131.2407  131.4208  159.0160 H   0  0  0  0  0  0  0  0  0  0  0  0
  130.3516  134.5167  157.5471 H   0  0  0  0  0  0  0  0  0  0  0  0
  129.7989  132.5051  159.6647 H   0  0  0  0  0  0  0  0  0  0  0  0
  127.7387  133.6041  158.7770 H   0  0  0  0  0  0  0  0  0  0  0  0
  128.0352  134.0191  160.4854 H   0  0  0  0  0  0  0  0  0  0  0  0
  127.4554  136.0505  159.2094 H   0  0  0  0  0  0  0  0  0  0  0  0
  128.7840  135.7273  158.0681 H   0  0  0  0  0  0  0  0  0  0  0  0
  129.0906  136.2031  161.0662 H   0  0  0  0  0  0  0  0  0  0  0  0
  129.4562  137.3846  159.7878 H   0  0  0  0  0  0  0  0  0  0  0  0
  131.3724  136.3884  161.7995 H   0  0  0  0  0  0  0  0  0  0  0  0
  131.6516  137.5601  160.4907 H   0  0  0  0  0  0  0  0  0  0  0  0
  133.7837  136.5574  161.2499 H   0  0  0  0  0  0  0  0  0  0  0  0
  133.4319  136.0943  159.5663 H   0  0  0  0  0  0  0  0  0  0  0  0
  132.8668  134.4049  162.0496 H   0  0  0  0  0  0  0  0  0  0  0  0
  134.1590  134.1157  160.8557 H   0  0  0  0  0  0  0  0  0  0  0  0
  132.1510  132.6922  160.4260 H   0  0  0  0  0  0  0  0  0  0  0  0
  132.4811  133.8084  159.0809 H   0  0  0  0  0  0  0  0  0  0  0  0
  130.4358  134.2384  161.3074 H   0  0  0  0  0  0  0  0  0  0  0  0
  130.0736  133.3093  155.3620 H   0  0  0  0  0  0  0  0  0  0  0  0
  130.2486  129.1215  153.6769 H   0  0  0  0  0  0  0  0  0  0  0  0
  1  2  1  0
  2 25  2  0
  2  3  1  0
  3  4  2  0
  3 26  1  0
  4  5  1  0
  4 27  1  0
  5  6  2  0
  5 28  1  0
  6  7  1  0
  6 25  1  0
  7 24  1  0
  7  8  2  0
  8  9  1  0
  8 29  1  0
  9 10  2  0
  9 30  1  0
 10 11  1  0
 10 31  1  0
 11 12  1  0
 11 24  2  0
 12 13  1  0
 12 32  1  0
 13 23  1  0
 13 14  1  0
 13 33  1  1
 14 15  1  0
 14 34  1  0
 14 35  1  0
 15 16  1  0
 15 36  1  0
 15 37  1  0
 16 17  1  0
 16 38  1  0
 16 39  1  0
 17 18  1  6
 17 23  1  0
 17 19  1  0
 19 20  1  0
 19 40  1  0
 19 41  1  0
 20 21  1  0
 20 42  1  0
 20 43  1  0
 21 22  1  0
 21 44  1  0
 21 45  1  0
 22 23  1  0
 22 46  1  0
 22 47  1  0
 23 48  1  1
 24 49  1  0
 25 50  1  0
M  CHG  1  17   1
M  END
>  <DOCK_score>  (1) 
-58.927628

>  <SMILES>  (1) 
Brc1cccc(-c2cccc(NC3CCC[N@H+]4CCCCC34)c2)c1

$$$$
