Nc1ccc(-c2c[nH]c(Nc3ccc(O)cc3)[nH+]2)cc1
     RDKit          3D

 35 37  0  0  1  0  0  0  0  0999 V2000
  131.3356  129.1974  151.3735 N   0  0  0  0  0  0  0  0  0  0  0  0
  131.0614  129.8886  152.5561 C   0  0  0  0  0  0  0  0  0  0  0  0
  130.1330  130.9230  152.5557 C   0  0  0  0  0  0  0  0  0  0  0  0
  129.8607  131.6067  153.7218 C   0  0  0  0  0  0  0  0  0  0  0  0
  130.5172  131.2598  154.9016 C   0  0  0  0  0  0  0  0  0  0  0  0
  130.2258  131.9939  156.1574 C   0  0  0  0  0  0  0  0  0  0  0  0
  129.7383  131.4548  157.3022 C   0  0  0  0  0  0  0  0  0  0  0  0
  129.6236  132.4811  158.2090 N   0  0  0  0  0  0  0  0  0  0  0  0
  129.3047  132.4082  159.1222 H   0  0  0  0  0  0  0  0  0  0  0  0
  130.0372  133.6193  157.5878 C   0  0  0  0  0  0  0  0  0  0  0  0
  130.0754  134.8812  158.1577 N   0  0  0  0  0  0  0  0  0  0  0  0
  129.1561  135.2268  159.1555 C   0  0  0  0  0  0  0  0  0  0  0  0
  127.9416  135.8060  158.8110 C   0  0  0  0  0  0  0  0  0  0  0  0
  127.0339  136.1430  159.7956 C   0  0  0  0  0  0  0  0  0  0  0  0
  127.3385  135.9116  161.1288 C   0  0  0  0  0  0  0  0  0  0  0  0
  126.4460  136.2481  162.0982 O   0  0  0  0  0  0  0  0  0  0  0  0
  128.5533  135.3376  161.4742 C   0  0  0  0  0  0  0  0  0  0  0  0
  129.4604  134.9960  160.4906 C   0  0  0  0  0  0  0  0  0  0  0  0
  130.3991  133.3232  156.3631 N   0  0  0  0  0  0  0  0  0  0  0  0
  130.7371  133.9541  155.7085 H   0  0  0  0  0  0  0  0  0  0  0  0
  131.4520  130.2257  154.8984 C   0  0  0  0  0  0  0  0  0  0  0  0
  131.7167  129.5405  153.7313 C   0  0  0  0  0  0  0  0  0  0  0  0
  130.8782  129.4392  150.5531 H   0  0  0  0  0  0  0  0  0  0  0  0
  131.9832  128.4750  151.3730 H   0  0  0  0  0  0  0  0  0  0  0  0
  129.6249  131.1916  151.6415 H   0  0  0  0  0  0  0  0  0  0  0  0
  129.1390  132.4102  153.7212 H   0  0  0  0  0  0  0  0  0  0  0  0
  129.4916  130.4168  157.4705 H   0  0  0  0  0  0  0  0  0  0  0  0
  130.7363  135.5269  157.8625 H   0  0  0  0  0  0  0  0  0  0  0  0
  127.7061  135.9899  157.7731 H   0  0  0  0  0  0  0  0  0  0  0  0
  126.0881  136.5901  159.5276 H   0  0  0  0  0  0  0  0  0  0  0  0
  125.6295  136.6417  161.7615 H   0  0  0  0  0  0  0  0  0  0  0  0
  128.7897  135.1582  162.5126 H   0  0  0  0  0  0  0  0  0  0  0  0
  130.4064  134.5498  160.7596 H   0  0  0  0  0  0  0  0  0  0  0  0
  131.9653  129.9584  155.8102 H   0  0  0  0  0  0  0  0  0  0  0  0
  132.4373  128.7361  153.7294 H   0  0  0  0  0  0  0  0  0  0  0  0
  1  2  1  0
  1 23  1  0
  1 24  1  0
  2 22  2  0
  2  3  1  0
  3  4  2  0
  3 25  1  0
  4  5  1  0
  4 26  1  0
  5  6  1  0
  5 21  2  0
  6 19  1  0
  6  7  2  0
  7  8  1  0
  7 27  1  0
  8  9  1  0
  8 10  1  0
 10 11  1  0
 10 19  2  0
 11 12  1  0
 11 28  1  0
 12 18  1  0
 12 13  2  0
 13 14  1  0
 13 29  1  0
 14 15  2  0
 14 30  1  0
 15 16  1  0
 15 17  1  0
 16 31  1  0
 17 18  2  0
 17 32  1  0
 18 33  1  0
 19 20  1  0
 21 22  1  0
 21 34  1  0
 22 35  1  0
M  CHG  1  19   1
M  END
>  <DOCK_score>  (1) 
-50.038933

>  <SMILES>  (1) 
Nc1ccc(-c2c[nH]c(Nc3ccc(O)cc3)[nH+]2)cc1

$$$$
