C[C@H]1C(Cl)C1C(Nc1[nH]cc(-c2ccc(N)cc2)[nH+]1)C(C(N)=O)c1ccc(F)cc1
     RDKit          3D

 54 57  0  0  1  0  0  0  0  0999 V2000
  128.5631  138.2234  163.4025 C   0  0  0  0  0  0  0  0  0  0  0  0
  128.9986  136.8798  162.8144 C   0  0  1  0  0  0  0  0  0  0  0  0
  129.3517  136.1429  163.5359 H   0  0  0  0  0  0  0  0  0  0  0  0
  128.2366  136.3631  161.5926 C   0  0  2  0  0  0  0  0  0  0  0  0
  127.9913  134.5821  161.4554 Cl  0  0  0  0  0  0  0  0  0  0  0  0
  129.6629  136.8939  161.4362 C   0  0  2  0  0  0  0  0  0  0  0  0
  130.7722  135.8727  161.1763 C   0  0  1  0  0  0  0  0  0  0  0  0
  130.9508  135.7027  159.7321 N   0  0  0  0  0  0  0  0  0  0  0  0
  130.7675  134.4583  159.1536 C   0  0  0  0  0  0  0  0  0  0  0  0
  130.4282  133.3190  159.8155 N   0  0  0  0  0  0  0  0  0  0  0  0
  130.2723  133.2330  160.7691 H   0  0  0  0  0  0  0  0  0  0  0  0
  130.3472  132.3120  158.8831 C   0  0  0  0  0  0  0  0  0  0  0  0
  130.6391  132.8656  157.6802 C   0  0  0  0  0  0  0  0  0  0  0  0
  130.6753  132.1556  156.3782 C   0  0  0  0  0  0  0  0  0  0  0  0
  130.3622  132.8365  155.2028 C   0  0  0  0  0  0  0  0  0  0  0  0
  130.4032  132.1762  153.9929 C   0  0  0  0  0  0  0  0  0  0  0  0
  130.7436  130.8295  153.9462 C   0  0  0  0  0  0  0  0  0  0  0  0
  130.7783  130.1610  152.7201 N   0  0  0  0  0  0  0  0  0  0  0  0
  131.0500  130.1470  155.1174 C   0  0  0  0  0  0  0  0  0  0  0  0
  131.0170  130.8050  156.3288 C   0  0  0  0  0  0  0  0  0  0  0  0
  130.8978  134.1824  157.8789 N   0  0  0  0  0  0  0  0  0  0  0  0
  131.1389  134.8186  157.1876 H   0  0  0  0  0  0  0  0  0  0  0  0
  132.0792  136.3704  161.7967 C   0  0  1  0  0  0  0  0  0  0  0  0
  133.0207  135.2086  161.9836 C   0  0  0  0  0  0  0  0  0  0  0  0
  134.2415  135.4099  162.5181 N   0  0  0  0  0  0  0  0  0  0  0  0
  132.6800  134.0925  161.6533 O   0  0  0  0  0  0  0  0  0  0  0  0
  132.7129  137.3886  160.8841 C   0  0  0  0  0  0  0  0  0  0  0  0
  133.6059  136.9822  159.9102 C   0  0  0  0  0  0  0  0  0  0  0  0
  134.1838  137.9145  159.0695 C   0  0  0  0  0  0  0  0  0  0  0  0
  133.8763  139.2571  159.2101 C   0  0  0  0  0  0  0  0  0  0  0  0
  134.4444  140.1700  158.3919 F   0  0  0  0  0  0  0  0  0  0  0  0
  132.9858  139.6636  160.1893 C   0  0  0  0  0  0  0  0  0  0  0  0
  132.4050  138.7289  161.0253 C   0  0  0  0  0  0  0  0  0  0  0  0
  127.8377  138.6929  162.7379 H   0  0  0  0  0  0  0  0  0  0  0  0
  128.1088  138.0620  164.3802 H   0  0  0  0  0  0  0  0  0  0  0  0
  129.4322  138.8726  163.5085 H   0  0  0  0  0  0  0  0  0  0  0  0
  127.4248  136.9805  161.2075 H   0  0  0  0  0  0  0  0  0  0  0  0
  129.7897  137.8602  160.9482 H   0  0  0  0  0  0  0  0  0  0  0  0
  130.4985  134.9172  161.6235 H   0  0  0  0  0  0  0  0  0  0  0  0
  131.1974  136.4621  159.1813 H   0  0  0  0  0  0  0  0  0  0  0  0
  130.0983  131.2781  159.0723 H   0  0  0  0  0  0  0  0  0  0  0  0
  130.0930  133.8817  155.2392 H   0  0  0  0  0  0  0  0  0  0  0  0
  130.1653  132.7046  153.0815 H   0  0  0  0  0  0  0  0  0  0  0  0
  131.0161  129.2212  152.6866 H   0  0  0  0  0  0  0  0  0  0  0  0
  130.5645  130.6367  151.9021 H   0  0  0  0  0  0  0  0  0  0  0  0
  131.3148  129.1007  155.0787 H   0  0  0  0  0  0  0  0  0  0  0  0
  131.2559  130.2744  157.2386 H   0  0  0  0  0  0  0  0  0  0  0  0
  131.8711  136.8286  162.7635 H   0  0  0  0  0  0  0  0  0  0  0  0
  134.5141  136.3025  162.7824 H   0  0  0  0  0  0  0  0  0  0  0  0
  134.8475  134.6620  162.6384 H   0  0  0  0  0  0  0  0  0  0  0  0
  133.8487  135.9353  159.8034 H   0  0  0  0  0  0  0  0  0  0  0  0
  134.8782  137.5964  158.3060 H   0  0  0  0  0  0  0  0  0  0  0  0
  132.7449  140.7105  160.2996 H   0  0  0  0  0  0  0  0  0  0  0  0
  131.7108  139.0457  161.7894 H   0  0  0  0  0  0  0  0  0  0  0  0
  1  2  1  0
  1 34  1  0
  1 35  1  0
  1 36  1  0
  2  3  1  1
  2  6  1  0
  2  4  1  0
  4  5  1  0
  4  6  1  0
  4 37  1  6
  6  7  1  0
  6 38  1  6
  7  8  1  0
  7 23  1  0
  7 39  1  1
  8 40  1  0
  9  8  1  0
  9 21  2  0
  9 10  1  0
 10 11  1  0
 10 12  1  0
 12 13  2  0
 12 41  1  0
 13 14  1  0
 13 21  1  0
 14 20  1  0
 14 15  2  0
 15 16  1  0
 15 42  1  0
 16 17  2  0
 16 43  1  0
 17 18  1  0
 17 19  1  0
 18 44  1  0
 18 45  1  0
 19 20  2  0
 19 46  1  0
 20 47  1  0
 21 22  1  0
 23 24  1  0
 23 27  1  0
 23 48  1  1
 24 25  1  0
 24 26  2  0
 25 49  1  0
 25 50  1  0
 27 33  1  0
 27 28  2  0
 28 29  1  0
 28 51  1  0
 29 30  2  0
 29 52  1  0
 30 31  1  0
 30 32  1  0
 32 33  2  0
 32 53  1  0
 33 54  1  0
M  CHG  1  21   1
M  END
>  <DOCK_score>  (1) 
-56.9879

>  <SMILES>  (1) 
C[C@H]1C(Cl)C1C(Nc1[nH]cc(-c2ccc(N)cc2)[nH+]1)C(C(N)=O)c1ccc(F)cc1

$$$$
