Cc1ccc([C@@H]2CCCN(c3ccc(Cl)c(NC/C=C/CNc4[nH]c(C)c(C)[nH+]4)c3)C2)cc1
     RDKit          3D

 68 71  0  0  1  0  0  0  0  0999 V2000
  136.8914  134.4708  169.1817 C   0  0  0  0  0  0  0  0  0  0  0  0
  136.6641  135.7107  168.3557 C   0  0  0  0  0  0  0  0  0  0  0  0
  137.6626  136.6602  168.2453 C   0  0  0  0  0  0  0  0  0  0  0  0
  137.4545  137.7970  167.4868 C   0  0  0  0  0  0  0  0  0  0  0  0
  136.2481  137.9841  166.8386 C   0  0  0  0  0  0  0  0  0  0  0  0
  136.0212  139.2234  166.0117 C   0  0  2  0  0  0  0  0  0  0  0  0
  136.9126  139.8500  166.0430 H   0  0  0  0  0  0  0  0  0  0  0  0
  134.8283  140.0018  166.5739 C   0  0  0  0  0  0  0  0  0  0  0  0
  134.5674  141.2268  165.6931 C   0  0  0  0  0  0  0  0  0  0  0  0
  134.3157  140.7701  164.2544 C   0  0  0  0  0  0  0  0  0  0  0  0
  135.4854  140.0312  163.7621 N   0  0  0  0  0  0  0  0  0  0  0  0
  135.3438  139.7133  162.4088 C   0  0  0  0  0  0  0  0  0  0  0  0
  136.2688  140.1823  161.4839 C   0  0  0  0  0  0  0  0  0  0  0  0
  136.1299  139.8686  160.1455 C   0  0  0  0  0  0  0  0  0  0  0  0
  135.0709  139.0873  159.7221 C   0  0  0  0  0  0  0  0  0  0  0  0
  134.9002  138.6961  158.0395 Cl  0  0  0  0  0  0  0  0  0  0  0  0
  134.1423  138.6150  160.6427 C   0  0  0  0  0  0  0  0  0  0  0  0
  133.0717  137.8257  160.2144 N   0  0  0  0  0  0  0  0  0  0  0  0
  132.0936  137.3285  161.1852 C   0  0  0  0  0  0  0  0  0  0  0  0
  131.0489  136.5098  160.4716 C   0  0  0  0  0  0  0  0  0  0  0  0
  131.2215  135.2206  160.3147 C   0  0  0  0  0  0  0  0  0  0  0  0
  130.1767  134.4020  159.6011 C   0  0  0  0  0  0  0  0  0  0  0  0
  130.4776  134.3686  158.1678 N   0  0  0  0  0  0  0  0  0  0  0  0
  130.7085  133.1602  157.5381 C   0  0  0  0  0  0  0  0  0  0  0  0
  130.9843  132.9988  156.2471 N   0  0  0  0  0  0  0  0  0  0  0  0
  131.0571  133.7069  155.5882 H   0  0  0  0  0  0  0  0  0  0  0  0
  131.1492  131.6690  156.0110 C   0  0  0  0  0  0  0  0  0  0  0  0
  131.4780  131.0331  154.6848 C   0  0  0  0  0  0  0  0  0  0  0  0
  130.9603  131.0258  157.1758 C   0  0  0  0  0  0  0  0  0  0  0  0
  131.0384  129.5368  157.3950 C   0  0  0  0  0  0  0  0  0  0  0  0
  130.6860  131.9652  158.1214 N   0  0  0  0  0  0  0  0  0  0  0  0
  130.5059  131.7930  159.0588 H   0  0  0  0  0  0  0  0  0  0  0  0
  134.2766  138.9332  161.9867 C   0  0  0  0  0  0  0  0  0  0  0  0
  135.7273  138.8249  164.5637 C   0  0  0  0  0  0  0  0  0  0  0  0
  135.2477  137.0370  166.9532 C   0  0  0  0  0  0  0  0  0  0  0  0
  135.4574  135.8981  167.7082 C   0  0  0  0  0  0  0  0  0  0  0  0
  136.5774  134.6559  170.2089 H   0  0  0  0  0  0  0  0  0  0  0  0
  136.3107  133.6467  168.7673 H   0  0  0  0  0  0  0  0  0  0  0  0
  137.9503  134.2130  169.1662 H   0  0  0  0  0  0  0  0  0  0  0  0
  138.6055  136.5137  168.7512 H   0  0  0  0  0  0  0  0  0  0  0  0
  138.2346  138.5389  167.4007 H   0  0  0  0  0  0  0  0  0  0  0  0
  133.9458  139.3620  166.5790 H   0  0  0  0  0  0  0  0  0  0  0  0
  135.0509  140.3250  167.5909 H   0  0  0  0  0  0  0  0  0  0  0  0
  133.6928  141.7616  166.0634 H   0  0  0  0  0  0  0  0  0  0  0  0
  135.4353  141.8857  165.7198 H   0  0  0  0  0  0  0  0  0  0  0  0
  134.1435  141.6409  163.6217 H   0  0  0  0  0  0  0  0  0  0  0  0
  133.4392  140.1226  164.2268 H   0  0  0  0  0  0  0  0  0  0  0  0
  137.0970  140.7932  161.8116 H   0  0  0  0  0  0  0  0  0  0  0  0
  136.8503  140.2341  159.4288 H   0  0  0  0  0  0  0  0  0  0  0  0
  132.9783  137.6037  159.2747 H   0  0  0  0  0  0  0  0  0  0  0  0
  132.5994  136.7075  161.9247 H   0  0  0  0  0  0  0  0  0  0  0  0
  131.6161  138.1716  161.6842 H   0  0  0  0  0  0  0  0  0  0  0  0
  130.1580  136.9857  160.0895 H   0  0  0  0  0  0  0  0  0  0  0  0
  132.1124  134.7447  160.6968 H   0  0  0  0  0  0  0  0  0  0  0  0
  130.1785  133.3862  159.9965 H   0  0  0  0  0  0  0  0  0  0  0  0
  129.1954  134.8505  159.7560 H   0  0  0  0  0  0  0  0  0  0  0  0
  130.5146  135.1946  157.6606 H   0  0  0  0  0  0  0  0  0  0  0  0
  130.5546  130.7966  154.1564 H   0  0  0  0  0  0  0  0  0  0  0  0
  132.0714  131.7251  154.0873 H   0  0  0  0  0  0  0  0  0  0  0  0
  132.0460  130.1178  154.8515 H   0  0  0  0  0  0  0  0  0  0  0  0
  130.0545  129.0946  157.2391 H   0  0  0  0  0  0  0  0  0  0  0  0
  131.7476  129.1026  156.6904 H   0  0  0  0  0  0  0  0  0  0  0  0
  131.3695  129.3364  158.4139 H   0  0  0  0  0  0  0  0  0  0  0  0
  133.5544  138.5710  162.7034 H   0  0  0  0  0  0  0  0  0  0  0  0
  134.8443  138.1865  164.5348 H   0  0  0  0  0  0  0  0  0  0  0  0
  136.5806  138.2830  164.1561 H   0  0  0  0  0  0  0  0  0  0  0  0
  134.3035  137.1853  166.4504 H   0  0  0  0  0  0  0  0  0  0  0  0
  134.6774  135.1561  167.7942 H   0  0  0  0  0  0  0  0  0  0  0  0
  1  2  1  0
  1 37  1  0
  1 38  1  0
  1 39  1  0
  2 36  2  0
  2  3  1  0
  3  4  2  0
  3 40  1  0
  4  5  1  0
  4 41  1  0
  5  6  1  0
  5 35  2  0
  6  7  1  6
  6 34  1  0
  6  8  1  0
  8  9  1  0
  8 42  1  0
  8 43  1  0
  9 10  1  0
  9 44  1  0
  9 45  1  0
 10 11  1  0
 10 46  1  0
 10 47  1  0
 11 12  1  0
 11 34  1  0
 12 33  1  0
 12 13  2  0
 13 14  1  0
 13 48  1  0
 14 15  2  0
 14 49  1  0
 15 16  1  0
 15 17  1  0
 17 18  1  0
 17 33  2  0
 18 19  1  0
 18 50  1  0
 19 20  1  0
 19 51  1  0
 19 52  1  0
 20 21  2  0
 20 53  1  0
 21 22  1  0
 21 54  1  0
 22 23  1  0
 22 55  1  0
 22 56  1  0
 23 57  1  0
 24 23  1  0
 24 31  1  0
 24 25  2  0
 25 26  1  0
 25 27  1  0
 27 28  1  0
 27 29  2  0
 28 58  1  0
 28 59  1  0
 28 60  1  0
 29 30  1  0
 29 31  1  0
 30 61  1  0
 30 62  1  0
 30 63  1  0
 31 32  1  0
 33 64  1  0
 34 65  1  0
 34 66  1  0
 35 36  1  0
 35 67  1  0
 36 68  1  0
M  CHG  1  25   1
M  END
>  <DOCK_score>  (1) 
-56.348537

>  <SMILES>  (1) 
Cc1ccc([C@@H]2CCCN(c3ccc(Cl)c(NC/C=C/CNc4[nH]c(C)c(C)[nH+]4)c3)C2)cc1

$$$$
