C1=C(c2cccc(-c3ccc(-c4ccccc4)cc3)c2)CC[N@@H+](Cc2ccc(-c3ccccc3)[nH]2)C1
     RDKit          3D

 67 72  0  0  1  0  0  0  0  0999 V2000
  131.5451  139.5136  160.6567 C   0  0  0  0  0  0  0  0  0  0  0  0
  132.6642  138.8357  160.7929 C   0  0  0  0  0  0  0  0  0  0  0  0
  133.9405  139.5767  160.8786 C   0  0  0  0  0  0  0  0  0  0  0  0
  134.6603  139.8671  159.7181 C   0  0  0  0  0  0  0  0  0  0  0  0
  135.8521  140.5593  159.7975 C   0  0  0  0  0  0  0  0  0  0  0  0
  136.3398  140.9678  161.0235 C   0  0  0  0  0  0  0  0  0  0  0  0
  135.6304  140.6834  162.1898 C   0  0  0  0  0  0  0  0  0  0  0  0
  136.1566  141.1227  163.5052 C   0  0  0  0  0  0  0  0  0  0  0  0
  135.8738  140.3817  164.6521 C   0  0  0  0  0  0  0  0  0  0  0  0
  136.3624  140.7896  165.8737 C   0  0  0  0  0  0  0  0  0  0  0  0
  137.1399  141.9438  165.9635 C   0  0  0  0  0  0  0  0  0  0  0  0
  137.6655  142.3834  167.2788 C   0  0  0  0  0  0  0  0  0  0  0  0
  138.8693  143.0820  167.3529 C   0  0  0  0  0  0  0  0  0  0  0  0
  139.3533  143.4889  168.5796 C   0  0  0  0  0  0  0  0  0  0  0  0
  138.6462  143.2048  169.7341 C   0  0  0  0  0  0  0  0  0  0  0  0
  137.4537  142.5072  169.6670 C   0  0  0  0  0  0  0  0  0  0  0  0
  136.9573  142.0999  168.4453 C   0  0  0  0  0  0  0  0  0  0  0  0
  137.4181  142.6878  164.8174 C   0  0  0  0  0  0  0  0  0  0  0  0
  136.9343  142.2766  163.5948 C   0  0  0  0  0  0  0  0  0  0  0  0
  134.4307  139.9817  162.1181 C   0  0  0  0  0  0  0  0  0  0  0  0
  132.6922  137.3334  160.8583 C   0  0  0  0  0  0  0  0  0  0  0  0
  131.2840  136.8083  161.1571 C   0  0  0  0  0  0  0  0  0  0  0  0
  130.3427  137.4385  160.2176 N   0  0  1  0  0  0  0  0  0  0  0  0
  130.6987  137.3563  159.2771 H   0  0  0  0  0  0  0  0  0  0  0  0
  129.0362  136.7735  160.3107 C   0  0  0  0  0  0  0  0  0  0  0  0
  129.1891  135.3148  159.9644 C   0  0  0  0  0  0  0  0  0  0  0  0
  128.6414  134.2816  160.6403 C   0  0  0  0  0  0  0  0  0  0  0  0
  129.0263  133.0963  159.9929 C   0  0  0  0  0  0  0  0  0  0  0  0
  129.8049  133.4478  158.9316 C   0  0  0  0  0  0  0  0  0  0  0  0
  130.4323  132.5191  157.9671 C   0  0  0  0  0  0  0  0  0  0  0  0
  130.6495  132.9201  156.6481 C   0  0  0  0  0  0  0  0  0  0  0  0
  131.2402  132.0506  155.7545 C   0  0  0  0  0  0  0  0  0  0  0  0
  131.6073  130.7800  156.1607 C   0  0  0  0  0  0  0  0  0  0  0  0
  131.3895  130.3744  157.4654 C   0  0  0  0  0  0  0  0  0  0  0  0
  130.8046  131.2359  158.3704 C   0  0  0  0  0  0  0  0  0  0  0  0
  129.8987  134.8158  158.9130 N   0  0  0  0  0  0  0  0  0  0  0  0
  130.3901  135.3406  158.2618 H   0  0  0  0  0  0  0  0  0  0  0  0
  130.1980  138.8567  160.5659 C   0  0  0  0  0  0  0  0  0  0  0  0
  131.5976  140.5913  160.6084 H   0  0  0  0  0  0  0  0  0  0  0  0
  134.2841  139.5500  158.7567 H   0  0  0  0  0  0  0  0  0  0  0  0
  136.4054  140.7821  158.8972 H   0  0  0  0  0  0  0  0  0  0  0  0
  137.2731  141.5085  161.0790 H   0  0  0  0  0  0  0  0  0  0  0  0
  135.2715  139.4879  164.5826 H   0  0  0  0  0  0  0  0  0  0  0  0
  136.1432  140.2158  166.7619 H   0  0  0  0  0  0  0  0  0  0  0  0
  139.4223  143.3041  166.4523 H   0  0  0  0  0  0  0  0  0  0  0  0
  140.2859  144.0306  168.6383 H   0  0  0  0  0  0  0  0  0  0  0  0
  139.0291  143.5248  170.6919 H   0  0  0  0  0  0  0  0  0  0  0  0
  136.9080  142.2842  170.5719 H   0  0  0  0  0  0  0  0  0  0  0  0
  136.0241  141.5585  168.3937 H   0  0  0  0  0  0  0  0  0  0  0  0
  138.0168  143.5841  164.8876 H   0  0  0  0  0  0  0  0  0  0  0  0
  137.1535  142.8504  162.7066 H   0  0  0  0  0  0  0  0  0  0  0  0
  133.8801  139.7558  163.0192 H   0  0  0  0  0  0  0  0  0  0  0  0
  133.0369  136.9347  159.9042 H   0  0  0  0  0  0  0  0  0  0  0  0
  133.3711  137.0171  161.6501 H   0  0  0  0  0  0  0  0  0  0  0  0
  131.0045  137.0614  162.1798 H   0  0  0  0  0  0  0  0  0  0  0  0
  131.2600  135.7263  161.0283 H   0  0  0  0  0  0  0  0  0  0  0  0
  128.6522  136.8675  161.3264 H   0  0  0  0  0  0  0  0  0  0  0  0
  128.3401  137.2411  159.6143 H   0  0  0  0  0  0  0  0  0  0  0  0
  128.0197  134.3540  161.5205 H   0  0  0  0  0  0  0  0  0  0  0  0
  128.7557  132.0919  160.2831 H   0  0  0  0  0  0  0  0  0  0  0  0
  130.3593  133.9100  156.3285 H   0  0  0  0  0  0  0  0  0  0  0  0
  131.4126  132.3610  154.7346 H   0  0  0  0  0  0  0  0  0  0  0  0
  132.0656  130.1017  155.4563 H   0  0  0  0  0  0  0  0  0  0  0  0
  131.6784  129.3812  157.7762 H   0  0  0  0  0  0  0  0  0  0  0  0
  130.6348  130.9180  159.3884 H   0  0  0  0  0  0  0  0  0  0  0  0
  129.6898  138.9421  161.5263 H   0  0  0  0  0  0  0  0  0  0  0  0
  129.6038  139.3568  159.8010 H   0  0  0  0  0  0  0  0  0  0  0  0
  1 38  1  0
  1  2  2  0
  1 39  1  0
  2  3  1  0
  2 21  1  0
  3 20  1  0
  3  4  2  0
  4  5  1  0
  4 40  1  0
  5  6  2  0
  5 41  1  0
  6  7  1  0
  6 42  1  0
  7  8  1  0
  7 20  2  0
  8 19  1  0
  8  9  2  0
  9 10  1  0
  9 43  1  0
 10 11  2  0
 10 44  1  0
 11 12  1  0
 11 18  1  0
 12 17  1  0
 12 13  2  0
 13 14  1  0
 13 45  1  0
 14 15  2  0
 14 46  1  0
 15 16  1  0
 15 47  1  0
 16 17  2  0
 16 48  1  0
 17 49  1  0
 18 19  2  0
 18 50  1  0
 19 51  1  0
 20 52  1  0
 21 22  1  0
 21 53  1  0
 21 54  1  0
 22 23  1  0
 22 55  1  0
 22 56  1  0
 23 24  1  6
 23 25  1  0
 23 38  1  0
 25 26  1  0
 25 57  1  0
 25 58  1  0
 26 36  1  0
 26 27  2  0
 27 28  1  0
 27 59  1  0
 28 29  2  0
 28 60  1  0
 29 30  1  0
 29 36  1  0
 30 35  1  0
 30 31  2  0
 31 32  1  0
 31 61  1  0
 32 33  2  0
 32 62  1  0
 33 34  1  0
 33 63  1  0
 34 35  2  0
 34 64  1  0
 35 65  1  0
 36 37  1  0
 38 66  1  0
 38 67  1  0
M  CHG  1  23   1
M  END
>  <DOCK_score>  (1) 
-59.529785

>  <SMILES>  (1) 
C1=C(c2cccc(-c3ccc(-c4ccccc4)cc3)c2)CC[N@@H+](Cc2ccc(-c3ccccc3)[nH]2)C1

$$$$
