C1=C[C@H](Nc2ncsc2C[NH2+]Cc2cccc(C3CC3)c2)CC1
     RDKit          3D

 47 50  0  0  1  0  0  0  0  0999 V2000
  127.8395  135.4239  164.9098 C   0  0  0  0  0  0  0  0  0  0  0  0
  127.1997  135.7213  163.8116 C   0  0  0  0  0  0  0  0  0  0  0  0
  128.0888  136.4770  162.8515 C   0  0  2  0  0  0  0  0  0  0  0  0
  127.5526  137.3246  162.4247 H   0  0  0  0  0  0  0  0  0  0  0  0
  128.5645  135.5878  161.7889 N   0  0  0  0  0  0  0  0  0  0  0  0
  127.8214  135.4476  160.6053 C   0  0  0  0  0  0  0  0  0  0  0  0
  126.6879  136.0899  160.3918 N   0  0  0  0  0  0  0  0  0  0  0  0
  126.0930  135.8744  159.2662 C   0  0  0  0  0  0  0  0  0  0  0  0
  126.9924  134.7679  158.3231 S   0  0  0  0  0  0  0  0  0  0  0  0
  128.2057  134.6531  159.5954 C   0  0  0  0  0  0  0  0  0  0  0  0
  129.4520  133.8067  159.5581 C   0  0  0  0  0  0  0  0  0  0  0  0
  130.5562  134.5861  158.9826 N   0  0  0  0  0  0  0  0  0  0  0  0
  130.7220  135.4041  159.5497 H   0  0  0  0  0  0  0  0  0  0  0  0
  130.3145  134.8702  158.0451 H   0  0  0  0  0  0  0  0  0  0  0  0
  131.7711  133.7610  158.9462 C   0  0  0  0  0  0  0  0  0  0  0  0
  131.5234  132.5395  158.0991 C   0  0  0  0  0  0  0  0  0  0  0  0
  131.9411  131.2970  158.5388 C   0  0  0  0  0  0  0  0  0  0  0  0
  131.7096  130.1760  157.7640 C   0  0  0  0  0  0  0  0  0  0  0  0
  131.0698  130.2986  156.5447 C   0  0  0  0  0  0  0  0  0  0  0  0
  130.6568  131.5414  156.1028 C   0  0  0  0  0  0  0  0  0  0  0  0
  129.9598  131.6750  154.7733 C   0  0  0  0  0  0  0  0  0  0  0  0
  130.6355  131.0432  153.5546 C   0  0  0  0  0  0  0  0  0  0  0  0
  130.6181  132.5645  153.7168 C   0  0  0  0  0  0  0  0  0  0  0  0
  130.8837  132.6620  156.8801 C   0  0  0  0  0  0  0  0  0  0  0  0
  129.2742  136.9660  163.7157 C   0  0  0  0  0  0  0  0  0  0  0  0
  129.2620  135.9318  164.8652 C   0  0  0  0  0  0  0  0  0  0  0  0
  127.4088  134.8859  165.7413 H   0  0  0  0  0  0  0  0  0  0  0  0
  126.1700  135.4615  163.6151 H   0  0  0  0  0  0  0  0  0  0  0  0
  129.3927  135.0957  161.9027 H   0  0  0  0  0  0  0  0  0  0  0  0
  125.1611  136.3286  158.9635 H   0  0  0  0  0  0  0  0  0  0  0  0
  129.2729  132.9231  158.9454 H   0  0  0  0  0  0  0  0  0  0  0  0
  129.7132  133.4997  160.5709 H   0  0  0  0  0  0  0  0  0  0  0  0
  132.5904  134.3393  158.5192 H   0  0  0  0  0  0  0  0  0  0  0  0
  132.0322  133.4540  159.9589 H   0  0  0  0  0  0  0  0  0  0  0  0
  132.4450  131.2018  159.4893 H   0  0  0  0  0  0  0  0  0  0  0  0
  132.0327  129.2050  158.1091 H   0  0  0  0  0  0  0  0  0  0  0  0
  130.8930  129.4233  155.9372 H   0  0  0  0  0  0  0  0  0  0  0  0
  128.8705  131.6590  154.8099 H   0  0  0  0  0  0  0  0  0  0  0  0
  131.5842  130.5308  153.7145 H   0  0  0  0  0  0  0  0  0  0  0  0
  129.9908  130.6112  152.7893 H   0  0  0  0  0  0  0  0  0  0  0  0
  129.9619  133.1333  153.0580 H   0  0  0  0  0  0  0  0  0  0  0  0
  131.5554  133.0530  153.9830 H   0  0  0  0  0  0  0  0  0  0  0  0
  130.5613  133.6332  156.5346 H   0  0  0  0  0  0  0  0  0  0  0  0
  130.2097  136.9204  163.1582 H   0  0  0  0  0  0  0  0  0  0  0  0
  129.0943  137.9726  164.0930 H   0  0  0  0  0  0  0  0  0  0  0  0
  129.5242  136.4100  165.8090 H   0  0  0  0  0  0  0  0  0  0  0  0
  129.9504  135.1145  164.6503 H   0  0  0  0  0  0  0  0  0  0  0  0
  1 26  1  0
  1  2  2  0
  1 27  1  0
  2  3  1  0
  2 28  1  0
  3  4  1  6
  3  5  1  0
  3 25  1  0
  5  6  1  0
  5 29  1  0
  6 10  2  0
  6  7  1  0
  7  8  2  0
  8  9  1  0
  8 30  1  0
  9 10  1  0
 10 11  1  0
 11 12  1  0
 11 31  1  0
 11 32  1  0
 12 13  1  0
 12 14  1  0
 12 15  1  0
 15 16  1  0
 15 33  1  0
 15 34  1  0
 16 24  1  0
 16 17  2  0
 17 18  1  0
 17 35  1  0
 18 19  2  0
 18 36  1  0
 19 20  1  0
 19 37  1  0
 20 21  1  0
 20 24  2  0
 21 23  1  0
 21 22  1  0
 21 38  1  0
 22 23  1  0
 22 39  1  0
 22 40  1  0
 23 41  1  0
 23 42  1  0
 24 43  1  0
 25 26  1  0
 25 44  1  0
 25 45  1  0
 26 46  1  0
 26 47  1  0
M  CHG  1  12   1
M  END
>  <DOCK_score>  (1) 
-41.108559

>  <SMILES>  (1) 
C1=C[C@H](Nc2ncsc2C[NH2+]Cc2cccc(C3CC3)c2)CC1

$$$$
