Cc1ccc(-c2cc(Cl)ccc2Nc2[nH]cc(-c3ccccc3)[nH+]2)cc1
     RDKit          3D

 45 48  0  0  1  0  0  0  0  0999 V2000
  134.8800  138.6348  160.5685 C   0  0  0  0  0  0  0  0  0  0  0  0
  133.5126  138.0019  160.5381 C   0  0  0  0  0  0  0  0  0  0  0  0
  132.4738  138.6373  159.8819 C   0  0  0  0  0  0  0  0  0  0  0  0
  131.2194  138.0628  159.8511 C   0  0  0  0  0  0  0  0  0  0  0  0
  131.0004  136.8396  160.4825 C   0  0  0  0  0  0  0  0  0  0  0  0
  129.6546  136.2173  160.4534 C   0  0  0  0  0  0  0  0  0  0  0  0
  128.7308  136.5009  161.4566 C   0  0  0  0  0  0  0  0  0  0  0  0
  127.4787  135.9193  161.4249 C   0  0  0  0  0  0  0  0  0  0  0  0
  126.3288  136.2733  162.6765 Cl  0  0  0  0  0  0  0  0  0  0  0  0
  127.1367  135.0542  160.3984 C   0  0  0  0  0  0  0  0  0  0  0  0
  128.0428  134.7698  159.3954 C   0  0  0  0  0  0  0  0  0  0  0  0
  129.3065  135.3428  159.4174 C   0  0  0  0  0  0  0  0  0  0  0  0
  130.2252  135.0527  158.4069 N   0  0  0  0  0  0  0  0  0  0  0  0
  130.1924  133.8210  157.7739 C   0  0  0  0  0  0  0  0  0  0  0  0
  129.7829  132.6510  158.3363 N   0  0  0  0  0  0  0  0  0  0  0  0
  129.4646  132.5307  159.2447 H   0  0  0  0  0  0  0  0  0  0  0  0
  129.9040  131.6725  157.3806 C   0  0  0  0  0  0  0  0  0  0  0  0
  130.3788  132.2726  156.2606 C   0  0  0  0  0  0  0  0  0  0  0  0
  130.6628  131.6056  154.9665 C   0  0  0  0  0  0  0  0  0  0  0  0
  130.5334  132.3123  153.7722 C   0  0  0  0  0  0  0  0  0  0  0  0
  130.8048  131.6884  152.5715 C   0  0  0  0  0  0  0  0  0  0  0  0
  131.1934  130.3609  152.5510 C   0  0  0  0  0  0  0  0  0  0  0  0
  131.3175  129.6530  153.7329 C   0  0  0  0  0  0  0  0  0  0  0  0
  131.0546  130.2683  154.9400 C   0  0  0  0  0  0  0  0  0  0  0  0
  130.5505  133.5898  156.5343 N   0  0  0  0  0  0  0  0  0  0  0  0
  130.8815  134.2553  155.9110 H   0  0  0  0  0  0  0  0  0  0  0  0
  132.0498  136.2062  161.1462 C   0  0  0  0  0  0  0  0  0  0  0  0
  133.3012  136.7876  161.1659 C   0  0  0  0  0  0  0  0  0  0  0  0
  134.9626  139.2793  161.4436 H   0  0  0  0  0  0  0  0  0  0  0  0
  135.6401  137.8549  160.6184 H   0  0  0  0  0  0  0  0  0  0  0  0
  135.0263  139.2273  159.6656 H   0  0  0  0  0  0  0  0  0  0  0  0
  132.6446  139.5851  159.3931 H   0  0  0  0  0  0  0  0  0  0  0  0
  130.4089  138.5602  159.3392 H   0  0  0  0  0  0  0  0  0  0  0  0
  128.9935  137.1751  162.2583 H   0  0  0  0  0  0  0  0  0  0  0  0
  126.1554  134.6033  160.3800 H   0  0  0  0  0  0  0  0  0  0  0  0
  127.7690  134.0977  158.5956 H   0  0  0  0  0  0  0  0  0  0  0  0
  130.8864  135.7136  158.1481 H   0  0  0  0  0  0  0  0  0  0  0  0
  129.6629  130.6262  157.4969 H   0  0  0  0  0  0  0  0  0  0  0  0
  130.2254  133.3474  153.7867 H   0  0  0  0  0  0  0  0  0  0  0  0
  130.7098  132.2364  151.6456 H   0  0  0  0  0  0  0  0  0  0  0  0
  131.4008  129.8755  151.6088 H   0  0  0  0  0  0  0  0  0  0  0  0
  131.6213  128.6168  153.7111 H   0  0  0  0  0  0  0  0  0  0  0  0
  131.1527  129.7148  155.8620 H   0  0  0  0  0  0  0  0  0  0  0  0
  131.8848  135.2602  161.6406 H   0  0  0  0  0  0  0  0  0  0  0  0
  134.1161  136.2956  161.6761 H   0  0  0  0  0  0  0  0  0  0  0  0
  1  2  1  0
  1 29  1  0
  1 30  1  0
  1 31  1  0
  2 28  2  0
  2  3  1  0
  3  4  2  0
  3 32  1  0
  4  5  1  0
  4 33  1  0
  5  6  1  0
  5 27  2  0
  6 12  1  0
  6  7  2  0
  7  8  1  0
  7 34  1  0
  8  9  1  0
  8 10  2  0
 10 11  1  0
 10 35  1  0
 11 12  2  0
 11 36  1  0
 12 13  1  0
 13 37  1  0
 14 13  1  0
 14 25  2  0
 14 15  1  0
 15 16  1  0
 15 17  1  0
 17 18  2  0
 17 38  1  0
 18 19  1  0
 18 25  1  0
 19 24  1  0
 19 20  2  0
 20 21  1  0
 20 39  1  0
 21 22  2  0
 21 40  1  0
 22 23  1  0
 22 41  1  0
 23 24  2  0
 23 42  1  0
 24 43  1  0
 25 26  1  0
 27 28  1  0
 27 44  1  0
 28 45  1  0
M  CHG  1  25   1
M  END
>  <DOCK_score>  (1) 
-56.980202

>  <SMILES>  (1) 
Cc1ccc(-c2cc(Cl)ccc2Nc2[nH]cc(-c3ccccc3)[nH+]2)cc1

$$$$
