O=C(Nc1cccc(O)c1)[C@@H]([NH+]=C(NC1CCCCC1)NC1CCCCC1)c1cccc(O)c1
     RDKit          3D

 71 74  0  0  1  0  0  0  0  0999 V2000
  128.4499  136.1803  161.3111 O   0  0  0  0  0  0  0  0  0  0  0  0
  129.5717  136.2109  161.7713 C   0  0  0  0  0  0  0  0  0  0  0  0
  129.9725  137.2716  162.4997 N   0  0  0  0  0  0  0  0  0  0  0  0
  129.0945  138.3375  162.7251 C   0  0  0  0  0  0  0  0  0  0  0  0
  129.5908  139.6247  162.8895 C   0  0  0  0  0  0  0  0  0  0  0  0
  128.7240  140.6770  163.1111 C   0  0  0  0  0  0  0  0  0  0  0  0
  127.3612  140.4534  163.1650 C   0  0  0  0  0  0  0  0  0  0  0  0
  126.8602  139.1690  163.0073 C   0  0  0  0  0  0  0  0  0  0  0  0
  125.5202  138.9499  163.0659 O   0  0  0  0  0  0  0  0  0  0  0  0
  127.7269  138.1104  162.7842 C   0  0  0  0  0  0  0  0  0  0  0  0
  130.5172  135.0628  161.5287 C   0  0  1  0  0  0  0  0  0  0  0  0
  130.4070  134.3268  162.3251 H   0  0  0  0  0  0  0  0  0  0  0  0
  130.2068  134.4384  160.2403 N   0  0  0  0  0  0  0  0  0  0  0  0
  130.8791  134.4077  159.5417 H   0  0  0  0  0  0  0  0  0  0  0  0
  129.0272  133.9244  160.0326 C   0  0  0  0  0  0  0  0  0  0  0  0
  128.7359  133.3384  158.8235 N   0  0  0  0  0  0  0  0  0  0  0  0
  129.7988  132.6979  158.0449 C   0  0  0  0  0  0  0  0  0  0  0  0
  129.9182  133.3849  156.6830 C   0  0  0  0  0  0  0  0  0  0  0  0
  131.0282  132.7160  155.8699 C   0  0  0  0  0  0  0  0  0  0  0  0
  130.6917  131.2374  155.6673 C   0  0  0  0  0  0  0  0  0  0  0  0
  130.5724  130.5503  157.0292 C   0  0  0  0  0  0  0  0  0  0  0  0
  129.4623  131.2191  157.8423 C   0  0  0  0  0  0  0  0  0  0  0  0
  128.0742  133.9680  161.0226 N   0  0  0  0  0  0  0  0  0  0  0  0
  126.7484  133.3902  160.7892 C   0  0  0  0  0  0  0  0  0  0  0  0
  125.7075  134.1541  161.6100 C   0  0  0  0  0  0  0  0  0  0  0  0
  124.3229  133.5507  161.3661 C   0  0  0  0  0  0  0  0  0  0  0  0
  124.3258  132.0801  161.7881 C   0  0  0  0  0  0  0  0  0  0  0  0
  125.3668  131.3162  160.9673 C   0  0  0  0  0  0  0  0  0  0  0  0
  126.7515  131.9196  161.2111 C   0  0  0  0  0  0  0  0  0  0  0  0
  131.9344  135.5747  161.5103 C   0  0  0  0  0  0  0  0  0  0  0  0
  132.8542  135.0953  162.4251 C   0  0  0  0  0  0  0  0  0  0  0  0
  134.1550  135.5628  162.4108 C   0  0  0  0  0  0  0  0  0  0  0  0
  134.5397  136.5101  161.4814 C   0  0  0  0  0  0  0  0  0  0  0  0
  133.6193  136.9922  160.5624 C   0  0  0  0  0  0  0  0  0  0  0  0
  133.9954  137.9236  159.6469 O   0  0  0  0  0  0  0  0  0  0  0  0
  132.3153  136.5181  160.5760 C   0  0  0  0  0  0  0  0  0  0  0  0
  130.8696  137.2961  162.8677 H   0  0  0  0  0  0  0  0  0  0  0  0
  130.6551  139.8026  162.8436 H   0  0  0  0  0  0  0  0  0  0  0  0
  129.1116  141.6770  163.2383 H   0  0  0  0  0  0  0  0  0  0  0  0
  126.6855  141.2788  163.3340 H   0  0  0  0  0  0  0  0  0  0  0  0
  125.2672  138.0245  162.9449 H   0  0  0  0  0  0  0  0  0  0  0  0
  127.3385  137.1108  162.6571 H   0  0  0  0  0  0  0  0  0  0  0  0
  127.8265  133.3490  158.4859 H   0  0  0  0  0  0  0  0  0  0  0  0
  130.7443  132.7854  158.5800 H   0  0  0  0  0  0  0  0  0  0  0  0
  128.9726  133.2975  156.1479 H   0  0  0  0  0  0  0  0  0  0  0  0
  130.1578  134.4384  156.8273 H   0  0  0  0  0  0  0  0  0  0  0  0
  131.9737  132.8035  156.4051 H   0  0  0  0  0  0  0  0  0  0  0  0
  131.1132  133.2056  154.8997 H   0  0  0  0  0  0  0  0  0  0  0  0
  131.4826  130.7608  155.0880 H   0  0  0  0  0  0  0  0  0  0  0  0
  129.7462  131.1499  155.1321 H   0  0  0  0  0  0  0  0  0  0  0  0
  131.5180  130.6378  157.5643 H   0  0  0  0  0  0  0  0  0  0  0  0
  130.3328  129.4968  156.8848 H   0  0  0  0  0  0  0  0  0  0  0  0
  129.3774  130.7297  158.8125 H   0  0  0  0  0  0  0  0  0  0  0  0
  128.5168  131.1316  157.3071 H   0  0  0  0  0  0  0  0  0  0  0  0
  128.2799  134.3815  161.8757 H   0  0  0  0  0  0  0  0  0  0  0  0
  126.5013  133.4638  159.7300 H   0  0  0  0  0  0  0  0  0  0  0  0
  125.9546  134.0806  162.6690 H   0  0  0  0  0  0  0  0  0  0  0  0
  125.7052  135.2018  161.3093 H   0  0  0  0  0  0  0  0  0  0  0  0
  124.0758  133.6243  160.3071 H   0  0  0  0  0  0  0  0  0  0  0  0
  123.5813  134.0949  161.9509 H   0  0  0  0  0  0  0  0  0  0  0  0
  123.3394  131.6501  161.6145 H   0  0  0  0  0  0  0  0  0  0  0  0
  124.5729  132.0064  162.8472 H   0  0  0  0  0  0  0  0  0  0  0  0
  125.1198  131.3897  159.9082 H   0  0  0  0  0  0  0  0  0  0  0  0
  125.3690  130.2685  161.2680 H   0  0  0  0  0  0  0  0  0  0  0  0
  127.4931  131.3753  160.6264 H   0  0  0  0  0  0  0  0  0  0  0  0
  126.9986  131.8459  162.2702 H   0  0  0  0  0  0  0  0  0  0  0  0
  132.5554  134.3546  163.1522 H   0  0  0  0  0  0  0  0  0  0  0  0
  134.8713  135.1871  163.1265 H   0  0  0  0  0  0  0  0  0  0  0  0
  135.5564  136.8746  161.4701 H   0  0  0  0  0  0  0  0  0  0  0  0
  133.2855  138.1975  159.0501 H   0  0  0  0  0  0  0  0  0  0  0  0
  131.5979  136.8888  159.8589 H   0  0  0  0  0  0  0  0  0  0  0  0
  1  2  2  0
  2  3  1  0
  2 11  1  0
  3  4  1  0
  3 37  1  0
  4 10  1  0
  4  5  2  0
  5  6  1  0
  5 38  1  0
  6  7  2  0
  6 39  1  0
  7  8  1  0
  7 40  1  0
  8  9  1  0
  8 10  2  0
  9 41  1  0
 10 42  1  0
 11 12  1  1
 11 13  1  0
 11 30  1  0
 13 14  1  0
 13 15  2  0
 15 16  1  0
 15 23  1  0
 16 17  1  0
 16 43  1  0
 17 22  1  0
 17 18  1  0
 17 44  1  0
 18 19  1  0
 18 45  1  0
 18 46  1  0
 19 20  1  0
 19 47  1  0
 19 48  1  0
 20 21  1  0
 20 49  1  0
 20 50  1  0
 21 22  1  0
 21 51  1  0
 21 52  1  0
 22 53  1  0
 22 54  1  0
 23 24  1  0
 23 55  1  0
 24 29  1  0
 24 25  1  0
 24 56  1  0
 25 26  1  0
 25 57  1  0
 25 58  1  0
 26 27  1  0
 26 59  1  0
 26 60  1  0
 27 28  1  0
 27 61  1  0
 27 62  1  0
 28 29  1  0
 28 63  1  0
 28 64  1  0
 29 65  1  0
 29 66  1  0
 30 36  1  0
 30 31  2  0
 31 32  1  0
 31 67  1  0
 32 33  2  0
 32 68  1  0
 33 34  1  0
 33 69  1  0
 34 35  1  0
 34 36  2  0
 35 70  1  0
 36 71  1  0
M  CHG  1  13   1
M  END
>  <DOCK_score>  (1) 
-42.466541

>  <SMILES>  (1) 
O=C(Nc1cccc(O)c1)[C@@H]([NH+]=C(NC1CCCCC1)NC1CCCCC1)c1cccc(O)c1

$$$$
