O=C(C[N@H+]1CCC2(CC(Oc3cncnc3)C2)C1)c1ccc(Cl)cc1
     RDKit          3D

 46 49  0  0  1  0  0  0  0  0999 V2000
  131.5335  130.8084  157.0286 O   0  0  0  0  0  0  0  0  0  0  0  0
  130.8601  131.5326  156.3266 C   0  0  0  0  0  0  0  0  0  0  0  0
  130.1138  132.6913  156.9360 C   0  0  0  0  0  0  0  0  0  0  0  0
  130.3633  132.7276  158.3833 N   0  0  1  0  0  0  0  0  0  0  0  0
  130.3629  131.7885  158.7524 H   0  0  0  0  0  0  0  0  0  0  0  0
  131.6732  133.3629  158.6471 C   0  0  0  0  0  0  0  0  0  0  0  0
  131.4687  134.1745  159.9532 C   0  0  0  0  0  0  0  0  0  0  0  0
  130.0191  134.6650  159.7861 C   0  0  2  0  0  0  0  0  0  0  0  0
  129.8554  136.0587  159.1887 C   0  0  0  0  0  0  0  0  0  0  0  0
  128.6749  136.2393  160.1613 C   0  0  2  0  0  0  0  0  0  0  0  0
  128.6217  137.5352  160.7612 O   0  0  0  0  0  0  0  0  0  0  0  0
  128.0845  137.6168  162.0071 C   0  0  0  0  0  0  0  0  0  0  0  0
  126.7718  137.2232  162.2451 C   0  0  0  0  0  0  0  0  0  0  0  0
  126.2839  137.3231  163.4706 N   0  0  0  0  0  0  0  0  0  0  0  0
  127.0236  137.7877  164.4574 C   0  0  0  0  0  0  0  0  0  0  0  0
  128.2709  138.1705  164.2720 N   0  0  0  0  0  0  0  0  0  0  0  0
  128.8315  138.1016  163.0757 C   0  0  0  0  0  0  0  0  0  0  0  0
  129.3405  135.1746  161.0532 C   0  0  0  0  0  0  0  0  0  0  0  0
  129.3119  133.5240  159.0492 C   0  0  0  0  0  0  0  0  0  0  0  0
  130.7719  131.2799  154.8803 C   0  0  0  0  0  0  0  0  0  0  0  0
  130.5683  132.3417  153.9924 C   0  0  0  0  0  0  0  0  0  0  0  0
  130.4920  132.0982  152.6382 C   0  0  0  0  0  0  0  0  0  0  0  0
  130.6055  130.8038  152.1561 C   0  0  0  0  0  0  0  0  0  0  0  0
  130.5003  130.5051  150.4493 Cl  0  0  0  0  0  0  0  0  0  0  0  0
  130.8019  129.7468  153.0299 C   0  0  0  0  0  0  0  0  0  0  0  0
  130.8856  129.9758  154.3864 C   0  0  0  0  0  0  0  0  0  0  0  0
  129.0457  132.5714  156.7542 H   0  0  0  0  0  0  0  0  0  0  0  0
  130.4571  133.6222  156.4848 H   0  0  0  0  0  0  0  0  0  0  0  0
  132.4412  132.6027  158.7897 H   0  0  0  0  0  0  0  0  0  0  0  0
  131.9450  134.0258  157.8257 H   0  0  0  0  0  0  0  0  0  0  0  0
  132.1621  135.0141  160.0043 H   0  0  0  0  0  0  0  0  0  0  0  0
  131.5664  133.5349  160.8304 H   0  0  0  0  0  0  0  0  0  0  0  0
  129.5609  136.0534  158.1393 H   0  0  0  0  0  0  0  0  0  0  0  0
  130.6945  136.7245  159.3904 H   0  0  0  0  0  0  0  0  0  0  0  0
  127.7167  135.9256  159.7470 H   0  0  0  0  0  0  0  0  0  0  0  0
  126.1598  136.8418  161.4412 H   0  0  0  0  0  0  0  0  0  0  0  0
  126.5952  137.8570  165.4465 H   0  0  0  0  0  0  0  0  0  0  0  0
  129.8540  138.4173  162.9308 H   0  0  0  0  0  0  0  0  0  0  0  0
  130.0343  135.5882  161.7852 H   0  0  0  0  0  0  0  0  0  0  0  0
  128.6363  134.4654  161.4882 H   0  0  0  0  0  0  0  0  0  0  0  0
  128.7677  132.9023  159.7602 H   0  0  0  0  0  0  0  0  0  0  0  0
  128.6246  133.9296  158.3069 H   0  0  0  0  0  0  0  0  0  0  0  0
  130.4749  133.3504  154.3672 H   0  0  0  0  0  0  0  0  0  0  0  0
  130.3393  132.9175  151.9512 H   0  0  0  0  0  0  0  0  0  0  0  0
  130.8894  128.7406  152.6472 H   0  0  0  0  0  0  0  0  0  0  0  0
  131.0388  129.1510  155.0663 H   0  0  0  0  0  0  0  0  0  0  0  0
  1  2  2  0
  2  3  1  0
  2 20  1  0
  3  4  1  0
  3 27  1  0
  3 28  1  0
  4  5  1  1
  4 19  1  0
  4  6  1  0
  6  7  1  0
  6 29  1  0
  6 30  1  0
  7 31  1  0
  7 32  1  0
  8  7  1  1
  8 18  1  0
  8  9  1  0
  8 19  1  0
  9 10  1  0
  9 33  1  0
  9 34  1  0
 10 11  1  0
 10 18  1  0
 10 35  1  6
 11 12  1  0
 12 17  1  0
 12 13  2  0
 13 14  1  0
 13 36  1  0
 14 15  2  0
 15 16  1  0
 15 37  1  0
 16 17  2  0
 17 38  1  0
 18 39  1  0
 18 40  1  0
 19 41  1  0
 19 42  1  0
 20 26  1  0
 20 21  2  0
 21 22  1  0
 21 43  1  0
 22 23  2  0
 22 44  1  0
 23 24  1  0
 23 25  1  0
 25 26  2  0
 25 45  1  0
 26 46  1  0
M  CHG  1   4   1
M  END
>  <DOCK_score>  (1) 
-41.340424

>  <SMILES>  (1) 
O=C(C[N@H+]1CCC2(CC(Oc3cncnc3)C2)C1)c1ccc(Cl)cc1

$$$$
