C1=C(C[C@H](Nc2[nH]cc(-c3ccc(-c4ccccc4)cc3)[nH+]2)c2ccccc2)CCCC1
     RDKit          3D

 62 66  0  0  1  0  0  0  0  0999 V2000
  132.8765  139.3536  160.6912 C   0  0  0  0  0  0  0  0  0  0  0  0
  132.6375  138.4897  161.6250 C   0  0  0  0  0  0  0  0  0  0  0  0
  131.2024  138.2565  162.0214 C   0  0  0  0  0  0  0  0  0  0  0  0
  130.8402  136.7887  161.7854 C   0  0  2  0  0  0  0  0  0  0  0  0
  131.4909  136.1530  162.3859 H   0  0  0  0  0  0  0  0  0  0  0  0
  131.0140  136.4647  160.3673 N   0  0  0  0  0  0  0  0  0  0  0  0
  130.7448  135.1857  159.9117 C   0  0  0  0  0  0  0  0  0  0  0  0
  130.3207  134.1439  160.6781 N   0  0  0  0  0  0  0  0  0  0  0  0
  130.1538  134.1643  161.6334 H   0  0  0  0  0  0  0  0  0  0  0  0
  130.1720  133.0589  159.8493 C   0  0  0  0  0  0  0  0  0  0  0  0
  130.5092  133.4683  158.6005 C   0  0  0  0  0  0  0  0  0  0  0  0
  130.5002  132.6325  157.3762 C   0  0  0  0  0  0  0  0  0  0  0  0
  130.2490  133.2168  156.1346 C   0  0  0  0  0  0  0  0  0  0  0  0
  130.2411  132.4403  154.9971 C   0  0  0  0  0  0  0  0  0  0  0  0
  130.4848  131.0700  155.0865 C   0  0  0  0  0  0  0  0  0  0  0  0
  130.4765  130.2340  153.8615 C   0  0  0  0  0  0  0  0  0  0  0  0
  131.2769  129.0954  153.7861 C   0  0  0  0  0  0  0  0  0  0  0  0
  131.2652  128.3215  152.6436 C   0  0  0  0  0  0  0  0  0  0  0  0
  130.4610  128.6736  151.5746 C   0  0  0  0  0  0  0  0  0  0  0  0
  129.6685  129.8054  151.6417 C   0  0  0  0  0  0  0  0  0  0  0  0
  129.6684  130.5843  152.7810 C   0  0  0  0  0  0  0  0  0  0  0  0
  130.7308  130.4848  156.3282 C   0  0  0  0  0  0  0  0  0  0  0  0
  130.7435  131.2619  157.4654 C   0  0  0  0  0  0  0  0  0  0  0  0
  130.8619  134.7766  158.6720 N   0  0  0  0  0  0  0  0  0  0  0  0
  131.1516  135.3227  157.9245 H   0  0  0  0  0  0  0  0  0  0  0  0
  129.4052  136.5555  162.1819 C   0  0  0  0  0  0  0  0  0  0  0  0
  129.0981  136.1778  163.4756 C   0  0  0  0  0  0  0  0  0  0  0  0
  127.7814  135.9677  163.8403 C   0  0  0  0  0  0  0  0  0  0  0  0
  126.7724  136.1275  162.9090 C   0  0  0  0  0  0  0  0  0  0  0  0
  127.0798  136.5003  161.6139 C   0  0  0  0  0  0  0  0  0  0  0  0
  128.3963  136.7141  161.2502 C   0  0  0  0  0  0  0  0  0  0  0  0
  133.7010  137.7104  162.3417 C   0  0  0  0  0  0  0  0  0  0  0  0
  135.0075  137.7466  161.5429 C   0  0  0  0  0  0  0  0  0  0  0  0
  135.3088  139.2059  161.1786 C   0  0  0  0  0  0  0  0  0  0  0  0
  134.2494  139.6852  160.1839 C   0  0  0  0  0  0  0  0  0  0  0  0
  132.0357  139.8680  160.2499 H   0  0  0  0  0  0  0  0  0  0  0  0
  130.5517  138.8923  161.4210 H   0  0  0  0  0  0  0  0  0  0  0  0
  131.0731  138.4976  163.0765 H   0  0  0  0  0  0  0  0  0  0  0  0
  131.3177  137.1465  159.7478 H   0  0  0  0  0  0  0  0  0  0  0  0
  129.8483  132.0694  160.1366 H   0  0  0  0  0  0  0  0  0  0  0  0
  130.0602  134.2780  156.0654 H   0  0  0  0  0  0  0  0  0  0  0  0
  130.0466  132.8926  154.0359 H   0  0  0  0  0  0  0  0  0  0  0  0
  131.9046  128.8192  154.6204 H   0  0  0  0  0  0  0  0  0  0  0  0
  131.8851  127.4390  152.5840 H   0  0  0  0  0  0  0  0  0  0  0  0
  130.4552  128.0650  150.6824 H   0  0  0  0  0  0  0  0  0  0  0  0
  129.0459  130.0780  150.8024 H   0  0  0  0  0  0  0  0  0  0  0  0
  129.0462  131.4653  152.8340 H   0  0  0  0  0  0  0  0  0  0  0  0
  130.9155  129.4230  156.3977 H   0  0  0  0  0  0  0  0  0  0  0  0
  130.9385  130.8095  158.4265 H   0  0  0  0  0  0  0  0  0  0  0  0
  129.8867  136.0495  164.2023 H   0  0  0  0  0  0  0  0  0  0  0  0
  127.5412  135.6761  164.8521 H   0  0  0  0  0  0  0  0  0  0  0  0
  125.7438  135.9609  163.1933 H   0  0  0  0  0  0  0  0  0  0  0  0
  126.2915  136.6248  160.8862 H   0  0  0  0  0  0  0  0  0  0  0  0
  128.6364  137.0052  160.2384 H   0  0  0  0  0  0  0  0  0  0  0  0
  133.8645  138.1448  163.3280 H   0  0  0  0  0  0  0  0  0  0  0  0
  133.3769  136.6758  162.4542 H   0  0  0  0  0  0  0  0  0  0  0  0
  134.9010  137.1564  160.6328 H   0  0  0  0  0  0  0  0  0  0  0  0
  135.8204  137.3446  162.1475 H   0  0  0  0  0  0  0  0  0  0  0  0
  136.2967  139.2732  160.7226 H   0  0  0  0  0  0  0  0  0  0  0  0
  135.2764  139.8250  162.0751 H   0  0  0  0  0  0  0  0  0  0  0  0
  134.4077  139.1951  159.2232 H   0  0  0  0  0  0  0  0  0  0  0  0
  134.3362  140.7641  160.0553 H   0  0  0  0  0  0  0  0  0  0  0  0
  1 35  1  0
  1  2  2  0
  1 36  1  0
  2  3  1  0
  2 32  1  0
  3  4  1  0
  3 37  1  0
  3 38  1  0
  4  5  1  1
  4  6  1  0
  4 26  1  0
  6 39  1  0
  7  6  1  0
  7 24  2  0
  7  8  1  0
  8  9  1  0
  8 10  1  0
 10 11  2  0
 10 40  1  0
 11 12  1  0
 11 24  1  0
 12 23  1  0
 12 13  2  0
 13 14  1  0
 13 41  1  0
 14 15  2  0
 14 42  1  0
 15 16  1  0
 15 22  1  0
 16 21  1  0
 16 17  2  0
 17 18  1  0
 17 43  1  0
 18 19  2  0
 18 44  1  0
 19 20  1  0
 19 45  1  0
 20 21  2  0
 20 46  1  0
 21 47  1  0
 22 23  2  0
 22 48  1  0
 23 49  1  0
 24 25  1  0
 26 31  1  0
 26 27  2  0
 27 28  1  0
 27 50  1  0
 28 29  2  0
 28 51  1  0
 29 30  1  0
 29 52  1  0
 30 31  2  0
 30 53  1  0
 31 54  1  0
 32 33  1  0
 32 55  1  0
 32 56  1  0
 33 34  1  0
 33 57  1  0
 33 58  1  0
 34 35  1  0
 34 59  1  0
 34 60  1  0
 35 61  1  0
 35 62  1  0
M  CHG  1  24   1
M  END
>  <DOCK_score>  (1) 
-59.959412

>  <SMILES>  (1) 
C1=C(C[C@H](Nc2[nH]cc(-c3ccc(-c4ccccc4)cc3)[nH+]2)c2ccccc2)CCCC1

$$$$
