Cc1cccc([C@@H](Nc2[nH]cc(-c3ccc(N)cc3)[nH+]2)C2CCCC2O)c1CBr
     RDKit          3D

 57 60  0  0  1  0  0  0  0  0999 V2000
  125.6384  134.6032  162.7216 C   0  0  0  0  0  0  0  0  0  0  0  0
  126.4696  135.0658  161.5529 C   0  0  0  0  0  0  0  0  0  0  0  0
  125.8526  135.4902  160.3908 C   0  0  0  0  0  0  0  0  0  0  0  0
  126.6149  135.9186  159.3203 C   0  0  0  0  0  0  0  0  0  0  0  0
  127.9947  135.9135  159.4082 C   0  0  0  0  0  0  0  0  0  0  0  0
  128.6115  135.4895  160.5701 C   0  0  0  0  0  0  0  0  0  0  0  0
  130.1152  135.4894  160.6682 C   0  0  1  0  0  0  0  0  0  0  0  0
  130.4356  134.6937  161.3407 H   0  0  0  0  0  0  0  0  0  0  0  0
  130.6911  135.2670  159.3395 N   0  0  0  0  0  0  0  0  0  0  0  0
  130.4011  134.1051  158.6449 C   0  0  0  0  0  0  0  0  0  0  0  0
  129.6038  133.0952  159.0877 N   0  0  0  0  0  0  0  0  0  0  0  0
  129.1405  133.0600  159.9392 H   0  0  0  0  0  0  0  0  0  0  0  0
  129.5735  132.1356  158.1036 C   0  0  0  0  0  0  0  0  0  0  0  0
  130.3598  132.5831  157.0937 C   0  0  0  0  0  0  0  0  0  0  0  0
  130.6315  131.8743  155.8191 C   0  0  0  0  0  0  0  0  0  0  0  0
  130.2801  132.4620  154.6049 C   0  0  0  0  0  0  0  0  0  0  0  0
  130.5390  131.8039  153.4211 C   0  0  0  0  0  0  0  0  0  0  0  0
  131.1389  130.5506  153.4384 C   0  0  0  0  0  0  0  0  0  0  0  0
  131.3946  129.8833  152.2380 N   0  0  0  0  0  0  0  0  0  0  0  0
  131.4852  129.9601  154.6483 C   0  0  0  0  0  0  0  0  0  0  0  0
  131.2335  130.6171  155.8341 C   0  0  0  0  0  0  0  0  0  0  0  0
  130.8536  133.7939  157.4548 N   0  0  0  0  0  0  0  0  0  0  0  0
  131.4473  134.3419  156.9179 H   0  0  0  0  0  0  0  0  0  0  0  0
  130.5912  136.8383  161.2110 C   0  0  2  0  0  0  0  0  0  0  0  0
  130.2063  137.9673  160.2326 C   0  0  0  0  0  0  0  0  0  0  0  0
  131.4064  138.9447  160.2893 C   0  0  0  0  0  0  0  0  0  0  0  0
  132.6206  137.9891  160.3981 C   0  0  0  0  0  0  0  0  0  0  0  0
  132.1262  136.8524  161.3163 C   0  0  2  0  0  0  0  0  0  0  0  0
  132.6584  135.6009  160.8773 O   0  0  0  0  0  0  0  0  0  0  0  0
  127.8489  135.0652  161.6425 C   0  0  0  0  0  0  0  0  0  0  0  0
  128.5214  134.6025  162.9093 C   0  0  0  0  0  0  0  0  0  0  0  0
  128.8557  132.6680  162.8046 Br  0  0  0  0  0  0  0  0  0  0  0  0
  125.4147  135.4526  163.3672 H   0  0  0  0  0  0  0  0  0  0  0  0
  124.7075  134.1694  162.3565 H   0  0  0  0  0  0  0  0  0  0  0  0
  126.1916  133.8531  163.2869 H   0  0  0  0  0  0  0  0  0  0  0  0
  124.7749  135.4904  160.3206 H   0  0  0  0  0  0  0  0  0  0  0  0
  126.1327  136.2541  158.4140 H   0  0  0  0  0  0  0  0  0  0  0  0
  128.5903  136.2448  158.5705 H   0  0  0  0  0  0  0  0  0  0  0  0
  131.2757  135.9339  158.9464 H   0  0  0  0  0  0  0  0  0  0  0  0
  129.0306  131.2024  158.1313 H   0  0  0  0  0  0  0  0  0  0  0  0
  129.8094  133.4339  154.5911 H   0  0  0  0  0  0  0  0  0  0  0  0
  130.2710  132.2608  152.4799 H   0  0  0  0  0  0  0  0  0  0  0  0
  131.8133  129.0078  152.2496 H   0  0  0  0  0  0  0  0  0  0  0  0
  131.1530  130.2939  151.3936 H   0  0  0  0  0  0  0  0  0  0  0  0
  131.9516  128.9861  154.6594 H   0  0  0  0  0  0  0  0  0  0  0  0
  131.5028  130.1581  156.7739 H   0  0  0  0  0  0  0  0  0  0  0  0
  130.1481  137.0241  162.1894 H   0  0  0  0  0  0  0  0  0  0  0  0
  130.0832  137.5725  159.2240 H   0  0  0  0  0  0  0  0  0  0  0  0
  129.2940  138.4638  160.5628 H   0  0  0  0  0  0  0  0  0  0  0  0
  131.3405  139.5869  161.1675 H   0  0  0  0  0  0  0  0  0  0  0  0
  131.4654  139.5420  159.3794 H   0  0  0  0  0  0  0  0  0  0  0  0
  133.4702  138.5017  160.8493 H   0  0  0  0  0  0  0  0  0  0  0  0
  132.8897  137.5976  159.4171 H   0  0  0  0  0  0  0  0  0  0  0  0
  132.4281  137.0456  162.3456 H   0  0  0  0  0  0  0  0  0  0  0  0
  132.4089  134.8503  161.4337 H   0  0  0  0  0  0  0  0  0  0  0  0
  129.4681  135.1288  163.0312 H   0  0  0  0  0  0  0  0  0  0  0  0
  127.8757  134.8141  163.7616 H   0  0  0  0  0  0  0  0  0  0  0  0
  1  2  1  0
  1 33  1  0
  1 34  1  0
  1 35  1  0
  2 30  2  0
  2  3  1  0
  3  4  2  0
  3 36  1  0
  4  5  1  0
  4 37  1  0
  5  6  2  0
  5 38  1  0
  6  7  1  0
  6 30  1  0
  7  8  1  1
  7  9  1  0
  7 24  1  0
  9 39  1  0
 10  9  1  0
 10 22  2  0
 10 11  1  0
 11 12  1  0
 11 13  1  0
 13 14  2  0
 13 40  1  0
 14 15  1  0
 14 22  1  0
 15 21  1  0
 15 16  2  0
 16 17  1  0
 16 41  1  0
 17 18  2  0
 17 42  1  0
 18 19  1  0
 18 20  1  0
 19 43  1  0
 19 44  1  0
 20 21  2  0
 20 45  1  0
 21 46  1  0
 22 23  1  0
 24 28  1  0
 24 25  1  0
 24 47  1  1
 25 26  1  0
 25 48  1  0
 25 49  1  0
 26 27  1  0
 26 50  1  0
 26 51  1  0
 27 28  1  0
 27 52  1  0
 27 53  1  0
 28 29  1  0
 28 54  1  1
 29 55  1  0
 30 31  1  0
 31 32  1  0
 31 56  1  0
 31 57  1  0
M  CHG  1  22   1
M  END
>  <DOCK_score>  (1) 
-62.610218

>  <SMILES>  (1) 
Cc1cccc([C@@H](Nc2[nH]cc(-c3ccc(N)cc3)[nH+]2)C2CCCC2O)c1CBr

$$$$
