CCNc1cccc(Oc2cccc([C@@H]([NH3+])C(=O)Nc3cccc(O)c3)c2)c1
     RDKit          3D

 52 54  0  0  1  0  0  0  0  0999 V2000
  138.2702  136.8668  167.2198 C   0  0  0  0  0  0  0  0  0  0  0  0
  136.7856  136.9037  166.8516 C   0  0  0  0  0  0  0  0  0  0  0  0
  136.6262  136.5773  165.4323 N   0  0  0  0  0  0  0  0  0  0  0  0
  135.3519  136.5481  164.8614 C   0  0  0  0  0  0  0  0  0  0  0  0
  134.2345  136.8280  165.6388 C   0  0  0  0  0  0  0  0  0  0  0  0
  132.9742  136.7981  165.0744 C   0  0  0  0  0  0  0  0  0  0  0  0
  132.8214  136.4965  163.7342 C   0  0  0  0  0  0  0  0  0  0  0  0
  133.9331  136.2104  162.9541 C   0  0  0  0  0  0  0  0  0  0  0  0
  133.7806  135.9081  161.6382 O   0  0  0  0  0  0  0  0  0  0  0  0
  132.7962  135.0370  161.2936 C   0  0  0  0  0  0  0  0  0  0  0  0
  132.6167  133.8682  162.0200 C   0  0  0  0  0  0  0  0  0  0  0  0
  131.6155  132.9843  161.6674 C   0  0  0  0  0  0  0  0  0  0  0  0
  130.7893  133.2658  160.5948 C   0  0  0  0  0  0  0  0  0  0  0  0
  130.9694  134.4268  159.8662 C   0  0  0  0  0  0  0  0  0  0  0  0
  130.0704  134.7276  158.6948 C   0  0  1  0  0  0  0  0  0  0  0  0
  129.9688  135.8071  158.5826 H   0  0  0  0  0  0  0  0  0  0  0  0
  130.6538  134.1608  157.4715 N   0  0  0  0  0  0  0  0  0  0  0  0
  130.0518  134.3623  156.6872 H   0  0  0  0  0  0  0  0  0  0  0  0
  131.5624  134.5694  157.3117 H   0  0  0  0  0  0  0  0  0  0  0  0
  130.7478  133.1616  157.5754 H   0  0  0  0  0  0  0  0  0  0  0  0
  128.7132  134.1174  158.9335 C   0  0  0  0  0  0  0  0  0  0  0  0
  128.2751  133.2917  158.1605 O   0  0  0  0  0  0  0  0  0  0  0  0
  127.9863  134.4894  160.0057 N   0  0  0  0  0  0  0  0  0  0  0  0
  126.7262  133.9228  160.2273 C   0  0  0  0  0  0  0  0  0  0  0  0
  126.4611  132.6276  159.8006 C   0  0  0  0  0  0  0  0  0  0  0  0
  125.2173  132.0684  160.0195 C   0  0  0  0  0  0  0  0  0  0  0  0
  124.2356  132.7928  160.6690 C   0  0  0  0  0  0  0  0  0  0  0  0
  124.4929  134.0890  161.0923 C   0  0  0  0  0  0  0  0  0  0  0  0
  123.5249  134.8023  161.7254 O   0  0  0  0  0  0  0  0  0  0  0  0
  125.7399  134.6538  160.8741 C   0  0  0  0  0  0  0  0  0  0  0  0
  131.9692  135.3143  160.2147 C   0  0  0  0  0  0  0  0  0  0  0  0
  135.1997  136.2389  163.5170 C   0  0  0  0  0  0  0  0  0  0  0  0
  138.8123  137.5948  166.6164 H   0  0  0  0  0  0  0  0  0  0  0  0
  138.3888  137.1096  168.2758 H   0  0  0  0  0  0  0  0  0  0  0  0
  138.6670  135.8696  167.0295 H   0  0  0  0  0  0  0  0  0  0  0  0
  136.3888  137.9009  167.0419 H   0  0  0  0  0  0  0  0  0  0  0  0
  136.2434  136.1757  167.4549 H   0  0  0  0  0  0  0  0  0  0  0  0
  137.4056  136.3816  164.8892 H   0  0  0  0  0  0  0  0  0  0  0  0
  134.3515  137.0688  166.6851 H   0  0  0  0  0  0  0  0  0  0  0  0
  132.1070  137.0160  165.6800 H   0  0  0  0  0  0  0  0  0  0  0  0
  131.8350  136.4790  163.2945 H   0  0  0  0  0  0  0  0  0  0  0  0
  133.2589  133.6502  162.8605 H   0  0  0  0  0  0  0  0  0  0  0  0
  131.4751  132.0749  162.2326 H   0  0  0  0  0  0  0  0  0  0  0  0
  130.0042  132.5755  160.3235 H   0  0  0  0  0  0  0  0  0  0  0  0
  128.3367  135.1498  160.6238 H   0  0  0  0  0  0  0  0  0  0  0  0
  127.2281  132.0576  159.2972 H   0  0  0  0  0  0  0  0  0  0  0  0
  125.0129  131.0614  159.6868 H   0  0  0  0  0  0  0  0  0  0  0  0
  123.2656  132.3510  160.8434 H   0  0  0  0  0  0  0  0  0  0  0  0
  123.7975  135.6938  161.9820 H   0  0  0  0  0  0  0  0  0  0  0  0
  125.9433  135.6611  161.2065 H   0  0  0  0  0  0  0  0  0  0  0  0
  132.1066  136.2234  159.6480 H   0  0  0  0  0  0  0  0  0  0  0  0
  136.0663  136.0206  162.9107 H   0  0  0  0  0  0  0  0  0  0  0  0
  1  2  1  0
  1 33  1  0
  1 34  1  0
  1 35  1  0
  2  3  1  0
  2 36  1  0
  2 37  1  0
  3  4  1  0
  3 38  1  0
  4 32  2  0
  4  5  1  0
  5  6  2  0
  5 39  1  0
  6  7  1  0
  6 40  1  0
  7  8  2  0
  7 41  1  0
  8  9  1  0
  8 32  1  0
  9 10  1  0
 10 31  1  0
 10 11  2  0
 11 12  1  0
 11 42  1  0
 12 13  2  0
 12 43  1  0
 13 14  1  0
 13 44  1  0
 14 15  1  0
 14 31  2  0
 15 16  1  6
 15 17  1  0
 15 21  1  0
 17 18  1  0
 17 19  1  0
 17 20  1  0
 21 22  2  0
 21 23  1  0
 23 24  1  0
 23 45  1  0
 24 30  1  0
 24 25  2  0
 25 26  1  0
 25 46  1  0
 26 27  2  0
 26 47  1  0
 27 28  1  0
 27 48  1  0
 28 29  1  0
 28 30  2  0
 29 49  1  0
 30 50  1  0
 31 51  1  0
 32 52  1  0
M  CHG  1  17   1
M  END
>  <DOCK_score>  (1) 
-44.247028

>  <SMILES>  (1) 
CCNc1cccc(Oc2cccc([C@@H]([NH3+])C(=O)Nc3cccc(O)c3)c2)c1

$$$$
