Cc1ccccc1[C@@H](c1ccccc1)[NH+]1CCN(c2ccccc2Oc2c(F)cccc2F)CC1
     RDKit          3D

 64 68  0  0  1  0  0  0  0  0999 V2000
  127.2063  131.8679  159.5099 C   0  0  0  0  0  0  0  0  0  0  0  0
  127.2181  133.2550  158.9212 C   0  0  0  0  0  0  0  0  0  0  0  0
  126.0268  133.9155  158.6839 C   0  0  0  0  0  0  0  0  0  0  0  0
  126.0376  135.1877  158.1440 C   0  0  0  0  0  0  0  0  0  0  0  0
  127.2396  135.8002  157.8413 C   0  0  0  0  0  0  0  0  0  0  0  0
  128.4307  135.1418  158.0826 C   0  0  0  0  0  0  0  0  0  0  0  0
  128.4197  133.8670  158.6179 C   0  0  0  0  0  0  0  0  0  0  0  0
  129.7182  133.1471  158.8764 C   0  0  1  0  0  0  0  0  0  0  0  0
  129.5976  132.4738  159.7250 H   0  0  0  0  0  0  0  0  0  0  0  0
  130.1038  132.3524  157.6554 C   0  0  0  0  0  0  0  0  0  0  0  0
  129.7251  132.7880  156.3992 C   0  0  0  0  0  0  0  0  0  0  0  0
  130.0826  132.0614  155.2789 C   0  0  0  0  0  0  0  0  0  0  0  0
  130.8104  130.8941  155.4154 C   0  0  0  0  0  0  0  0  0  0  0  0
  131.1850  130.4560  156.6719 C   0  0  0  0  0  0  0  0  0  0  0  0
  130.8312  131.1850  157.7919 C   0  0  0  0  0  0  0  0  0  0  0  0
  130.7706  134.1276  159.1750 N   0  0  0  0  0  0  0  0  0  0  0  0
  130.8820  134.7508  158.3894 H   0  0  0  0  0  0  0  0  0  0  0  0
  130.3942  134.9024  160.3647 C   0  0  0  0  0  0  0  0  0  0  0  0
  131.4816  135.9364  160.6652 C   0  0  0  0  0  0  0  0  0  0  0  0
  132.7596  135.2471  160.8925 N   0  0  0  0  0  0  0  0  0  0  0  0
  133.7688  136.1581  161.2241 C   0  0  0  0  0  0  0  0  0  0  0  0
  134.1132  137.1677  160.3372 C   0  0  0  0  0  0  0  0  0  0  0  0
  135.1107  138.0661  160.6669 C   0  0  0  0  0  0  0  0  0  0  0  0
  135.7673  137.9614  161.8791 C   0  0  0  0  0  0  0  0  0  0  0  0
  135.4295  136.9577  162.7683 C   0  0  0  0  0  0  0  0  0  0  0  0
  134.4307  136.0535  162.4459 C   0  0  0  0  0  0  0  0  0  0  0  0
  134.0976  135.0657  163.3192 O   0  0  0  0  0  0  0  0  0  0  0  0
  133.6487  135.4270  164.5506 C   0  0  0  0  0  0  0  0  0  0  0  0
  132.5034  136.2027  164.6739 C   0  0  0  0  0  0  0  0  0  0  0  0
  131.8335  136.5997  163.5700 F   0  0  0  0  0  0  0  0  0  0  0  0
  132.0460  136.5639  165.9289 C   0  0  0  0  0  0  0  0  0  0  0  0
  132.7345  136.1631  167.0590 C   0  0  0  0  0  0  0  0  0  0  0  0
  133.8779  135.3952  166.9396 C   0  0  0  0  0  0  0  0  0  0  0  0
  134.3375  135.0259  165.6878 C   0  0  0  0  0  0  0  0  0  0  0  0
  135.4554  134.2762  165.5718 F   0  0  0  0  0  0  0  0  0  0  0  0
  133.1371  134.4471  159.7187 C   0  0  0  0  0  0  0  0  0  0  0  0
  132.0361  133.4255  159.4260 C   0  0  0  0  0  0  0  0  0  0  0  0
  127.3332  131.9309  160.5907 H   0  0  0  0  0  0  0  0  0  0  0  0
  126.2558  131.3850  159.2832 H   0  0  0  0  0  0  0  0  0  0  0  0
  128.0216  131.2846  159.0818 H   0  0  0  0  0  0  0  0  0  0  0  0
  125.0879  133.4371  158.9203 H   0  0  0  0  0  0  0  0  0  0  0  0
  125.1071  135.7033  157.9579 H   0  0  0  0  0  0  0  0  0  0  0  0
  127.2481  136.7942  157.4191 H   0  0  0  0  0  0  0  0  0  0  0  0
  129.3698  135.6216  157.8497 H   0  0  0  0  0  0  0  0  0  0  0  0
  129.1530  133.6978  156.2929 H   0  0  0  0  0  0  0  0  0  0  0  0
  129.7902  132.4039  154.2973 H   0  0  0  0  0  0  0  0  0  0  0  0
  131.0868  130.3246  154.5403 H   0  0  0  0  0  0  0  0  0  0  0  0
  131.7536  129.5440  156.7785 H   0  0  0  0  0  0  0  0  0  0  0  0
  131.1236  130.8425  158.7736 H   0  0  0  0  0  0  0  0  0  0  0  0
  130.2861  134.2308  161.2164 H   0  0  0  0  0  0  0  0  0  0  0  0
  129.4484  135.4124  160.1819 H   0  0  0  0  0  0  0  0  0  0  0  0
  131.2097  136.5014  161.5568 H   0  0  0  0  0  0  0  0  0  0  0  0
  131.5807  136.6168  159.8195 H   0  0  0  0  0  0  0  0  0  0  0  0
  133.6026  137.2514  159.3893 H   0  0  0  0  0  0  0  0  0  0  0  0
  135.3780  138.8516  159.9757 H   0  0  0  0  0  0  0  0  0  0  0  0
  136.5492  138.6626  162.1303 H   0  0  0  0  0  0  0  0  0  0  0  0
  135.9444  136.8788  163.7144 H   0  0  0  0  0  0  0  0  0  0  0  0
  131.1532  137.1637  166.0255 H   0  0  0  0  0  0  0  0  0  0  0  0
  132.3781  136.4504  168.0372 H   0  0  0  0  0  0  0  0  0  0  0  0
  134.4132  135.0834  167.8243 H   0  0  0  0  0  0  0  0  0  0  0  0
  133.2634  135.1027  158.8571 H   0  0  0  0  0  0  0  0  0  0  0  0
  134.0730  133.9258  159.9196 H   0  0  0  0  0  0  0  0  0  0  0  0
  131.9196  132.7615  160.2824 H   0  0  0  0  0  0  0  0  0  0  0  0
  132.3075  132.8405  158.5471 H   0  0  0  0  0  0  0  0  0  0  0  0
  1  2  1  0
  1 38  1  0
  1 39  1  0
  1 40  1  0
  2  7  2  0
  2  3  1  0
  3  4  2  0
  3 41  1  0
  4  5  1  0
  4 42  1  0
  5  6  2  0
  5 43  1  0
  6  7  1  0
  6 44  1  0
  7  8  1  0
  8  9  1  1
  8 10  1  0
  8 16  1  0
 10 15  1  0
 10 11  2  0
 11 12  1  0
 11 45  1  0
 12 13  2  0
 12 46  1  0
 13 14  1  0
 13 47  1  0
 14 15  2  0
 14 48  1  0
 15 49  1  0
 16 17  1  0
 16 37  1  0
 16 18  1  0
 18 19  1  0
 18 50  1  0
 18 51  1  0
 19 20  1  0
 19 52  1  0
 19 53  1  0
 20 21  1  0
 20 36  1  0
 21 26  1  0
 21 22  2  0
 22 23  1  0
 22 54  1  0
 23 24  2  0
 23 55  1  0
 24 25  1  0
 24 56  1  0
 25 26  2  0
 25 57  1  0
 26 27  1  0
 27 28  1  0
 28 34  1  0
 28 29  2  0
 29 30  1  0
 29 31  1  0
 31 32  2  0
 31 58  1  0
 32 33  1  0
 32 59  1  0
 33 34  2  0
 33 60  1  0
 34 35  1  0
 36 37  1  0
 36 61  1  0
 36 62  1  0
 37 63  1  0
 37 64  1  0
M  CHG  1  16   1
M  END
>  <DOCK_score>  (1) 
-56.284035

>  <SMILES>  (1) 
Cc1ccccc1[C@@H](c1ccccc1)[NH+]1CCN(c2ccccc2Oc2c(F)cccc2F)CC1

$$$$
