O[C@H](C[NH2+]C[C@H]1CCC=C1c1cncc(-c2ccc3cccnc3c2)c1)[C@@H]1CO1
     RDKit          3D

 55 59  0  0  1  0  0  0  0  0999 V2000
  130.7467  136.8274  159.5179 O   0  0  0  0  0  0  0  0  0  0  0  0
  131.7399  137.3466  160.4046 C   0  0  2  0  0  0  0  0  0  0  0  0
  132.5151  136.5964  160.5609 H   0  0  0  0  0  0  0  0  0  0  0  0
  131.0927  137.6982  161.7456 C   0  0  0  0  0  0  0  0  0  0  0  0
  130.4952  136.4913  162.3323 N   0  0  0  0  0  0  0  0  0  0  0  0
  131.2126  135.7970  162.4771 H   0  0  0  0  0  0  0  0  0  0  0  0
  129.7938  136.1248  161.7063 H   0  0  0  0  0  0  0  0  0  0  0  0
  129.8736  136.8290  163.6198 C   0  0  0  0  0  0  0  0  0  0  0  0
  129.2511  135.5720  164.2310 C   0  0  1  0  0  0  0  0  0  0  0  0
  129.9016  134.7119  164.0724 H   0  0  0  0  0  0  0  0  0  0  0  0
  128.9918  135.7794  165.7407 C   0  0  0  0  0  0  0  0  0  0  0  0
  127.6684  135.0053  165.9389 C   0  0  0  0  0  0  0  0  0  0  0  0
  127.0102  135.0060  164.5787 C   0  0  0  0  0  0  0  0  0  0  0  0
  127.8855  135.3186  163.6356 C   0  0  0  0  0  0  0  0  0  0  0  0
  127.5687  135.4084  162.1944 C   0  0  0  0  0  0  0  0  0  0  0  0
  126.6045  136.3078  161.7356 C   0  0  0  0  0  0  0  0  0  0  0  0
  126.3211  136.3975  160.4524 N   0  0  0  0  0  0  0  0  0  0  0  0
  126.9182  135.6442  159.5508 C   0  0  0  0  0  0  0  0  0  0  0  0
  127.8891  134.7157  159.9230 C   0  0  0  0  0  0  0  0  0  0  0  0
  128.5549  133.8722  158.9001 C   0  0  0  0  0  0  0  0  0  0  0  0
  128.7296  134.3668  157.5976 C   0  0  0  0  0  0  0  0  0  0  0  0
  129.3359  133.6129  156.6439 C   0  0  0  0  0  0  0  0  0  0  0  0
  129.7962  132.3226  156.9574 C   0  0  0  0  0  0  0  0  0  0  0  0
  130.4275  131.5193  155.9893 C   0  0  0  0  0  0  0  0  0  0  0  0
  130.8509  130.2745  156.3598 C   0  0  0  0  0  0  0  0  0  0  0  0
  130.6529  129.8326  157.6662 C   0  0  0  0  0  0  0  0  0  0  0  0
  130.0651  130.5831  158.5660 N   0  0  0  0  0  0  0  0  0  0  0  0
  129.6266  131.8112  158.2684 C   0  0  0  0  0  0  0  0  0  0  0  0
  129.0020  132.6096  159.2399 C   0  0  0  0  0  0  0  0  0  0  0  0
  128.2258  134.5907  161.2716 C   0  0  0  0  0  0  0  0  0  0  0  0
  132.3623  138.6036  159.7934 C   0  0  2  0  0  0  0  0  0  0  0  0
  131.6635  139.3001  159.3306 H   0  0  0  0  0  0  0  0  0  0  0  0
  133.7588  138.4817  159.1804 C   0  0  0  0  0  0  0  0  0  0  0  0
  133.5245  139.1451  160.4243 O   0  0  0  0  0  0  0  0  0  0  0  0
  131.0869  136.5826  158.6464 H   0  0  0  0  0  0  0  0  0  0  0  0
  130.3175  138.4484  161.5892 H   0  0  0  0  0  0  0  0  0  0  0  0
  131.8504  138.0941  162.4219 H   0  0  0  0  0  0  0  0  0  0  0  0
  129.0985  137.5791  163.4635 H   0  0  0  0  0  0  0  0  0  0  0  0
  130.6312  137.2249  164.2962 H   0  0  0  0  0  0  0  0  0  0  0  0
  128.8644  136.8367  165.9735 H   0  0  0  0  0  0  0  0  0  0  0  0
  129.7924  135.3438  166.3386 H   0  0  0  0  0  0  0  0  0  0  0  0
  127.8709  133.9841  166.2619 H   0  0  0  0  0  0  0  0  0  0  0  0
  127.0364  135.5144  166.6665 H   0  0  0  0  0  0  0  0  0  0  0  0
  125.9685  134.7820  164.4017 H   0  0  0  0  0  0  0  0  0  0  0  0
  126.0877  136.9414  162.4413 H   0  0  0  0  0  0  0  0  0  0  0  0
  126.6513  135.7473  158.5094 H   0  0  0  0  0  0  0  0  0  0  0  0
  128.3778  135.3577  157.3511 H   0  0  0  0  0  0  0  0  0  0  0  0
  129.4636  134.0047  155.6455 H   0  0  0  0  0  0  0  0  0  0  0  0
  130.5729  131.8773  154.9808 H   0  0  0  0  0  0  0  0  0  0  0  0
  131.3392  129.6335  155.6407 H   0  0  0  0  0  0  0  0  0  0  0  0
  130.9929  128.8461  157.9449 H   0  0  0  0  0  0  0  0  0  0  0  0
  128.8682  132.2379  160.2451 H   0  0  0  0  0  0  0  0  0  0  0  0
  128.9735  133.8807  161.5932 H   0  0  0  0  0  0  0  0  0  0  0  0
  134.2426  137.5053  159.2088 H   0  0  0  0  0  0  0  0  0  0  0  0
  133.9875  139.0983  158.3111 H   0  0  0  0  0  0  0  0  0  0  0  0
  1  2  1  0
  1 35  1  0
  2  3  1  1
  2  4  1  0
  2 31  1  0
  4  5  1  0
  4 36  1  0
  4 37  1  0
  5  6  1  0
  5  7  1  0
  5  8  1  0
  8  9  1  0
  8 38  1  0
  8 39  1  0
  9 10  1  1
  9 14  1  0
  9 11  1  0
 11 12  1  0
 11 40  1  0
 11 41  1  0
 12 13  1  0
 12 42  1  0
 12 43  1  0
 13 14  2  0
 13 44  1  0
 14 15  1  0
 15 30  1  0
 15 16  2  0
 16 17  1  0
 16 45  1  0
 17 18  2  0
 18 19  1  0
 18 46  1  0
 19 20  1  0
 19 30  2  0
 20 29  1  0
 20 21  2  0
 21 22  1  0
 21 47  1  0
 22 23  2  0
 22 48  1  0
 23 28  1  0
 23 24  1  0
 24 25  2  0
 24 49  1  0
 25 26  1  0
 25 50  1  0
 26 27  2  0
 26 51  1  0
 27 28  1  0
 28 29  2  0
 29 52  1  0
 30 53  1  0
 31 32  1  6
 31 34  1  0
 31 33  1  0
 33 34  1  0
 33 54  1  0
 33 55  1  0
M  CHG  1   5   1
M  END
>  <DOCK_score>  (1) 
-41.589859

>  <SMILES>  (1) 
O[C@H](C[NH2+]C[C@H]1CCC=C1c1cncc(-c2ccc3cccnc3c2)c1)[C@@H]1CO1

$$$$
