Cn1cc(CNC(N[C@@H]2C[C@@H]2NCc2nocc2Br)=[NH+]CCF)cn1
     RDKit          3D

 47 49  0  0  1  0  0  0  0  0999 V2000
  135.5734  142.0364  161.1712 C   0  0  0  0  0  0  0  0  0  0  0  0
  135.4731  140.5853  161.3462 N   0  0  0  0  0  0  0  0  0  0  0  0
  134.5871  139.7712  160.7352 C   0  0  0  0  0  0  0  0  0  0  0  0
  134.8226  138.5094  161.1637 C   0  0  0  0  0  0  0  0  0  0  0  0
  134.0690  137.2745  160.7417 C   0  0  0  0  0  0  0  0  0  0  0  0
  132.9356  137.0616  161.6451 N   0  0  0  0  0  0  0  0  0  0  0  0
  132.0979  135.9880  161.4559 C   0  0  0  0  0  0  0  0  0  0  0  0
  132.3239  135.1143  160.4188 N   0  0  0  0  0  0  0  0  0  0  0  0
  131.4313  133.9703  160.2171 C   0  0  2  0  0  0  0  0  0  0  0  0
  131.3717  133.2679  161.0485 H   0  0  0  0  0  0  0  0  0  0  0  0
  131.3224  133.4000  158.8015 C   0  0  0  0  0  0  0  0  0  0  0  0
  130.1618  134.2011  159.3949 C   0  0  2  0  0  0  0  0  0  0  0  0
  129.2669  133.6509  159.6857 H   0  0  0  0  0  0  0  0  0  0  0  0
  129.9313  135.5529  158.8682 N   0  0  0  0  0  0  0  0  0  0  0  0
  128.5155  135.7520  158.5305 C   0  0  0  0  0  0  0  0  0  0  0  0
  127.7374  136.0536  159.7853 C   0  0  0  0  0  0  0  0  0  0  0  0
  128.0776  136.8764  160.7350 N   0  0  0  0  0  0  0  0  0  0  0  0
  127.2491  136.9078  161.6153 O   0  0  0  0  0  0  0  0  0  0  0  0
  126.2223  136.0855  161.3554 C   0  0  0  0  0  0  0  0  0  0  0  0
  126.4927  135.4992  160.1641 C   0  0  0  0  0  0  0  0  0  0  0  0
  125.4481  134.2326  159.2258 Br  0  0  0  0  0  0  0  0  0  0  0  0
  131.0893  135.7987  162.2596 N   0  0  0  0  0  0  0  0  0  0  0  0
  130.4984  135.0412  162.1261 H   0  0  0  0  0  0  0  0  0  0  0  0
  130.8484  136.7299  163.3646 C   0  0  0  0  0  0  0  0  0  0  0  0
  129.6126  136.2826  164.1482 C   0  0  0  0  0  0  0  0  0  0  0  0
  129.8242  134.9976  164.6590 F   0  0  0  0  0  0  0  0  0  0  0  0
  135.8851  138.5548  162.0723 C   0  0  0  0  0  0  0  0  0  0  0  0
  136.2798  139.7978  162.1778 N   0  0  0  0  0  0  0  0  0  0  0  0
  134.9366  142.5352  161.9018 H   0  0  0  0  0  0  0  0  0  0  0  0
  136.6073  142.3493  161.3164 H   0  0  0  0  0  0  0  0  0  0  0  0
  135.2506  142.3040  160.1650 H   0  0  0  0  0  0  0  0  0  0  0  0
  133.8262  140.0727  160.0306 H   0  0  0  0  0  0  0  0  0  0  0  0
  134.7337  136.4115  160.7829 H   0  0  0  0  0  0  0  0  0  0  0  0
  133.7027  137.4027  159.7232 H   0  0  0  0  0  0  0  0  0  0  0  0
  132.7762  137.6781  162.3768 H   0  0  0  0  0  0  0  0  0  0  0  0
  133.0745  135.2551  159.8207 H   0  0  0  0  0  0  0  0  0  0  0  0
  131.1911  132.3226  158.7016 H   0  0  0  0  0  0  0  0  0  0  0  0
  131.9150  133.8761  158.0203 H   0  0  0  0  0  0  0  0  0  0  0  0
  130.5224  135.7360  158.0711 H   0  0  0  0  0  0  0  0  0  0  0  0
  128.1219  134.8473  158.0674 H   0  0  0  0  0  0  0  0  0  0  0  0
  128.4217  136.5864  157.8353 H   0  0  0  0  0  0  0  0  0  0  0  0
  125.3519  135.9225  161.9735 H   0  0  0  0  0  0  0  0  0  0  0  0
  131.7142  136.7400  164.0266 H   0  0  0  0  0  0  0  0  0  0  0  0
  130.6834  137.7312  162.9665 H   0  0  0  0  0  0  0  0  0  0  0  0
  129.4334  136.9755  164.9703 H   0  0  0  0  0  0  0  0  0  0  0  0
  128.7467  136.2724  163.4861 H   0  0  0  0  0  0  0  0  0  0  0  0
  136.3087  137.7095  162.5940 H   0  0  0  0  0  0  0  0  0  0  0  0
  1  2  1  0
  1 29  1  0
  1 30  1  0
  1 31  1  0
  2 28  1  0
  2  3  1  0
  3  4  2  0
  3 32  1  0
  4  5  1  0
  4 27  1  0
  5  6  1  0
  5 33  1  0
  5 34  1  0
  6 35  1  0
  7  6  1  0
  7  8  1  0
  7 22  2  0
  8  9  1  0
  8 36  1  0
  9 10  1  1
  9 12  1  0
  9 11  1  0
 11 12  1  0
 11 37  1  0
 11 38  1  0
 12 13  1  1
 12 14  1  0
 14 15  1  0
 14 39  1  0
 15 16  1  0
 15 40  1  0
 15 41  1  0
 16 20  1  0
 16 17  2  0
 17 18  1  0
 18 19  1  0
 19 20  2  0
 19 42  1  0
 20 21  1  0
 22 23  1  0
 22 24  1  0
 24 25  1  0
 24 43  1  0
 24 44  1  0
 25 26  1  0
 25 45  1  0
 25 46  1  0
 27 28  2  0
 27 47  1  0
M  CHG  1  22   1
M  END
>  <DOCK_score>  (1) 
-43.455326

>  <SMILES>  (1) 
Cn1cc(CNC(N[C@@H]2C[C@@H]2NCc2nocc2Br)=[NH+]CCF)cn1

$$$$
