Cn1nncc1C(O)c1ccccc1C1=CC[N@H+](CCc2cccc3ccccc23)CC1
     RDKit          3D

 61 65  0  0  1  0  0  0  0  0999 V2000
  130.4230  132.4106  154.3702 C   0  0  0  0  0  0  0  0  0  0  0  0
  130.7997  131.4237  155.3853 N   0  0  0  0  0  0  0  0  0  0  0  0
  131.2401  130.2363  155.1558 N   0  0  0  0  0  0  0  0  0  0  0  0
  131.4760  129.6285  156.2647 N   0  0  0  0  0  0  0  0  0  0  0  0
  131.1791  130.4482  157.2794 C   0  0  0  0  0  0  0  0  0  0  0  0
  130.7438  131.6037  156.7253 C   0  0  0  0  0  0  0  0  0  0  0  0
  130.2886  132.8419  157.4540 C   0  0  2  0  0  0  0  0  0  0  0  0
  131.3561  133.3368  158.2648 O   0  0  0  0  0  0  0  0  0  0  0  0
  129.1084  132.5048  158.3284 C   0  0  0  0  0  0  0  0  0  0  0  0
  128.2413  131.4960  157.9610 C   0  0  0  0  0  0  0  0  0  0  0  0
  127.1576  131.1855  158.7625 C   0  0  0  0  0  0  0  0  0  0  0  0
  126.9351  131.8834  159.9363 C   0  0  0  0  0  0  0  0  0  0  0  0
  127.7942  132.8943  160.3146 C   0  0  0  0  0  0  0  0  0  0  0  0
  128.8931  133.2081  159.5138 C   0  0  0  0  0  0  0  0  0  0  0  0
  129.8216  134.2854  159.9167 C   0  0  0  0  0  0  0  0  0  0  0  0
  130.8592  133.9812  160.6659 C   0  0  0  0  0  0  0  0  0  0  0  0
  131.8594  135.0009  161.1289 C   0  0  0  0  0  0  0  0  0  0  0  0
  131.7645  136.2189  160.3156 N   0  0  2  0  0  0  0  0  0  0  0  0
  132.0675  136.0204  159.3738 H   0  0  0  0  0  0  0  0  0  0  0  0
  132.6151  137.2669  160.8952 C   0  0  0  0  0  0  0  0  0  0  0  0
  134.0696  137.0283  160.4846 C   0  0  0  0  0  0  0  0  0  0  0  0
  134.9421  138.1035  161.0792 C   0  0  0  0  0  0  0  0  0  0  0  0
  135.5050  137.9272  162.3062 C   0  0  0  0  0  0  0  0  0  0  0  0
  136.3144  138.9100  162.8721 C   0  0  0  0  0  0  0  0  0  0  0  0
  136.5663  140.0751  162.2143 C   0  0  0  0  0  0  0  0  0  0  0  0
  136.0032  140.2928  160.9457 C   0  0  0  0  0  0  0  0  0  0  0  0
  136.2400  141.4827  160.2363 C   0  0  0  0  0  0  0  0  0  0  0  0
  135.6774  141.6588  159.0098 C   0  0  0  0  0  0  0  0  0  0  0  0
  134.8682  140.6754  158.4435 C   0  0  0  0  0  0  0  0  0  0  0  0
  134.6171  139.5105  159.1005 C   0  0  0  0  0  0  0  0  0  0  0  0
  135.1837  139.2908  160.3678 C   0  0  0  0  0  0  0  0  0  0  0  0
  130.3654  136.6744  160.2970 C   0  0  0  0  0  0  0  0  0  0  0  0
  129.5427  135.6912  159.4605 C   0  0  0  0  0  0  0  0  0  0  0  0
  131.2625  133.0809  154.1859 H   0  0  0  0  0  0  0  0  0  0  0  0
  130.1579  131.8977  153.4457 H   0  0  0  0  0  0  0  0  0  0  0  0
  129.5683  132.9873  154.7237 H   0  0  0  0  0  0  0  0  0  0  0  0
  131.2687  130.2303  158.3334 H   0  0  0  0  0  0  0  0  0  0  0  0
  129.9989  133.6036  156.7302 H   0  0  0  0  0  0  0  0  0  0  0  0
  132.1071  133.6788  157.7606 H   0  0  0  0  0  0  0  0  0  0  0  0
  128.4095  130.9476  157.0459 H   0  0  0  0  0  0  0  0  0  0  0  0
  126.4820  130.3951  158.4705 H   0  0  0  0  0  0  0  0  0  0  0  0
  126.0870  131.6363  160.5576 H   0  0  0  0  0  0  0  0  0  0  0  0
  127.6190  133.4388  161.2308 H   0  0  0  0  0  0  0  0  0  0  0  0
  131.0002  132.9510  160.9580 H   0  0  0  0  0  0  0  0  0  0  0  0
  132.8646  134.5880  161.0437 H   0  0  0  0  0  0  0  0  0  0  0  0
  131.6580  135.2471  162.1714 H   0  0  0  0  0  0  0  0  0  0  0  0
  132.2900  138.2415  160.5311 H   0  0  0  0  0  0  0  0  0  0  0  0
  132.5352  137.2400  161.9820 H   0  0  0  0  0  0  0  0  0  0  0  0
  134.3947  136.0538  160.8489 H   0  0  0  0  0  0  0  0  0  0  0  0
  134.1494  137.0553  159.3979 H   0  0  0  0  0  0  0  0  0  0  0  0
  135.3210  137.0121  162.8492 H   0  0  0  0  0  0  0  0  0  0  0  0
  136.7487  138.7450  163.8469 H   0  0  0  0  0  0  0  0  0  0  0  0
  137.1954  140.8280  162.6655 H   0  0  0  0  0  0  0  0  0  0  0  0
  136.8655  142.2532  160.6624 H   0  0  0  0  0  0  0  0  0  0  0  0
  135.8610  142.5743  158.4668 H   0  0  0  0  0  0  0  0  0  0  0  0
  134.4342  140.8403  157.4684 H   0  0  0  0  0  0  0  0  0  0  0  0
  133.9886  138.7571  158.6490 H   0  0  0  0  0  0  0  0  0  0  0  0
  130.3101  137.6682  159.8529 H   0  0  0  0  0  0  0  0  0  0  0  0
  129.9765  136.7035  161.3149 H   0  0  0  0  0  0  0  0  0  0  0  0
  129.8145  135.7925  158.4097 H   0  0  0  0  0  0  0  0  0  0  0  0
  128.4819  135.9091  159.5836 H   0  0  0  0  0  0  0  0  0  0  0  0
  1  2  1  0
  1 34  1  0
  1 35  1  0
  1 36  1  0
  2  6  1  0
  2  3  1  0
  3  4  2  0
  4  5  1  0
  5  6  2  0
  5 37  1  0
  6  7  1  0
  7  8  1  0
  7  9  1  0
  7 38  1  6
  8 39  1  0
  9 14  1  0
  9 10  2  0
 10 11  1  0
 10 40  1  0
 11 12  2  0
 11 41  1  0
 12 13  1  0
 12 42  1  0
 13 14  2  0
 13 43  1  0
 14 15  1  0
 15 33  1  0
 15 16  2  0
 16 17  1  0
 16 44  1  0
 17 18  1  0
 17 45  1  0
 17 46  1  0
 18 19  1  6
 18 20  1  0
 18 32  1  0
 20 21  1  0
 20 47  1  0
 20 48  1  0
 21 22  1  0
 21 49  1  0
 21 50  1  0
 22 31  1  0
 22 23  2  0
 23 24  1  0
 23 51  1  0
 24 25  2  0
 24 52  1  0
 25 26  1  0
 25 53  1  0
 26 31  2  0
 26 27  1  0
 27 28  2  0
 27 54  1  0
 28 29  1  0
 28 55  1  0
 29 30  2  0
 29 56  1  0
 30 31  1  0
 30 57  1  0
 32 33  1  0
 32 58  1  0
 32 59  1  0
 33 60  1  0
 33 61  1  0
M  CHG  1  18   1
M  END
>  <DOCK_score>  (1) 
-58.912834

>  <SMILES>  (1) 
Cn1nncc1C(O)c1ccccc1C1=CC[N@H+](CCc2cccc3ccccc23)CC1

$$$$
