CCc1c[nH]c(Nc2ccc(C3(O)C=CC(=O)C=C3)cc2-c2ccccc2Cl)[nH+]1
     RDKit          3D

 50 53  0  0  1  0  0  0  0  0999 V2000
  131.6145  130.6306  159.6045 C   0  0  0  0  0  0  0  0  0  0  0  0
  130.3096  130.7849  158.8207 C   0  0  0  0  0  0  0  0  0  0  0  0
  130.2011  132.1944  158.2983 C   0  0  0  0  0  0  0  0  0  0  0  0
  130.6620  132.6323  157.1141 C   0  0  0  0  0  0  0  0  0  0  0  0
  130.3568  133.9718  157.0354 N   0  0  0  0  0  0  0  0  0  0  0  0
  130.5611  134.5677  156.2976 H   0  0  0  0  0  0  0  0  0  0  0  0
  129.7141  134.3020  158.1882 C   0  0  0  0  0  0  0  0  0  0  0  0
  129.2335  135.5597  158.5166 N   0  0  0  0  0  0  0  0  0  0  0  0
  128.5898  135.7637  159.7380 C   0  0  0  0  0  0  0  0  0  0  0  0
  127.2163  135.5927  159.8391 C   0  0  0  0  0  0  0  0  0  0  0  0
  126.5806  135.8003  161.0478 C   0  0  0  0  0  0  0  0  0  0  0  0
  127.3077  136.1750  162.1645 C   0  0  0  0  0  0  0  0  0  0  0  0
  126.6033  136.3992  163.4779 C   0  0  0  0  0  0  0  0  0  0  0  0
  125.2120  136.1228  163.3056 O   0  0  0  0  0  0  0  0  0  0  0  0
  126.7619  137.8342  163.8705 C   0  0  0  0  0  0  0  0  0  0  0  0
  127.6008  138.2366  164.8160 C   0  0  0  0  0  0  0  0  0  0  0  0
  128.4148  137.2385  165.5345 C   0  0  0  0  0  0  0  0  0  0  0  0
  129.3917  137.5701  166.1799 O   0  0  0  0  0  0  0  0  0  0  0  0
  128.0050  135.8244  165.4440 C   0  0  0  0  0  0  0  0  0  0  0  0
  127.1611  135.4507  164.4915 C   0  0  0  0  0  0  0  0  0  0  0  0
  128.6747  136.3447  162.0802 C   0  0  0  0  0  0  0  0  0  0  0  0
  129.3276  136.1379  160.8674 C   0  0  0  0  0  0  0  0  0  0  0  0
  130.7962  136.3194  160.7715 C   0  0  0  0  0  0  0  0  0  0  0  0
  131.6511  135.2446  161.0098 C   0  0  0  0  0  0  0  0  0  0  0  0
  133.0170  135.4190  160.9187 C   0  0  0  0  0  0  0  0  0  0  0  0
  133.5390  136.6577  160.5912 C   0  0  0  0  0  0  0  0  0  0  0  0
  132.6966  137.7283  160.3528 C   0  0  0  0  0  0  0  0  0  0  0  0
  131.3277  137.5673  160.4468 C   0  0  0  0  0  0  0  0  0  0  0  0
  130.2715  138.9137  160.1549 Cl  0  0  0  0  0  0  0  0  0  0  0  0
  129.6315  133.2289  158.9386 N   0  0  0  0  0  0  0  0  0  0  0  0
  129.2217  133.1884  159.8168 H   0  0  0  0  0  0  0  0  0  0  0  0
  132.4593  130.8409  158.9487 H   0  0  0  0  0  0  0  0  0  0  0  0
  131.6208  131.3295  160.4408 H   0  0  0  0  0  0  0  0  0  0  0  0
  131.6929  129.6112  159.9823 H   0  0  0  0  0  0  0  0  0  0  0  0
  129.4648  130.5746  159.4765 H   0  0  0  0  0  0  0  0  0  0  0  0
  130.3031  130.0860  157.9844 H   0  0  0  0  0  0  0  0  0  0  0  0
  131.1740  132.0447  156.3664 H   0  0  0  0  0  0  0  0  0  0  0  0
  129.3445  136.2982  157.8975 H   0  0  0  0  0  0  0  0  0  0  0  0
  126.6435  135.3007  158.9713 H   0  0  0  0  0  0  0  0  0  0  0  0
  125.5111  135.6699  161.1217 H   0  0  0  0  0  0  0  0  0  0  0  0
  124.7794  136.6793  162.6436 H   0  0  0  0  0  0  0  0  0  0  0  0
  126.1658  138.5767  163.3607 H   0  0  0  0  0  0  0  0  0  0  0  0
  127.6870  139.2857  165.0574 H   0  0  0  0  0  0  0  0  0  0  0  0
  128.3889  135.0999  166.1468 H   0  0  0  0  0  0  0  0  0  0  0  0
  126.8629  134.4137  164.4453 H   0  0  0  0  0  0  0  0  0  0  0  0
  129.2379  136.6370  162.9542 H   0  0  0  0  0  0  0  0  0  0  0  0
  131.2452  134.2771  161.2659 H   0  0  0  0  0  0  0  0  0  0  0  0
  133.6798  134.5866  161.1029 H   0  0  0  0  0  0  0  0  0  0  0  0
  134.6086  136.7891  160.5211 H   0  0  0  0  0  0  0  0  0  0  0  0
  133.1098  138.6928  160.0972 H   0  0  0  0  0  0  0  0  0  0  0  0
  1  2  1  0
  1 32  1  0
  1 33  1  0
  1 34  1  0
  2  3  1  0
  2 35  1  0
  2 36  1  0
  3 30  1  0
  3  4  2  0
  4  5  1  0
  4 37  1  0
  5  6  1  0
  5  7  1  0
  7  8  1  0
  7 30  2  0
  8  9  1  0
  8 38  1  0
  9 22  1  0
  9 10  2  0
 10 11  1  0
 10 39  1  0
 11 12  2  0
 11 40  1  0
 12 13  1  0
 12 21  1  0
 13 20  1  0
 13 14  1  0
 13 15  1  0
 14 41  1  0
 15 16  2  0
 15 42  1  0
 16 17  1  0
 16 43  1  0
 17 18  2  0
 17 19  1  0
 19 20  2  0
 19 44  1  0
 20 45  1  0
 21 22  2  0
 21 46  1  0
 22 23  1  0
 23 28  1  0
 23 24  2  0
 24 25  1  0
 24 47  1  0
 25 26  2  0
 25 48  1  0
 26 27  1  0
 26 49  1  0
 27 28  2  0
 27 50  1  0
 28 29  1  0
 30 31  1  0
M  CHG  1  30   1
M  END
>  <DOCK_score>  (1) 
-48.607315

>  <SMILES>  (1) 
CCc1c[nH]c(Nc2ccc(C3(O)C=CC(=O)C=C3)cc2-c2ccccc2Cl)[nH+]1

$$$$
