Cc1c[nH]c(Nc2ccc(Nc3ccc(Nc4ccc5cc[nH]c5c4C)cc3)cc2)[nH+]1
     RDKit          3D

 56 60  0  0  1  0  0  0  0  0999 V2000
  130.2914  131.8321  154.7323 C   0  0  0  0  0  0  0  0  0  0  0  0
  130.0081  132.5059  156.0502 C   0  0  0  0  0  0  0  0  0  0  0  0
  129.5543  131.9014  157.1615 C   0  0  0  0  0  0  0  0  0  0  0  0
  129.4356  132.8744  158.1276 N   0  0  0  0  0  0  0  0  0  0  0  0
  129.1308  132.7478  159.0397 H   0  0  0  0  0  0  0  0  0  0  0  0
  129.8263  134.0480  157.5606 C   0  0  0  0  0  0  0  0  0  0  0  0
  129.8589  135.2813  158.1910 N   0  0  0  0  0  0  0  0  0  0  0  0
  128.9507  135.5670  159.2178 C   0  0  0  0  0  0  0  0  0  0  0  0
  129.3096  136.4355  160.2406 C   0  0  0  0  0  0  0  0  0  0  0  0
  128.4121  136.7217  161.2499 C   0  0  0  0  0  0  0  0  0  0  0  0
  127.1543  136.1321  161.2487 C   0  0  0  0  0  0  0  0  0  0  0  0
  126.2465  136.4181  162.2746 N   0  0  0  0  0  0  0  0  0  0  0  0
  126.5761  136.1241  163.6028 C   0  0  0  0  0  0  0  0  0  0  0  0
  126.0637  136.9012  164.6338 C   0  0  0  0  0  0  0  0  0  0  0  0
  126.3842  136.6078  165.9442 C   0  0  0  0  0  0  0  0  0  0  0  0
  127.2285  135.5427  166.2309 C   0  0  0  0  0  0  0  0  0  0  0  0
  127.5584  135.2492  167.5592 N   0  0  0  0  0  0  0  0  0  0  0  0
  126.6517  135.5347  168.5841 C   0  0  0  0  0  0  0  0  0  0  0  0
  125.3884  134.9439  168.5750 C   0  0  0  0  0  0  0  0  0  0  0  0
  124.4940  135.2077  169.5719 C   0  0  0  0  0  0  0  0  0  0  0  0
  124.8399  136.0847  170.6027 C   0  0  0  0  0  0  0  0  0  0  0  0
  124.1416  136.5813  171.7917 C   0  0  0  0  0  0  0  0  0  0  0  0
  124.9840  137.4135  172.4229 C   0  0  0  0  0  0  0  0  0  0  0  0
  126.1663  137.4909  171.7349 N   0  0  0  0  0  0  0  0  0  0  0  0
  126.9292  138.0298  171.9968 H   0  0  0  0  0  0  0  0  0  0  0  0
  126.1099  136.6894  170.6167 C   0  0  0  0  0  0  0  0  0  0  0  0
  127.0124  136.4059  169.5973 C   0  0  0  0  0  0  0  0  0  0  0  0
  128.3772  137.0450  169.5957 C   0  0  0  0  0  0  0  0  0  0  0  0
  127.7450  134.7689  165.1996 C   0  0  0  0  0  0  0  0  0  0  0  0
  127.4201  135.0588  163.8895 C   0  0  0  0  0  0  0  0  0  0  0  0
  126.7976  135.2593  160.2287 C   0  0  0  0  0  0  0  0  0  0  0  0
  127.6930  134.9776  159.2165 C   0  0  0  0  0  0  0  0  0  0  0  0
  130.1718  133.8124  156.3168 N   0  0  0  0  0  0  0  0  0  0  0  0
  130.4930  134.4776  155.6881 H   0  0  0  0  0  0  0  0  0  0  0  0
  129.3925  131.8474  154.1159 H   0  0  0  0  0  0  0  0  0  0  0  0
  131.0935  132.3617  154.2184 H   0  0  0  0  0  0  0  0  0  0  0  0
  130.5928  130.7997  154.9095 H   0  0  0  0  0  0  0  0  0  0  0  0
  129.3266  130.8519  157.2750 H   0  0  0  0  0  0  0  0  0  0  0  0
  130.5109  135.9470  157.9212 H   0  0  0  0  0  0  0  0  0  0  0  0
  130.2891  136.8903  160.2439 H   0  0  0  0  0  0  0  0  0  0  0  0
  128.6895  137.4005  162.0428 H   0  0  0  0  0  0  0  0  0  0  0  0
  125.3888  136.8199  162.0653 H   0  0  0  0  0  0  0  0  0  0  0  0
  125.4113  137.7324  164.4105 H   0  0  0  0  0  0  0  0  0  0  0  0
  125.9819  137.2090  166.7462 H   0  0  0  0  0  0  0  0  0  0  0  0
  128.4163  134.8478  167.7684 H   0  0  0  0  0  0  0  0  0  0  0  0
  125.1176  134.2693  167.7763 H   0  0  0  0  0  0  0  0  0  0  0  0
  123.5190  134.7433  169.5612 H   0  0  0  0  0  0  0  0  0  0  0  0
  123.1387  136.3264  172.1010 H   0  0  0  0  0  0  0  0  0  0  0  0
  124.7627  137.9440  173.3371 H   0  0  0  0  0  0  0  0  0  0  0  0
  128.3365  137.9872  169.0491 H   0  0  0  0  0  0  0  0  0  0  0  0
  128.6913  137.2336  170.6223 H   0  0  0  0  0  0  0  0  0  0  0  0
  129.0909  136.3762  169.1143 H   0  0  0  0  0  0  0  0  0  0  0  0
  128.4013  133.9406  165.4226 H   0  0  0  0  0  0  0  0  0  0  0  0
  127.8224  134.4576  163.0877 H   0  0  0  0  0  0  0  0  0  0  0  0
  125.8195  134.8012  160.2276 H   0  0  0  0  0  0  0  0  0  0  0  0
  127.4158  134.2986  158.4237 H   0  0  0  0  0  0  0  0  0  0  0  0
  1  2  1  0
  1 35  1  0
  1 36  1  0
  1 37  1  0
  2 33  1  0
  2  3  2  0
  3  4  1  0
  3 38  1  0
  4  5  1  0
  4  6  1  0
  6  7  1  0
  6 33  2  0
  7  8  1  0
  7 39  1  0
  8 32  1  0
  8  9  2  0
  9 10  1  0
  9 40  1  0
 10 11  2  0
 10 41  1  0
 11 12  1  0
 11 31  1  0
 12 13  1  0
 12 42  1  0
 13 30  1  0
 13 14  2  0
 14 15  1  0
 14 43  1  0
 15 16  2  0
 15 44  1  0
 16 17  1  0
 16 29  1  0
 17 18  1  0
 17 45  1  0
 18 27  1  0
 18 19  2  0
 19 20  1  0
 19 46  1  0
 20 21  2  0
 20 47  1  0
 21 26  1  0
 21 22  1  0
 22 23  2  0
 22 48  1  0
 23 24  1  0
 23 49  1  0
 24 25  1  0
 24 26  1  0
 26 27  2  0
 27 28  1  0
 28 50  1  0
 28 51  1  0
 28 52  1  0
 29 30  2  0
 29 53  1  0
 30 54  1  0
 31 32  2  0
 31 55  1  0
 32 56  1  0
 33 34  1  0
M  CHG  1  33   1
M  END
>  <DOCK_score>  (1) 
-57.906956

>  <SMILES>  (1) 
Cc1c[nH]c(Nc2ccc(Nc3ccc(Nc4ccc5cc[nH]c5c4C)cc3)cc2)[nH+]1

$$$$
