N#Cc1ccc2c(c1)C[C@@H](Nc1ccc(-c3n[nH]cc3C[NH2+]C3CC3)o1)C2
     RDKit          3D

 49 53  0  0  1  0  0  0  0  0999 V2000
  129.1814  135.0466  169.5644 N   0  0  0  0  0  0  0  0  0  0  0  0
  128.5966  135.3977  168.6559 C   0  0  0  0  0  0  0  0  0  0  0  0
  127.8597  135.8405  167.5107 C   0  0  0  0  0  0  0  0  0  0  0  0
  127.0011  136.9374  167.6090 C   0  0  0  0  0  0  0  0  0  0  0  0
  126.2957  137.3557  166.5018 C   0  0  0  0  0  0  0  0  0  0  0  0
  126.4329  136.6944  165.2906 C   0  0  0  0  0  0  0  0  0  0  0  0
  127.2821  135.6068  165.1864 C   0  0  0  0  0  0  0  0  0  0  0  0
  127.9948  135.1782  166.2905 C   0  0  0  0  0  0  0  0  0  0  0  0
  127.2562  135.0679  163.7687 C   0  0  0  0  0  0  0  0  0  0  0  0
  126.6373  136.1998  162.9216 C   0  0  1  0  0  0  0  0  0  0  0  0
  127.4134  136.8475  162.5141 H   0  0  0  0  0  0  0  0  0  0  0  0
  125.8038  135.6513  161.8489 N   0  0  0  0  0  0  0  0  0  0  0  0
  126.3646  134.8123  160.8929 C   0  0  0  0  0  0  0  0  0  0  0  0
  125.7185  133.8177  160.2348 C   0  0  0  0  0  0  0  0  0  0  0  0
  126.6544  133.2256  159.3637 C   0  0  0  0  0  0  0  0  0  0  0  0
  127.8287  133.8869  159.5393 C   0  0  0  0  0  0  0  0  0  0  0  0
  129.0961  133.6020  158.8352 C   0  0  0  0  0  0  0  0  0  0  0  0
  129.2851  132.6676  157.9242 N   0  0  0  0  0  0  0  0  0  0  0  0
  130.6214  132.7294  157.5091 N   0  0  0  0  0  0  0  0  0  0  0  0
  131.0379  132.1573  156.8457 H   0  0  0  0  0  0  0  0  0  0  0  0
  131.2298  133.7228  158.1926 C   0  0  0  0  0  0  0  0  0  0  0  0
  130.3174  134.2852  159.0138 C   0  0  0  0  0  0  0  0  0  0  0  0
  130.5614  135.4354  159.9564 C   0  0  0  0  0  0  0  0  0  0  0  0
  131.9608  135.8687  159.8483 N   0  0  0  0  0  0  0  0  0  0  0  0
  132.5701  135.1013  160.0892 H   0  0  0  0  0  0  0  0  0  0  0  0
  132.1495  136.1637  158.9019 H   0  0  0  0  0  0  0  0  0  0  0  0
  132.1987  136.9899  160.7672 C   0  0  0  0  0  0  0  0  0  0  0  0
  131.9970  138.4052  160.2220 C   0  0  0  0  0  0  0  0  0  0  0  0
  133.4103  137.8832  160.4929 C   0  0  0  0  0  0  0  0  0  0  0  0
  127.6379  134.8504  160.4649 O   0  0  0  0  0  0  0  0  0  0  0  0
  125.7752  136.9586  163.9525 C   0  0  0  0  0  0  0  0  0  0  0  0
  126.8906  137.4563  168.5497 H   0  0  0  0  0  0  0  0  0  0  0  0
  125.6313  138.2038  166.5777 H   0  0  0  0  0  0  0  0  0  0  0  0
  128.6574  134.3292  166.2083 H   0  0  0  0  0  0  0  0  0  0  0  0
  126.6352  134.1735  163.7162 H   0  0  0  0  0  0  0  0  0  0  0  0
  128.2671  134.8480  163.4254 H   0  0  0  0  0  0  0  0  0  0  0  0
  124.8605  135.8737  161.8056 H   0  0  0  0  0  0  0  0  0  0  0  0
  124.6836  133.5337  160.3553 H   0  0  0  0  0  0  0  0  0  0  0  0
  126.4743  132.4014  158.6894 H   0  0  0  0  0  0  0  0  0  0  0  0
  132.2639  134.0192  158.0953 H   0  0  0  0  0  0  0  0  0  0  0  0
  129.9032  136.2645  159.6962 H   0  0  0  0  0  0  0  0  0  0  0  0
  130.3576  135.1169  160.9787 H   0  0  0  0  0  0  0  0  0  0  0  0
  131.9323  136.8090  161.8085 H   0  0  0  0  0  0  0  0  0  0  0  0
  131.6879  138.5043  159.1815 H   0  0  0  0  0  0  0  0  0  0  0  0
  131.5982  139.1553  160.9047 H   0  0  0  0  0  0  0  0  0  0  0  0
  133.9406  138.2902  161.3539 H   0  0  0  0  0  0  0  0  0  0  0  0
  134.0311  137.6388  159.6309 H   0  0  0  0  0  0  0  0  0  0  0  0
  125.7773  138.0265  163.7344 H   0  0  0  0  0  0  0  0  0  0  0  0
  124.7552  136.5744  163.9485 H   0  0  0  0  0  0  0  0  0  0  0  0
  1  2  3  0
  2  3  1  0
  3  8  2  0
  3  4  1  0
  4  5  2  0
  4 32  1  0
  5  6  1  0
  5 33  1  0
  6 31  1  0
  6  7  2  0
  7  8  1  0
  7  9  1  0
  8 34  1  0
  9 10  1  0
  9 35  1  0
  9 36  1  0
 10 11  1  6
 10 12  1  0
 10 31  1  0
 12 13  1  0
 12 37  1  0
 13 30  1  0
 13 14  2  0
 14 15  1  0
 14 38  1  0
 15 16  2  0
 15 39  1  0
 16 17  1  0
 16 30  1  0
 17 22  1  0
 17 18  2  0
 18 19  1  0
 19 20  1  0
 19 21  1  0
 21 22  2  0
 21 40  1  0
 22 23  1  0
 23 24  1  0
 23 41  1  0
 23 42  1  0
 24 25  1  0
 24 26  1  0
 24 27  1  0
 27 29  1  0
 27 28  1  0
 27 43  1  0
 28 29  1  0
 28 44  1  0
 28 45  1  0
 29 46  1  0
 29 47  1  0
 31 48  1  0
 31 49  1  0
M  CHG  1  24   1
M  END
>  <DOCK_score>  (1) 
-47.158253

>  <SMILES>  (1) 
N#Cc1ccc2c(c1)C[C@@H](Nc1ccc(-c3n[nH]cc3C[NH2+]C3CC3)o1)C2

$$$$
