Cc1cccc(CNc2c[nH+]c(CN[C@@H](CO)c3cccc(Cl)c3)n2C)c1
     RDKit          3D

 53 55  0  0  1  0  0  0  0  0999 V2000
  139.6347  134.0140  163.5482 C   0  0  0  0  0  0  0  0  0  0  0  0
  138.7852  135.1949  163.9415 C   0  0  0  0  0  0  0  0  0  0  0  0
  139.0889  135.9158  165.0815 C   0  0  0  0  0  0  0  0  0  0  0  0
  138.3100  136.9993  165.4420 C   0  0  0  0  0  0  0  0  0  0  0  0
  137.2237  137.3583  164.6659 C   0  0  0  0  0  0  0  0  0  0  0  0
  136.9224  136.6402  163.5242 C   0  0  0  0  0  0  0  0  0  0  0  0
  135.7412  137.0345  162.6756 C   0  0  0  0  0  0  0  0  0  0  0  0
  134.5468  136.3254  163.1412 N   0  0  0  0  0  0  0  0  0  0  0  0
  133.5307  136.0033  162.2401 C   0  0  0  0  0  0  0  0  0  0  0  0
  133.5115  136.2743  160.9135 C   0  0  0  0  0  0  0  0  0  0  0  0
  132.3620  135.8003  160.4075 N   0  0  0  0  0  0  0  0  0  0  0  0
  132.0918  135.8605  159.4779 H   0  0  0  0  0  0  0  0  0  0  0  0
  131.6651  135.2464  161.3603 C   0  0  0  0  0  0  0  0  0  0  0  0
  130.3144  134.5982  161.1978 C   0  0  0  0  0  0  0  0  0  0  0  0
  129.4559  135.4561  160.3703 N   0  0  0  0  0  0  0  0  0  0  0  0
  128.3413  134.6897  159.7976 C   0  0  1  0  0  0  0  0  0  0  0  0
  127.9600  133.9912  160.5424 H   0  0  0  0  0  0  0  0  0  0  0  0
  127.2249  135.6485  159.3789 C   0  0  0  0  0  0  0  0  0  0  0  0
  126.4604  136.0202  160.5276 O   0  0  0  0  0  0  0  0  0  0  0  0
  128.8246  133.9247  158.5924 C   0  0  0  0  0  0  0  0  0  0  0  0
  128.7677  134.5034  157.3381 C   0  0  0  0  0  0  0  0  0  0  0  0
  129.2108  133.8024  156.2322 C   0  0  0  0  0  0  0  0  0  0  0  0
  129.7115  132.5225  156.3799 C   0  0  0  0  0  0  0  0  0  0  0  0
  129.7691  131.9431  157.6347 C   0  0  0  0  0  0  0  0  0  0  0  0
  130.3983  130.3359  157.8211 Cl  0  0  0  0  0  0  0  0  0  0  0  0
  129.3298  132.6471  158.7420 C   0  0  0  0  0  0  0  0  0  0  0  0
  132.3627  135.3466  162.5257 N   0  0  0  0  0  0  0  0  0  0  0  0
  131.9420  134.8489  163.8378 C   0  0  0  0  0  0  0  0  0  0  0  0
  137.7021  135.5570  163.1631 C   0  0  0  0  0  0  0  0  0  0  0  0
  139.2344  133.1097  164.0065 H   0  0  0  0  0  0  0  0  0  0  0  0
  139.6267  133.9058  162.4636 H   0  0  0  0  0  0  0  0  0  0  0  0
  140.6577  134.1723  163.8900 H   0  0  0  0  0  0  0  0  0  0  0  0
  139.9350  135.6327  165.6900 H   0  0  0  0  0  0  0  0  0  0  0  0
  138.5474  137.5623  166.3325 H   0  0  0  0  0  0  0  0  0  0  0  0
  136.6125  138.2022  164.9501 H   0  0  0  0  0  0  0  0  0  0  0  0
  135.5796  138.1096  162.7551 H   0  0  0  0  0  0  0  0  0  0  0  0
  135.9371  136.7725  161.6358 H   0  0  0  0  0  0  0  0  0  0  0  0
  134.4622  136.0797  164.0758 H   0  0  0  0  0  0  0  0  0  0  0  0
  134.2860  136.7833  160.3590 H   0  0  0  0  0  0  0  0  0  0  0  0
  130.4326  133.6283  160.7146 H   0  0  0  0  0  0  0  0  0  0  0  0
  129.8563  134.4626  162.1775 H   0  0  0  0  0  0  0  0  0  0  0  0
  129.1176  136.2464  160.8988 H   0  0  0  0  0  0  0  0  0  0  0  0
  127.6616  136.5402  158.9289 H   0  0  0  0  0  0  0  0  0  0  0  0
  126.5761  135.1564  158.6543 H   0  0  0  0  0  0  0  0  0  0  0  0
  125.7335  136.6284  160.3362 H   0  0  0  0  0  0  0  0  0  0  0  0
  128.3766  135.5034  157.2221 H   0  0  0  0  0  0  0  0  0  0  0  0
  129.1661  134.2550  155.2526 H   0  0  0  0  0  0  0  0  0  0  0  0
  130.0580  131.9750  155.5158 H   0  0  0  0  0  0  0  0  0  0  0  0
  129.3779  132.1968  159.7224 H   0  0  0  0  0  0  0  0  0  0  0  0
  131.3793  135.6245  164.3573 H   0  0  0  0  0  0  0  0  0  0  0  0
  131.3125  133.9687  163.7077 H   0  0  0  0  0  0  0  0  0  0  0  0
  132.8214  134.5833  164.4246 H   0  0  0  0  0  0  0  0  0  0  0  0
  137.4646  134.9936  162.2727 H   0  0  0  0  0  0  0  0  0  0  0  0
  1  2  1  0
  1 30  1  0
  1 31  1  0
  1 32  1  0
  2 29  2  0
  2  3  1  0
  3  4  2  0
  3 33  1  0
  4  5  1  0
  4 34  1  0
  5  6  2  0
  5 35  1  0
  6  7  1  0
  6 29  1  0
  7  8  1  0
  7 36  1  0
  7 37  1  0
  8  9  1  0
  8 38  1  0
  9 27  1  0
  9 10  2  0
 10 11  1  0
 10 39  1  0
 11 12  1  0
 11 13  2  0
 13 14  1  0
 13 27  1  0
 14 15  1  0
 14 40  1  0
 14 41  1  0
 15 16  1  0
 15 42  1  0
 16 17  1  1
 16 18  1  0
 16 20  1  0
 18 19  1  0
 18 43  1  0
 18 44  1  0
 19 45  1  0
 20 26  1  0
 20 21  2  0
 21 22  1  0
 21 46  1  0
 22 23  2  0
 22 47  1  0
 23 24  1  0
 23 48  1  0
 24 25  1  0
 24 26  2  0
 26 49  1  0
 27 28  1  0
 28 50  1  0
 28 51  1  0
 28 52  1  0
 29 53  1  0
M  CHG  1  11   1
M  END
>  <DOCK_score>  (1) 
-45.746689

>  <SMILES>  (1) 
Cc1cccc(CNc2c[nH+]c(CN[C@@H](CO)c3cccc(Cl)c3)n2C)c1

$$$$
