O=C1CC[C@H](NC(NC2CC=CC2)=[NH+]C2C[C@H]2Cc2ccccc2)CN1
     RDKit          3D

 55 58  0  0  1  0  0  0  0  0999 V2000
  123.9264  133.2168  161.5383 O   0  0  0  0  0  0  0  0  0  0  0  0
  125.0926  133.4122  161.2690 C   0  0  0  0  0  0  0  0  0  0  0  0
  125.9044  132.2612  160.7479 C   0  0  0  0  0  0  0  0  0  0  0  0
  127.3969  132.5712  160.8795 C   0  0  0  0  0  0  0  0  0  0  0  0
  127.6540  133.9718  160.3105 C   0  0  2  0  0  0  0  0  0  0  0  0
  127.2405  134.0392  159.3042 H   0  0  0  0  0  0  0  0  0  0  0  0
  129.0958  134.2278  160.2674 N   0  0  0  0  0  0  0  0  0  0  0  0
  129.8204  133.8926  159.1482 C   0  0  0  0  0  0  0  0  0  0  0  0
  129.1920  133.3170  158.0693 N   0  0  0  0  0  0  0  0  0  0  0  0
  129.9642  132.9598  156.8767 C   0  0  0  0  0  0  0  0  0  0  0  0
  129.1020  132.1529  155.8784 C   0  0  0  0  0  0  0  0  0  0  0  0
  130.0469  131.1280  155.2957 C   0  0  0  0  0  0  0  0  0  0  0  0
  131.1219  131.0106  156.0267 C   0  0  0  0  0  0  0  0  0  0  0  0
  131.0729  131.9376  157.2189 C   0  0  0  0  0  0  0  0  0  0  0  0
  131.1032  134.1205  159.1098 N   0  0  0  0  0  0  0  0  0  0  0  0
  131.5374  134.3081  158.2630 H   0  0  0  0  0  0  0  0  0  0  0  0
  131.8891  134.0934  160.3459 C   0  0  1  0  0  0  0  0  0  0  0  0
  133.2291  134.8320  160.3480 C   0  0  0  0  0  0  0  0  0  0  0  0
  132.0378  135.4063  161.1174 C   0  0  1  0  0  0  0  0  0  0  0  0
  132.0672  135.3501  162.2056 H   0  0  0  0  0  0  0  0  0  0  0  0
  131.3543  136.6469  160.5390 C   0  0  0  0  0  0  0  0  0  0  0  0
  132.0768  137.8834  161.0083 C   0  0  0  0  0  0  0  0  0  0  0  0
  131.6899  138.5070  162.1798 C   0  0  0  0  0  0  0  0  0  0  0  0
  132.3559  139.6384  162.6128 C   0  0  0  0  0  0  0  0  0  0  0  0
  133.4020  140.1519  161.8692 C   0  0  0  0  0  0  0  0  0  0  0  0
  133.7851  139.5313  160.6948 C   0  0  0  0  0  0  0  0  0  0  0  0
  133.1226  138.3969  160.2646 C   0  0  0  0  0  0  0  0  0  0  0  0
  126.9765  135.0030  161.2138 C   0  0  0  0  0  0  0  0  0  0  0  0
  125.5854  134.6379  161.4509 N   0  0  0  0  0  0  0  0  0  0  0  0
  125.6686  131.3637  161.3198 H   0  0  0  0  0  0  0  0  0  0  0  0
  125.6642  132.0948  159.6978 H   0  0  0  0  0  0  0  0  0  0  0  0
  127.9772  131.8363  160.3216 H   0  0  0  0  0  0  0  0  0  0  0  0
  127.6831  132.5441  161.9309 H   0  0  0  0  0  0  0  0  0  0  0  0
  129.5392  134.6338  161.0286 H   0  0  0  0  0  0  0  0  0  0  0  0
  128.2373  133.1474  158.0979 H   0  0  0  0  0  0  0  0  0  0  0  0
  130.3832  133.8481  156.4039 H   0  0  0  0  0  0  0  0  0  0  0  0
  128.2805  131.6598  156.3981 H   0  0  0  0  0  0  0  0  0  0  0  0
  128.7188  132.8054  155.0938 H   0  0  0  0  0  0  0  0  0  0  0  0
  129.8580  130.5663  154.3926 H   0  0  0  0  0  0  0  0  0  0  0  0
  131.9392  130.3392  155.8081 H   0  0  0  0  0  0  0  0  0  0  0  0
  132.0299  132.4438  157.3457 H   0  0  0  0  0  0  0  0  0  0  0  0
  130.8131  131.3832  158.1207 H   0  0  0  0  0  0  0  0  0  0  0  0
  131.8207  133.1735  160.9266 H   0  0  0  0  0  0  0  0  0  0  0  0
  134.0421  134.3981  160.9299 H   0  0  0  0  0  0  0  0  0  0  0  0
  133.5261  135.3382  159.4294 H   0  0  0  0  0  0  0  0  0  0  0  0
  131.3807  136.6019  159.4502 H   0  0  0  0  0  0  0  0  0  0  0  0
  130.3183  136.6815  160.8762 H   0  0  0  0  0  0  0  0  0  0  0  0
  130.8700  138.1083  162.7586 H   0  0  0  0  0  0  0  0  0  0  0  0
  132.0563  140.1234  163.5301 H   0  0  0  0  0  0  0  0  0  0  0  0
  133.9198  141.0379  162.2056 H   0  0  0  0  0  0  0  0  0  0  0  0
  134.6022  139.9327  160.1137 H   0  0  0  0  0  0  0  0  0  0  0  0
  133.4219  137.9123  159.3471 H   0  0  0  0  0  0  0  0  0  0  0  0
  127.5042  135.0495  162.1664 H   0  0  0  0  0  0  0  0  0  0  0  0
  127.0156  135.9818  160.7357 H   0  0  0  0  0  0  0  0  0  0  0  0
  124.9803  135.3299  161.7607 H   0  0  0  0  0  0  0  0  0  0  0  0
  1  2  2  0
  2 29  1  0
  2  3  1  0
  3  4  1  0
  3 30  1  0
  3 31  1  0
  4  5  1  0
  4 32  1  0
  4 33  1  0
  5  6  1  6
  5  7  1  0
  5 28  1  0
  7 34  1  0
  8  7  1  0
  8  9  1  0
  8 15  2  0
  9 10  1  0
  9 35  1  0
 10 14  1  0
 10 11  1  0
 10 36  1  0
 11 12  1  0
 11 37  1  0
 11 38  1  0
 12 13  2  0
 12 39  1  0
 13 14  1  0
 13 40  1  0
 14 41  1  0
 14 42  1  0
 15 16  1  0
 15 17  1  0
 17 19  1  0
 17 18  1  0
 17 43  1  1
 18 19  1  0
 18 44  1  0
 18 45  1  0
 19 20  1  1
 19 21  1  0
 21 22  1  0
 21 46  1  0
 21 47  1  0
 22 27  1  0
 22 23  2  0
 23 24  1  0
 23 48  1  0
 24 25  2  0
 24 49  1  0
 25 26  1  0
 25 50  1  0
 26 27  2  0
 26 51  1  0
 27 52  1  0
 28 29  1  0
 28 53  1  0
 28 54  1  0
 29 55  1  0
M  CHG  1  15   1
M  END
>  <DOCK_score>  (1) 
-46.157425

>  <SMILES>  (1) 
O=C1CC[C@H](NC(NC2CC=CC2)=[NH+]C2C[C@H]2Cc2ccccc2)CN1

$$$$
