Nc1ccc(-c2c[nH]c(NC(c3ccc(F)cc3)c3ccc(F)cc3)[nH+]2)cc1
     RDKit          3D

 47 50  0  0  1  0  0  0  0  0999 V2000
  131.2574  129.5077  152.0822 N   0  0  0  0  0  0  0  0  0  0  0  0
  130.9972  130.2329  153.2475 C   0  0  0  0  0  0  0  0  0  0  0  0
  130.2729  131.4174  153.1807 C   0  0  0  0  0  0  0  0  0  0  0  0
  130.0154  132.1349  154.3297 C   0  0  0  0  0  0  0  0  0  0  0  0
  130.4815  131.6713  155.5589 C   0  0  0  0  0  0  0  0  0  0  0  0
  130.2056  132.4416  156.7964 C   0  0  0  0  0  0  0  0  0  0  0  0
  129.5217  131.9948  157.8786 C   0  0  0  0  0  0  0  0  0  0  0  0
  129.5061  133.0218  158.7923 N   0  0  0  0  0  0  0  0  0  0  0  0
  129.0934  133.0040  159.6699 H   0  0  0  0  0  0  0  0  0  0  0  0
  130.1737  134.0692  158.2366 C   0  0  0  0  0  0  0  0  0  0  0  0
  130.3809  135.3012  158.8332 N   0  0  0  0  0  0  0  0  0  0  0  0
  129.8607  135.5607  160.1780 C   0  0  0  0  0  0  0  0  0  0  0  0
  128.3619  135.4048  160.1757 C   0  0  0  0  0  0  0  0  0  0  0  0
  127.7092  134.9865  161.3203 C   0  0  0  0  0  0  0  0  0  0  0  0
  126.3346  134.8433  161.3194 C   0  0  0  0  0  0  0  0  0  0  0  0
  125.6117  135.1139  160.1699 C   0  0  0  0  0  0  0  0  0  0  0  0
  124.2685  134.9693  160.1663 F   0  0  0  0  0  0  0  0  0  0  0  0
  126.2659  135.5384  159.0257 C   0  0  0  0  0  0  0  0  0  0  0  0
  127.6405  135.6809  159.0291 C   0  0  0  0  0  0  0  0  0  0  0  0
  130.2193  136.9644  160.5930 C   0  0  0  0  0  0  0  0  0  0  0  0
  130.4123  137.2614  161.9294 C   0  0  0  0  0  0  0  0  0  0  0  0
  130.7460  138.5472  162.3106 C   0  0  0  0  0  0  0  0  0  0  0  0
  130.8760  139.5404  161.3549 C   0  0  0  0  0  0  0  0  0  0  0  0
  131.1962  140.7991  161.7271 F   0  0  0  0  0  0  0  0  0  0  0  0
  130.6773  139.2429  160.0173 C   0  0  0  0  0  0  0  0  0  0  0  0
  130.3494  137.9552  159.6378 C   0  0  0  0  0  0  0  0  0  0  0  0
  130.5931  133.7175  157.0456 N   0  0  0  0  0  0  0  0  0  0  0  0
  131.0998  134.2799  156.4390 H   0  0  0  0  0  0  0  0  0  0  0  0
  131.2123  130.4860  155.6227 C   0  0  0  0  0  0  0  0  0  0  0  0
  131.4625  129.7687  154.4719 C   0  0  0  0  0  0  0  0  0  0  0  0
  130.9326  129.8312  151.2270 H   0  0  0  0  0  0  0  0  0  0  0  0
  131.7626  128.6814  152.1278 H   0  0  0  0  0  0  0  0  0  0  0  0
  129.9119  131.7762  152.2281 H   0  0  0  0  0  0  0  0  0  0  0  0
  129.4524  133.0552  154.2774 H   0  0  0  0  0  0  0  0  0  0  0  0
  129.0781  131.0177  158.0010 H   0  0  0  0  0  0  0  0  0  0  0  0
  130.8704  135.9928  158.3608 H   0  0  0  0  0  0  0  0  0  0  0  0
  130.2988  134.8513  160.8801 H   0  0  0  0  0  0  0  0  0  0  0  0
  128.2737  134.7720  162.2157 H   0  0  0  0  0  0  0  0  0  0  0  0
  125.8251  134.5161  162.2136 H   0  0  0  0  0  0  0  0  0  0  0  0
  125.7026  135.7536  158.1298 H   0  0  0  0  0  0  0  0  0  0  0  0
  128.1515  136.0076  158.1355 H   0  0  0  0  0  0  0  0  0  0  0  0
  130.3061  136.4875  162.6752 H   0  0  0  0  0  0  0  0  0  0  0  0
  130.9003  138.7782  163.3544 H   0  0  0  0  0  0  0  0  0  0  0  0
  130.7781  140.0169  159.2709 H   0  0  0  0  0  0  0  0  0  0  0  0
  130.1943  137.7229  158.5945 H   0  0  0  0  0  0  0  0  0  0  0  0
  131.5784  130.1275  156.5734 H   0  0  0  0  0  0  0  0  0  0  0  0
  132.0247  128.8479  154.5215 H   0  0  0  0  0  0  0  0  0  0  0  0
  1  2  1  0
  1 31  1  0
  1 32  1  0
  2 30  2  0
  2  3  1  0
  3  4  2  0
  3 33  1  0
  4  5  1  0
  4 34  1  0
  5  6  1  0
  5 29  2  0
  6 27  1  0
  6  7  2  0
  7  8  1  0
  7 35  1  0
  8  9  1  0
  8 10  1  0
 10 11  1  0
 10 27  2  0
 11 12  1  0
 11 36  1  0
 12 13  1  0
 12 20  1  0
 12 37  1  0
 13 19  1  0
 13 14  2  0
 14 15  1  0
 14 38  1  0
 15 16  2  0
 15 39  1  0
 16 17  1  0
 16 18  1  0
 18 19  2  0
 18 40  1  0
 19 41  1  0
 20 26  1  0
 20 21  2  0
 21 22  1  0
 21 42  1  0
 22 23  2  0
 22 43  1  0
 23 24  1  0
 23 25  1  0
 25 26  2  0
 25 44  1  0
 26 45  1  0
 27 28  1  0
 29 30  1  0
 29 46  1  0
 30 47  1  0
M  CHG  1  27   1
M  END
>  <DOCK_score>  (1) 
-58.719795

>  <SMILES>  (1) 
Nc1ccc(-c2c[nH]c(NC(c3ccc(F)cc3)c3ccc(F)cc3)[nH+]2)cc1

$$$$
