Nc1ccc(-c2c[nH]c(N[C@H](Cc3ccc(N4CC=CC4)cc3)c3ccccc3)[nH+]2)cc1
     RDKit          3D

 60 64  0  0  1  0  0  0  0  0999 V2000
  131.4441  129.9486  152.2610 N   0  0  0  0  0  0  0  0  0  0  0  0
  131.0578  130.6322  153.4164 C   0  0  0  0  0  0  0  0  0  0  0  0
  130.2574  131.7641  153.3179 C   0  0  0  0  0  0  0  0  0  0  0  0
  129.8748  132.4404  154.4571 C   0  0  0  0  0  0  0  0  0  0  0  0
  130.2914  131.9878  155.7081 C   0  0  0  0  0  0  0  0  0  0  0  0
  129.8809  132.7137  156.9352 C   0  0  0  0  0  0  0  0  0  0  0  0
  129.1569  132.2013  157.9608 C   0  0  0  0  0  0  0  0  0  0  0  0
  129.0058  133.2085  158.8843 N   0  0  0  0  0  0  0  0  0  0  0  0
  128.5330  133.1473  159.7290 H   0  0  0  0  0  0  0  0  0  0  0  0
  129.6426  134.3067  158.3946 C   0  0  0  0  0  0  0  0  0  0  0  0
  129.7259  135.5376  159.0228 N   0  0  0  0  0  0  0  0  0  0  0  0
  129.0943  135.7373  160.3294 C   0  0  2  0  0  0  0  0  0  0  0  0
  128.0227  135.5560  160.2466 H   0  0  0  0  0  0  0  0  0  0  0  0
  129.3338  137.1741  160.7975 C   0  0  0  0  0  0  0  0  0  0  0  0
  130.8154  137.4247  160.9121 C   0  0  0  0  0  0  0  0  0  0  0  0
  131.5198  137.9065  159.8240 C   0  0  0  0  0  0  0  0  0  0  0  0
  132.8766  138.1426  159.9272 C   0  0  0  0  0  0  0  0  0  0  0  0
  133.5359  137.8846  161.1223 C   0  0  0  0  0  0  0  0  0  0  0  0
  134.9092  138.1163  161.2284 N   0  0  0  0  0  0  0  0  0  0  0  0
  135.3061  139.3186  160.4574 C   0  0  0  0  0  0  0  0  0  0  0  0
  136.4137  139.9611  161.2600 C   0  0  0  0  0  0  0  0  0  0  0  0
  136.3995  139.4868  162.4806 C   0  0  0  0  0  0  0  0  0  0  0  0
  135.2810  138.4796  162.6164 C   0  0  0  0  0  0  0  0  0  0  0  0
  132.8264  137.3952  162.2117 C   0  0  0  0  0  0  0  0  0  0  0  0
  131.4686  137.1668  162.1033 C   0  0  0  0  0  0  0  0  0  0  0  0
  129.6903  134.7780  161.3273 C   0  0  0  0  0  0  0  0  0  0  0  0
  128.9285  134.3206  162.3864 C   0  0  0  0  0  0  0  0  0  0  0  0
  129.4739  133.4378  163.2995 C   0  0  0  0  0  0  0  0  0  0  0  0
  130.7837  133.0187  163.1584 C   0  0  0  0  0  0  0  0  0  0  0  0
  131.5471  133.4802  162.1023 C   0  0  0  0  0  0  0  0  0  0  0  0
  131.0004  134.3601  161.1871 C   0  0  0  0  0  0  0  0  0  0  0  0
  130.1594  134.0089  157.2274 N   0  0  0  0  0  0  0  0  0  0  0  0
  130.6626  134.6168  156.6635 H   0  0  0  0  0  0  0  0  0  0  0  0
  131.0988  130.8557  155.8040 C   0  0  0  0  0  0  0  0  0  0  0  0
  131.4739  130.1789  154.6626 C   0  0  0  0  0  0  0  0  0  0  0  0
  131.1539  130.2641  151.3909 H   0  0  0  0  0  0  0  0  0  0  0  0
  132.0029  129.1584  152.3288 H   0  0  0  0  0  0  0  0  0  0  0  0
  129.9352  132.1145  152.3486 H   0  0  0  0  0  0  0  0  0  0  0  0
  129.2525  133.3196  154.3802 H   0  0  0  0  0  0  0  0  0  0  0  0
  128.7724  131.1950  158.0373 H   0  0  0  0  0  0  0  0  0  0  0  0
  130.2025  136.2678  158.5978 H   0  0  0  0  0  0  0  0  0  0  0  0
  128.8640  137.3227  161.7697 H   0  0  0  0  0  0  0  0  0  0  0  0
  128.9027  137.8679  160.0758 H   0  0  0  0  0  0  0  0  0  0  0  0
  131.0074  138.1022  158.8936 H   0  0  0  0  0  0  0  0  0  0  0  0
  133.4253  138.5231  159.0782 H   0  0  0  0  0  0  0  0  0  0  0  0
  135.6720  139.0312  159.4717 H   0  0  0  0  0  0  0  0  0  0  0  0
  134.4624  140.0022  160.3633 H   0  0  0  0  0  0  0  0  0  0  0  0
  137.1094  140.6971  160.8848 H   0  0  0  0  0  0  0  0  0  0  0  0
  137.0814  139.7713  163.2682 H   0  0  0  0  0  0  0  0  0  0  0  0
  134.4302  138.9272  163.1303 H   0  0  0  0  0  0  0  0  0  0  0  0
  135.6275  137.5991  163.1574 H   0  0  0  0  0  0  0  0  0  0  0  0
  133.3358  137.1939  163.1425 H   0  0  0  0  0  0  0  0  0  0  0  0
  130.9163  136.7867  162.9500 H   0  0  0  0  0  0  0  0  0  0  0  0
  127.9063  134.6507  162.4985 H   0  0  0  0  0  0  0  0  0  0  0  0
  128.8776  133.0774  164.1248 H   0  0  0  0  0  0  0  0  0  0  0  0
  131.2107  132.3309  163.8734 H   0  0  0  0  0  0  0  0  0  0  0  0
  132.5704  133.1532  161.9923 H   0  0  0  0  0  0  0  0  0  0  0  0
  131.5969  134.7207  160.3620 H   0  0  0  0  0  0  0  0  0  0  0  0
  131.4263  130.5059  156.7720 H   0  0  0  0  0  0  0  0  0  0  0  0
  132.0959  129.2991  154.7368 H   0  0  0  0  0  0  0  0  0  0  0  0
  1  2  1  0
  1 36  1  0
  1 37  1  0
  2 35  2  0
  2  3  1  0
  3  4  2  0
  3 38  1  0
  4  5  1  0
  4 39  1  0
  5  6  1  0
  5 34  2  0
  6 32  1  0
  6  7  2  0
  7  8  1  0
  7 40  1  0
  8  9  1  0
  8 10  1  0
 10 11  1  0
 10 32  2  0
 11 12  1  0
 11 41  1  0
 12 13  1  6
 12 14  1  0
 12 26  1  0
 14 15  1  0
 14 42  1  0
 14 43  1  0
 15 25  1  0
 15 16  2  0
 16 17  1  0
 16 44  1  0
 17 18  2  0
 17 45  1  0
 18 19  1  0
 18 24  1  0
 19 23  1  0
 19 20  1  0
 20 21  1  0
 20 46  1  0
 20 47  1  0
 21 22  2  0
 21 48  1  0
 22 23  1  0
 22 49  1  0
 23 50  1  0
 23 51  1  0
 24 25  2  0
 24 52  1  0
 25 53  1  0
 26 31  1  0
 26 27  2  0
 27 28  1  0
 27 54  1  0
 28 29  2  0
 28 55  1  0
 29 30  1  0
 29 56  1  0
 30 31  2  0
 30 57  1  0
 31 58  1  0
 32 33  1  0
 34 35  1  0
 34 59  1  0
 35 60  1  0
M  CHG  1  32   1
M  END
>  <DOCK_score>  (1) 
-58.468712

>  <SMILES>  (1) 
Nc1ccc(-c2c[nH]c(N[C@H](Cc3ccc(N4CC=CC4)cc3)c3ccccc3)[nH+]2)cc1

$$$$
