CCc1ccc(C2=CC[C@H](Nc3ccc(Nc4[nH]c5ccccc5[nH+]4)cc3)CC2)cc1
     RDKit          3D

 60 64  0  0  1  0  0  0  0  0999 V2000
  132.4772  135.7165  171.4183 C   0  0  0  0  0  0  0  0  0  0  0  0
  131.3438  136.7441  171.3986 C   0  0  0  0  0  0  0  0  0  0  0  0
  130.5917  136.6377  170.0972 C   0  0  0  0  0  0  0  0  0  0  0  0
  129.5085  135.7830  169.9956 C   0  0  0  0  0  0  0  0  0  0  0  0
  128.8154  135.6813  168.8069 C   0  0  0  0  0  0  0  0  0  0  0  0
  129.2090  136.4427  167.7059 C   0  0  0  0  0  0  0  0  0  0  0  0
  128.4713  136.3383  166.4293 C   0  0  0  0  0  0  0  0  0  0  0  0
  127.1967  136.6448  166.4263 C   0  0  0  0  0  0  0  0  0  0  0  0
  126.3231  136.5765  165.2079 C   0  0  0  0  0  0  0  0  0  0  0  0
  127.1845  136.5265  163.9443 C   0  0  2  0  0  0  0  0  0  0  0  0
  127.6692  137.4910  163.7931 H   0  0  0  0  0  0  0  0  0  0  0  0
  126.3468  136.2095  162.7848 N   0  0  0  0  0  0  0  0  0  0  0  0
  126.9213  136.1103  161.5128 C   0  0  0  0  0  0  0  0  0  0  0  0
  128.0434  136.8653  161.1967 C   0  0  0  0  0  0  0  0  0  0  0  0
  128.6135  136.7632  159.9434 C   0  0  0  0  0  0  0  0  0  0  0  0
  128.0582  135.9142  158.9952 C   0  0  0  0  0  0  0  0  0  0  0  0
  128.6332  135.8153  157.7212 N   0  0  0  0  0  0  0  0  0  0  0  0
  129.1042  134.6033  157.2713 C   0  0  0  0  0  0  0  0  0  0  0  0
  129.0689  133.4668  157.9639 N   0  0  0  0  0  0  0  0  0  0  0  0
  128.7111  133.3589  158.8589 H   0  0  0  0  0  0  0  0  0  0  0  0
  129.6209  132.4747  157.1971 C   0  0  0  0  0  0  0  0  0  0  0  0
  129.8437  131.1151  157.3959 C   0  0  0  0  0  0  0  0  0  0  0  0
  130.4429  130.3673  156.4057 C   0  0  0  0  0  0  0  0  0  0  0  0
  130.8265  130.9598  155.2114 C   0  0  0  0  0  0  0  0  0  0  0  0
  130.6133  132.3044  154.9982 C   0  0  0  0  0  0  0  0  0  0  0  0
  130.0089  133.0745  155.9877 C   0  0  0  0  0  0  0  0  0  0  0  0
  129.6667  134.3976  156.0822 N   0  0  0  0  0  0  0  0  0  0  0  0
  129.8104  135.0707  155.3988 H   0  0  0  0  0  0  0  0  0  0  0  0
  126.9331  135.1636  159.3091 C   0  0  0  0  0  0  0  0  0  0  0  0
  126.3661  135.2613  160.5643 C   0  0  0  0  0  0  0  0  0  0  0  0
  128.2491  135.4372  164.1241 C   0  0  0  0  0  0  0  0  0  0  0  0
  129.2257  135.8879  165.2124 C   0  0  0  0  0  0  0  0  0  0  0  0
  130.3056  137.2988  167.8133 C   0  0  0  0  0  0  0  0  0  0  0  0
  130.9870  137.3953  169.0093 C   0  0  0  0  0  0  0  0  0  0  0  0
  133.0212  135.7935  172.3597 H   0  0  0  0  0  0  0  0  0  0  0  0
  132.0604  134.7141  171.3203 H   0  0  0  0  0  0  0  0  0  0  0  0
  133.1573  135.9099  170.5887 H   0  0  0  0  0  0  0  0  0  0  0  0
  131.7606  137.7465  171.4966 H   0  0  0  0  0  0  0  0  0  0  0  0
  130.6636  136.5508  172.2282 H   0  0  0  0  0  0  0  0  0  0  0  0
  129.2046  135.1945  170.8486 H   0  0  0  0  0  0  0  0  0  0  0  0
  127.9702  135.0134  168.7287 H   0  0  0  0  0  0  0  0  0  0  0  0
  126.7489  136.9652  167.3556 H   0  0  0  0  0  0  0  0  0  0  0  0
  125.6817  137.4571  165.1733 H   0  0  0  0  0  0  0  0  0  0  0  0
  125.7025  135.6818  165.2577 H   0  0  0  0  0  0  0  0  0  0  0  0
  125.3940  136.0682  162.8992 H   0  0  0  0  0  0  0  0  0  0  0  0
  128.4723  137.5293  161.9327 H   0  0  0  0  0  0  0  0  0  0  0  0
  129.4885  137.3470  159.6990 H   0  0  0  0  0  0  0  0  0  0  0  0
  128.6992  136.6013  157.1565 H   0  0  0  0  0  0  0  0  0  0  0  0
  129.5474  130.6478  158.3234 H   0  0  0  0  0  0  0  0  0  0  0  0
  130.6155  129.3125  156.5607 H   0  0  0  0  0  0  0  0  0  0  0  0
  131.2956  130.3628  154.4433 H   0  0  0  0  0  0  0  0  0  0  0  0
  130.9139  132.7593  154.0659 H   0  0  0  0  0  0  0  0  0  0  0  0
  126.5011  134.5036  158.5714 H   0  0  0  0  0  0  0  0  0  0  0  0
  125.4911  134.6773  160.8086 H   0  0  0  0  0  0  0  0  0  0  0  0
  127.7715  134.5044  164.4240 H   0  0  0  0  0  0  0  0  0  0  0  0
  128.7866  135.2921  163.1869 H   0  0  0  0  0  0  0  0  0  0  0  0
  129.8784  135.0566  165.4788 H   0  0  0  0  0  0  0  0  0  0  0  0
  129.8286  136.7146  164.8369 H   0  0  0  0  0  0  0  0  0  0  0  0
  130.6177  137.8878  166.9635 H   0  0  0  0  0  0  0  0  0  0  0  0
  131.8334  138.0607  169.0950 H   0  0  0  0  0  0  0  0  0  0  0  0
  1  2  1  0
  1 35  1  0
  1 36  1  0
  1 37  1  0
  2  3  1  0
  2 38  1  0
  2 39  1  0
  3 34  2  0
  3  4  1  0
  4  5  2  0
  4 40  1  0
  5  6  1  0
  5 41  1  0
  6  7  1  0
  6 33  2  0
  7 32  1  0
  7  8  2  0
  8  9  1  0
  8 42  1  0
  9 10  1  0
  9 43  1  0
  9 44  1  0
 10 11  1  6
 10 12  1  0
 10 31  1  0
 12 13  1  0
 12 45  1  0
 13 30  1  0
 13 14  2  0
 14 15  1  0
 14 46  1  0
 15 16  2  0
 15 47  1  0
 16 17  1  0
 16 29  1  0
 17 18  1  0
 17 48  1  0
 18 27  1  0
 18 19  2  0
 19 20  1  0
 19 21  1  0
 21 26  2  0
 21 22  1  0
 22 23  2  0
 22 49  1  0
 23 24  1  0
 23 50  1  0
 24 25  2  0
 24 51  1  0
 25 26  1  0
 25 52  1  0
 26 27  1  0
 27 28  1  0
 29 30  2  0
 29 53  1  0
 30 54  1  0
 31 32  1  0
 31 55  1  0
 31 56  1  0
 32 57  1  0
 32 58  1  0
 33 34  1  0
 33 59  1  0
 34 60  1  0
M  CHG  1  19   1
M  END
>  <DOCK_score>  (1) 
-46.917538

>  <SMILES>  (1) 
CCc1ccc(C2=CC[C@H](Nc3ccc(Nc4[nH]c5ccccc5[nH+]4)cc3)CC2)cc1

$$$$
