CCc1ccc(-c2c[nH]c(N[C@@H](C)c3ccnn3C3CCC3)[nH+]2)cc1
     RDKit          3D

 51 54  0  0  1  0  0  0  0  0999 V2000
  130.4494  128.6193  151.3640 C   0  0  0  0  0  0  0  0  0  0  0  0
  131.5166  129.6612  151.7051 C   0  0  0  0  0  0  0  0  0  0  0  0
  131.1690  130.3273  153.0114 C   0  0  0  0  0  0  0  0  0  0  0  0
  131.6363  129.7978  154.2003 C   0  0  0  0  0  0  0  0  0  0  0  0
  131.3260  130.4066  155.3994 C   0  0  0  0  0  0  0  0  0  0  0  0
  130.5304  131.5509  155.4113 C   0  0  0  0  0  0  0  0  0  0  0  0
  130.1888  132.2067  156.6973 C   0  0  0  0  0  0  0  0  0  0  0  0
  129.5216  131.6369  157.7312 C   0  0  0  0  0  0  0  0  0  0  0  0
  129.4219  132.5903  158.7152 N   0  0  0  0  0  0  0  0  0  0  0  0
  128.9958  132.4813  159.5797 H   0  0  0  0  0  0  0  0  0  0  0  0
  130.0318  133.7158  158.2534 C   0  0  0  0  0  0  0  0  0  0  0  0
  130.1499  134.9100  158.9436 N   0  0  0  0  0  0  0  0  0  0  0  0
  129.1235  135.3001  159.9133 C   0  0  1  0  0  0  0  0  0  0  0  0
  129.0609  134.5470  160.6989 H   0  0  0  0  0  0  0  0  0  0  0  0
  129.4916  136.6510  160.5301 C   0  0  0  0  0  0  0  0  0  0  0  0
  127.7914  135.4119  159.2175 C   0  0  0  0  0  0  0  0  0  0  0  0
  127.5936  135.7552  157.9236 C   0  0  0  0  0  0  0  0  0  0  0  0
  126.2164  135.7394  157.6798 C   0  0  0  0  0  0  0  0  0  0  0  0
  125.6092  135.3988  158.7877 N   0  0  0  0  0  0  0  0  0  0  0  0
  126.5826  135.1819  159.7714 N   0  0  0  0  0  0  0  0  0  0  0  0
  126.3323  134.7796  161.1577 C   0  0  0  0  0  0  0  0  0  0  0  0
  126.4943  133.2697  161.3998 C   0  0  0  0  0  0  0  0  0  0  0  0
  125.2557  133.3640  162.3092 C   0  0  0  0  0  0  0  0  0  0  0  0
  124.8412  134.5950  161.4859 C   0  0  0  0  0  0  0  0  0  0  0  0
  130.4939  133.4809  157.0495 N   0  0  0  0  0  0  0  0  0  0  0  0
  130.9751  134.1172  156.4977 H   0  0  0  0  0  0  0  0  0  0  0  0
  130.0575  132.0772  154.2105 C   0  0  0  0  0  0  0  0  0  0  0  0
  130.3789  131.4633  153.0170 C   0  0  0  0  0  0  0  0  0  0  0  0
  130.4086  127.8697  152.1542 H   0  0  0  0  0  0  0  0  0  0  0  0
  129.4790  129.1078  151.2760 H   0  0  0  0  0  0  0  0  0  0  0  0
  130.7008  128.1377  150.4190 H   0  0  0  0  0  0  0  0  0  0  0  0
  132.4866  129.1733  151.7926 H   0  0  0  0  0  0  0  0  0  0  0  0
  131.5571  130.4114  150.9143 H   0  0  0  0  0  0  0  0  0  0  0  0
  132.2487  128.9082  154.1901 H   0  0  0  0  0  0  0  0  0  0  0  0
  131.6953  129.9948  156.3269 H   0  0  0  0  0  0  0  0  0  0  0  0
  129.1410  130.6270  157.7729 H   0  0  0  0  0  0  0  0  0  0  0  0
  130.9124  135.4884  158.7852 H   0  0  0  0  0  0  0  0  0  0  0  0
  130.4551  136.5702  161.0335 H   0  0  0  0  0  0  0  0  0  0  0  0
  129.5542  137.4041  159.7445 H   0  0  0  0  0  0  0  0  0  0  0  0
  128.7279  136.9412  161.2517 H   0  0  0  0  0  0  0  0  0  0  0  0
  128.3631  135.9987  157.2060 H   0  0  0  0  0  0  0  0  0  0  0  0
  125.7370  135.9691  156.7397 H   0  0  0  0  0  0  0  0  0  0  0  0
  126.8652  135.3975  161.8805 H   0  0  0  0  0  0  0  0  0  0  0  0
  126.3354  132.6648  160.5071 H   0  0  0  0  0  0  0  0  0  0  0  0
  127.4090  133.0085  161.9320 H   0  0  0  0  0  0  0  0  0  0  0  0
  125.4946  133.5937  163.3476 H   0  0  0  0  0  0  0  0  0  0  0  0
  124.5721  132.5211  162.2087 H   0  0  0  0  0  0  0  0  0  0  0  0
  124.4232  135.4022  162.0874 H   0  0  0  0  0  0  0  0  0  0  0  0
  124.2296  134.3530  160.6167 H   0  0  0  0  0  0  0  0  0  0  0  0
  129.4405  132.9637  154.2140 H   0  0  0  0  0  0  0  0  0  0  0  0
  130.0127  131.8700  152.0859 H   0  0  0  0  0  0  0  0  0  0  0  0
  1  2  1  0
  1 29  1  0
  1 30  1  0
  1 31  1  0
  2  3  1  0
  2 32  1  0
  2 33  1  0
  3 28  2  0
  3  4  1  0
  4  5  2  0
  4 34  1  0
  5  6  1  0
  5 35  1  0
  6  7  1  0
  6 27  2  0
  7 25  1  0
  7  8  2  0
  8  9  1  0
  8 36  1  0
  9 10  1  0
  9 11  1  0
 11 12  1  0
 11 25  2  0
 12 13  1  0
 12 37  1  0
 13 14  1  1
 13 15  1  0
 13 16  1  0
 15 38  1  0
 15 39  1  0
 15 40  1  0
 16 20  1  0
 16 17  2  0
 17 18  1  0
 17 41  1  0
 18 19  2  0
 18 42  1  0
 19 20  1  0
 20 21  1  0
 21 24  1  0
 21 22  1  0
 21 43  1  0
 22 23  1  0
 22 44  1  0
 22 45  1  0
 23 24  1  0
 23 46  1  0
 23 47  1  0
 24 48  1  0
 24 49  1  0
 25 26  1  0
 27 28  1  0
 27 50  1  0
 28 51  1  0
M  CHG  1  25   1
M  END
>  <DOCK_score>  (1) 
-56.80748

>  <SMILES>  (1) 
CCc1ccc(-c2c[nH]c(N[C@@H](C)c3ccnn3C3CCC3)[nH+]2)cc1

$$$$
