CCCSc1ccc2c(c1)OC[C@H]([NH+]=C(NC1CC1)NC1CCC(=O)NC1)C2
     RDKit          3D

 59 62  0  0  1  0  0  0  0  0999 V2000
  136.9185  134.7734  169.5679 C   0  0  0  0  0  0  0  0  0  0  0  0
  137.3486  135.9035  168.6303 C   0  0  0  0  0  0  0  0  0  0  0  0
  136.7509  135.6694  167.2415 C   0  0  0  0  0  0  0  0  0  0  0  0
  134.9410  135.6376  167.3597 S   0  0  0  0  0  0  0  0  0  0  0  0
  134.4397  135.3626  165.6931 C   0  0  0  0  0  0  0  0  0  0  0  0
  135.3938  135.2315  164.6904 C   0  0  0  0  0  0  0  0  0  0  0  0
  134.9967  135.0141  163.3874 C   0  0  0  0  0  0  0  0  0  0  0  0
  133.6506  134.9248  163.0696 C   0  0  0  0  0  0  0  0  0  0  0  0
  132.6953  135.0578  164.0631 C   0  0  0  0  0  0  0  0  0  0  0  0
  133.0919  135.2756  165.3772 C   0  0  0  0  0  0  0  0  0  0  0  0
  131.3660  134.9825  163.7927 O   0  0  0  0  0  0  0  0  0  0  0  0
  130.9694  134.3980  162.5514 C   0  0  0  0  0  0  0  0  0  0  0  0
  131.7895  135.0453  161.4282 C   0  0  2  0  0  0  0  0  0  0  0  0
  131.6727  136.1284  161.4653 H   0  0  0  0  0  0  0  0  0  0  0  0
  131.3317  134.5434  160.1302 N   0  0  0  0  0  0  0  0  0  0  0  0
  131.9485  134.0742  159.5468 H   0  0  0  0  0  0  0  0  0  0  0  0
  130.0958  134.7274  159.7595 C   0  0  0  0  0  0  0  0  0  0  0  0
  129.6660  134.2565  158.5415 N   0  0  0  0  0  0  0  0  0  0  0  0
  130.5970  133.5480  157.6599 C   0  0  0  0  0  0  0  0  0  0  0  0
  129.9990  132.6309  156.5912 C   0  0  0  0  0  0  0  0  0  0  0  0
  130.6976  132.0289  157.8129 C   0  0  0  0  0  0  0  0  0  0  0  0
  129.2218  135.3923  160.5867 N   0  0  0  0  0  0  0  0  0  0  0  0
  127.7933  135.0684  160.5552 C   0  0  1  0  0  0  0  0  0  0  0  0
  127.5875  133.5971  160.9348 C   0  0  0  0  0  0  0  0  0  0  0  0
  126.1149  133.2420  160.7145 C   0  0  0  0  0  0  0  0  0  0  0  0
  125.2379  134.2795  161.3546 C   0  0  0  0  0  0  0  0  0  0  0  0
  124.0756  134.0006  161.5608 O   0  0  0  0  0  0  0  0  0  0  0  0
  125.6686  135.4909  161.7084 N   0  0  0  0  0  0  0  0  0  0  0  0
  127.0464  135.9432  161.5629 C   0  0  0  0  0  0  0  0  0  0  0  0
  133.2612  134.6778  161.6336 C   0  0  0  0  0  0  0  0  0  0  0  0
  137.3444  134.9403  170.5572 H   0  0  0  0  0  0  0  0  0  0  0  0
  135.8311  134.7543  169.6388 H   0  0  0  0  0  0  0  0  0  0  0  0
  137.2737  133.8206  169.1752 H   0  0  0  0  0  0  0  0  0  0  0  0
  138.4361  135.9226  168.5592 H   0  0  0  0  0  0  0  0  0  0  0  0
  136.9934  136.8562  169.0229 H   0  0  0  0  0  0  0  0  0  0  0  0
  137.1061  134.7166  166.8490 H   0  0  0  0  0  0  0  0  0  0  0  0
  137.0573  136.4745  166.5735 H   0  0  0  0  0  0  0  0  0  0  0  0
  136.4444  135.3002  164.9312 H   0  0  0  0  0  0  0  0  0  0  0  0
  135.7394  134.9130  162.6100 H   0  0  0  0  0  0  0  0  0  0  0  0
  132.3488  135.3777  166.1544 H   0  0  0  0  0  0  0  0  0  0  0  0
  129.9079  134.5800  162.3825 H   0  0  0  0  0  0  0  0  0  0  0  0
  131.1594  133.3251  162.5734 H   0  0  0  0  0  0  0  0  0  0  0  0
  128.7461  134.3935  158.2657 H   0  0  0  0  0  0  0  0  0  0  0  0
  131.5083  134.0895  157.4058 H   0  0  0  0  0  0  0  0  0  0  0  0
  128.9126  132.5548  156.5440 H   0  0  0  0  0  0  0  0  0  0  0  0
  130.5168  132.5689  155.6342 H   0  0  0  0  0  0  0  0  0  0  0  0
  131.6748  131.5712  157.6591 H   0  0  0  0  0  0  0  0  0  0  0  0
  130.0709  131.5568  158.5696 H   0  0  0  0  0  0  0  0  0  0  0  0
  129.5509  136.0758  161.1912 H   0  0  0  0  0  0  0  0  0  0  0  0
  127.4000  135.2464  159.5543 H   0  0  0  0  0  0  0  0  0  0  0  0
  128.2153  132.9647  160.3070 H   0  0  0  0  0  0  0  0  0  0  0  0
  127.8485  133.4483  161.9826 H   0  0  0  0  0  0  0  0  0  0  0  0
  125.9080  133.2028  159.6450 H   0  0  0  0  0  0  0  0  0  0  0  0
  125.9065  132.2690  161.1595 H   0  0  0  0  0  0  0  0  0  0  0  0
  125.0254  136.1085  162.0902 H   0  0  0  0  0  0  0  0  0  0  0  0
  127.0518  136.9766  161.2164 H   0  0  0  0  0  0  0  0  0  0  0  0
  127.5478  135.8878  162.5292 H   0  0  0  0  0  0  0  0  0  0  0  0
  133.4088  133.6248  161.3943 H   0  0  0  0  0  0  0  0  0  0  0  0
  133.8823  135.2885  160.9784 H   0  0  0  0  0  0  0  0  0  0  0  0
  1  2  1  0
  1 31  1  0
  1 32  1  0
  1 33  1  0
  2  3  1  0
  2 34  1  0
  2 35  1  0
  3  4  1  0
  3 36  1  0
  3 37  1  0
  4  5  1  0
  5 10  2  0
  5  6  1  0
  6  7  2  0
  6 38  1  0
  7  8  1  0
  7 39  1  0
  8 30  1  0
  8  9  2  0
  9 10  1  0
  9 11  1  0
 10 40  1  0
 11 12  1  0
 12 13  1  0
 12 41  1  0
 12 42  1  0
 13 14  1  6
 13 15  1  0
 13 30  1  0
 15 16  1  0
 17 15  2  0
 17 18  1  0
 17 22  1  0
 18 19  1  0
 18 43  1  0
 19 21  1  0
 19 20  1  0
 19 44  1  0
 20 21  1  0
 20 45  1  0
 20 46  1  0
 21 47  1  0
 21 48  1  0
 22 23  1  0
 22 49  1  0
 23 29  1  0
 23 24  1  0
 23 50  1  6
 24 25  1  0
 24 51  1  0
 24 52  1  0
 25 26  1  0
 25 53  1  0
 25 54  1  0
 26 27  2  0
 26 28  1  0
 28 29  1  0
 28 55  1  0
 29 56  1  0
 29 57  1  0
 30 58  1  0
 30 59  1  0
M  CHG  1  15   1
M  END
>  <DOCK_score>  (1) 
-40.908733

>  <SMILES>  (1) 
CCCSc1ccc2c(c1)OC[C@H]([NH+]=C(NC1CC1)NC1CCC(=O)NC1)C2

$$$$
