Cc1coc2c(Sc3ccc(-c4n[nH]cc4C[NH2+][C@@H]4C=CCC4)o3)cccc12
     RDKit          3D

 50 54  0  0  1  0  0  0  0  0999 V2000
  128.7466  139.5454  165.0448 C   0  0  0  0  0  0  0  0  0  0  0  0
  127.8646  138.5684  164.3110 C   0  0  0  0  0  0  0  0  0  0  0  0
  126.8129  138.8606  163.5334 C   0  0  0  0  0  0  0  0  0  0  0  0
  126.2699  137.7313  163.0471 O   0  0  0  0  0  0  0  0  0  0  0  0
  126.9462  136.6477  163.4803 C   0  0  0  0  0  0  0  0  0  0  0  0
  126.7896  135.2753  163.2781 C   0  0  0  0  0  0  0  0  0  0  0  0
  125.4890  134.6762  162.2513 S   0  0  0  0  0  0  0  0  0  0  0  0
  126.3521  133.8066  160.9852 C   0  0  0  0  0  0  0  0  0  0  0  0
  125.8856  132.7298  160.3030 C   0  0  0  0  0  0  0  0  0  0  0  0
  126.8906  132.3541  159.3912 C   0  0  0  0  0  0  0  0  0  0  0  0
  127.9230  133.2220  159.5624 C   0  0  0  0  0  0  0  0  0  0  0  0
  129.1997  133.2053  158.8192 C   0  0  0  0  0  0  0  0  0  0  0  0
  129.5354  132.3520  157.8716 N   0  0  0  0  0  0  0  0  0  0  0  0
  130.8228  132.6799  157.4277 N   0  0  0  0  0  0  0  0  0  0  0  0
  131.3205  132.2179  156.7351 H   0  0  0  0  0  0  0  0  0  0  0  0
  131.2515  133.7503  158.1312 C   0  0  0  0  0  0  0  0  0  0  0  0
  130.2739  134.1034  158.9929 C   0  0  0  0  0  0  0  0  0  0  0  0
  130.3230  135.2501  159.9693 C   0  0  0  0  0  0  0  0  0  0  0  0
  131.6109  135.9456  159.8436 N   0  0  0  0  0  0  0  0  0  0  0  0
  132.3617  135.3016  160.0429 H   0  0  0  0  0  0  0  0  0  0  0  0
  131.7117  136.2994  158.9039 H   0  0  0  0  0  0  0  0  0  0  0  0
  131.6587  137.0634  160.7955 C   0  0  2  0  0  0  0  0  0  0  0  0
  131.2112  136.7715  161.7457 H   0  0  0  0  0  0  0  0  0  0  0  0
  130.9477  138.2695  160.2272 C   0  0  0  0  0  0  0  0  0  0  0  0
  131.8052  139.1501  159.7803 C   0  0  0  0  0  0  0  0  0  0  0  0
  133.2265  138.6765  159.9779 C   0  0  0  0  0  0  0  0  0  0  0  0
  133.1183  137.5280  161.0077 C   0  0  0  0  0  0  0  0  0  0  0  0
  127.5839  134.0977  160.5316 O   0  0  0  0  0  0  0  0  0  0  0  0
  127.6632  134.3860  163.8823 C   0  0  0  0  0  0  0  0  0  0  0  0
  128.6909  134.8460  164.6917 C   0  0  0  0  0  0  0  0  0  0  0  0
  128.8565  136.1964  164.9061 C   0  0  0  0  0  0  0  0  0  0  0  0
  127.9844  137.1055  164.3046 C   0  0  0  0  0  0  0  0  0  0  0  0
  129.5794  139.8354  164.4040 H   0  0  0  0  0  0  0  0  0  0  0  0
  128.1672  140.4299  165.3099 H   0  0  0  0  0  0  0  0  0  0  0  0
  129.1312  139.0778  165.9512 H   0  0  0  0  0  0  0  0  0  0  0  0
  126.4541  139.8582  163.3273 H   0  0  0  0  0  0  0  0  0  0  0  0
  124.9258  132.2524  160.4343 H   0  0  0  0  0  0  0  0  0  0  0  0
  126.8492  131.5336  158.6900 H   0  0  0  0  0  0  0  0  0  0  0  0
  132.2072  134.2408  158.0203 H   0  0  0  0  0  0  0  0  0  0  0  0
  129.5120  135.9457  159.7540 H   0  0  0  0  0  0  0  0  0  0  0  0
  130.2141  134.8680  160.9844 H   0  0  0  0  0  0  0  0  0  0  0  0
  129.8746  138.3871  160.1953 H   0  0  0  0  0  0  0  0  0  0  0  0
  131.5326  140.0930  159.3294 H   0  0  0  0  0  0  0  0  0  0  0  0
  133.8441  139.4834  160.3723 H   0  0  0  0  0  0  0  0  0  0  0  0
  133.6395  138.3072  159.0392 H   0  0  0  0  0  0  0  0  0  0  0  0
  133.2678  137.8970  162.0224 H   0  0  0  0  0  0  0  0  0  0  0  0
  133.8212  136.7278  160.7766 H   0  0  0  0  0  0  0  0  0  0  0  0
  127.5427  133.3248  163.7215 H   0  0  0  0  0  0  0  0  0  0  0  0
  129.3652  134.1416  165.1563 H   0  0  0  0  0  0  0  0  0  0  0  0
  129.6585  136.5507  165.5368 H   0  0  0  0  0  0  0  0  0  0  0  0
  1  2  1  0
  1 33  1  0
  1 34  1  0
  1 35  1  0
  2 32  1  0
  2  3  2  0
  3  4  1  0
  3 36  1  0
  4  5  1  0
  5 32  2  0
  5  6  1  0
  6  7  1  0
  6 29  2  0
  7  8  1  0
  8 28  1  0
  8  9  2  0
  9 10  1  0
  9 37  1  0
 10 11  2  0
 10 38  1  0
 11 12  1  0
 11 28  1  0
 12 17  1  0
 12 13  2  0
 13 14  1  0
 14 15  1  0
 14 16  1  0
 16 17  2  0
 16 39  1  0
 17 18  1  0
 18 19  1  0
 18 40  1  0
 18 41  1  0
 19 20  1  0
 19 21  1  0
 19 22  1  0
 22 23  1  1
 22 27  1  0
 22 24  1  0
 24 25  2  0
 24 42  1  0
 25 26  1  0
 25 43  1  0
 26 27  1  0
 26 44  1  0
 26 45  1  0
 27 46  1  0
 27 47  1  0
 29 30  1  0
 29 48  1  0
 30 31  2  0
 30 49  1  0
 31 32  1  0
 31 50  1  0
M  CHG  1  19   1
M  END
>  <DOCK_score>  (1) 
-45.554867

>  <SMILES>  (1) 
Cc1coc2c(Sc3ccc(-c4n[nH]cc4C[NH2+][C@@H]4C=CCC4)o3)cccc12

$$$$
