
     RDKit          2D

 37 41  0  0  0  0  0  0  0  0999 V2000
    3.7500   -1.2990    0.0000 C   0  0  0  0  0  0  0  0  0  0  0  0
    3.0000    0.0000    0.0000 C   0  0  0  0  0  0  0  0  0  0  0  0
    1.5000    0.0000    0.0000 C   0  0  0  0  0  0  0  0  0  0  0  0
    0.7500   -1.2990    0.0000 C   0  0  0  0  0  0  0  0  0  0  0  0
   -0.7500   -1.2990    0.0000 C   0  0  0  0  0  0  0  0  0  0  0  0
   -1.5000    0.0000    0.0000 C   0  0  0  0  0  0  0  0  0  0  0  0
   -3.0000    0.0000    0.0000 C   0  0  0  0  0  0  0  0  0  0  0  0
   -3.8817   -1.2135    0.0000 C   0  0  0  0  0  0  0  0  0  0  0  0
   -5.3083   -0.7500    0.0000 N   0  0  0  0  0  0  0  0  0  0  0  0
   -5.3083    0.7500    0.0000 C   0  0  0  0  0  0  0  0  0  0  0  0
   -6.5218    1.6317    0.0000 N   0  0  0  0  0  0  0  0  0  0  0  0
   -6.3650    3.1235    0.0000 C   0  0  0  0  0  0  0  0  0  0  0  0
   -7.5785    4.0051    0.0000 C   0  0  0  0  0  0  0  0  0  0  0  0
   -7.4217    5.4969    0.0000 C   0  0  0  0  0  0  0  0  0  0  0  0
   -8.6353    6.3786    0.0000 C   0  0  0  0  0  0  0  0  0  0  0  0
   -8.4785    7.8704    0.0000 C   0  0  0  0  0  0  0  0  0  0  0  0
   -9.6920    8.7521    0.0000 C   0  0  0  0  0  0  0  0  0  0  0  0
  -11.0623    8.1420    0.0000 C   0  0  0  0  0  0  0  0  0  0  0  0
  -11.2191    6.6502    0.0000 C   0  0  0  0  0  0  0  0  0  0  0  0
  -10.0056    5.7685    0.0000 C   0  0  0  0  0  0  0  0  0  0  0  0
  -10.1624    4.2767    0.0000 F   0  0  0  0  0  0  0  0  0  0  0  0
   -4.9947    3.7336    0.0000 C   0  0  0  0  0  0  0  0  0  0  0  0
   -3.7812    2.8519    0.0000 C   0  0  0  0  0  0  0  0  0  0  0  0
   -2.4108    3.4620    0.0000 C   0  0  0  0  0  0  0  0  0  0  0  0
   -2.2540    4.9538    0.0000 C   0  0  0  0  0  0  0  0  0  0  0  0
   -3.4676    5.8355    0.0000 C   0  0  0  0  0  0  0  0  0  0  0  0
   -3.3108    7.3272    0.0000 C   0  0  0  0  0  0  0  0  0  0  0  0
   -1.9405    7.9373    0.0000 C   0  0  0  0  0  0  0  0  0  0  0  0
   -1.7837    9.4291    0.0000 C   0  0  0  0  0  0  0  0  0  0  0  0
   -2.9972   10.3108    0.0000 C   0  0  0  0  0  0  0  0  0  0  0  0
   -4.3675    9.7007    0.0000 N   0  0  0  0  0  0  0  0  0  0  0  0
   -4.5243    8.2089    0.0000 C   0  0  0  0  0  0  0  0  0  0  0  0
   -4.8379    5.2253    0.0000 C   0  0  0  0  0  0  0  0  0  0  0  0
   -6.0514    6.1070    0.0000 C   0  0  0  0  0  0  0  0  0  0  0  0
   -3.8817    1.2135    0.0000 N   0  0  0  0  0  0  0  0  0  0  0  0
   -0.7500    1.2990    0.0000 C   0  0  0  0  0  0  0  0  0  0  0  0
    0.7500    1.2990    0.0000 C   0  0  0  0  0  0  0  0  0  0  0  0
  1  2  1  0
  2  3  1  0
  3  4  2  0
  4  5  1  0
  5  6  2  0
  6  7  1  0
  7  8  2  0
  8  9  1  0
  9 10  1  0
 10 11  1  0
 11 12  1  0
 12 13  1  0
 13 14  2  3
 14 15  1  0
 15 16  2  0
 16 17  1  0
 17 18  2  0
 18 19  1  0
 19 20  2  0
 20 21  1  0
 12 22  1  0
 22 23  2  0
 23 24  1  0
 24 25  2  0
 25 26  1  0
 26 27  1  0
 27 28  2  0
 28 29  1  0
 29 30  2  0
 30 31  1  0
 31 32  2  0
 26 33  2  0
 33 34  1  0
 10 35  2  0
  6 36  1  0
 36 37  2  0
 37  3  1  0
 35  7  1  0
 20 15  1  0
 33 22  1  0
 32 27  1  0
M  END
$$$$
