Cc1ccc(C)c(N2CC[NH+]([C@@H](c3ccccc3)c3ccc(NCC#N)cc3)CC2)c1
     RDKit          3D

 62 65  0  0  1  0  0  0  0  0999 V2000
  135.6919  139.4010  159.3904 C   0  0  0  0  0  0  0  0  0  0  0  0
  135.2111  138.4902  160.4905 C   0  0  0  0  0  0  0  0  0  0  0  0
  135.7798  138.5670  161.7489 C   0  0  0  0  0  0  0  0  0  0  0  0
  135.3382  137.7364  162.7623 C   0  0  0  0  0  0  0  0  0  0  0  0
  134.3338  136.8203  162.5183 C   0  0  0  0  0  0  0  0  0  0  0  0
  133.8565  135.9122  163.6223 C   0  0  0  0  0  0  0  0  0  0  0  0
  133.7602  136.7409  161.2559 C   0  0  0  0  0  0  0  0  0  0  0  0
  132.7410  135.8189  161.0069 N   0  0  0  0  0  0  0  0  0  0  0  0
  133.1617  134.8253  160.0091 C   0  0  0  0  0  0  0  0  0  0  0  0
  132.0419  133.8016  159.8093 C   0  0  0  0  0  0  0  0  0  0  0  0
  130.8247  134.4889  159.3581 N   0  0  0  0  0  0  0  0  0  0  0  0
  131.0124  134.9701  158.4914 H   0  0  0  0  0  0  0  0  0  0  0  0
  129.7552  133.5037  159.1492 C   0  0  1  0  0  0  0  0  0  0  0  0
  129.5528  132.9832  160.0852 H   0  0  0  0  0  0  0  0  0  0  0  0
  128.5063  134.2086  158.6861 C   0  0  0  0  0  0  0  0  0  0  0  0
  127.2637  133.6871  158.9943 C   0  0  0  0  0  0  0  0  0  0  0  0
  126.1180  134.3361  158.5732 C   0  0  0  0  0  0  0  0  0  0  0  0
  126.2152  135.5016  157.8363 C   0  0  0  0  0  0  0  0  0  0  0  0
  127.4578  136.0202  157.5237 C   0  0  0  0  0  0  0  0  0  0  0  0
  128.6035  135.3736  157.9484 C   0  0  0  0  0  0  0  0  0  0  0  0
  130.1870  132.5078  158.1038 C   0  0  0  0  0  0  0  0  0  0  0  0
  130.4993  132.9389  156.8276 C   0  0  0  0  0  0  0  0  0  0  0  0
  130.9007  132.0297  155.8687 C   0  0  0  0  0  0  0  0  0  0  0  0
  130.9795  130.6792  156.1844 C   0  0  0  0  0  0  0  0  0  0  0  0
  131.3800  129.7562  155.2156 N   0  0  0  0  0  0  0  0  0  0  0  0
  131.2964  130.1028  153.7947 C   0  0  0  0  0  0  0  0  0  0  0  0
  131.0609  128.8831  153.0050 C   0  0  0  0  0  0  0  0  0  0  0  0
  130.8792  127.9418  152.3957 N   0  0  0  0  0  0  0  0  0  0  0  0
  130.6595  130.2488  157.4658 C   0  0  0  0  0  0  0  0  0  0  0  0
  130.2643  131.1641  158.4214 C   0  0  0  0  0  0  0  0  0  0  0  0
  130.4030  135.4604  160.3759 C   0  0  0  0  0  0  0  0  0  0  0  0
  131.5092  136.4979  160.5803 C   0  0  0  0  0  0  0  0  0  0  0  0
  134.2029  137.5802  160.2411 C   0  0  0  0  0  0  0  0  0  0  0  0
  135.1077  140.3212  159.3992 H   0  0  0  0  0  0  0  0  0  0  0  0
  136.7442  139.6372  159.5482 H   0  0  0  0  0  0  0  0  0  0  0  0
  135.5716  138.9035  158.4281 H   0  0  0  0  0  0  0  0  0  0  0  0
  136.5679  139.2798  161.9413 H   0  0  0  0  0  0  0  0  0  0  0  0
  135.7819  137.8015  163.7448 H   0  0  0  0  0  0  0  0  0  0  0  0
  134.4413  134.9925  163.6145 H   0  0  0  0  0  0  0  0  0  0  0  0
  133.9791  136.4127  164.5828 H   0  0  0  0  0  0  0  0  0  0  0  0
  132.8039  135.6749  163.4679 H   0  0  0  0  0  0  0  0  0  0  0  0
  133.3701  135.3254  159.0632 H   0  0  0  0  0  0  0  0  0  0  0  0
  134.0607  134.3174  160.3582 H   0  0  0  0  0  0  0  0  0  0  0  0
  131.8430  133.2920  160.7523 H   0  0  0  0  0  0  0  0  0  0  0  0
  132.3462  133.0718  159.0591 H   0  0  0  0  0  0  0  0  0  0  0  0
  127.1880  132.7745  159.5669 H   0  0  0  0  0  0  0  0  0  0  0  0
  125.1472  133.9311  158.8178 H   0  0  0  0  0  0  0  0  0  0  0  0
  125.3201  136.0072  157.5051 H   0  0  0  0  0  0  0  0  0  0  0  0
  127.5337  136.9308  156.9480 H   0  0  0  0  0  0  0  0  0  0  0  0
  129.5743  135.7788  157.7042 H   0  0  0  0  0  0  0  0  0  0  0  0
  130.4332  133.9885  156.5815 H   0  0  0  0  0  0  0  0  0  0  0  0
  131.1488  132.3676  154.8734 H   0  0  0  0  0  0  0  0  0  0  0  0
  131.7135  128.8856  155.4836 H   0  0  0  0  0  0  0  0  0  0  0  0
  130.4740  130.8009  153.6388 H   0  0  0  0  0  0  0  0  0  0  0  0
  132.2311  130.5658  153.4781 H   0  0  0  0  0  0  0  0  0  0  0  0
  130.7193  129.1995  157.7143 H   0  0  0  0  0  0  0  0  0  0  0  0
  130.0157  130.8302  159.4180 H   0  0  0  0  0  0  0  0  0  0  0  0
  130.2126  134.9424  161.3159 H   0  0  0  0  0  0  0  0  0  0  0  0
  129.4926  135.9605  160.0457 H   0  0  0  0  0  0  0  0  0  0  0  0
  131.2027  137.2103  161.3461 H   0  0  0  0  0  0  0  0  0  0  0  0
  131.6905  137.0259  159.6441 H   0  0  0  0  0  0  0  0  0  0  0  0
  133.7592  137.5207  159.2582 H   0  0  0  0  0  0  0  0  0  0  0  0
  1  2  1  0
  1 34  1  0
  1 35  1  0
  1 36  1  0
  2 33  2  0
  2  3  1  0
  3  4  2  0
  3 37  1  0
  4  5  1  0
  4 38  1  0
  5  6  1  0
  5  7  2  0
  6 39  1  0
  6 40  1  0
  6 41  1  0
  7  8  1  0
  7 33  1  0
  8 32  1  0
  8  9  1  0
  9 10  1  0
  9 42  1  0
  9 43  1  0
 10 11  1  0
 10 44  1  0
 10 45  1  0
 11 12  1  0
 11 13  1  0
 11 31  1  0
 13 14  1  1
 13 15  1  0
 13 21  1  0
 15 20  1  0
 15 16  2  0
 16 17  1  0
 16 46  1  0
 17 18  2  0
 17 47  1  0
 18 19  1  0
 18 48  1  0
 19 20  2  0
 19 49  1  0
 20 50  1  0
 21 30  1  0
 21 22  2  0
 22 23  1  0
 22 51  1  0
 23 24  2  0
 23 52  1  0
 24 25  1  0
 24 29  1  0
 25 26  1  0
 25 53  1  0
 26 27  1  0
 26 54  1  0
 26 55  1  0
 27 28  3  0
 29 30  2  0
 29 56  1  0
 30 57  1  0
 31 32  1  0
 31 58  1  0
 31 59  1  0
 32 60  1  0
 32 61  1  0
 33 62  1  0
M  CHG  1  11   1
M  END
>  <DOCK_score>  (1) 
-57.871872

>  <SMILES>  (1) 
Cc1ccc(C)c(N2CC[NH+]([C@@H](c3ccccc3)c3ccc(NCC#N)cc3)CC2)c1

$$$$
