Cc1ccc(-c2ccc(Cl)cc2Nc2[nH]cc(-c3ccccc3)[nH+]2)[nH]1
     RDKit          3D

 43 46  0  0  1  0  0  0  0  0999 V2000
  134.4932  138.4842  159.6544 C   0  0  0  0  0  0  0  0  0  0  0  0
  133.4657  137.7119  160.4410 C   0  0  0  0  0  0  0  0  0  0  0  0
  133.6732  137.1082  161.6308 C   0  0  0  0  0  0  0  0  0  0  0  0
  132.4660  136.5034  162.0191 C   0  0  0  0  0  0  0  0  0  0  0  0
  131.5507  136.7603  161.0429 C   0  0  0  0  0  0  0  0  0  0  0  0
  130.1414  136.3147  161.0328 C   0  0  0  0  0  0  0  0  0  0  0  0
  129.2764  136.7022  162.0562 C   0  0  0  0  0  0  0  0  0  0  0  0
  127.9603  136.2888  162.0387 C   0  0  0  0  0  0  0  0  0  0  0  0
  127.4958  135.4791  161.0148 C   0  0  0  0  0  0  0  0  0  0  0  0
  125.8395  134.9592  161.0086 Cl  0  0  0  0  0  0  0  0  0  0  0  0
  128.3449  135.0834  159.9974 C   0  0  0  0  0  0  0  0  0  0  0  0
  129.6690  135.4959  159.9978 C   0  0  0  0  0  0  0  0  0  0  0  0
  130.5278  135.0971  158.9719 N   0  0  0  0  0  0  0  0  0  0  0  0
  130.3293  133.8829  158.3352 C   0  0  0  0  0  0  0  0  0  0  0  0
  129.7888  132.7695  158.9018 N   0  0  0  0  0  0  0  0  0  0  0  0
  129.4761  132.6841  159.8161 H   0  0  0  0  0  0  0  0  0  0  0  0
  129.7647  131.7905  157.9393 C   0  0  0  0  0  0  0  0  0  0  0  0
  130.2993  132.3300  156.8155 C   0  0  0  0  0  0  0  0  0  0  0  0
  130.4834  131.6372  155.5168 C   0  0  0  0  0  0  0  0  0  0  0  0
  129.8555  132.1215  154.3706 C   0  0  0  0  0  0  0  0  0  0  0  0
  130.0358  131.4767  153.1637 C   0  0  0  0  0  0  0  0  0  0  0  0
  130.8273  130.3441  153.0930 C   0  0  0  0  0  0  0  0  0  0  0  0
  131.4478  129.8558  154.2286 C   0  0  0  0  0  0  0  0  0  0  0  0
  131.2801  130.4963  155.4394 C   0  0  0  0  0  0  0  0  0  0  0  0
  130.6363  133.6150  157.0894 N   0  0  0  0  0  0  0  0  0  0  0  0
  131.0398  134.2363  156.4633 H   0  0  0  0  0  0  0  0  0  0  0  0
  132.1687  137.5051  160.0715 N   0  0  0  0  0  0  0  0  0  0  0  0
  131.7530  137.8308  159.2578 H   0  0  0  0  0  0  0  0  0  0  0  0
  135.0168  137.8079  158.9785 H   0  0  0  0  0  0  0  0  0  0  0  0
  133.9973  139.2638  159.0760 H   0  0  0  0  0  0  0  0  0  0  0  0
  135.2086  138.9393  160.3393 H   0  0  0  0  0  0  0  0  0  0  0  0
  134.6015  137.0896  162.1826 H   0  0  0  0  0  0  0  0  0  0  0  0
  132.2954  135.9388  162.9238 H   0  0  0  0  0  0  0  0  0  0  0  0
  129.6353  137.3293  162.8588 H   0  0  0  0  0  0  0  0  0  0  0  0
  127.2905  136.5932  162.8294 H   0  0  0  0  0  0  0  0  0  0  0  0
  127.9765  134.4527  159.2018 H   0  0  0  0  0  0  0  0  0  0  0  0
  131.2635  135.6702  158.7049 H   0  0  0  0  0  0  0  0  0  0  0  0
  129.3949  130.7825  158.0558 H   0  0  0  0  0  0  0  0  0  0  0  0
  129.2332  133.0023  154.4257 H   0  0  0  0  0  0  0  0  0  0  0  0
  129.5542  131.8542  152.2738 H   0  0  0  0  0  0  0  0  0  0  0  0
  130.9618  129.8399  152.1475 H   0  0  0  0  0  0  0  0  0  0  0  0
  132.0649  128.9716  154.1674 H   0  0  0  0  0  0  0  0  0  0  0  0
  131.7655  130.1143  156.3253 H   0  0  0  0  0  0  0  0  0  0  0  0
  1  2  1  0
  1 29  1  0
  1 30  1  0
  1 31  1  0
  2 27  1  0
  2  3  2  0
  3  4  1  0
  3 32  1  0
  4  5  2  0
  4 33  1  0
  5  6  1  0
  5 27  1  0
  6 12  1  0
  6  7  2  0
  7  8  1  0
  7 34  1  0
  8  9  2  0
  8 35  1  0
  9 10  1  0
  9 11  1  0
 11 12  2  0
 11 36  1  0
 12 13  1  0
 13 37  1  0
 14 13  1  0
 14 25  2  0
 14 15  1  0
 15 16  1  0
 15 17  1  0
 17 18  2  0
 17 38  1  0
 18 19  1  0
 18 25  1  0
 19 24  1  0
 19 20  2  0
 20 21  1  0
 20 39  1  0
 21 22  2  0
 21 40  1  0
 22 23  1  0
 22 41  1  0
 23 24  2  0
 23 42  1  0
 24 43  1  0
 25 26  1  0
 27 28  1  0
M  CHG  1  25   1
M  END
>  <DOCK_score>  (1) 
-58.522034

>  <SMILES>  (1) 
Cc1ccc(-c2ccc(Cl)cc2Nc2[nH]cc(-c3ccccc3)[nH+]2)[nH]1

$$$$
