CCc1cccc(-c2ccc(C3=CC[N@@H+](Cc4ccc(-c5ccccc5)[nH]4)CC3)cc2)c1
     RDKit          3D

 63 67  0  0  1  0  0  0  0  0999 V2000
  137.6163  135.0589  169.3956 C   0  0  0  0  0  0  0  0  0  0  0  0
  137.5535  136.4881  168.8528 C   0  0  0  0  0  0  0  0  0  0  0  0
  137.8049  136.4727  167.3670 C   0  0  0  0  0  0  0  0  0  0  0  0
  139.0959  136.5923  166.8840 C   0  0  0  0  0  0  0  0  0  0  0  0
  139.3344  136.5785  165.5217 C   0  0  0  0  0  0  0  0  0  0  0  0
  138.2847  136.4403  164.6361 C   0  0  0  0  0  0  0  0  0  0  0  0
  136.9816  136.3246  165.1167 C   0  0  0  0  0  0  0  0  0  0  0  0
  135.8492  136.1812  164.1702 C   0  0  0  0  0  0  0  0  0  0  0  0
  134.7095  135.4717  164.5493 C   0  0  0  0  0  0  0  0  0  0  0  0
  133.6571  135.3388  163.6714 C   0  0  0  0  0  0  0  0  0  0  0  0
  133.7312  135.9142  162.4010 C   0  0  0  0  0  0  0  0  0  0  0  0
  132.6026  135.7721  161.4586 C   0  0  0  0  0  0  0  0  0  0  0  0
  132.2352  134.5644  161.0856 C   0  0  0  0  0  0  0  0  0  0  0  0
  131.0945  134.3128  160.1421 C   0  0  0  0  0  0  0  0  0  0  0  0
  130.7766  135.5320  159.3896 N   0  0  1  0  0  0  0  0  0  0  0  0
  131.5416  135.7561  158.7710 H   0  0  0  0  0  0  0  0  0  0  0  0
  129.5539  135.3217  158.6028 C   0  0  0  0  0  0  0  0  0  0  0  0
  129.5655  133.9328  158.0181 C   0  0  0  0  0  0  0  0  0  0  0  0
  129.0573  132.8262  158.6023 C   0  0  0  0  0  0  0  0  0  0  0  0
  129.2721  131.7465  157.7303 C   0  0  0  0  0  0  0  0  0  0  0  0
  129.9112  132.2339  156.6303 C   0  0  0  0  0  0  0  0  0  0  0  0
  130.3359  131.4491  155.4514 C   0  0  0  0  0  0  0  0  0  0  0  0
  129.8337  131.7573  154.1862 C   0  0  0  0  0  0  0  0  0  0  0  0
  130.2381  131.0245  153.0895 C   0  0  0  0  0  0  0  0  0  0  0  0
  131.1313  129.9792  153.2434 C   0  0  0  0  0  0  0  0  0  0  0  0
  131.6285  129.6647  154.4956 C   0  0  0  0  0  0  0  0  0  0  0  0
  131.2362  130.3931  155.5997 C   0  0  0  0  0  0  0  0  0  0  0  0
  130.0855  133.5825  156.8077 N   0  0  0  0  0  0  0  0  0  0  0  0
  130.5104  134.1860  156.1782 H   0  0  0  0  0  0  0  0  0  0  0  0
  130.5685  136.6387  160.3365 C   0  0  0  0  0  0  0  0  0  0  0  0
  131.9181  137.0130  160.9547 C   0  0  0  0  0  0  0  0  0  0  0  0
  134.8749  136.6190  162.0201 C   0  0  0  0  0  0  0  0  0  0  0  0
  135.9239  136.7561  162.9016 C   0  0  0  0  0  0  0  0  0  0  0  0
  136.7474  136.3387  166.4910 C   0  0  0  0  0  0  0  0  0  0  0  0
  136.8569  134.4502  168.9047 H   0  0  0  0  0  0  0  0  0  0  0  0
  138.6023  134.6383  169.1983 H   0  0  0  0  0  0  0  0  0  0  0  0
  137.4344  135.0700  170.4702 H   0  0  0  0  0  0  0  0  0  0  0  0
  138.3128  137.0968  169.3435 H   0  0  0  0  0  0  0  0  0  0  0  0
  136.5674  136.9086  169.0501 H   0  0  0  0  0  0  0  0  0  0  0  0
  139.9207  136.6966  167.5734 H   0  0  0  0  0  0  0  0  0  0  0  0
  140.3442  136.6717  165.1502 H   0  0  0  0  0  0  0  0  0  0  0  0
  138.4725  136.4252  163.5727 H   0  0  0  0  0  0  0  0  0  0  0  0
  134.6526  135.0269  165.5316 H   0  0  0  0  0  0  0  0  0  0  0  0
  132.7747  134.7900  163.9652 H   0  0  0  0  0  0  0  0  0  0  0  0
  132.7759  133.7162  161.4788 H   0  0  0  0  0  0  0  0  0  0  0  0
  130.2169  133.9990  160.7073 H   0  0  0  0  0  0  0  0  0  0  0  0
  131.3765  133.5228  159.4461 H   0  0  0  0  0  0  0  0  0  0  0  0
  128.6826  135.4371  159.2476 H   0  0  0  0  0  0  0  0  0  0  0  0
  129.5096  136.0547  157.7973 H   0  0  0  0  0  0  0  0  0  0  0  0
  128.5735  132.7800  159.5667 H   0  0  0  0  0  0  0  0  0  0  0  0
  128.9841  130.7195  157.9004 H   0  0  0  0  0  0  0  0  0  0  0  0
  129.1330  132.5702  154.0654 H   0  0  0  0  0  0  0  0  0  0  0  0
  129.8534  131.2647  152.1093 H   0  0  0  0  0  0  0  0  0  0  0  0
  131.4415  129.4059  152.3822 H   0  0  0  0  0  0  0  0  0  0  0  0
  132.3255  128.8475  154.6090 H   0  0  0  0  0  0  0  0  0  0  0  0
  131.6248  130.1465  156.5767 H   0  0  0  0  0  0  0  0  0  0  0  0
  129.8810  136.3241  161.1216 H   0  0  0  0  0  0  0  0  0  0  0  0
  130.1550  137.5000  159.8117 H   0  0  0  0  0  0  0  0  0  0  0  0
  131.7589  137.7020  161.7841 H   0  0  0  0  0  0  0  0  0  0  0  0
  132.5428  137.4914  160.2005 H   0  0  0  0  0  0  0  0  0  0  0  0
  134.9351  137.0601  161.0362 H   0  0  0  0  0  0  0  0  0  0  0  0
  136.8066  137.3052  162.6089 H   0  0  0  0  0  0  0  0  0  0  0  0
  135.7401  136.2447  166.8692 H   0  0  0  0  0  0  0  0  0  0  0  0
  1  2  1  0
  1 35  1  0
  1 36  1  0
  1 37  1  0
  2  3  1  0
  2 38  1  0
  2 39  1  0
  3 34  2  0
  3  4  1  0
  4  5  2  0
  4 40  1  0
  5  6  1  0
  5 41  1  0
  6  7  2  0
  6 42  1  0
  7  8  1  0
  7 34  1  0
  8 33  1  0
  8  9  2  0
  9 10  1  0
  9 43  1  0
 10 11  2  0
 10 44  1  0
 11 12  1  0
 11 32  1  0
 12 31  1  0
 12 13  2  0
 13 14  1  0
 13 45  1  0
 14 15  1  0
 14 46  1  0
 14 47  1  0
 15 16  1  6
 15 17  1  0
 15 30  1  0
 17 18  1  0
 17 48  1  0
 17 49  1  0
 18 28  1  0
 18 19  2  0
 19 20  1  0
 19 50  1  0
 20 21  2  0
 20 51  1  0
 21 22  1  0
 21 28  1  0
 22 27  1  0
 22 23  2  0
 23 24  1  0
 23 52  1  0
 24 25  2  0
 24 53  1  0
 25 26  1  0
 25 54  1  0
 26 27  2  0
 26 55  1  0
 27 56  1  0
 28 29  1  0
 30 31  1  0
 30 57  1  0
 30 58  1  0
 31 59  1  0
 31 60  1  0
 32 33  2  0
 32 61  1  0
 33 62  1  0
 34 63  1  0
M  CHG  1  15   1
M  END
>  <DOCK_score>  (1) 
-56.824654

>  <SMILES>  (1) 
CCc1cccc(-c2ccc(C3=CC[N@@H+](Cc4ccc(-c5ccccc5)[nH]4)CC3)cc2)c1

$$$$
