CCc1ccc(-c2c[nH]c(N[C@@H](C3=CCCCC3)C3=CCCCCC3)[nH+]2)cc1
     RDKit          3D

 62 65  0  0  1  0  0  0  0  0999 V2000
  130.0504  128.5047  151.5585 C   0  0  0  0  0  0  0  0  0  0  0  0
  131.1129  129.5942  151.7143 C   0  0  0  0  0  0  0  0  0  0  0  0
  130.9147  130.3053  153.0280 C   0  0  0  0  0  0  0  0  0  0  0  0
  131.5534  129.8435  154.1644 C   0  0  0  0  0  0  0  0  0  0  0  0
  131.3802  130.4940  155.3693 C   0  0  0  0  0  0  0  0  0  0  0  0
  130.5508  131.6118  155.4417 C   0  0  0  0  0  0  0  0  0  0  0  0
  130.3563  132.3118  156.7349 C   0  0  0  0  0  0  0  0  0  0  0  0
  129.8517  131.7666  157.8695 C   0  0  0  0  0  0  0  0  0  0  0  0
  129.8461  132.7585  158.8200 N   0  0  0  0  0  0  0  0  0  0  0  0
  129.5406  132.6738  159.7367 H   0  0  0  0  0  0  0  0  0  0  0  0
  130.3478  133.8817  158.2379 C   0  0  0  0  0  0  0  0  0  0  0  0
  130.5104  135.1080  158.8593 N   0  0  0  0  0  0  0  0  0  0  0  0
  130.1278  135.2740  160.2637 C   0  0  1  0  0  0  0  0  0  0  0  0
  130.4163  134.3862  160.8262 H   0  0  0  0  0  0  0  0  0  0  0  0
  130.8269  136.4804  160.8355 C   0  0  0  0  0  0  0  0  0  0  0  0
  130.0956  137.4442  161.2955 C   0  0  0  0  0  0  0  0  0  0  0  0
  130.6463  138.7097  161.8852 C   0  0  0  0  0  0  0  0  0  0  0  0
  132.1204  138.5229  162.2508 C   0  0  0  0  0  0  0  0  0  0  0  0
  132.8461  137.9138  161.0446 C   0  0  0  0  0  0  0  0  0  0  0  0
  132.3276  136.4868  160.8417 C   0  0  0  0  0  0  0  0  0  0  0  0
  128.6361  135.4660  160.3585 C   0  0  0  0  0  0  0  0  0  0  0  0
  128.0009  135.0655  161.4140 C   0  0  0  0  0  0  0  0  0  0  0  0
  126.5027  135.2522  161.5221 C   0  0  0  0  0  0  0  0  0  0  0  0
  125.8180  134.2744  160.5644 C   0  0  0  0  0  0  0  0  0  0  0  0
  125.7189  134.8674  159.1701 C   0  0  0  0  0  0  0  0  0  0  0  0
  127.0646  135.0611  158.4937 C   0  0  0  0  0  0  0  0  0  0  0  0
  127.8890  136.1314  159.2226 C   0  0  0  0  0  0  0  0  0  0  0  0
  130.6569  133.6093  156.9937 N   0  0  0  0  0  0  0  0  0  0  0  0
  131.0375  134.2359  156.3585 H   0  0  0  0  0  0  0  0  0  0  0  0
  129.9053  132.0695  154.2944 C   0  0  0  0  0  0  0  0  0  0  0  0
  130.0903  131.4145  153.0938 C   0  0  0  0  0  0  0  0  0  0  0  0
  130.1937  127.9906  150.6082 H   0  0  0  0  0  0  0  0  0  0  0  0
  130.1414  127.7894  152.3760 H   0  0  0  0  0  0  0  0  0  0  0  0
  129.0592  128.9576  151.5808 H   0  0  0  0  0  0  0  0  0  0  0  0
  132.1040  129.1419  151.6917 H   0  0  0  0  0  0  0  0  0  0  0  0
  131.0217  130.3100  150.8965 H   0  0  0  0  0  0  0  0  0  0  0  0
  132.1921  128.9744  154.1081 H   0  0  0  0  0  0  0  0  0  0  0  0
  131.8833  130.1352  156.2551 H   0  0  0  0  0  0  0  0  0  0  0  0
  129.5180  130.7479  158.0006 H   0  0  0  0  0  0  0  0  0  0  0  0
  130.8778  135.8573  158.3649 H   0  0  0  0  0  0  0  0  0  0  0  0
  129.0225  137.3310  161.2521 H   0  0  0  0  0  0  0  0  0  0  0  0
  130.5538  139.5169  161.1585 H   0  0  0  0  0  0  0  0  0  0  0  0
  130.0813  138.9665  162.7813 H   0  0  0  0  0  0  0  0  0  0  0  0
  132.5626  139.4888  162.4950 H   0  0  0  0  0  0  0  0  0  0  0  0
  132.2036  137.8519  163.1057 H   0  0  0  0  0  0  0  0  0  0  0  0
  132.6438  138.5108  160.1554 H   0  0  0  0  0  0  0  0  0  0  0  0
  133.9188  137.8888  161.2366 H   0  0  0  0  0  0  0  0  0  0  0  0
  132.6883  135.8494  161.6490 H   0  0  0  0  0  0  0  0  0  0  0  0
  132.6944  136.1029  159.8897 H   0  0  0  0  0  0  0  0  0  0  0  0
  128.5432  134.5954  162.2210 H   0  0  0  0  0  0  0  0  0  0  0  0
  126.1815  135.0490  162.5437 H   0  0  0  0  0  0  0  0  0  0  0  0
  126.2408  136.2746  161.2500 H   0  0  0  0  0  0  0  0  0  0  0  0
  126.3954  133.3507  160.5213 H   0  0  0  0  0  0  0  0  0  0  0  0
  124.8161  134.0536  160.9326 H   0  0  0  0  0  0  0  0  0  0  0  0
  125.1103  134.2066  158.5527 H   0  0  0  0  0  0  0  0  0  0  0  0
  125.2201  135.8343  159.2372 H   0  0  0  0  0  0  0  0  0  0  0  0
  127.6101  134.1175  158.5033 H   0  0  0  0  0  0  0  0  0  0  0  0
  126.9057  135.3731  157.4615 H   0  0  0  0  0  0  0  0  0  0  0  0
  127.2255  136.8990  159.6210 H   0  0  0  0  0  0  0  0  0  0  0  0
  128.6008  136.5825  158.5312 H   0  0  0  0  0  0  0  0  0  0  0  0
  129.2611  132.9349  154.3449 H   0  0  0  0  0  0  0  0  0  0  0  0
  129.5902  131.7682  152.2043 H   0  0  0  0  0  0  0  0  0  0  0  0
  1  2  1  0
  1 32  1  0
  1 33  1  0
  1 34  1  0
  2  3  1  0
  2 35  1  0
  2 36  1  0
  3 31  2  0
  3  4  1  0
  4  5  2  0
  4 37  1  0
  5  6  1  0
  5 38  1  0
  6  7  1  0
  6 30  2  0
  7 28  1  0
  7  8  2  0
  8  9  1  0
  8 39  1  0
  9 10  1  0
  9 11  1  0
 11 12  1  0
 11 28  2  0
 12 13  1  0
 12 40  1  0
 13 14  1  1
 13 15  1  0
 13 21  1  0
 15 20  1  0
 15 16  2  0
 16 17  1  0
 16 41  1  0
 17 18  1  0
 17 42  1  0
 17 43  1  0
 18 19  1  0
 18 44  1  0
 18 45  1  0
 19 20  1  0
 19 46  1  0
 19 47  1  0
 20 48  1  0
 20 49  1  0
 21 27  1  0
 21 22  2  0
 22 23  1  0
 22 50  1  0
 23 24  1  0
 23 51  1  0
 23 52  1  0
 24 25  1  0
 24 53  1  0
 24 54  1  0
 25 26  1  0
 25 55  1  0
 25 56  1  0
 26 27  1  0
 26 57  1  0
 26 58  1  0
 27 59  1  0
 27 60  1  0
 28 29  1  0
 30 31  1  0
 30 61  1  0
 31 62  1  0
M  CHG  1  28   1
M  END
>  <DOCK_score>  (1) 
-59.722328

>  <SMILES>  (1) 
CCc1ccc(-c2c[nH]c(N[C@@H](C3=CCCCC3)C3=CCCCCC3)[nH+]2)cc1

$$$$
