C1=C(C[NH2+]Cc2c[nH]nc2-c2ccc(NCCCc3cccc4ccccc34)o2)CCC1
     RDKit          3D

 63 67  0  0  0  0  0  0  0  0999 V2000
  134.7378  138.3288  160.1521 C   0  0  0  0  0  0  0  0  0  0  0  0
  133.4446  138.3640  159.9782 C   0  0  0  0  0  0  0  0  0  0  0  0
  132.4616  137.4896  160.7129 C   0  0  0  0  0  0  0  0  0  0  0  0
  132.2498  136.2482  159.9565 N   0  0  0  0  0  0  0  0  0  0  0  0
  133.1273  135.7597  159.8593 H   0  0  0  0  0  0  0  0  0  0  0  0
  131.8851  136.4697  159.0422 H   0  0  0  0  0  0  0  0  0  0  0  0
  131.2915  135.3959  160.6726 C   0  0  0  0  0  0  0  0  0  0  0  0
  131.0741  134.1225  159.8966 C   0  0  0  0  0  0  0  0  0  0  0  0
  132.0360  133.3608  159.3329 C   0  0  0  0  0  0  0  0  0  0  0  0
  131.4378  132.3128  158.7261 N   0  0  0  0  0  0  0  0  0  0  0  0
  131.8875  131.6057  158.2375 H   0  0  0  0  0  0  0  0  0  0  0  0
  130.0555  132.4236  158.9239 N   0  0  0  0  0  0  0  0  0  0  0  0
  129.8297  133.5124  159.6326 C   0  0  0  0  0  0  0  0  0  0  0  0
  128.5078  134.0088  160.0676 C   0  0  0  0  0  0  0  0  0  0  0  0
  127.3114  133.4171  159.8111 C   0  0  0  0  0  0  0  0  0  0  0  0
  126.3219  134.2197  160.4125 C   0  0  0  0  0  0  0  0  0  0  0  0
  126.9608  135.2631  160.9981 C   0  0  0  0  0  0  0  0  0  0  0  0
  126.3526  136.2959  161.7021 N   0  0  0  0  0  0  0  0  0  0  0  0
  127.1678  137.3642  162.2854 C   0  0  0  0  0  0  0  0  0  0  0  0
  127.5740  136.9766  163.7087 C   0  0  0  0  0  0  0  0  0  0  0  0
  126.3190  136.7706  164.5592 C   0  0  0  0  0  0  0  0  0  0  0  0
  126.7192  136.3889  165.9609 C   0  0  0  0  0  0  0  0  0  0  0  0
  126.8760  135.0786  166.2949 C   0  0  0  0  0  0  0  0  0  0  0  0
  127.2390  134.7060  167.5875 C   0  0  0  0  0  0  0  0  0  0  0  0
  127.4490  135.6417  168.5536 C   0  0  0  0  0  0  0  0  0  0  0  0
  127.2972  137.0044  168.2464 C   0  0  0  0  0  0  0  0  0  0  0  0
  127.5059  137.9989  169.2173 C   0  0  0  0  0  0  0  0  0  0  0  0
  127.3502  139.3089  168.8833 C   0  0  0  0  0  0  0  0  0  0  0  0
  126.9855  139.6816  167.5906 C   0  0  0  0  0  0  0  0  0  0  0  0
  126.7755  138.7463  166.6245 C   0  0  0  0  0  0  0  0  0  0  0  0
  126.9268  137.3833  166.9317 C   0  0  0  0  0  0  0  0  0  0  0  0
  128.2812  135.1272  160.7881 O   0  0  0  0  0  0  0  0  0  0  0  0
  133.0624  139.4015  158.9483 C   0  0  0  0  0  0  0  0  0  0  0  0
  134.3779  139.7141  158.1982 C   0  0  0  0  0  0  0  0  0  0  0  0
  135.4343  139.3301  159.2601 C   0  0  0  0  0  0  0  0  0  0  0  0
  135.2437  137.6689  160.8414 H   0  0  0  0  0  0  0  0  0  0  0  0
  131.5137  138.0174  160.8180 H   0  0  0  0  0  0  0  0  0  0  0  0
  132.8556  137.2504  161.7007 H   0  0  0  0  0  0  0  0  0  0  0  0
  130.3435  135.9236  160.7776 H   0  0  0  0  0  0  0  0  0  0  0  0
  131.6854  135.1566  161.6604 H   0  0  0  0  0  0  0  0  0  0  0  0
  133.0976  133.5574  159.3588 H   0  0  0  0  0  0  0  0  0  0  0  0
  127.1506  132.5044  159.2565 H   0  0  0  0  0  0  0  0  0  0  0  0
  125.2571  134.0394  160.4069 H   0  0  0  0  0  0  0  0  0  0  0  0
  125.3884  136.3093  161.8072 H   0  0  0  0  0  0  0  0  0  0  0  0
  126.5906  138.2886  162.3114 H   0  0  0  0  0  0  0  0  0  0  0  0
  128.0619  137.5110  161.6796 H   0  0  0  0  0  0  0  0  0  0  0  0
  128.1805  137.7715  164.1426 H   0  0  0  0  0  0  0  0  0  0  0  0
  128.1511  136.0522  163.6828 H   0  0  0  0  0  0  0  0  0  0  0  0
  125.7124  135.9757  164.1253 H   0  0  0  0  0  0  0  0  0  0  0  0
  125.7420  137.6950  164.5851 H   0  0  0  0  0  0  0  0  0  0  0  0
  126.7158  134.3162  165.5468 H   0  0  0  0  0  0  0  0  0  0  0  0
  127.3560  133.6593  167.8264 H   0  0  0  0  0  0  0  0  0  0  0  0
  127.7303  135.3383  169.5512 H   0  0  0  0  0  0  0  0  0  0  0  0
  127.7880  137.7250  170.2231 H   0  0  0  0  0  0  0  0  0  0  0  0
  127.5111  140.0713  169.6311 H   0  0  0  0  0  0  0  0  0  0  0  0
  126.8681  140.7283  167.3520 H   0  0  0  0  0  0  0  0  0  0  0  0
  126.4940  139.0501  165.6271 H   0  0  0  0  0  0  0  0  0  0  0  0
  132.3197  138.9978  158.2601 H   0  0  0  0  0  0  0  0  0  0  0  0
  132.6811  140.2985  159.4362 H   0  0  0  0  0  0  0  0  0  0  0  0
  134.4766  139.0949  157.3064 H   0  0  0  0  0  0  0  0  0  0  0  0
  134.4430  140.7726  157.9466 H   0  0  0  0  0  0  0  0  0  0  0  0
  136.3044  138.8777  158.7842 H   0  0  0  0  0  0  0  0  0  0  0  0
  135.7289  140.2068  159.8371 H   0  0  0  0  0  0  0  0  0  0  0  0
  1 35  1  0
  1  2  2  0
  1 36  1  0
  2  3  1  0
  2 33  1  0
  3  4  1  0
  3 37  1  0
  3 38  1  0
  4  5  1  0
  4  6  1  0
  4  7  1  0
  7  8  1  0
  7 39  1  0
  7 40  1  0
  8 13  1  0
  8  9  2  0
  9 10  1  0
  9 41  1  0
 10 11  1  0
 10 12  1  0
 12 13  2  0
 13 14  1  0
 14 32  1  0
 14 15  2  0
 15 16  1  0
 15 42  1  0
 16 17  2  0
 16 43  1  0
 17 18  1  0
 17 32  1  0
 18 19  1  0
 18 44  1  0
 19 20  1  0
 19 45  1  0
 19 46  1  0
 20 21  1  0
 20 47  1  0
 20 48  1  0
 21 22  1  0
 21 49  1  0
 21 50  1  0
 22 31  1  0
 22 23  2  0
 23 24  1  0
 23 51  1  0
 24 25  2  0
 24 52  1  0
 25 26  1  0
 25 53  1  0
 26 31  2  0
 26 27  1  0
 27 28  2  0
 27 54  1  0
 28 29  1  0
 28 55  1  0
 29 30  2  0
 29 56  1  0
 30 31  1  0
 30 57  1  0
 33 34  1  0
 33 58  1  0
 33 59  1  0
 34 35  1  0
 34 60  1  0
 34 61  1  0
 35 62  1  0
 35 63  1  0
M  CHG  1   4   1
M  END
>  <DOCK_score>  (1) 
-49.157543

>  <SMILES>  (1) 
C1=C(C[NH2+]Cc2c[nH]nc2-c2ccc(NCCCc3cccc4ccccc34)o2)CCC1

$$$$
