CCc1ccc(-c2c[nH]c(N[C@H](C=CCc3ccccc3)CCc3ccccc3)[nH+]2)cc1
     RDKit          3D

 64 67  0  0  1  0  0  0  0  0999 V2000
  132.0244  129.6345  152.6454 C   0  0  0  0  0  0  0  0  0  0  0  0
  130.6109  129.6963  153.2285 C   0  0  0  0  0  0  0  0  0  0  0  0
  130.6221  130.5274  154.4854 C   0  0  0  0  0  0  0  0  0  0  0  0
  130.4031  131.8917  154.4113 C   0  0  0  0  0  0  0  0  0  0  0  0
  130.4123  132.6578  155.5592 C   0  0  0  0  0  0  0  0  0  0  0  0
  130.6421  132.0548  156.7946 C   0  0  0  0  0  0  0  0  0  0  0  0
  130.6530  132.8730  158.0317 C   0  0  0  0  0  0  0  0  0  0  0  0
  130.2920  132.4528  159.2696 C   0  0  0  0  0  0  0  0  0  0  0  0
  130.4527  133.5226  160.1163 N   0  0  0  0  0  0  0  0  0  0  0  0
  130.2747  133.5323  161.0697 H   0  0  0  0  0  0  0  0  0  0  0  0
  130.9074  134.5661  159.3704 C   0  0  0  0  0  0  0  0  0  0  0  0
  131.1972  135.8328  159.8479 N   0  0  0  0  0  0  0  0  0  0  0  0
  131.0192  136.1380  161.2697 C   0  0  2  0  0  0  0  0  0  0  0  0
  131.6536  135.4808  161.8646 H   0  0  0  0  0  0  0  0  0  0  0  0
  129.5771  135.9257  161.6524 C   0  0  0  0  0  0  0  0  0  0  0  0
  129.2668  135.0514  162.5773 C   0  0  0  0  0  0  0  0  0  0  0  0
  127.8247  134.8391  162.9599 C   0  0  0  0  0  0  0  0  0  0  0  0
  127.2291  133.7587  162.0946 C   0  0  0  0  0  0  0  0  0  0  0  0
  126.6171  134.0889  160.8999 C   0  0  0  0  0  0  0  0  0  0  0  0
  126.0752  133.0973  160.1038 C   0  0  0  0  0  0  0  0  0  0  0  0
  126.1363  131.7764  160.5071 C   0  0  0  0  0  0  0  0  0  0  0  0
  126.7433  131.4468  161.7046 C   0  0  0  0  0  0  0  0  0  0  0  0
  127.2899  132.4380  162.4981 C   0  0  0  0  0  0  0  0  0  0  0  0
  131.4071  137.5947  161.5311 C   0  0  0  0  0  0  0  0  0  0  0  0
  132.8712  137.8102  161.1426 C   0  0  0  0  0  0  0  0  0  0  0  0
  133.7480  136.9016  161.9650 C   0  0  0  0  0  0  0  0  0  0  0  0
  134.2518  137.3376  163.1763 C   0  0  0  0  0  0  0  0  0  0  0  0
  135.0522  136.5023  163.9328 C   0  0  0  0  0  0  0  0  0  0  0  0
  135.3575  135.2348  163.4734 C   0  0  0  0  0  0  0  0  0  0  0  0
  134.8580  134.8006  162.2598 C   0  0  0  0  0  0  0  0  0  0  0  0
  134.0534  135.6341  161.5055 C   0  0  0  0  0  0  0  0  0  0  0  0
  131.0206  134.1757  158.1244 N   0  0  0  0  0  0  0  0  0  0  0  0
  131.3215  134.7290  157.3866 H   0  0  0  0  0  0  0  0  0  0  0  0
  130.8675  130.6811  156.8624 C   0  0  0  0  0  0  0  0  0  0  0  0
  130.8510  129.9240  155.7086 C   0  0  0  0  0  0  0  0  0  0  0  0
  132.0164  129.0332  151.7363 H   0  0  0  0  0  0  0  0  0  0  0  0
  132.3654  130.6429  152.4111 H   0  0  0  0  0  0  0  0  0  0  0  0
  132.6982  129.1831  153.3736 H   0  0  0  0  0  0  0  0  0  0  0  0
  130.2701  128.6880  153.4626 H   0  0  0  0  0  0  0  0  0  0  0  0
  129.9372  130.1479  152.5001 H   0  0  0  0  0  0  0  0  0  0  0  0
  130.2251  132.3578  153.4536 H   0  0  0  0  0  0  0  0  0  0  0  0
  130.2411  133.7225  155.5002 H   0  0  0  0  0  0  0  0  0  0  0  0
  129.9442  131.4662  159.5381 H   0  0  0  0  0  0  0  0  0  0  0  0
  131.5182  136.5182  159.2412 H   0  0  0  0  0  0  0  0  0  0  0  0
  128.7995  136.4944  161.1641 H   0  0  0  0  0  0  0  0  0  0  0  0
  130.0444  134.4828  163.0655 H   0  0  0  0  0  0  0  0  0  0  0  0
  127.7669  134.5397  164.0064 H   0  0  0  0  0  0  0  0  0  0  0  0
  127.2704  135.7666  162.8162 H   0  0  0  0  0  0  0  0  0  0  0  0
  126.5657  135.1211  160.5867 H   0  0  0  0  0  0  0  0  0  0  0  0
  125.6006  133.3546  159.1684 H   0  0  0  0  0  0  0  0  0  0  0  0
  125.7096  131.0021  159.8870 H   0  0  0  0  0  0  0  0  0  0  0  0
  126.7908  130.4150  162.0198 H   0  0  0  0  0  0  0  0  0  0  0  0
  127.7642  132.1805  163.4336 H   0  0  0  0  0  0  0  0  0  0  0  0
  130.7728  138.2520  160.9363 H   0  0  0  0  0  0  0  0  0  0  0  0
  131.2746  137.8218  162.5889 H   0  0  0  0  0  0  0  0  0  0  0  0
  133.0036  137.5832  160.0847 H   0  0  0  0  0  0  0  0  0  0  0  0
  133.1475  138.8481  161.3289 H   0  0  0  0  0  0  0  0  0  0  0  0
  134.0169  138.3295  163.5332 H   0  0  0  0  0  0  0  0  0  0  0  0
  135.4427  136.8415  164.8809 H   0  0  0  0  0  0  0  0  0  0  0  0
  135.9865  134.5838  164.0624 H   0  0  0  0  0  0  0  0  0  0  0  0
  135.0968  133.8106  161.9005 H   0  0  0  0  0  0  0  0  0  0  0  0
  133.6634  135.2951  160.5571 H   0  0  0  0  0  0  0  0  0  0  0  0
  131.0510  130.2094  157.8164 H   0  0  0  0  0  0  0  0  0  0  0  0
  131.0214  128.8588  155.7604 H   0  0  0  0  0  0  0  0  0  0  0  0
  1  2  1  0
  1 36  1  0
  1 37  1  0
  1 38  1  0
  2  3  1  0
  2 39  1  0
  2 40  1  0
  3 35  2  0
  3  4  1  0
  4  5  2  0
  4 41  1  0
  5  6  1  0
  5 42  1  0
  6  7  1  0
  6 34  2  0
  7 32  1  0
  7  8  2  0
  8  9  1  0
  8 43  1  0
  9 10  1  0
  9 11  1  0
 11 12  1  0
 11 32  2  0
 12 13  1  0
 12 44  1  0
 13 14  1  1
 13 15  1  0
 13 24  1  0
 15 16  2  0
 15 45  1  0
 16 17  1  0
 16 46  1  0
 17 18  1  0
 17 47  1  0
 17 48  1  0
 18 23  1  0
 18 19  2  0
 19 20  1  0
 19 49  1  0
 20 21  2  0
 20 50  1  0
 21 22  1  0
 21 51  1  0
 22 23  2  0
 22 52  1  0
 23 53  1  0
 24 25  1  0
 24 54  1  0
 24 55  1  0
 25 26  1  0
 25 56  1  0
 25 57  1  0
 26 31  1  0
 26 27  2  0
 27 28  1  0
 27 58  1  0
 28 29  2  0
 28 59  1  0
 29 30  1  0
 29 60  1  0
 30 31  2  0
 30 61  1  0
 31 62  1  0
 32 33  1  0
 34 35  1  0
 34 63  1  0
 35 64  1  0
M  CHG  1  32   1
M  END
>  <DOCK_score>  (1) 
-57.273445

>  <SMILES>  (1) 
CCc1ccc(-c2c[nH]c(N[C@H](C=CCc3ccccc3)CCc3ccccc3)[nH+]2)cc1

$$$$
