Cc1cc(CNc2[nH]cc(-c3ccc(-c4ccccc4)cc3)[nH+]2)[nH]c1C(=O)OCF
     RDKit          3D

 52 55  0  0  1  0  0  0  0  0999 V2000
  131.6343  140.8776  162.2507 C   0  0  0  0  0  0  0  0  0  0  0  0
  132.0490  139.4391  162.0774 C   0  0  0  0  0  0  0  0  0  0  0  0
  131.2254  138.3764  161.6945 C   0  0  0  0  0  0  0  0  0  0  0  0
  131.9844  137.2546  161.6606 C   0  0  0  0  0  0  0  0  0  0  0  0
  131.4937  135.8766  161.2980 C   0  0  0  0  0  0  0  0  0  0  0  0
  131.6338  135.6726  159.8540 N   0  0  0  0  0  0  0  0  0  0  0  0
  131.2455  134.4726  159.2836 C   0  0  0  0  0  0  0  0  0  0  0  0
  130.7208  133.4099  159.9529 N   0  0  0  0  0  0  0  0  0  0  0  0
  130.5543  133.3573  160.9070 H   0  0  0  0  0  0  0  0  0  0  0  0
  130.4669  132.4272  159.0276 C   0  0  0  0  0  0  0  0  0  0  0  0
  130.8508  132.9143  157.8208 C   0  0  0  0  0  0  0  0  0  0  0  0
  130.7652  132.2004  156.5244 C   0  0  0  0  0  0  0  0  0  0  0  0
  130.0015  132.7314  155.4848 C   0  0  0  0  0  0  0  0  0  0  0  0
  129.9222  132.0680  154.2803 C   0  0  0  0  0  0  0  0  0  0  0  0
  130.6056  130.8655  154.1002 C   0  0  0  0  0  0  0  0  0  0  0  0
  130.5206  130.1514  152.8031 C   0  0  0  0  0  0  0  0  0  0  0  0
  130.6299  128.7629  152.7603 C   0  0  0  0  0  0  0  0  0  0  0  0
  130.5446  128.1035  151.5509 C   0  0  0  0  0  0  0  0  0  0  0  0
  130.3614  128.8192  150.3814 C   0  0  0  0  0  0  0  0  0  0  0  0
  130.2579  130.1981  150.4170 C   0  0  0  0  0  0  0  0  0  0  0  0
  130.3364  130.8677  151.6211 C   0  0  0  0  0  0  0  0  0  0  0  0
  131.3694  130.3349  155.1391 C   0  0  0  0  0  0  0  0  0  0  0  0
  131.4487  130.9978  156.3438 C   0  0  0  0  0  0  0  0  0  0  0  0
  131.3215  134.1728  158.0100 N   0  0  0  0  0  0  0  0  0  0  0  0
  131.6603  134.7572  157.3138 H   0  0  0  0  0  0  0  0  0  0  0  0
  133.2520  137.5717  161.9982 N   0  0  0  0  0  0  0  0  0  0  0  0
  133.9959  136.9510  162.0470 H   0  0  0  0  0  0  0  0  0  0  0  0
  133.3151  138.9217  162.2608 C   0  0  0  0  0  0  0  0  0  0  0  0
  134.5080  139.6719  162.6614 C   0  0  0  0  0  0  0  0  0  0  0  0
  134.3988  140.6568  163.3664 O   0  0  0  0  0  0  0  0  0  0  0  0
  135.7276  139.2701  162.2480 O   0  0  0  0  0  0  0  0  0  0  0  0
  136.8647  140.0612  162.6833 C   0  0  0  0  0  0  0  0  0  0  0  0
  136.9757  141.2003  161.8787 F   0  0  0  0  0  0  0  0  0  0  0  0
  131.7518  141.4062  161.3046 H   0  0  0  0  0  0  0  0  0  0  0  0
  130.5909  140.9198  162.5634 H   0  0  0  0  0  0  0  0  0  0  0  0
  132.2603  141.3473  163.0094 H   0  0  0  0  0  0  0  0  0  0  0  0
  130.1713  138.4383  161.4681 H   0  0  0  0  0  0  0  0  0  0  0  0
  130.4451  135.7788  161.5787 H   0  0  0  0  0  0  0  0  0  0  0  0
  132.0834  135.1294  161.8293 H   0  0  0  0  0  0  0  0  0  0  0  0
  131.9986  136.3785  159.2976 H   0  0  0  0  0  0  0  0  0  0  0  0
  130.0443  131.4528  159.2232 H   0  0  0  0  0  0  0  0  0  0  0  0
  129.4763  133.6649  155.6228 H   0  0  0  0  0  0  0  0  0  0  0  0
  129.3310  132.4791  153.4754 H   0  0  0  0  0  0  0  0  0  0  0  0
  130.7769  128.2035  153.6724 H   0  0  0  0  0  0  0  0  0  0  0  0
  130.6251  127.0270  151.5171 H   0  0  0  0  0  0  0  0  0  0  0  0
  130.2994  128.2993  149.4367 H   0  0  0  0  0  0  0  0  0  0  0  0
  130.1156  130.7518  149.5006 H   0  0  0  0  0  0  0  0  0  0  0  0
  130.2557  131.9444  151.6477 H   0  0  0  0  0  0  0  0  0  0  0  0
  131.8986  129.4040  154.9993 H   0  0  0  0  0  0  0  0  0  0  0  0
  132.0400  130.5867  157.1487 H   0  0  0  0  0  0  0  0  0  0  0  0
  136.7221  140.3620  163.7212 H   0  0  0  0  0  0  0  0  0  0  0  0
  137.7745  139.4668  162.5991 H   0  0  0  0  0  0  0  0  0  0  0  0
  1  2  1  0
  1 34  1  0
  1 35  1  0
  1 36  1  0
  2 28  2  0
  2  3  1  0
  3  4  2  0
  3 37  1  0
  4  5  1  0
  4 26  1  0
  5  6  1  0
  5 38  1  0
  5 39  1  0
  6 40  1  0
  7  6  1  0
  7 24  2  0
  7  8  1  0
  8  9  1  0
  8 10  1  0
 10 11  2  0
 10 41  1  0
 11 12  1  0
 11 24  1  0
 12 23  1  0
 12 13  2  0
 13 14  1  0
 13 42  1  0
 14 15  2  0
 14 43  1  0
 15 16  1  0
 15 22  1  0
 16 21  1  0
 16 17  2  0
 17 18  1  0
 17 44  1  0
 18 19  2  0
 18 45  1  0
 19 20  1  0
 19 46  1  0
 20 21  2  0
 20 47  1  0
 21 48  1  0
 22 23  2  0
 22 49  1  0
 23 50  1  0
 24 25  1  0
 26 27  1  0
 26 28  1  0
 28 29  1  0
 29 30  2  0
 29 31  1  0
 31 32  1  0
 32 33  1  0
 32 51  1  0
 32 52  1  0
M  CHG  1  24   1
M  END
>  <DOCK_score>  (1) 
-58.979496

>  <SMILES>  (1) 
Cc1cc(CNc2[nH]cc(-c3ccc(-c4ccccc4)cc3)[nH+]2)[nH]c1C(=O)OCF

$$$$
