Cc1nocc1C[NH2+]Cc1c[nH]nc1-c1ccc(N[C@H]2COc3cc(Cl)ccc3C2)o1
     RDKit          3D

 54 58  0  0  1  0  0  0  0  0999 V2000
  132.0672  137.6331  163.6287 C   0  0  0  0  0  0  0  0  0  0  0  0
  132.9145  137.3206  162.4221 C   0  0  0  0  0  0  0  0  0  0  0  0
  134.1858  137.0410  162.4134 N   0  0  0  0  0  0  0  0  0  0  0  0
  134.5884  136.8345  161.2920 O   0  0  0  0  0  0  0  0  0  0  0  0
  133.6066  136.9491  160.3869 C   0  0  0  0  0  0  0  0  0  0  0  0
  132.4859  137.2726  161.0757 C   0  0  0  0  0  0  0  0  0  0  0  0
  131.1017  137.5180  160.5332 C   0  0  0  0  0  0  0  0  0  0  0  0
  130.7702  136.4791  159.5488 N   0  0  0  0  0  0  0  0  0  0  0  0
  131.4377  136.5071  158.7926 H   0  0  0  0  0  0  0  0  0  0  0  0
  129.8434  136.6436  159.1853 H   0  0  0  0  0  0  0  0  0  0  0  0
  130.8163  135.1603  160.1943 C   0  0  0  0  0  0  0  0  0  0  0  0
  130.4763  134.0947  159.1844 C   0  0  0  0  0  0  0  0  0  0  0  0
  131.3534  133.4378  158.3956 C   0  0  0  0  0  0  0  0  0  0  0  0
  130.6588  132.5656  157.6334 N   0  0  0  0  0  0  0  0  0  0  0  0
  131.0347  131.9612  156.9743 H   0  0  0  0  0  0  0  0  0  0  0  0
  129.3018  132.6840  157.9596 N   0  0  0  0  0  0  0  0  0  0  0  0
  129.1855  133.6015  158.8994 C   0  0  0  0  0  0  0  0  0  0  0  0
  127.9268  134.0379  159.5382 C   0  0  0  0  0  0  0  0  0  0  0  0
  126.6848  133.5640  159.2559 C   0  0  0  0  0  0  0  0  0  0  0  0
  125.7852  134.2517  160.0944 C   0  0  0  0  0  0  0  0  0  0  0  0
  126.5198  135.1147  160.8396 C   0  0  0  0  0  0  0  0  0  0  0  0
  126.0196  135.9910  161.7956 N   0  0  0  0  0  0  0  0  0  0  0  0
  126.8451  136.3701  162.9450 C   0  0  1  0  0  0  0  0  0  0  0  0
  127.8757  136.5205  162.6236 H   0  0  0  0  0  0  0  0  0  0  0  0
  126.3032  137.6637  163.5667 C   0  0  0  0  0  0  0  0  0  0  0  0
  127.1852  138.0630  164.6166 O   0  0  0  0  0  0  0  0  0  0  0  0
  127.5466  137.1274  165.5329 C   0  0  0  0  0  0  0  0  0  0  0  0
  128.0923  137.5556  166.7389 C   0  0  0  0  0  0  0  0  0  0  0  0
  128.4762  136.6347  167.6935 C   0  0  0  0  0  0  0  0  0  0  0  0
  129.1561  137.1739  169.1970 Cl  0  0  0  0  0  0  0  0  0  0  0  0
  128.3185  135.2813  167.4504 C   0  0  0  0  0  0  0  0  0  0  0  0
  127.7755  134.8539  166.2548 C   0  0  0  0  0  0  0  0  0  0  0  0
  127.3869  135.7736  165.2946 C   0  0  0  0  0  0  0  0  0  0  0  0
  126.7909  135.2673  164.0053 C   0  0  0  0  0  0  0  0  0  0  0  0
  127.8125  134.9800  160.4980 O   0  0  0  0  0  0  0  0  0  0  0  0
  131.6443  136.7097  164.0246 H   0  0  0  0  0  0  0  0  0  0  0  0
  132.6833  138.1074  164.3924 H   0  0  0  0  0  0  0  0  0  0  0  0
  131.2609  138.3081  163.3414 H   0  0  0  0  0  0  0  0  0  0  0  0
  133.6922  136.8120  159.3191 H   0  0  0  0  0  0  0  0  0  0  0  0
  131.0674  138.4965  160.0541 H   0  0  0  0  0  0  0  0  0  0  0  0
  130.3806  137.4878  161.3499 H   0  0  0  0  0  0  0  0  0  0  0  0
  130.0952  135.1302  161.0111 H   0  0  0  0  0  0  0  0  0  0  0  0
  131.8176  134.9828  160.5868 H   0  0  0  0  0  0  0  0  0  0  0  0
  132.4232  133.5842  158.3773 H   0  0  0  0  0  0  0  0  0  0  0  0
  126.4353  132.8047  158.5295 H   0  0  0  0  0  0  0  0  0  0  0  0
  124.7141  134.1194  160.1337 H   0  0  0  0  0  0  0  0  0  0  0  0
  125.1240  136.3516  161.7017 H   0  0  0  0  0  0  0  0  0  0  0  0
  126.2585  138.4450  162.8078 H   0  0  0  0  0  0  0  0  0  0  0  0
  125.3067  137.4871  163.9716 H   0  0  0  0  0  0  0  0  0  0  0  0
  128.2157  138.6115  166.9292 H   0  0  0  0  0  0  0  0  0  0  0  0
  128.6194  134.5598  168.1955 H   0  0  0  0  0  0  0  0  0  0  0  0
  127.6530  133.7974  166.0675 H   0  0  0  0  0  0  0  0  0  0  0  0
  125.7539  134.9776  164.1747 H   0  0  0  0  0  0  0  0  0  0  0  0
  127.3565  134.4025  163.6583 H   0  0  0  0  0  0  0  0  0  0  0  0
  1  2  1  0
  1 36  1  0
  1 37  1  0
  1 38  1  0
  2  6  1  0
  2  3  2  0
  3  4  1  0
  4  5  1  0
  5  6  2  0
  5 39  1  0
  6  7  1  0
  7  8  1  0
  7 40  1  0
  7 41  1  0
  8  9  1  0
  8 10  1  0
  8 11  1  0
 11 12  1  0
 11 42  1  0
 11 43  1  0
 12 17  1  0
 12 13  2  0
 13 14  1  0
 13 44  1  0
 14 15  1  0
 14 16  1  0
 16 17  2  0
 17 18  1  0
 18 35  1  0
 18 19  2  0
 19 20  1  0
 19 45  1  0
 20 21  2  0
 20 46  1  0
 21 22  1  0
 21 35  1  0
 22 23  1  0
 22 47  1  0
 23 24  1  6
 23 34  1  0
 23 25  1  0
 25 26  1  0
 25 48  1  0
 25 49  1  0
 26 27  1  0
 27 33  2  0
 27 28  1  0
 28 29  2  0
 28 50  1  0
 29 30  1  0
 29 31  1  0
 31 32  2  0
 31 51  1  0
 32 33  1  0
 32 52  1  0
 33 34  1  0
 34 53  1  0
 34 54  1  0
M  CHG  1   8   1
M  END
>  <DOCK_score>  (1) 
-45.314861

>  <SMILES>  (1) 
Cc1nocc1C[NH2+]Cc1c[nH]nc1-c1ccc(N[C@H]2COc3cc(Cl)ccc3C2)o1

$$$$
