Nc1ccc(-c2c[nH]c(N[C@@H](C=Cc3cccnc3)c3cccc4ccccc34)[nH+]2)cc1
     RDKit          3D

 56 60  0  0  1  0  0  0  0  0999 V2000
  131.0988  129.3698  151.2217 N   0  0  0  0  0  0  0  0  0  0  0  0
  130.9350  130.0008  152.4572 C   0  0  0  0  0  0  0  0  0  0  0  0
  130.1336  131.1319  152.5577 C   0  0  0  0  0  0  0  0  0  0  0  0
  129.9704  131.7564  153.7762 C   0  0  0  0  0  0  0  0  0  0  0  0
  130.6099  131.2526  154.9077 C   0  0  0  0  0  0  0  0  0  0  0  0
  130.4358  131.9228  156.2197 C   0  0  0  0  0  0  0  0  0  0  0  0
  129.9127  131.3629  157.3384 C   0  0  0  0  0  0  0  0  0  0  0  0
  129.9381  132.3285  158.3167 N   0  0  0  0  0  0  0  0  0  0  0  0
  129.6295  132.2286  159.2309 H   0  0  0  0  0  0  0  0  0  0  0  0
  130.4766  133.4502  157.7657 C   0  0  0  0  0  0  0  0  0  0  0  0
  130.6784  134.6532  158.4204 N   0  0  0  0  0  0  0  0  0  0  0  0
  130.3001  134.7932  159.8288 C   0  0  1  0  0  0  0  0  0  0  0  0
  130.5592  133.8812  160.3668 H   0  0  0  0  0  0  0  0  0  0  0  0
  131.0377  135.9599  160.4335 C   0  0  0  0  0  0  0  0  0  0  0  0
  132.2218  135.7740  160.9998 C   0  0  0  0  0  0  0  0  0  0  0  0
  132.9453  136.9184  161.5929 C   0  0  0  0  0  0  0  0  0  0  0  0
  132.2613  138.0878  161.9439 C   0  0  0  0  0  0  0  0  0  0  0  0
  132.9838  139.1281  162.5013 C   0  0  0  0  0  0  0  0  0  0  0  0
  134.3479  138.9849  162.6809 C   0  0  0  0  0  0  0  0  0  0  0  0
  134.9672  137.8728  162.3353 N   0  0  0  0  0  0  0  0  0  0  0  0
  134.3223  136.8531  161.8068 C   0  0  0  0  0  0  0  0  0  0  0  0
  128.8154  135.0310  159.9290 C   0  0  0  0  0  0  0  0  0  0  0  0
  128.0537  135.0855  158.8021 C   0  0  0  0  0  0  0  0  0  0  0  0
  126.6796  135.3040  158.8749 C   0  0  0  0  0  0  0  0  0  0  0  0
  126.0588  135.4699  160.0751 C   0  0  0  0  0  0  0  0  0  0  0  0
  126.8121  135.4200  161.2600 C   0  0  0  0  0  0  0  0  0  0  0  0
  126.2066  135.5855  162.5174 C   0  0  0  0  0  0  0  0  0  0  0  0
  126.9680  135.5300  163.6441 C   0  0  0  0  0  0  0  0  0  0  0  0
  128.3427  135.3118  163.5712 C   0  0  0  0  0  0  0  0  0  0  0  0
  128.9635  135.1468  162.3714 C   0  0  0  0  0  0  0  0  0  0  0  0
  128.2101  135.1972  161.1859 C   0  0  0  0  0  0  0  0  0  0  0  0
  130.7674  133.2055  156.5111 N   0  0  0  0  0  0  0  0  0  0  0  0
  131.1594  133.8398  155.8908 H   0  0  0  0  0  0  0  0  0  0  0  0
  131.4178  130.1213  154.8035 C   0  0  0  0  0  0  0  0  0  0  0  0
  131.5732  129.4964  153.5842 C   0  0  0  0  0  0  0  0  0  0  0  0
  130.6535  129.7209  150.4348 H   0  0  0  0  0  0  0  0  0  0  0  0
  131.6582  128.5803  151.1508 H   0  0  0  0  0  0  0  0  0  0  0  0
  129.6386  131.5220  151.6807 H   0  0  0  0  0  0  0  0  0  0  0  0
  129.3472  132.6351  153.8539 H   0  0  0  0  0  0  0  0  0  0  0  0
  129.5460  130.3523  157.4412 H   0  0  0  0  0  0  0  0  0  0  0  0
  131.0703  135.4034  157.9466 H   0  0  0  0  0  0  0  0  0  0  0  0
  130.6016  136.9475  160.4055 H   0  0  0  0  0  0  0  0  0  0  0  0
  132.6579  134.7863  161.0278 H   0  0  0  0  0  0  0  0  0  0  0  0
  131.1962  138.1746  161.7878 H   0  0  0  0  0  0  0  0  0  0  0  0
  132.4886  140.0439  162.7887 H   0  0  0  0  0  0  0  0  0  0  0  0
  134.9152  139.7971  163.1111 H   0  0  0  0  0  0  0  0  0  0  0  0
  134.8642  135.9590  161.5365 H   0  0  0  0  0  0  0  0  0  0  0  0
  128.5213  134.9570  157.8371 H   0  0  0  0  0  0  0  0  0  0  0  0
  126.0982  135.3428  157.9656 H   0  0  0  0  0  0  0  0  0  0  0  0
  124.9937  135.6434  160.1159 H   0  0  0  0  0  0  0  0  0  0  0  0
  125.1426  135.7560  162.5893 H   0  0  0  0  0  0  0  0  0  0  0  0
  126.5003  135.6576  164.6090 H   0  0  0  0  0  0  0  0  0  0  0  0
  128.9239  135.2726  164.4806 H   0  0  0  0  0  0  0  0  0  0  0  0
  130.0293  134.9783  162.3304 H   0  0  0  0  0  0  0  0  0  0  0  0
  131.9178  129.7319  155.6780 H   0  0  0  0  0  0  0  0  0  0  0  0
  132.1950  128.6171  153.5040 H   0  0  0  0  0  0  0  0  0  0  0  0
  1  2  1  0
  1 36  1  0
  1 37  1  0
  2 35  2  0
  2  3  1  0
  3  4  2  0
  3 38  1  0
  4  5  1  0
  4 39  1  0
  5  6  1  0
  5 34  2  0
  6 32  1  0
  6  7  2  0
  7  8  1  0
  7 40  1  0
  8  9  1  0
  8 10  1  0
 10 11  1  0
 10 32  2  0
 11 12  1  0
 11 41  1  0
 12 13  1  1
 12 14  1  0
 12 22  1  0
 14 15  2  0
 14 42  1  0
 15 16  1  0
 15 43  1  0
 16 21  1  0
 16 17  2  0
 17 18  1  0
 17 44  1  0
 18 19  2  0
 18 45  1  0
 19 20  1  0
 19 46  1  0
 20 21  2  0
 21 47  1  0
 22 31  1  0
 22 23  2  0
 23 24  1  0
 23 48  1  0
 24 25  2  0
 24 49  1  0
 25 26  1  0
 25 50  1  0
 26 31  2  0
 26 27  1  0
 27 28  2  0
 27 51  1  0
 28 29  1  0
 28 52  1  0
 29 30  2  0
 29 53  1  0
 30 31  1  0
 30 54  1  0
 32 33  1  0
 34 35  1  0
 34 55  1  0
 35 56  1  0
M  CHG  1  32   1
M  END
>  <DOCK_score>  (1) 
-59.884285

>  <SMILES>  (1) 
Nc1ccc(-c2c[nH]c(N[C@@H](C=Cc3cccnc3)c3cccc4ccccc34)[nH+]2)cc1

$$$$
