CO[C@@H]1CC(Nc2ccc(-c3n[nH]cc3C[NH2+]CC3=CCCC3)o2)C1(C)C
     RDKit          3D

 58 61  0  0  1  0  0  0  0  0999 V2000
  130.3150  139.1406  164.4458 C   0  0  0  0  0  0  0  0  0  0  0  0
  128.9757  138.9767  163.9751 O   0  0  0  0  0  0  0  0  0  0  0  0
  128.4393  137.6701  164.1918 C   0  0  2  0  0  0  0  0  0  0  0  0
  128.7161  137.2542  165.1606 H   0  0  0  0  0  0  0  0  0  0  0  0
  128.6718  136.7060  163.0165 C   0  0  0  0  0  0  0  0  0  0  0  0
  127.3406  137.2147  162.4385 C   0  0  1  0  0  0  0  0  0  0  0  0
  126.5207  136.1600  161.8372 N   0  0  0  0  0  0  0  0  0  0  0  0
  127.1203  135.1588  161.0821 C   0  0  0  0  0  0  0  0  0  0  0  0
  126.4763  134.1308  160.4753 C   0  0  0  0  0  0  0  0  0  0  0  0
  127.4572  133.3622  159.8177 C   0  0  0  0  0  0  0  0  0  0  0  0
  128.6542  133.9566  160.0649 C   0  0  0  0  0  0  0  0  0  0  0  0
  129.9685  133.4925  159.5750 C   0  0  0  0  0  0  0  0  0  0  0  0
  130.1864  132.4310  158.8239 N   0  0  0  0  0  0  0  0  0  0  0  0
  131.5635  132.3440  158.5834 N   0  0  0  0  0  0  0  0  0  0  0  0
  132.0073  131.6593  158.0588 H   0  0  0  0  0  0  0  0  0  0  0  0
  132.1664  133.3815  159.2039 C   0  0  0  0  0  0  0  0  0  0  0  0
  131.2135  134.1059  159.8287 C   0  0  0  0  0  0  0  0  0  0  0  0
  131.4391  135.3517  160.6461 C   0  0  0  0  0  0  0  0  0  0  0  0
  132.3692  136.2406  159.9372 N   0  0  0  0  0  0  0  0  0  0  0  0
  131.9778  136.4920  159.0418 H   0  0  0  0  0  0  0  0  0  0  0  0
  133.2485  135.7657  159.7984 H   0  0  0  0  0  0  0  0  0  0  0  0
  132.5891  137.4551  160.7339 C   0  0  0  0  0  0  0  0  0  0  0  0
  133.5433  138.3670  160.0066 C   0  0  0  0  0  0  0  0  0  0  0  0
  134.8409  138.3393  160.1446 C   0  0  0  0  0  0  0  0  0  0  0  0
  135.5029  139.3830  159.2754 C   0  0  0  0  0  0  0  0  0  0  0  0
  134.4167  139.7891  158.2525 C   0  0  0  0  0  0  0  0  0  0  0  0
  133.1236  139.4337  159.0223 C   0  0  0  0  0  0  0  0  0  0  0  0
  128.4356  135.0470  160.8298 O   0  0  0  0  0  0  0  0  0  0  0  0
  126.9372  137.5616  163.8813 C   0  0  0  0  0  0  0  0  0  0  0  0
  126.1881  138.8899  164.0057 C   0  0  0  0  0  0  0  0  0  0  0  0
  126.2408  136.4140  164.6158 C   0  0  0  0  0  0  0  0  0  0  0  0
  130.6205  140.1792  164.3181 H   0  0  0  0  0  0  0  0  0  0  0  0
  130.3641  138.8748  165.5018 H   0  0  0  0  0  0  0  0  0  0  0  0
  130.9821  138.4930  163.8767 H   0  0  0  0  0  0  0  0  0  0  0  0
  128.6499  135.6547  163.3033 H   0  0  0  0  0  0  0  0  0  0  0  0
  129.5385  136.9616  162.4070 H   0  0  0  0  0  0  0  0  0  0  0  0
  127.4480  138.0869  161.7935 H   0  0  0  0  0  0  0  0  0  0  0  0
  125.5593  136.1604  161.9662 H   0  0  0  0  0  0  0  0  0  0  0  0
  125.4134  133.9400  160.4899 H   0  0  0  0  0  0  0  0  0  0  0  0
  127.2901  132.4706  159.2316 H   0  0  0  0  0  0  0  0  0  0  0  0
  133.2254  133.5930  159.2023 H   0  0  0  0  0  0  0  0  0  0  0  0
  131.8619  135.0800  161.6133 H   0  0  0  0  0  0  0  0  0  0  0  0
  130.4892  135.8647  160.7961 H   0  0  0  0  0  0  0  0  0  0  0  0
  133.0119  137.1835  161.7012 H   0  0  0  0  0  0  0  0  0  0  0  0
  131.6391  137.9682  160.8837 H   0  0  0  0  0  0  0  0  0  0  0  0
  135.3717  137.6593  160.7945 H   0  0  0  0  0  0  0  0  0  0  0  0
  136.3668  138.9587  158.7637 H   0  0  0  0  0  0  0  0  0  0  0  0
  135.8005  140.2433  159.8749 H   0  0  0  0  0  0  0  0  0  0  0  0
  134.4624  140.8564  158.0361 H   0  0  0  0  0  0  0  0  0  0  0  0
  134.5014  139.2020  157.3380 H   0  0  0  0  0  0  0  0  0  0  0  0
  132.7431  140.3085  159.5497 H   0  0  0  0  0  0  0  0  0  0  0  0
  132.3695  139.0439  158.3385 H   0  0  0  0  0  0  0  0  0  0  0  0
  125.2740  138.8484  163.4135 H   0  0  0  0  0  0  0  0  0  0  0  0
  125.9358  139.0682  165.0512 H   0  0  0  0  0  0  0  0  0  0  0  0
  126.8207  139.6992  163.6414 H   0  0  0  0  0  0  0  0  0  0  0  0
  126.9091  135.5542  164.6626 H   0  0  0  0  0  0  0  0  0  0  0  0
  125.9856  136.7315  165.6267 H   0  0  0  0  0  0  0  0  0  0  0  0
  125.3317  136.1391  164.0809 H   0  0  0  0  0  0  0  0  0  0  0  0
  1  2  1  0
  1 32  1  0
  1 33  1  0
  1 34  1  0
  2  3  1  0
  3  4  1  1
  3 29  1  0
  3  5  1  0
  5  6  1  0
  5 35  1  0
  5 36  1  0
  6  7  1  0
  6 29  1  0
  6 37  1  6
  7  8  1  0
  7 38  1  0
  8 28  1  0
  8  9  2  0
  9 10  1  0
  9 39  1  0
 10 11  2  0
 10 40  1  0
 11 12  1  0
 11 28  1  0
 12 17  1  0
 12 13  2  0
 13 14  1  0
 14 15  1  0
 14 16  1  0
 16 17  2  0
 16 41  1  0
 17 18  1  0
 18 19  1  0
 18 42  1  0
 18 43  1  0
 19 20  1  0
 19 21  1  0
 19 22  1  0
 22 23  1  0
 22 44  1  0
 22 45  1  0
 23 27  1  0
 23 24  2  0
 24 25  1  0
 24 46  1  0
 25 26  1  0
 25 47  1  0
 25 48  1  0
 26 27  1  0
 26 49  1  0
 26 50  1  0
 27 51  1  0
 27 52  1  0
 29 30  1  0
 29 31  1  0
 30 53  1  0
 30 54  1  0
 30 55  1  0
 31 56  1  0
 31 57  1  0
 31 58  1  0
M  CHG  1  19   1
M  END
>  <DOCK_score>  (1) 
-46.098438

>  <SMILES>  (1) 
CO[C@@H]1CC(Nc2ccc(-c3n[nH]cc3C[NH2+]CC3=CCCC3)o2)C1(C)C

$$$$
