CCCC=CC[C@H](Nc1[nH]cc(-c2ccc(C(F)(F)F)cc2)[nH+]1)c1ccccc1
     RDKit          3D

 54 56  0  0  1  0  0  0  0  0999 V2000
  134.1899  138.2063  159.1980 C   0  0  0  0  0  0  0  0  0  0  0  0
  134.0466  137.2546  160.3873 C   0  0  0  0  0  0  0  0  0  0  0  0
  132.9209  137.7449  161.3000 C   0  0  0  0  0  0  0  0  0  0  0  0
  131.6276  137.7815  160.5272 C   0  0  0  0  0  0  0  0  0  0  0  0
  130.6086  137.0587  160.9211 C   0  0  0  0  0  0  0  0  0  0  0  0
  129.3153  137.0954  160.1483 C   0  0  0  0  0  0  0  0  0  0  0  0
  128.9847  135.6905  159.6405 C   0  0  2  0  0  0  0  0  0  0  0  0
  128.8825  135.0125  160.4878 H   0  0  0  0  0  0  0  0  0  0  0  0
  130.0627  135.2210  158.7665 N   0  0  0  0  0  0  0  0  0  0  0  0
  129.9853  133.9673  158.1843 C   0  0  0  0  0  0  0  0  0  0  0  0
  129.3502  132.8858  158.7126 N   0  0  0  0  0  0  0  0  0  0  0  0
  128.8745  132.8548  159.5574 H   0  0  0  0  0  0  0  0  0  0  0  0
  129.5073  131.8460  157.8286 C   0  0  0  0  0  0  0  0  0  0  0  0
  130.2332  132.3215  156.7866 C   0  0  0  0  0  0  0  0  0  0  0  0
  130.6488  131.5517  155.5888 C   0  0  0  0  0  0  0  0  0  0  0  0
  130.2357  131.9548  154.3203 C   0  0  0  0  0  0  0  0  0  0  0  0
  130.6305  131.2382  153.2089 C   0  0  0  0  0  0  0  0  0  0  0  0
  131.4248  130.1144  153.3534 C   0  0  0  0  0  0  0  0  0  0  0  0
  131.8469  129.3321  152.1365 C   0  0  0  0  0  0  0  0  0  0  0  0
  131.3167  129.9327  150.9890 F   0  0  0  0  0  0  0  0  0  0  0  0
  133.2438  129.3196  152.0519 F   0  0  0  0  0  0  0  0  0  0  0  0
  131.3737  128.0204  152.2378 F   0  0  0  0  0  0  0  0  0  0  0  0
  131.8330  129.7068  154.6103 C   0  0  0  0  0  0  0  0  0  0  0  0
  131.4493  130.4193  155.7282 C   0  0  0  0  0  0  0  0  0  0  0  0
  130.5070  133.6278  157.0309 N   0  0  0  0  0  0  0  0  0  0  0  0
  131.0101  134.2159  156.4461 H   0  0  0  0  0  0  0  0  0  0  0  0
  127.6914  135.7271  158.8676 C   0  0  0  0  0  0  0  0  0  0  0  0
  126.4904  135.5203  159.5198 C   0  0  0  0  0  0  0  0  0  0  0  0
  125.3041  135.5536  158.8109 C   0  0  0  0  0  0  0  0  0  0  0  0
  125.3191  135.7923  157.4494 C   0  0  0  0  0  0  0  0  0  0  0  0
  126.5202  135.9978  156.7969 C   0  0  0  0  0  0  0  0  0  0  0  0
  127.7065  135.9650  157.5059 C   0  0  0  0  0  0  0  0  0  0  0  0
  134.9920  137.8569  158.5475 H   0  0  0  0  0  0  0  0  0  0  0  0
  133.2546  138.2327  158.6390 H   0  0  0  0  0  0  0  0  0  0  0  0
  134.4255  139.2071  159.5597 H   0  0  0  0  0  0  0  0  0  0  0  0
  134.9820  137.2281  160.9462 H   0  0  0  0  0  0  0  0  0  0  0  0
  133.8111  136.2537  160.0255 H   0  0  0  0  0  0  0  0  0  0  0  0
  133.1564  138.7457  161.6619 H   0  0  0  0  0  0  0  0  0  0  0  0
  132.8187  137.0668  162.1473 H   0  0  0  0  0  0  0  0  0  0  0  0
  131.5410  138.4036  159.6488 H   0  0  0  0  0  0  0  0  0  0  0  0
  130.6952  136.4366  161.7997 H   0  0  0  0  0  0  0  0  0  0  0  0
  129.4174  137.7734  159.3010 H   0  0  0  0  0  0  0  0  0  0  0  0
  128.5132  137.4448  160.7986 H   0  0  0  0  0  0  0  0  0  0  0  0
  130.8307  135.7884  158.5958 H   0  0  0  0  0  0  0  0  0  0  0  0
  129.1256  130.8420  157.9419 H   0  0  0  0  0  0  0  0  0  0  0  0
  129.6114  132.8287  154.2067 H   0  0  0  0  0  0  0  0  0  0  0  0
  130.3150  131.5524  152.2248 H   0  0  0  0  0  0  0  0  0  0  0  0
  132.4532  128.8292  154.7171 H   0  0  0  0  0  0  0  0  0  0  0  0
  131.7682  130.0995  156.7094 H   0  0  0  0  0  0  0  0  0  0  0  0
  126.4786  135.3340  160.5837 H   0  0  0  0  0  0  0  0  0  0  0  0
  124.3653  135.3974  159.3216 H   0  0  0  0  0  0  0  0  0  0  0  0
  124.3923  135.8179  156.8955 H   0  0  0  0  0  0  0  0  0  0  0  0
  126.5320  136.1837  155.7330 H   0  0  0  0  0  0  0  0  0  0  0  0
  128.6451  136.1249  156.9960 H   0  0  0  0  0  0  0  0  0  0  0  0
  1  2  1  0
  1 33  1  0
  1 34  1  0
  1 35  1  0
  2  3  1  0
  2 36  1  0
  2 37  1  0
  3  4  1  0
  3 38  1  0
  3 39  1  0
  4  5  2  0
  4 40  1  0
  5  6  1  0
  5 41  1  0
  6  7  1  0
  6 42  1  0
  6 43  1  0
  7  8  1  1
  7  9  1  0
  7 27  1  0
  9 44  1  0
 10  9  1  0
 10 25  2  0
 10 11  1  0
 11 12  1  0
 11 13  1  0
 13 14  2  0
 13 45  1  0
 14 15  1  0
 14 25  1  0
 15 24  1  0
 15 16  2  0
 16 17  1  0
 16 46  1  0
 17 18  2  0
 17 47  1  0
 18 19  1  0
 18 23  1  0
 19 20  1  0
 19 21  1  0
 19 22  1  0
 23 24  2  0
 23 48  1  0
 24 49  1  0
 25 26  1  0
 27 32  1  0
 27 28  2  0
 28 29  1  0
 28 50  1  0
 29 30  2  0
 29 51  1  0
 30 31  1  0
 30 52  1  0
 31 32  2  0
 31 53  1  0
 32 54  1  0
M  CHG  1  25   1
M  END
>  <DOCK_score>  (1) 
-61.416283

>  <SMILES>  (1) 
CCCC=CC[C@H](Nc1[nH]cc(-c2ccc(C(F)(F)F)cc2)[nH+]1)c1ccccc1

$$$$
