OCC[NH2+]C[C@H]1CC=C(c2n[nH]cc2C(O)(Cc2ccccc2)Cc2ccccc2)CC1
     RDKit          3D

 66 69  0  0  1  0  0  0  0  0999 V2000
  130.3420  133.7323  152.8013 O   0  0  0  0  0  0  0  0  0  0  0  0
  130.2570  132.3309  153.0674 C   0  0  0  0  0  0  0  0  0  0  0  0
  130.7088  132.0559  154.5031 C   0  0  0  0  0  0  0  0  0  0  0  0
  129.8412  132.7854  155.4376 N   0  0  0  0  0  0  0  0  0  0  0  0
  129.9013  133.7749  155.2499 H   0  0  0  0  0  0  0  0  0  0  0  0
  128.8872  132.4781  155.3205 H   0  0  0  0  0  0  0  0  0  0  0  0
  130.2749  132.5213  156.8160 C   0  0  0  0  0  0  0  0  0  0  0  0
  129.3714  133.2810  157.7893 C   0  0  1  0  0  0  0  0  0  0  0  0
  128.3400  132.9511  157.6650 H   0  0  0  0  0  0  0  0  0  0  0  0
  129.8292  133.0206  159.2259 C   0  0  0  0  0  0  0  0  0  0  0  0
  129.1260  133.9523  160.1693 C   0  0  0  0  0  0  0  0  0  0  0  0
  128.5096  135.0457  159.7918 C   0  0  0  0  0  0  0  0  0  0  0  0
  127.8659  135.8761  160.8319 C   0  0  0  0  0  0  0  0  0  0  0  0
  126.6226  135.7646  161.2541 N   0  0  0  0  0  0  0  0  0  0  0  0
  126.4106  136.7336  162.2431 N   0  0  0  0  0  0  0  0  0  0  0  0
  125.5841  136.8786  162.7298 H   0  0  0  0  0  0  0  0  0  0  0  0
  127.5547  137.4344  162.3983 C   0  0  0  0  0  0  0  0  0  0  0  0
  128.4717  136.9318  161.5439 C   0  0  0  0  0  0  0  0  0  0  0  0
  129.8905  137.4129  161.3809 C   0  0  0  0  0  0  0  0  0  0  0  0
  130.5470  136.6304  160.3815 O   0  0  0  0  0  0  0  0  0  0  0  0
  129.8850  138.8826  160.9559 C   0  0  0  0  0  0  0  0  0  0  0  0
  131.2103  139.2289  160.3275 C   0  0  0  0  0  0  0  0  0  0  0  0
  132.2439  139.7052  161.1122 C   0  0  0  0  0  0  0  0  0  0  0  0
  133.4611  140.0182  160.5366 C   0  0  0  0  0  0  0  0  0  0  0  0
  133.6413  139.8648  159.1747 C   0  0  0  0  0  0  0  0  0  0  0  0
  132.6062  139.3934  158.3892 C   0  0  0  0  0  0  0  0  0  0  0  0
  131.3905  139.0754  158.9656 C   0  0  0  0  0  0  0  0  0  0  0  0
  130.6337  137.2694  162.7106 C   0  0  0  0  0  0  0  0  0  0  0  0
  130.6392  135.8217  163.1291 C   0  0  0  0  0  0  0  0  0  0  0  0
  129.6176  135.3266  163.9181 C   0  0  0  0  0  0  0  0  0  0  0  0
  129.6202  133.9974  164.2981 C   0  0  0  0  0  0  0  0  0  0  0  0
  130.6496  133.1661  163.8981 C   0  0  0  0  0  0  0  0  0  0  0  0
  131.6739  133.6627  163.1136 C   0  0  0  0  0  0  0  0  0  0  0  0
  131.6686  134.9904  162.7292 C   0  0  0  0  0  0  0  0  0  0  0  0
  128.4186  135.5042  158.3655 C   0  0  0  0  0  0  0  0  0  0  0  0
  129.4676  134.7867  157.5135 C   0  0  0  0  0  0  0  0  0  0  0  0
  129.7934  134.2770  153.3823 H   0  0  0  0  0  0  0  0  0  0  0  0
  130.9007  131.7897  152.3740 H   0  0  0  0  0  0  0  0  0  0  0  0
  129.2264  131.9990  152.9409 H   0  0  0  0  0  0  0  0  0  0  0  0
  130.6439  130.9870  154.7060 H   0  0  0  0  0  0  0  0  0  0  0  0
  131.7392  132.3878  154.6295 H   0  0  0  0  0  0  0  0  0  0  0  0
  130.2100  131.4524  157.0189 H   0  0  0  0  0  0  0  0  0  0  0  0
  131.3054  132.8531  156.9426 H   0  0  0  0  0  0  0  0  0  0  0  0
  129.5993  131.9902  159.4972 H   0  0  0  0  0  0  0  0  0  0  0  0
  130.9053  133.1792  159.2966 H   0  0  0  0  0  0  0  0  0  0  0  0
  129.1282  133.7076  161.2213 H   0  0  0  0  0  0  0  0  0  0  0  0
  127.7091  138.2534  163.0852 H   0  0  0  0  0  0  0  0  0  0  0  0
  131.4663  136.8851  160.2235 H   0  0  0  0  0  0  0  0  0  0  0  0
  129.0859  139.0490  160.2334 H   0  0  0  0  0  0  0  0  0  0  0  0
  129.7216  139.5130  161.8300 H   0  0  0  0  0  0  0  0  0  0  0  0
  132.1017  139.8292  162.1756 H   0  0  0  0  0  0  0  0  0  0  0  0
  134.2698  140.3867  161.1502 H   0  0  0  0  0  0  0  0  0  0  0  0
  134.5909  140.1134  158.7242 H   0  0  0  0  0  0  0  0  0  0  0  0
  132.7468  139.2738  157.3251 H   0  0  0  0  0  0  0  0  0  0  0  0
  130.5816  138.7076  158.3519 H   0  0  0  0  0  0  0  0  0  0  0  0
  131.6599  137.6174  162.5926 H   0  0  0  0  0  0  0  0  0  0  0  0
  130.1330  137.8662  163.4729 H   0  0  0  0  0  0  0  0  0  0  0  0
  128.8157  135.9771  164.2343 H   0  0  0  0  0  0  0  0  0  0  0  0
  128.8202  133.6097  164.9112 H   0  0  0  0  0  0  0  0  0  0  0  0
  130.6539  132.1288  164.1986 H   0  0  0  0  0  0  0  0  0  0  0  0
  132.4783  133.0132  162.8013 H   0  0  0  0  0  0  0  0  0  0  0  0
  132.4691  135.3784  162.1166 H   0  0  0  0  0  0  0  0  0  0  0  0
  128.5901  136.5796  158.3199 H   0  0  0  0  0  0  0  0  0  0  0  0
  127.4245  135.2822  157.9774 H   0  0  0  0  0  0  0  0  0  0  0  0
  130.4623  135.1447  157.7790 H   0  0  0  0  0  0  0  0  0  0  0  0
  129.2757  134.9785  156.4578 H   0  0  0  0  0  0  0  0  0  0  0  0
  1  2  1  0
  1 37  1  0
  2  3  1  0
  2 38  1  0
  2 39  1  0
  3  4  1  0
  3 40  1  0
  3 41  1  0
  4  5  1  0
  4  6  1  0
  4  7  1  0
  7  8  1  0
  7 42  1  0
  7 43  1  0
  8  9  1  1
  8 36  1  0
  8 10  1  0
 10 11  1  0
 10 44  1  0
 10 45  1  0
 11 12  2  0
 11 46  1  0
 12 13  1  0
 12 35  1  0
 13 18  1  0
 13 14  2  0
 14 15  1  0
 15 16  1  0
 15 17  1  0
 17 18  2  0
 17 47  1  0
 18 19  1  0
 19 20  1  0
 19 21  1  0
 19 28  1  0
 20 48  1  0
 21 22  1  0
 21 49  1  0
 21 50  1  0
 22 27  1  0
 22 23  2  0
 23 24  1  0
 23 51  1  0
 24 25  2  0
 24 52  1  0
 25 26  1  0
 25 53  1  0
 26 27  2  0
 26 54  1  0
 27 55  1  0
 28 29  1  0
 28 56  1  0
 28 57  1  0
 29 34  1  0
 29 30  2  0
 30 31  1  0
 30 58  1  0
 31 32  2  0
 31 59  1  0
 32 33  1  0
 32 60  1  0
 33 34  2  0
 33 61  1  0
 34 62  1  0
 35 36  1  0
 35 63  1  0
 35 64  1  0
 36 65  1  0
 36 66  1  0
M  CHG  1   4   1
M  END
>  <DOCK_score>  (1) 
-46.001305

>  <SMILES>  (1) 
OCC[NH2+]C[C@H]1CC=C(c2n[nH]cc2C(O)(Cc2ccccc2)Cc2ccccc2)CC1

$$$$
