Nc1cccc(NC(=O)C(=O)C[NH+]2CCC[C@H]2Cc2c(F)cccc2F)c1
     RDKit          3D

 49 51  0  0  1  0  0  0  0  0999 V2000
  131.7031  141.4410  163.5098 N   0  0  0  0  0  0  0  0  0  0  0  0
  130.3291  141.1944  163.4667 C   0  0  0  0  0  0  0  0  0  0  0  0
  129.4416  142.0986  164.0384 C   0  0  0  0  0  0  0  0  0  0  0  0
  128.0824  141.8551  163.9969 C   0  0  0  0  0  0  0  0  0  0  0  0
  127.6002  140.7129  163.3872 C   0  0  0  0  0  0  0  0  0  0  0  0
  128.4820  139.8046  162.8135 C   0  0  0  0  0  0  0  0  0  0  0  0
  127.9939  138.6499  162.1973 N   0  0  0  0  0  0  0  0  0  0  0  0
  128.6678  138.0989  161.1684 C   0  0  0  0  0  0  0  0  0  0  0  0
  129.6992  138.6060  160.7774 O   0  0  0  0  0  0  0  0  0  0  0  0
  128.1473  136.8676  160.5112 C   0  0  0  0  0  0  0  0  0  0  0  0
  127.1212  136.3630  160.9005 O   0  0  0  0  0  0  0  0  0  0  0  0
  128.9009  136.2514  159.3609 C   0  0  0  0  0  0  0  0  0  0  0  0
  129.8665  135.2718  159.8766 N   0  0  2  0  0  0  0  0  0  0  0  0
  129.4621  134.7433  160.6350 H   0  0  0  0  0  0  0  0  0  0  0  0
  131.1094  135.9524  160.3226 C   0  0  0  0  0  0  0  0  0  0  0  0
  132.1882  134.8484  160.2969 C   0  0  0  0  0  0  0  0  0  0  0  0
  131.6673  133.8023  159.2899 C   0  0  0  0  0  0  0  0  0  0  0  0
  130.3166  134.3598  158.7915 C   0  0  1  0  0  0  0  0  0  0  0  0
  130.4534  134.9131  157.8625 H   0  0  0  0  0  0  0  0  0  0  0  0
  129.3107  133.2239  158.5944 C   0  0  0  0  0  0  0  0  0  0  0  0
  129.8182  132.2820  157.5332 C   0  0  0  0  0  0  0  0  0  0  0  0
  130.0486  132.7446  156.2491 C   0  0  0  0  0  0  0  0  0  0  0  0
  129.8179  134.0408  155.9463 F   0  0  0  0  0  0  0  0  0  0  0  0
  130.5209  131.8795  155.2764 C   0  0  0  0  0  0  0  0  0  0  0  0
  130.7507  130.5519  155.5842 C   0  0  0  0  0  0  0  0  0  0  0  0
  130.5157  130.0876  156.8645 C   0  0  0  0  0  0  0  0  0  0  0  0
  130.0491  130.9521  157.8404 C   0  0  0  0  0  0  0  0  0  0  0  0
  129.8200  130.4981  159.0920 F   0  0  0  0  0  0  0  0  0  0  0  0
  129.8489  140.0434  162.8587 C   0  0  0  0  0  0  0  0  0  0  0  0
  132.0386  142.2439  163.9388 H   0  0  0  0  0  0  0  0  0  0  0  0
  132.3221  140.8099  163.1105 H   0  0  0  0  0  0  0  0  0  0  0  0
  129.8151  142.9922  164.5161 H   0  0  0  0  0  0  0  0  0  0  0  0
  127.3950  142.5595  164.4415 H   0  0  0  0  0  0  0  0  0  0  0  0
  126.5371  140.5253  163.3568 H   0  0  0  0  0  0  0  0  0  0  0  0
  127.1699  138.2448  162.5098 H   0  0  0  0  0  0  0  0  0  0  0  0
  129.4314  137.0315  158.8146 H   0  0  0  0  0  0  0  0  0  0  0  0
  128.1992  135.7527  158.6922 H   0  0  0  0  0  0  0  0  0  0  0  0
  130.9879  136.3418  161.3334 H   0  0  0  0  0  0  0  0  0  0  0  0
  131.3721  136.7566  159.6352 H   0  0  0  0  0  0  0  0  0  0  0  0
  132.2962  134.4016  161.2853 H   0  0  0  0  0  0  0  0  0  0  0  0
  133.1405  135.2574  159.9593 H   0  0  0  0  0  0  0  0  0  0  0  0
  132.3638  133.6979  158.4582 H   0  0  0  0  0  0  0  0  0  0  0  0
  131.5213  132.8415  159.7837 H   0  0  0  0  0  0  0  0  0  0  0  0
  129.1863  132.6819  159.5319 H   0  0  0  0  0  0  0  0  0  0  0  0
  128.3513  133.6379  158.2840 H   0  0  0  0  0  0  0  0  0  0  0  0
  130.7056  132.2414  154.2757 H   0  0  0  0  0  0  0  0  0  0  0  0
  131.1145  129.8769  154.8237 H   0  0  0  0  0  0  0  0  0  0  0  0
  130.6963  129.0501  157.1040 H   0  0  0  0  0  0  0  0  0  0  0  0
  130.5366  139.3370  162.4176 H   0  0  0  0  0  0  0  0  0  0  0  0
  1  2  1  0
  1 30  1  0
  1 31  1  0
  2 29  2  0
  2  3  1  0
  3  4  2  0
  3 32  1  0
  4  5  1  0
  4 33  1  0
  5  6  2  0
  5 34  1  0
  6  7  1  0
  6 29  1  0
  7  8  1  0
  7 35  1  0
  8  9  2  0
  8 10  1  0
 10 11  2  0
 10 12  1  0
 12 13  1  0
 12 36  1  0
 12 37  1  0
 13 14  1  1
 13 18  1  0
 13 15  1  0
 15 16  1  0
 15 38  1  0
 15 39  1  0
 16 17  1  0
 16 40  1  0
 16 41  1  0
 17 18  1  0
 17 42  1  0
 17 43  1  0
 18 19  1  6
 18 20  1  0
 20 21  1  0
 20 44  1  0
 20 45  1  0
 21 27  1  0
 21 22  2  0
 22 23  1  0
 22 24  1  0
 24 25  2  0
 24 46  1  0
 25 26  1  0
 25 47  1  0
 26 27  2  0
 26 48  1  0
 27 28  1  0
 29 49  1  0
M  CHG  1  13   1
M  END
>  <DOCK_score>  (1) 
-40.97921

>  <SMILES>  (1) 
Nc1cccc(NC(=O)C(=O)C[NH+]2CCC[C@H]2Cc2c(F)cccc2F)c1

$$$$
