Nc1ccc(-c2c[nH]c(N[C@@H]3[C@H](O)[C@H](O)[C@@H](O)[C@H](O)[C@H]3O)[nH+]2)cc1
     RDKit          3D

 45 47  0  0  1  0  0  0  0  0999 V2000
  131.3608  129.1629  151.5511 N   0  0  0  0  0  0  0  0  0  0  0  0
  131.0820  129.8823  152.7156 C   0  0  0  0  0  0  0  0  0  0  0  0
  130.1787  130.9383  152.6790 C   0  0  0  0  0  0  0  0  0  0  0  0
  129.9051  131.6528  153.8262 C   0  0  0  0  0  0  0  0  0  0  0  0
  130.5275  131.3091  155.0252 C   0  0  0  0  0  0  0  0  0  0  0  0
  130.2308  132.0730  156.2619 C   0  0  0  0  0  0  0  0  0  0  0  0
  129.7116  131.5663  157.4075 C   0  0  0  0  0  0  0  0  0  0  0  0
  129.6009  132.6129  158.2920 N   0  0  0  0  0  0  0  0  0  0  0  0
  129.2607  132.5651  159.1992 H   0  0  0  0  0  0  0  0  0  0  0  0
  130.0562  133.7284  157.6597 C   0  0  0  0  0  0  0  0  0  0  0  0
  130.1143  134.9987  158.2071 N   0  0  0  0  0  0  0  0  0  0  0  0
  129.6608  135.2254  159.5816 C   0  0  2  0  0  0  0  0  0  0  0  0
  129.9795  134.3945  160.2110 H   0  0  0  0  0  0  0  0  0  0  0  0
  128.1343  135.3266  159.6049 C   0  0  2  0  0  0  0  0  0  0  0  0
  127.7030  134.3992  159.2283 H   0  0  0  0  0  0  0  0  0  0  0  0
  127.7166  136.4159  158.7797 O   0  0  0  0  0  0  0  0  0  0  0  0
  127.6608  135.5634  161.0404 C   0  0  2  0  0  0  0  0  0  0  0  0
  127.9795  134.7325  161.6698 H   0  0  0  0  0  0  0  0  0  0  0  0
  126.2351  135.6579  161.0621 O   0  0  0  0  0  0  0  0  0  0  0  0
  128.2664  136.8652  161.5690 C   0  0  1  0  0  0  0  0  0  0  0  0
  127.9477  137.6961  160.9395 H   0  0  0  0  0  0  0  0  0  0  0  0
  127.8241  137.0864  162.9097 O   0  0  0  0  0  0  0  0  0  0  0  0
  129.7929  136.7641  161.5457 C   0  0  2  0  0  0  0  0  0  0  0  0
  130.1115  135.9331  162.1752 H   0  0  0  0  0  0  0  0  0  0  0  0
  130.3585  137.9799  162.0394 O   0  0  0  0  0  0  0  0  0  0  0  0
  130.2664  136.5271  160.1102 C   0  0  1  0  0  0  0  0  0  0  0  0
  129.9477  137.3581  159.4808 H   0  0  0  0  0  0  0  0  0  0  0  0
  131.6922  136.4326  160.0885 O   0  0  0  0  0  0  0  0  0  0  0  0
  130.4364  133.4009  156.4487 N   0  0  0  0  0  0  0  0  0  0  0  0
  130.8040  134.0111  155.7903 H   0  0  0  0  0  0  0  0  0  0  0  0
  131.4295  130.2468  155.0605 C   0  0  0  0  0  0  0  0  0  0  0  0
  131.7039  129.5384  153.9098 C   0  0  0  0  0  0  0  0  0  0  0  0
  131.9884  128.4236  151.5766 H   0  0  0  0  0  0  0  0  0  0  0  0
  130.9272  129.4023  150.7173 H   0  0  0  0  0  0  0  0  0  0  0  0
  129.6934  131.2014  151.7508 H   0  0  0  0  0  0  0  0  0  0  0  0
  129.2057  132.4752  153.7967 H   0  0  0  0  0  0  0  0  0  0  0  0
  129.4375  130.5378  157.5900 H   0  0  0  0  0  0  0  0  0  0  0  0
  130.4551  135.7386  157.6805 H   0  0  0  0  0  0  0  0  0  0  0  0
  127.9828  136.3326  157.8539 H   0  0  0  0  0  0  0  0  0  0  0  0
  125.8804  136.3775  160.5222 H   0  0  0  0  0  0  0  0  0  0  0  0
  128.0730  136.3847  163.5267 H   0  0  0  0  0  0  0  0  0  0  0  0
  131.3254  137.9868  162.0531 H   0  0  0  0  0  0  0  0  0  0  0  0
  132.0629  136.2822  159.2082 H   0  0  0  0  0  0  0  0  0  0  0  0
  131.9125  129.9785  155.9884 H   0  0  0  0  0  0  0  0  0  0  0  0
  132.4027  128.7153  153.9367 H   0  0  0  0  0  0  0  0  0  0  0  0
  1  2  1  0
  1 33  1  0
  1 34  1  0
  2 32  2  0
  2  3  1  0
  3  4  2  0
  3 35  1  0
  4  5  1  0
  4 36  1  0
  5  6  1  0
  5 31  2  0
  6 29  1  0
  6  7  2  0
  7  8  1  0
  7 37  1  0
  8  9  1  0
  8 10  1  0
 10 11  1  0
 10 29  2  0
 11 12  1  0
 11 38  1  0
 12 13  1  1
 12 26  1  0
 12 14  1  0
 14 15  1  6
 14 16  1  0
 14 17  1  0
 16 39  1  0
 17 18  1  1
 17 19  1  0
 17 20  1  0
 19 40  1  0
 20 21  1  6
 20 22  1  0
 20 23  1  0
 22 41  1  0
 23 24  1  1
 23 25  1  0
 23 26  1  0
 25 42  1  0
 26 27  1  6
 26 28  1  0
 28 43  1  0
 29 30  1  0
 31 32  1  0
 31 44  1  0
 32 45  1  0
M  CHG  1  29   1
M  END
>  <DOCK_score>  (1) 
-57.594696

>  <SMILES>  (1) 
Nc1ccc(-c2c[nH]c(N[C@@H]3[C@H](O)[C@H](O)[C@@H](O)[C@H](O)[C@H]3O)[nH+]2)cc1

$$$$
