Cc1ccccc1[C@H]1C[C@H](Nc2ccc(-c3n[nH]cc3C[NH2+]C3C[C@@H]3C)o2)C1
     RDKit          3D

 57 61  0  0  1  0  0  0  0  0999 V2000
  124.4263  140.3974  164.6842 C   0  0  0  0  0  0  0  0  0  0  0  0
  125.8075  140.9912  164.5813 C   0  0  0  0  0  0  0  0  0  0  0  0
  126.0927  142.1905  165.2073 C   0  0  0  0  0  0  0  0  0  0  0  0
  127.3578  142.7383  165.1077 C   0  0  0  0  0  0  0  0  0  0  0  0
  128.3397  142.0837  164.3874 C   0  0  0  0  0  0  0  0  0  0  0  0
  128.0563  140.8820  163.7664 C   0  0  0  0  0  0  0  0  0  0  0  0
  126.7906  140.3343  163.8656 C   0  0  0  0  0  0  0  0  0  0  0  0
  126.4813  139.0242  163.1882 C   0  0  1  0  0  0  0  0  0  0  0  0
  125.6848  139.1076  162.4488 H   0  0  0  0  0  0  0  0  0  0  0  0
  127.7286  138.2891  162.6697 C   0  0  0  0  0  0  0  0  0  0  0  0
  127.0680  136.9885  163.1564 C   0  0  2  0  0  0  0  0  0  0  0  0
  127.7656  136.2915  163.6206 H   0  0  0  0  0  0  0  0  0  0  0  0
  126.2130  136.3527  162.1509 N   0  0  0  0  0  0  0  0  0  0  0  0
  126.7505  135.4211  161.2704 C   0  0  0  0  0  0  0  0  0  0  0  0
  126.0839  134.3775  160.7168 C   0  0  0  0  0  0  0  0  0  0  0  0
  126.9992  133.6978  159.8889 C   0  0  0  0  0  0  0  0  0  0  0  0
  128.1834  134.3574  159.9866 C   0  0  0  0  0  0  0  0  0  0  0  0
  129.4353  133.9962  159.2900 C   0  0  0  0  0  0  0  0  0  0  0  0
  129.6002  132.9796  158.4667 N   0  0  0  0  0  0  0  0  0  0  0  0
  130.9294  132.9894  158.0248 N   0  0  0  0  0  0  0  0  0  0  0  0
  131.3289  132.3545  157.4097 H   0  0  0  0  0  0  0  0  0  0  0  0
  131.5567  134.0389  158.5984 C   0  0  0  0  0  0  0  0  0  0  0  0
  130.6669  134.6774  159.3881 C   0  0  0  0  0  0  0  0  0  0  0  0
  130.9390  135.9036  160.2208 C   0  0  0  0  0  0  0  0  0  0  0  0
  132.3412  136.3083  160.0528 N   0  0  0  0  0  0  0  0  0  0  0  0
  132.9460  135.5578  160.3514 H   0  0  0  0  0  0  0  0  0  0  0  0
  132.5172  136.5158  159.0811 H   0  0  0  0  0  0  0  0  0  0  0  0
  132.6066  137.5035  160.8645 C   0  0  1  0  0  0  0  0  0  0  0  0
  133.6493  138.4944  160.3432 C   0  0  0  0  0  0  0  0  0  0  0  0
  132.1629  138.8543  160.2992 C   0  0  2  0  0  0  0  0  0  0  0  0
  131.6740  138.8560  159.3249 H   0  0  0  0  0  0  0  0  0  0  0  0
  131.6607  139.9048  161.2917 C   0  0  0  0  0  0  0  0  0  0  0  0
  128.0181  135.4024  160.8247 O   0  0  0  0  0  0  0  0  0  0  0  0
  126.2934  137.8501  164.1678 C   0  0  0  0  0  0  0  0  0  0  0  0
  124.3740  139.7486  165.5587 H   0  0  0  0  0  0  0  0  0  0  0  0
  123.6929  141.1978  164.7815 H   0  0  0  0  0  0  0  0  0  0  0  0
  124.2130  139.8160  163.7873 H   0  0  0  0  0  0  0  0  0  0  0  0
  125.3258  142.7016  165.7702 H   0  0  0  0  0  0  0  0  0  0  0  0
  127.5794  143.6774  165.5929 H   0  0  0  0  0  0  0  0  0  0  0  0
  129.3282  142.5117  164.3096 H   0  0  0  0  0  0  0  0  0  0  0  0
  128.8231  140.3709  163.2035 H   0  0  0  0  0  0  0  0  0  0  0  0
  128.6410  138.5436  163.2091 H   0  0  0  0  0  0  0  0  0  0  0  0
  127.8472  138.3403  161.5874 H   0  0  0  0  0  0  0  0  0  0  0  0
  125.2719  136.5819  162.0996 H   0  0  0  0  0  0  0  0  0  0  0  0
  125.0474  134.1196  160.8764 H   0  0  0  0  0  0  0  0  0  0  0  0
  126.7986  132.8198  159.2926 H   0  0  0  0  0  0  0  0  0  0  0  0
  132.5900  134.3173  158.4528 H   0  0  0  0  0  0  0  0  0  0  0  0
  130.2856  136.7143  159.8982 H   0  0  0  0  0  0  0  0  0  0  0  0
  130.7489  135.6795  161.2704 H   0  0  0  0  0  0  0  0  0  0  0  0
  132.5409  137.3631  161.9435 H   0  0  0  0  0  0  0  0  0  0  0  0
  134.2694  139.0061  161.0790 H   0  0  0  0  0  0  0  0  0  0  0  0
  134.1386  138.2592  159.3981 H   0  0  0  0  0  0  0  0  0  0  0  0
  132.4509  140.1370  162.0057 H   0  0  0  0  0  0  0  0  0  0  0  0
  131.3811  140.8099  160.7523 H   0  0  0  0  0  0  0  0  0  0  0  0
  130.7926  139.5163  161.8240 H   0  0  0  0  0  0  0  0  0  0  0  0
  125.2541  137.5469  164.2939 H   0  0  0  0  0  0  0  0  0  0  0  0
  126.8141  137.9847  165.1157 H   0  0  0  0  0  0  0  0  0  0  0  0
  1  2  1  0
  1 35  1  0
  1 36  1  0
  1 37  1  0
  2  7  2  0
  2  3  1  0
  3  4  2  0
  3 38  1  0
  4  5  1  0
  4 39  1  0
  5  6  2  0
  5 40  1  0
  6  7  1  0
  6 41  1  0
  7  8  1  0
  8  9  1  6
  8 34  1  0
  8 10  1  0
 10 11  1  0
 10 42  1  0
 10 43  1  0
 11 12  1  1
 11 13  1  0
 11 34  1  0
 13 14  1  0
 13 44  1  0
 14 33  1  0
 14 15  2  0
 15 16  1  0
 15 45  1  0
 16 17  2  0
 16 46  1  0
 17 18  1  0
 17 33  1  0
 18 23  1  0
 18 19  2  0
 19 20  1  0
 20 21  1  0
 20 22  1  0
 22 23  2  0
 22 47  1  0
 23 24  1  0
 24 25  1  0
 24 48  1  0
 24 49  1  0
 25 26  1  0
 25 27  1  0
 25 28  1  0
 28 30  1  0
 28 29  1  0
 28 50  1  1
 29 30  1  0
 29 51  1  0
 29 52  1  0
 30 31  1  6
 30 32  1  0
 32 53  1  0
 32 54  1  0
 32 55  1  0
 34 56  1  0
 34 57  1  0
M  CHG  1  25   1
M  END
>  <DOCK_score>  (1) 
-51.537689

>  <SMILES>  (1) 
Cc1ccccc1[C@H]1C[C@H](Nc2ccc(-c3n[nH]cc3C[NH2+]C3C[C@@H]3C)o2)C1

$$$$
