Oc1cc(Cl)cc(C[NH2+]Cc2c[nH]nc2-c2ccc(N[C@H]3CC34CCCC4)o2)c1
     RDKit          3D

 55 59  0  0  1  0  0  0  0  0999 V2000
  134.3940  137.8009  163.8196 O   0  0  0  0  0  0  0  0  0  0  0  0
  134.0958  138.2106  162.5586 C   0  0  0  0  0  0  0  0  0  0  0  0
  135.0809  138.7721  161.7593 C   0  0  0  0  0  0  0  0  0  0  0  0
  134.7747  139.1879  160.4770 C   0  0  0  0  0  0  0  0  0  0  0  0
  136.0065  139.8907  159.4756 Cl  0  0  0  0  0  0  0  0  0  0  0  0
  133.4869  139.0437  159.9910 C   0  0  0  0  0  0  0  0  0  0  0  0
  132.5045  138.4843  160.7863 C   0  0  0  0  0  0  0  0  0  0  0  0
  131.1032  138.3288  160.2540 C   0  0  0  0  0  0  0  0  0  0  0  0
  130.9713  137.0216  159.5969 N   0  0  0  0  0  0  0  0  0  0  0  0
  131.6295  136.9604  158.8344 H   0  0  0  0  0  0  0  0  0  0  0  0
  130.0331  136.9173  159.2405 H   0  0  0  0  0  0  0  0  0  0  0  0
  131.2475  135.9550  160.5685 C   0  0  0  0  0  0  0  0  0  0  0  0
  131.1122  134.6139  159.8943 C   0  0  0  0  0  0  0  0  0  0  0  0
  132.0979  133.9349  159.2697 C   0  0  0  0  0  0  0  0  0  0  0  0
  131.5775  132.7811  158.7982 N   0  0  0  0  0  0  0  0  0  0  0  0
  132.0603  132.0981  158.3071 H   0  0  0  0  0  0  0  0  0  0  0  0
  130.2214  132.7387  159.1464 N   0  0  0  0  0  0  0  0  0  0  0  0
  129.9330  133.8447  159.8038 C   0  0  0  0  0  0  0  0  0  0  0  0
  128.6112  134.2105  160.3533 C   0  0  0  0  0  0  0  0  0  0  0  0
  127.4776  133.4663  160.2628 C   0  0  0  0  0  0  0  0  0  0  0  0
  126.4603  134.1913  160.9142 C   0  0  0  0  0  0  0  0  0  0  0  0
  127.0235  135.3355  161.3762 C   0  0  0  0  0  0  0  0  0  0  0  0
  126.3665  136.3360  162.0831 N   0  0  0  0  0  0  0  0  0  0  0  0
  127.0998  137.1451  163.0597 C   0  0  1  0  0  0  0  0  0  0  0  0
  128.1092  137.4348  162.7673 H   0  0  0  0  0  0  0  0  0  0  0  0
  126.2951  138.1388  163.9014 C   0  0  0  0  0  0  0  0  0  0  0  0
  126.8464  136.8666  164.5380 C   0  0  0  0  0  0  0  0  0  0  0  0
  127.9943  136.9311  165.5606 C   0  0  0  0  0  0  0  0  0  0  0  0
  127.3978  136.2859  166.8374 C   0  0  0  0  0  0  0  0  0  0  0  0
  126.5250  135.1397  166.2677 C   0  0  0  0  0  0  0  0  0  0  0  0
  125.9105  135.7339  164.9821 C   0  0  0  0  0  0  0  0  0  0  0  0
  128.3222  135.3415  161.0308 O   0  0  0  0  0  0  0  0  0  0  0  0
  132.8044  138.0729  162.0708 C   0  0  0  0  0  0  0  0  0  0  0  0
  133.6424  137.4271  164.2999 H   0  0  0  0  0  0  0  0  0  0  0  0
  136.0858  138.8839  162.1385 H   0  0  0  0  0  0  0  0  0  0  0  0
  133.2494  139.3682  158.9886 H   0  0  0  0  0  0  0  0  0  0  0  0
  130.8984  139.1201  159.5329 H   0  0  0  0  0  0  0  0  0  0  0  0
  130.3922  138.3947  161.0775 H   0  0  0  0  0  0  0  0  0  0  0  0
  130.5366  136.0209  161.3921 H   0  0  0  0  0  0  0  0  0  0  0  0
  132.2609  136.0675  160.9535 H   0  0  0  0  0  0  0  0  0  0  0  0
  133.1233  134.2576  159.1654 H   0  0  0  0  0  0  0  0  0  0  0  0
  127.3752  132.5057  159.7800 H   0  0  0  0  0  0  0  0  0  0  0  0
  125.4286  133.8921  161.0261 H   0  0  0  0  0  0  0  0  0  0  0  0
  125.4225  136.4983  161.9299 H   0  0  0  0  0  0  0  0  0  0  0  0
  126.7752  139.0816  164.1632 H   0  0  0  0  0  0  0  0  0  0  0  0
  125.2200  138.1904  163.7286 H   0  0  0  0  0  0  0  0  0  0  0  0
  128.8522  136.3587  165.2085 H   0  0  0  0  0  0  0  0  0  0  0  0
  128.2772  137.9662  165.7523 H   0  0  0  0  0  0  0  0  0  0  0  0
  126.7848  137.0036  167.3825 H   0  0  0  0  0  0  0  0  0  0  0  0
  128.1882  135.8889  167.4746 H   0  0  0  0  0  0  0  0  0  0  0  0
  125.7412  134.8694  166.9753 H   0  0  0  0  0  0  0  0  0  0  0  0
  127.1414  134.2726  166.0303 H   0  0  0  0  0  0  0  0  0  0  0  0
  124.9168  136.1300  165.1908 H   0  0  0  0  0  0  0  0  0  0  0  0
  125.8532  134.9704  164.2063 H   0  0  0  0  0  0  0  0  0  0  0  0
  132.0351  137.6400  162.6929 H   0  0  0  0  0  0  0  0  0  0  0  0
  1  2  1  0
  1 34  1  0
  2 33  2  0
  2  3  1  0
  3  4  2  0
  3 35  1  0
  4  5  1  0
  4  6  1  0
  6  7  2  0
  6 36  1  0
  7  8  1  0
  7 33  1  0
  8  9  1  0
  8 37  1  0
  8 38  1  0
  9 10  1  0
  9 11  1  0
  9 12  1  0
 12 13  1  0
 12 39  1  0
 12 40  1  0
 13 18  1  0
 13 14  2  0
 14 15  1  0
 14 41  1  0
 15 16  1  0
 15 17  1  0
 17 18  2  0
 18 19  1  0
 19 32  1  0
 19 20  2  0
 20 21  1  0
 20 42  1  0
 21 22  2  0
 21 43  1  0
 22 23  1  0
 22 32  1  0
 23 24  1  0
 23 44  1  0
 24 25  1  1
 24 27  1  0
 24 26  1  0
 26 27  1  0
 26 45  1  0
 26 46  1  0
 27 31  1  0
 27 28  1  0
 28 29  1  0
 28 47  1  0
 28 48  1  0
 29 30  1  0
 29 49  1  0
 29 50  1  0
 30 31  1  0
 30 51  1  0
 30 52  1  0
 31 53  1  0
 31 54  1  0
 33 55  1  0
M  CHG  1   9   1
M  END
>  <DOCK_score>  (1) 
-45.956524

>  <SMILES>  (1) 
Oc1cc(Cl)cc(C[NH2+]Cc2c[nH]nc2-c2ccc(N[C@H]3CC34CCCC4)o2)c1

$$$$
