C1=C(C(c2ccccc2)c2ccccc2)CC[N@H+](C(c2ccccc2)c2ccccc2)C1
     RDKit          3D

 62 66  0  0  1  0  0  0  0  0999 V2000
  132.8965  135.2143  161.2722 C   0  0  0  0  0  0  0  0  0  0  0  0
  132.6645  136.4925  161.2656 C   0  0  0  0  0  0  0  0  0  0  0  0
  133.7443  137.4269  161.7473 C   0  0  0  0  0  0  0  0  0  0  0  0
  134.1265  138.3690  160.6349 C   0  0  0  0  0  0  0  0  0  0  0  0
  134.5739  139.6429  160.9313 C   0  0  0  0  0  0  0  0  0  0  0  0
  134.9291  140.5054  159.9111 C   0  0  0  0  0  0  0  0  0  0  0  0
  134.8279  140.0975  158.5945 C   0  0  0  0  0  0  0  0  0  0  0  0
  134.3744  138.8256  158.2977 C   0  0  0  0  0  0  0  0  0  0  0  0
  134.0243  137.9612  159.3180 C   0  0  0  0  0  0  0  0  0  0  0  0
  133.2350  138.2191  162.9239 C   0  0  0  0  0  0  0  0  0  0  0  0
  132.6052  139.4324  162.7195 C   0  0  0  0  0  0  0  0  0  0  0  0
  132.1337  140.1569  163.7985 C   0  0  0  0  0  0  0  0  0  0  0  0
  132.3010  139.6722  165.0824 C   0  0  0  0  0  0  0  0  0  0  0  0
  132.9360  138.4617  165.2869 C   0  0  0  0  0  0  0  0  0  0  0  0
  133.4029  137.7349  164.2077 C   0  0  0  0  0  0  0  0  0  0  0  0
  131.3585  137.0776  160.8010 C   0  0  0  0  0  0  0  0  0  0  0  0
  130.2971  135.9761  160.7390 C   0  0  0  0  0  0  0  0  0  0  0  0
  130.8506  134.8282  160.0028 N   0  0  2  0  0  0  0  0  0  0  0  0
  131.2499  135.1459  159.1324 H   0  0  0  0  0  0  0  0  0  0  0  0
  129.7820  133.8582  159.7287 C   0  0  0  0  0  0  0  0  0  0  0  0
  128.7083  134.5147  158.8999 C   0  0  0  0  0  0  0  0  0  0  0  0
  127.3957  134.0957  159.0119 C   0  0  0  0  0  0  0  0  0  0  0  0
  126.4101  134.7009  158.2547 C   0  0  0  0  0  0  0  0  0  0  0  0
  126.7385  135.7186  157.3787 C   0  0  0  0  0  0  0  0  0  0  0  0
  128.0518  136.1342  157.2631 C   0  0  0  0  0  0  0  0  0  0  0  0
  129.0367  135.5319  158.0234 C   0  0  0  0  0  0  0  0  0  0  0  0
  130.3510  132.6837  158.9749 C   0  0  0  0  0  0  0  0  0  0  0  0
  130.3720  132.6941  157.5927 C   0  0  0  0  0  0  0  0  0  0  0  0
  130.8978  131.6188  156.9015 C   0  0  0  0  0  0  0  0  0  0  0  0
  131.3939  130.5289  157.5921 C   0  0  0  0  0  0  0  0  0  0  0  0
  131.3685  130.5165  158.9741 C   0  0  0  0  0  0  0  0  0  0  0  0
  130.8466  131.5937  159.6655 C   0  0  0  0  0  0  0  0  0  0  0  0
  131.8913  134.1947  160.8210 C   0  0  0  0  0  0  0  0  0  0  0  0
  133.8591  134.8686  161.6189 H   0  0  0  0  0  0  0  0  0  0  0  0
  134.6173  136.8483  162.0495 H   0  0  0  0  0  0  0  0  0  0  0  0
  134.6496  139.9631  161.9599 H   0  0  0  0  0  0  0  0  0  0  0  0
  135.2826  141.4993  160.1428 H   0  0  0  0  0  0  0  0  0  0  0  0
  135.1018  140.7726  157.7971 H   0  0  0  0  0  0  0  0  0  0  0  0
  134.2946  138.5070  157.2688 H   0  0  0  0  0  0  0  0  0  0  0  0
  133.6705  136.9674  159.0864 H   0  0  0  0  0  0  0  0  0  0  0  0
  132.4781  139.8129  161.7167 H   0  0  0  0  0  0  0  0  0  0  0  0
  131.6380  141.1030  163.6385 H   0  0  0  0  0  0  0  0  0  0  0  0
  131.9359  140.2400  165.9256 H   0  0  0  0  0  0  0  0  0  0  0  0
  133.0670  138.0835  166.2900 H   0  0  0  0  0  0  0  0  0  0  0  0
  133.8988  136.7891  164.3677 H   0  0  0  0  0  0  0  0  0  0  0  0
  131.4902  137.5111  159.8097 H   0  0  0  0  0  0  0  0  0  0  0  0
  131.0366  137.8531  161.4961 H   0  0  0  0  0  0  0  0  0  0  0  0
  129.4120  136.3491  160.2237 H   0  0  0  0  0  0  0  0  0  0  0  0
  130.0296  135.6681  161.7499 H   0  0  0  0  0  0  0  0  0  0  0  0
  129.3544  133.5132  160.6700 H   0  0  0  0  0  0  0  0  0  0  0  0
  127.1398  133.2980  159.6934 H   0  0  0  0  0  0  0  0  0  0  0  0
  125.3839  134.3765  158.3453 H   0  0  0  0  0  0  0  0  0  0  0  0
  125.9689  136.1891  156.7847 H   0  0  0  0  0  0  0  0  0  0  0  0
  128.3083  136.9292  156.5786 H   0  0  0  0  0  0  0  0  0  0  0  0
  130.0629  135.8564  157.9328 H   0  0  0  0  0  0  0  0  0  0  0  0
  129.9807  133.5439  157.0531 H   0  0  0  0  0  0  0  0  0  0  0  0
  130.9179  131.6287  155.8217 H   0  0  0  0  0  0  0  0  0  0  0  0
  131.8016  129.6872  157.0519 H   0  0  0  0  0  0  0  0  0  0  0  0
  131.7560  129.6649  159.5137 H   0  0  0  0  0  0  0  0  0  0  0  0
  130.8264  131.5838  160.7453 H   0  0  0  0  0  0  0  0  0  0  0  0
  131.4314  133.7313  161.6938 H   0  0  0  0  0  0  0  0  0  0  0  0
  132.3975  133.4302  160.2317 H   0  0  0  0  0  0  0  0  0  0  0  0
  1 33  1  0
  1  2  2  0
  1 34  1  0
  2  3  1  0
  2 16  1  0
  3  4  1  0
  3 10  1  0
  3 35  1  0
  4  9  1  0
  4  5  2  0
  5  6  1  0
  5 36  1  0
  6  7  2  0
  6 37  1  0
  7  8  1  0
  7 38  1  0
  8  9  2  0
  8 39  1  0
  9 40  1  0
 10 15  1  0
 10 11  2  0
 11 12  1  0
 11 41  1  0
 12 13  2  0
 12 42  1  0
 13 14  1  0
 13 43  1  0
 14 15  2  0
 14 44  1  0
 15 45  1  0
 16 17  1  0
 16 46  1  0
 16 47  1  0
 17 18  1  0
 17 48  1  0
 17 49  1  0
 18 19  1  6
 18 20  1  0
 18 33  1  0
 20 21  1  0
 20 27  1  0
 20 50  1  0
 21 26  1  0
 21 22  2  0
 22 23  1  0
 22 51  1  0
 23 24  2  0
 23 52  1  0
 24 25  1  0
 24 53  1  0
 25 26  2  0
 25 54  1  0
 26 55  1  0
 27 32  1  0
 27 28  2  0
 28 29  1  0
 28 56  1  0
 29 30  2  0
 29 57  1  0
 30 31  1  0
 30 58  1  0
 31 32  2  0
 31 59  1  0
 32 60  1  0
 33 61  1  0
 33 62  1  0
M  CHG  1  18   1
M  END
>  <DOCK_score>  (1) 
-56.023247

>  <SMILES>  (1) 
C1=C(C(c2ccccc2)c2ccccc2)CC[N@H+](C(c2ccccc2)c2ccccc2)C1

$$$$
