Cc1ccnc(Sc2ccc(SC3=CCCC3)c(NC(=O)[C@@H]([NH3+])CC3=CCCC3)c2)n1
     RDKit          3D

 60 63  0  0  1  0  0  0  0  0999 V2000
  126.1686  138.8659  164.6703 C   0  0  0  0  0  0  0  0  0  0  0  0
  126.4273  137.4058  164.4017 C   0  0  0  0  0  0  0  0  0  0  0  0
  127.0703  136.6218  165.3471 C   0  0  0  0  0  0  0  0  0  0  0  0
  127.2889  135.2832  165.0605 C   0  0  0  0  0  0  0  0  0  0  0  0
  126.8800  134.7967  163.9006 N   0  0  0  0  0  0  0  0  0  0  0  0
  126.2680  135.5733  163.0181 C   0  0  0  0  0  0  0  0  0  0  0  0
  125.7398  134.8833  161.4852 S   0  0  0  0  0  0  0  0  0  0  0  0
  127.2886  134.3389  160.8449 C   0  0  0  0  0  0  0  0  0  0  0  0
  127.4883  132.9935  160.5620 C   0  0  0  0  0  0  0  0  0  0  0  0
  128.6992  132.5641  160.0547 C   0  0  0  0  0  0  0  0  0  0  0  0
  129.7236  133.4746  159.8361 C   0  0  0  0  0  0  0  0  0  0  0  0
  131.2699  132.9250  159.1946 S   0  0  0  0  0  0  0  0  0  0  0  0
  130.8268  132.2201  157.6417 C   0  0  0  0  0  0  0  0  0  0  0  0
  131.4676  131.2256  157.0625 C   0  0  0  0  0  0  0  0  0  0  0  0
  130.8261  130.8666  155.7425 C   0  0  0  0  0  0  0  0  0  0  0  0
  129.9322  132.0794  155.3953 C   0  0  0  0  0  0  0  0  0  0  0  0
  129.6602  132.6751  156.7957 C   0  0  0  0  0  0  0  0  0  0  0  0
  129.5259  134.8262  160.1193 C   0  0  0  0  0  0  0  0  0  0  0  0
  130.5563  135.7483  159.8941 N   0  0  0  0  0  0  0  0  0  0  0  0
  130.6513  136.8530  160.6603 C   0  0  0  0  0  0  0  0  0  0  0  0
  129.8446  137.0489  161.5447 O   0  0  0  0  0  0  0  0  0  0  0  0
  131.7596  137.8449  160.4182 C   0  0  1  0  0  0  0  0  0  0  0  0
  131.6833  138.2343  159.4030 H   0  0  0  0  0  0  0  0  0  0  0  0
  131.6443  138.9519  161.3771 N   0  0  0  0  0  0  0  0  0  0  0  0
  132.3864  139.6159  161.2150 H   0  0  0  0  0  0  0  0  0  0  0  0
  130.7523  139.4084  161.2580 H   0  0  0  0  0  0  0  0  0  0  0  0
  131.7148  138.5914  162.3169 H   0  0  0  0  0  0  0  0  0  0  0  0
  133.1120  137.1526  160.5985 C   0  0  0  0  0  0  0  0  0  0  0  0
  134.2204  138.1446  160.3565 C   0  0  0  0  0  0  0  0  0  0  0  0
  135.1232  138.4733  161.2400 C   0  0  0  0  0  0  0  0  0  0  0  0
  136.0882  139.4916  160.6789 C   0  0  0  0  0  0  0  0  0  0  0  0
  135.3800  140.0550  159.4250 C   0  0  0  0  0  0  0  0  0  0  0  0
  134.4364  138.8844  159.0567 C   0  0  0  0  0  0  0  0  0  0  0  0
  128.3081  135.2552  160.6232 C   0  0  0  0  0  0  0  0  0  0  0  0
  126.0486  136.8583  163.2591 N   0  0  0  0  0  0  0  0  0  0  0  0
  127.0136  139.4559  164.3153 H   0  0  0  0  0  0  0  0  0  0  0  0
  125.2636  139.1766  164.1483 H   0  0  0  0  0  0  0  0  0  0  0  0
  126.0416  139.0213  165.7418 H   0  0  0  0  0  0  0  0  0  0  0  0
  127.3943  137.0448  166.2866 H   0  0  0  0  0  0  0  0  0  0  0  0
  127.7869  134.6453  165.7758 H   0  0  0  0  0  0  0  0  0  0  0  0
  126.6940  132.2825  160.7352 H   0  0  0  0  0  0  0  0  0  0  0  0
  128.8504  131.5182  159.8318 H   0  0  0  0  0  0  0  0  0  0  0  0
  132.3330  130.7303  157.4778 H   0  0  0  0  0  0  0  0  0  0  0  0
  131.5882  130.7253  154.9761 H   0  0  0  0  0  0  0  0  0  0  0  0
  130.2204  129.9664  155.8472 H   0  0  0  0  0  0  0  0  0  0  0  0
  130.4662  132.7906  154.7650 H   0  0  0  0  0  0  0  0  0  0  0  0
  129.0051  131.7582  154.9205 H   0  0  0  0  0  0  0  0  0  0  0  0
  129.6295  133.7635  156.7457 H   0  0  0  0  0  0  0  0  0  0  0  0
  128.7240  132.2878  157.1976 H   0  0  0  0  0  0  0  0  0  0  0  0
  131.2013  135.5917  159.1869 H   0  0  0  0  0  0  0  0  0  0  0  0
  133.1883  136.7633  161.6138 H   0  0  0  0  0  0  0  0  0  0  0  0
  133.1976  136.3313  159.8871 H   0  0  0  0  0  0  0  0  0  0  0  0
  135.1735  138.0705  162.2408 H   0  0  0  0  0  0  0  0  0  0  0  0
  136.2660  140.2860  161.4037 H   0  0  0  0  0  0  0  0  0  0  0  0
  137.0271  139.0124  160.4016 H   0  0  0  0  0  0  0  0  0  0  0  0
  134.8162  140.9562  159.6658 H   0  0  0  0  0  0  0  0  0  0  0  0
  136.0948  140.2456  158.6244 H   0  0  0  0  0  0  0  0  0  0  0  0
  134.9065  138.2313  158.3215 H   0  0  0  0  0  0  0  0  0  0  0  0
  133.4895  139.2671  158.6758 H   0  0  0  0  0  0  0  0  0  0  0  0
  128.1522  136.3010  160.8430 H   0  0  0  0  0  0  0  0  0  0  0  0
  1  2  1  0
  1 36  1  0
  1 37  1  0
  1 38  1  0
  2 35  2  0
  2  3  1  0
  3  4  2  0
  3 39  1  0
  4  5  1  0
  4 40  1  0
  5  6  2  0
  6  7  1  0
  6 35  1  0
  7  8  1  0
  8 34  1  0
  8  9  2  0
  9 10  1  0
  9 41  1  0
 10 11  2  0
 10 42  1  0
 11 12  1  0
 11 18  1  0
 12 13  1  0
 13 17  1  0
 13 14  2  0
 14 15  1  0
 14 43  1  0
 15 16  1  0
 15 44  1  0
 15 45  1  0
 16 17  1  0
 16 46  1  0
 16 47  1  0
 17 48  1  0
 17 49  1  0
 18 19  1  0
 18 34  2  0
 19 20  1  0
 19 50  1  0
 20 21  2  0
 20 22  1  0
 22 23  1  6
 22 24  1  0
 22 28  1  0
 24 25  1  0
 24 26  1  0
 24 27  1  0
 28 29  1  0
 28 51  1  0
 28 52  1  0
 29 33  1  0
 29 30  2  0
 30 31  1  0
 30 53  1  0
 31 32  1  0
 31 54  1  0
 31 55  1  0
 32 33  1  0
 32 56  1  0
 32 57  1  0
 33 58  1  0
 33 59  1  0
 34 60  1  0
M  CHG  1  24   1
M  END
>  <DOCK_score>  (1) 
-42.771381

>  <SMILES>  (1) 
Cc1ccnc(Sc2ccc(SC3=CCCC3)c(NC(=O)[C@@H]([NH3+])CC3=CCCC3)c2)n1

$$$$
