ClCc1c(N2CC[NH+](C(c3ccccc3)c3ccccc3)CC2)ccc(Cl)c1Cl
     RDKit          3D

 53 56  0  0  0  0  0  0  0  0999 V2000
  132.0526  139.0667  164.0785 Cl  0  0  0  0  0  0  0  0  0  0  0  0
  133.5309  138.2154  163.4948 C   0  0  0  0  0  0  0  0  0  0  0  0
  134.0021  138.8496  162.2115 C   0  0  0  0  0  0  0  0  0  0  0  0
  133.5290  138.3843  160.9913 C   0  0  0  0  0  0  0  0  0  0  0  0
  132.6152  137.3277  160.9519 N   0  0  0  0  0  0  0  0  0  0  0  0
  133.1919  136.1575  160.2752 C   0  0  0  0  0  0  0  0  0  0  0  0
  132.1843  135.0063  160.3058 C   0  0  0  0  0  0  0  0  0  0  0  0
  130.9461  135.4211  159.6333 N   0  0  0  0  0  0  0  0  0  0  0  0
  131.1511  135.6762  158.6789 H   0  0  0  0  0  0  0  0  0  0  0  0
  129.9857  134.3097  159.6470 C   0  0  0  0  0  0  0  0  0  0  0  0
  128.7152  134.7350  158.9572 C   0  0  0  0  0  0  0  0  0  0  0  0
  127.5051  134.1853  159.3370 C   0  0  0  0  0  0  0  0  0  0  0  0
  126.3392  134.5790  158.7074 C   0  0  0  0  0  0  0  0  0  0  0  0
  126.3839  135.5145  157.6917 C   0  0  0  0  0  0  0  0  0  0  0  0
  127.5952  136.0605  157.3074 C   0  0  0  0  0  0  0  0  0  0  0  0
  128.7606  135.6707  157.9405 C   0  0  0  0  0  0  0  0  0  0  0  0
  130.5770  133.1261  158.9256 C   0  0  0  0  0  0  0  0  0  0  0  0
  130.3742  132.9729  157.5668 C   0  0  0  0  0  0  0  0  0  0  0  0
  130.9206  131.8896  156.9042 C   0  0  0  0  0  0  0  0  0  0  0  0
  131.6609  130.9541  157.6023 C   0  0  0  0  0  0  0  0  0  0  0  0
  131.8592  131.1044  158.9620 C   0  0  0  0  0  0  0  0  0  0  0  0
  131.3173  132.1904  159.6237 C   0  0  0  0  0  0  0  0  0  0  0  0
  130.3689  136.5753  160.3351 C   0  0  0  0  0  0  0  0  0  0  0  0
  131.3615  137.7396  160.3047 C   0  0  0  0  0  0  0  0  0  0  0  0
  133.9693  138.9675  159.8104 C   0  0  0  0  0  0  0  0  0  0  0  0
  134.8683  140.0155  159.8519 C   0  0  0  0  0  0  0  0  0  0  0  0
  135.3345  140.4812  161.0682 C   0  0  0  0  0  0  0  0  0  0  0  0
  136.4638  141.7989  161.1164 Cl  0  0  0  0  0  0  0  0  0  0  0  0
  134.9014  139.8983  162.2477 C   0  0  0  0  0  0  0  0  0  0  0  0
  135.4882  140.4858  163.7722 Cl  0  0  0  0  0  0  0  0  0  0  0  0
  133.2992  137.1653  163.3176 H   0  0  0  0  0  0  0  0  0  0  0  0
  134.3156  138.2924  164.2477 H   0  0  0  0  0  0  0  0  0  0  0  0
  133.4219  136.4123  159.2406 H   0  0  0  0  0  0  0  0  0  0  0  0
  134.1055  135.8549  160.7872 H   0  0  0  0  0  0  0  0  0  0  0  0
  131.9651  134.7426  161.3404 H   0  0  0  0  0  0  0  0  0  0  0  0
  132.6046  134.1417  159.7919 H   0  0  0  0  0  0  0  0  0  0  0  0
  129.7643  134.0334  160.6779 H   0  0  0  0  0  0  0  0  0  0  0  0
  127.4703  133.4510  160.1282 H   0  0  0  0  0  0  0  0  0  0  0  0
  125.3932  134.1523  159.0067 H   0  0  0  0  0  0  0  0  0  0  0  0
  125.4740  135.8189  157.1960 H   0  0  0  0  0  0  0  0  0  0  0  0
  127.6307  136.7912  156.5129 H   0  0  0  0  0  0  0  0  0  0  0  0
  129.7066  136.0969  157.6406 H   0  0  0  0  0  0  0  0  0  0  0  0
  129.7919  133.7016  157.0222 H   0  0  0  0  0  0  0  0  0  0  0  0
  130.7653  131.7720  155.8419 H   0  0  0  0  0  0  0  0  0  0  0  0
  132.0840  130.1055  157.0854 H   0  0  0  0  0  0  0  0  0  0  0  0
  132.4374  130.3732  159.5076 H   0  0  0  0  0  0  0  0  0  0  0  0
  131.4720  132.3077  160.6861 H   0  0  0  0  0  0  0  0  0  0  0  0
  130.1589  136.3037  161.3695 H   0  0  0  0  0  0  0  0  0  0  0  0
  129.4433  136.8740  159.8429 H   0  0  0  0  0  0  0  0  0  0  0  0
  130.9395  138.5912  160.8383 H   0  0  0  0  0  0  0  0  0  0  0  0
  131.5612  138.0204  159.2706 H   0  0  0  0  0  0  0  0  0  0  0  0
  133.6056  138.6049  158.8603 H   0  0  0  0  0  0  0  0  0  0  0  0
  135.2073  140.4720  158.9336 H   0  0  0  0  0  0  0  0  0  0  0  0
  1  2  1  0
  2  3  1  0
  2 31  1  0
  2 32  1  0
  3 29  2  0
  3  4  1  0
  4  5  1  0
  4 25  2  0
  5 24  1  0
  5  6  1  0
  6  7  1  0
  6 33  1  0
  6 34  1  0
  7  8  1  0
  7 35  1  0
  7 36  1  0
  8  9  1  0
  8 10  1  0
  8 23  1  0
 10 11  1  0
 10 17  1  0
 10 37  1  0
 11 16  1  0
 11 12  2  0
 12 13  1  0
 12 38  1  0
 13 14  2  0
 13 39  1  0
 14 15  1  0
 14 40  1  0
 15 16  2  0
 15 41  1  0
 16 42  1  0
 17 22  1  0
 17 18  2  0
 18 19  1  0
 18 43  1  0
 19 20  2  0
 19 44  1  0
 20 21  1  0
 20 45  1  0
 21 22  2  0
 21 46  1  0
 22 47  1  0
 23 24  1  0
 23 48  1  0
 23 49  1  0
 24 50  1  0
 24 51  1  0
 25 26  1  0
 25 52  1  0
 26 27  2  0
 26 53  1  0
 27 28  1  0
 27 29  1  0
 29 30  1  0
M  CHG  1   8   1
M  END
>  <DOCK_score>  (1) 
-56.934273

>  <SMILES>  (1) 
ClCc1c(N2CC[NH+](C(c3ccccc3)c3ccccc3)CC2)ccc(Cl)c1Cl

$$$$
