Cn1nccc1C[C@@H](Nc1[nH]cc(-c2cccnc2)[nH+]1)c1cccc2c1CCC2
     RDKit          3D

 54 58  0  0  1  0  0  0  0  0999 V2000
  126.5288  135.0794  161.0794 C   0  0  0  0  0  0  0  0  0  0  0  0
  126.9127  135.5424  159.7436 N   0  0  0  0  0  0  0  0  0  0  0  0
  126.1492  135.4147  158.5760 N   0  0  0  0  0  0  0  0  0  0  0  0
  126.8241  135.9412  157.5866 C   0  0  0  0  0  0  0  0  0  0  0  0
  128.0351  136.4250  158.0924 C   0  0  0  0  0  0  0  0  0  0  0  0
  128.0630  136.1700  159.4211 C   0  0  0  0  0  0  0  0  0  0  0  0
  129.1810  136.5187  160.3694 C   0  0  0  0  0  0  0  0  0  0  0  0
  130.1808  135.3618  160.4265 C   0  0  1  0  0  0  0  0  0  0  0  0
  129.6754  134.4617  160.7760 H   0  0  0  0  0  0  0  0  0  0  0  0
  130.7308  135.1253  159.0894 N   0  0  0  0  0  0  0  0  0  0  0  0
  130.5599  133.8948  158.4785 C   0  0  0  0  0  0  0  0  0  0  0  0
  129.9089  132.8270  159.0150 N   0  0  0  0  0  0  0  0  0  0  0  0
  129.4848  132.7914  159.8867 H   0  0  0  0  0  0  0  0  0  0  0  0
  129.9609  131.8097  158.0933 C   0  0  0  0  0  0  0  0  0  0  0  0
  130.6489  132.2820  157.0244 C   0  0  0  0  0  0  0  0  0  0  0  0
  130.9593  131.5296  155.7843 C   0  0  0  0  0  0  0  0  0  0  0  0
  131.0833  132.1956  154.5614 C   0  0  0  0  0  0  0  0  0  0  0  0
  131.3797  131.4490  153.4344 C   0  0  0  0  0  0  0  0  0  0  0  0
  131.5308  130.0790  153.5510 C   0  0  0  0  0  0  0  0  0  0  0  0
  131.4026  129.4774  154.7177 N   0  0  0  0  0  0  0  0  0  0  0  0
  131.1264  130.1466  155.8183 C   0  0  0  0  0  0  0  0  0  0  0  0
  131.0034  133.5643  157.2902 N   0  0  0  0  0  0  0  0  0  0  0  0
  131.5047  134.1440  156.6956 H   0  0  0  0  0  0  0  0  0  0  0  0
  131.2988  135.7106  161.3749 C   0  0  0  0  0  0  0  0  0  0  0  0
  132.6005  135.7629  160.9153 C   0  0  0  0  0  0  0  0  0  0  0  0
  133.6267  136.0820  161.7845 C   0  0  0  0  0  0  0  0  0  0  0  0
  133.3484  136.3484  163.1112 C   0  0  0  0  0  0  0  0  0  0  0  0
  132.0445  136.2966  163.5738 C   0  0  0  0  0  0  0  0  0  0  0  0
  131.0180  135.9772  162.7042 C   0  0  0  0  0  0  0  0  0  0  0  0
  129.6983  135.9864  163.4455 C   0  0  0  0  0  0  0  0  0  0  0  0
  130.0741  135.9147  164.9407 C   0  0  0  0  0  0  0  0  0  0  0  0
  131.4854  136.5391  164.9627 C   0  0  0  0  0  0  0  0  0  0  0  0
  125.9907  135.8727  161.5983 H   0  0  0  0  0  0  0  0  0  0  0  0
  125.8866  134.2032  160.9895 H   0  0  0  0  0  0  0  0  0  0  0  0
  127.4234  134.8176  161.6442 H   0  0  0  0  0  0  0  0  0  0  0  0
  126.5022  135.9929  156.5570 H   0  0  0  0  0  0  0  0  0  0  0  0
  128.8111  136.9151  157.5230 H   0  0  0  0  0  0  0  0  0  0  0  0
  128.7719  136.6946  161.3643 H   0  0  0  0  0  0  0  0  0  0  0  0
  129.6865  137.4189  160.0199 H   0  0  0  0  0  0  0  0  0  0  0  0
  131.2146  135.8309  158.6321 H   0  0  0  0  0  0  0  0  0  0  0  0
  129.5383  130.8216  158.2010 H   0  0  0  0  0  0  0  0  0  0  0  0
  130.9551  133.2662  154.4985 H   0  0  0  0  0  0  0  0  0  0  0  0
  131.4875  131.9302  152.4736 H   0  0  0  0  0  0  0  0  0  0  0  0
  131.7577  129.4926  152.6728 H   0  0  0  0  0  0  0  0  0  0  0  0
  131.0291  129.6188  156.7555 H   0  0  0  0  0  0  0  0  0  0  0  0
  132.8163  135.5540  159.8778 H   0  0  0  0  0  0  0  0  0  0  0  0
  134.6448  136.1237  161.4268 H   0  0  0  0  0  0  0  0  0  0  0  0
  134.1508  136.5977  163.7899 H   0  0  0  0  0  0  0  0  0  0  0  0
  129.1002  135.1197  163.1638 H   0  0  0  0  0  0  0  0  0  0  0  0
  129.1533  136.9070  163.2361 H   0  0  0  0  0  0  0  0  0  0  0  0
  129.3811  136.5021  165.5430 H   0  0  0  0  0  0  0  0  0  0  0  0
  130.1026  134.8806  165.2839 H   0  0  0  0  0  0  0  0  0  0  0  0
  131.4227  137.6087  165.1628 H   0  0  0  0  0  0  0  0  0  0  0  0
  132.1043  136.0486  165.7142 H   0  0  0  0  0  0  0  0  0  0  0  0
  1  2  1  0
  1 33  1  0
  1 34  1  0
  1 35  1  0
  2  6  1  0
  2  3  1  0
  3  4  2  0
  4  5  1  0
  4 36  1  0
  5  6  2  0
  5 37  1  0
  6  7  1  0
  7  8  1  0
  7 38  1  0
  7 39  1  0
  8  9  1  1
  8 10  1  0
  8 24  1  0
 10 40  1  0
 11 10  1  0
 11 22  2  0
 11 12  1  0
 12 13  1  0
 12 14  1  0
 14 15  2  0
 14 41  1  0
 15 16  1  0
 15 22  1  0
 16 21  1  0
 16 17  2  0
 17 18  1  0
 17 42  1  0
 18 19  2  0
 18 43  1  0
 19 20  1  0
 19 44  1  0
 20 21  2  0
 21 45  1  0
 22 23  1  0
 24 29  1  0
 24 25  2  0
 25 26  1  0
 25 46  1  0
 26 27  2  0
 26 47  1  0
 27 28  1  0
 27 48  1  0
 28 32  1  0
 28 29  2  0
 29 30  1  0
 30 31  1  0
 30 49  1  0
 30 50  1  0
 31 32  1  0
 31 51  1  0
 31 52  1  0
 32 53  1  0
 32 54  1  0
M  CHG  1  22   1
M  END
>  <DOCK_score>  (1) 
-57.917412

>  <SMILES>  (1) 
Cn1nccc1C[C@@H](Nc1[nH]cc(-c2cccnc2)[nH+]1)c1cccc2c1CCC2

$$$$
