CCc1ccc(C[C@H](Nc2[nH]cc(-c3ccc(CC)cc3)[nH+]2)c2ccc(CC)cc2)cc1
     RDKit          3D

 66 69  0  0  1  0  0  0  0  0999 V2000
  136.7486  140.1715  162.1776 C   0  0  0  0  0  0  0  0  0  0  0  0
  136.5312  138.6825  161.9015 C   0  0  0  0  0  0  0  0  0  0  0  0
  135.0539  138.3987  161.8117 C   0  0  0  0  0  0  0  0  0  0  0  0
  134.4068  138.4825  160.5931 C   0  0  0  0  0  0  0  0  0  0  0  0
  133.0516  138.2226  160.5108 C   0  0  0  0  0  0  0  0  0  0  0  0
  132.3435  137.8790  161.6472 C   0  0  0  0  0  0  0  0  0  0  0  0
  130.8659  137.5963  161.5576 C   0  0  0  0  0  0  0  0  0  0  0  0
  130.6473  136.1061  161.2883 C   0  0  2  0  0  0  0  0  0  0  0  0
  131.3569  135.5228  161.8753 H   0  0  0  0  0  0  0  0  0  0  0  0
  130.8507  135.8323  159.8636 N   0  0  0  0  0  0  0  0  0  0  0  0
  130.7062  134.5437  159.3789 C   0  0  0  0  0  0  0  0  0  0  0  0
  130.3843  133.4490  160.1208 N   0  0  0  0  0  0  0  0  0  0  0  0
  130.2165  133.4315  161.0760 H   0  0  0  0  0  0  0  0  0  0  0  0
  130.3406  132.3737  159.2671 C   0  0  0  0  0  0  0  0  0  0  0  0
  130.6367  132.8415  158.0293 C   0  0  0  0  0  0  0  0  0  0  0  0
  130.7084  132.0361  156.7857 C   0  0  0  0  0  0  0  0  0  0  0  0
  130.4028  132.6183  155.5568 C   0  0  0  0  0  0  0  0  0  0  0  0
  130.4715  131.8644  154.4029 C   0  0  0  0  0  0  0  0  0  0  0  0
  130.8426  130.5328  154.4647 C   0  0  0  0  0  0  0  0  0  0  0  0
  130.9155  129.7146  153.2013 C   0  0  0  0  0  0  0  0  0  0  0  0
  132.3243  129.8102  152.6122 C   0  0  0  0  0  0  0  0  0  0  0  0
  131.1415  129.9486  155.6821 C   0  0  0  0  0  0  0  0  0  0  0  0
  131.0820  130.6946  156.8417 C   0  0  0  0  0  0  0  0  0  0  0  0
  130.8615  134.1757  158.1305 N   0  0  0  0  0  0  0  0  0  0  0  0
  131.0970  134.7637  157.3958 H   0  0  0  0  0  0  0  0  0  0  0  0
  129.2419  135.7263  161.6773 C   0  0  0  0  0  0  0  0  0  0  0  0
  128.1653  136.3381  161.0626 C   0  0  0  0  0  0  0  0  0  0  0  0
  126.8760  135.9868  161.4168 C   0  0  0  0  0  0  0  0  0  0  0  0
  126.6632  135.0301  162.3910 C   0  0  0  0  0  0  0  0  0  0  0  0
  125.2575  134.6507  162.7801 C   0  0  0  0  0  0  0  0  0  0  0  0
  124.7840  135.5515  163.9228 C   0  0  0  0  0  0  0  0  0  0  0  0
  127.7398  134.4215  163.0093 C   0  0  0  0  0  0  0  0  0  0  0  0
  129.0291  134.7700  162.6526 C   0  0  0  0  0  0  0  0  0  0  0  0
  132.9895  137.8004  162.8669 C   0  0  0  0  0  0  0  0  0  0  0  0
  134.3458  138.0551  162.9481 C   0  0  0  0  0  0  0  0  0  0  0  0
  136.3146  140.7583  161.3681 H   0  0  0  0  0  0  0  0  0  0  0  0
  136.2692  140.4403  163.1189 H   0  0  0  0  0  0  0  0  0  0  0  0
  137.8173  140.3768  162.2426 H   0  0  0  0  0  0  0  0  0  0  0  0
  136.9653  138.0956  162.7110 H   0  0  0  0  0  0  0  0  0  0  0  0
  137.0106  138.4137  160.9602 H   0  0  0  0  0  0  0  0  0  0  0  0
  134.9599  138.7512  159.7053 H   0  0  0  0  0  0  0  0  0  0  0  0
  132.5459  138.2884  159.5588 H   0  0  0  0  0  0  0  0  0  0  0  0
  130.4330  138.1796  160.7451 H   0  0  0  0  0  0  0  0  0  0  0  0
  130.3860  137.8698  162.4973 H   0  0  0  0  0  0  0  0  0  0  0  0
  131.0866  136.5540  159.2599 H   0  0  0  0  0  0  0  0  0  0  0  0
  130.1137  131.3514  159.5313 H   0  0  0  0  0  0  0  0  0  0  0  0
  130.1124  133.6574  155.5075 H   0  0  0  0  0  0  0  0  0  0  0  0
  130.2350  132.3144  153.4501 H   0  0  0  0  0  0  0  0  0  0  0  0
  130.1932  130.0963  152.4791 H   0  0  0  0  0  0  0  0  0  0  0  0
  130.6863  128.6739  153.4287 H   0  0  0  0  0  0  0  0  0  0  0  0
  132.5533  130.8513  152.3845 H   0  0  0  0  0  0  0  0  0  0  0  0
  133.0463  129.4289  153.3341 H   0  0  0  0  0  0  0  0  0  0  0  0
  132.3769  129.2184  151.6983 H   0  0  0  0  0  0  0  0  0  0  0  0
  131.4259  128.9077  155.7248 H   0  0  0  0  0  0  0  0  0  0  0  0
  131.3202  130.2385  157.7912 H   0  0  0  0  0  0  0  0  0  0  0  0
  128.3315  137.0884  160.3039 H   0  0  0  0  0  0  0  0  0  0  0  0
  126.0350  136.4624  160.9342 H   0  0  0  0  0  0  0  0  0  0  0  0
  124.5973  134.7739  161.9224 H   0  0  0  0  0  0  0  0  0  0  0  0
  125.2392  133.6104  163.1066 H   0  0  0  0  0  0  0  0  0  0  0  0
  125.4445  135.4279  164.7810 H   0  0  0  0  0  0  0  0  0  0  0  0
  124.8024  136.5914  163.5967 H   0  0  0  0  0  0  0  0  0  0  0  0
  123.7674  135.2769  164.2043 H   0  0  0  0  0  0  0  0  0  0  0  0
  127.5735  133.6741  163.7711 H   0  0  0  0  0  0  0  0  0  0  0  0
  129.8702  134.2949  163.1356 H   0  0  0  0  0  0  0  0  0  0  0  0
  132.4354  137.5362  163.7553 H   0  0  0  0  0  0  0  0  0  0  0  0
  134.8512  137.9901  163.9004 H   0  0  0  0  0  0  0  0  0  0  0  0
  1  2  1  0
  1 36  1  0
  1 37  1  0
  1 38  1  0
  2  3  1  0
  2 39  1  0
  2 40  1  0
  3 35  2  0
  3  4  1  0
  4  5  2  0
  4 41  1  0
  5  6  1  0
  5 42  1  0
  6  7  1  0
  6 34  2  0
  7  8  1  0
  7 43  1  0
  7 44  1  0
  8  9  1  1
  8 10  1  0
  8 26  1  0
 10 45  1  0
 11 10  1  0
 11 24  2  0
 11 12  1  0
 12 13  1  0
 12 14  1  0
 14 15  2  0
 14 46  1  0
 15 16  1  0
 15 24  1  0
 16 23  1  0
 16 17  2  0
 17 18  1  0
 17 47  1  0
 18 19  2  0
 18 48  1  0
 19 20  1  0
 19 22  1  0
 20 21  1  0
 20 49  1  0
 20 50  1  0
 21 51  1  0
 21 52  1  0
 21 53  1  0
 22 23  2  0
 22 54  1  0
 23 55  1  0
 24 25  1  0
 26 33  1  0
 26 27  2  0
 27 28  1  0
 27 56  1  0
 28 29  2  0
 28 57  1  0
 29 30  1  0
 29 32  1  0
 30 31  1  0
 30 58  1  0
 30 59  1  0
 31 60  1  0
 31 61  1  0
 31 62  1  0
 32 33  2  0
 32 63  1  0
 33 64  1  0
 34 35  1  0
 34 65  1  0
 35 66  1  0
M  CHG  1  24   1
M  END
>  <DOCK_score>  (1) 
-55.912193

>  <SMILES>  (1) 
CCc1ccc(C[C@H](Nc2[nH]cc(-c3ccc(CC)cc3)[nH+]2)c2ccc(CC)cc2)cc1

$$$$
