Cc1cc(CC[NH+]=C(NC2CCCCC2)NC2C[C@@H](O)C2(C)C)no1
     RDKit          3D

 58 60  0  0  1  0  0  0  0  0999 V2000
  132.0600  139.4283  165.4001 C   0  0  0  0  0  0  0  0  0  0  0  0
  131.8481  138.7803  164.0560 C   0  0  0  0  0  0  0  0  0  0  0  0
  131.3954  137.5250  163.8233 C   0  0  0  0  0  0  0  0  0  0  0  0
  131.3835  137.4221  162.4133 C   0  0  0  0  0  0  0  0  0  0  0  0
  130.9629  136.2258  161.5991 C   0  0  0  0  0  0  0  0  0  0  0  0
  130.3979  136.6954  160.2571 C   0  0  0  0  0  0  0  0  0  0  0  0
  129.9889  135.5325  159.4656 N   0  0  0  0  0  0  0  0  0  0  0  0
  130.3958  135.3671  158.6006 H   0  0  0  0  0  0  0  0  0  0  0  0
  129.0784  134.7200  159.9235 C   0  0  0  0  0  0  0  0  0  0  0  0
  129.1049  133.3906  159.5742 N   0  0  0  0  0  0  0  0  0  0  0  0
  130.1566  132.8871  158.6873 C   0  0  0  0  0  0  0  0  0  0  0  0
  129.6929  132.9961  157.2332 C   0  0  0  0  0  0  0  0  0  0  0  0
  130.7914  132.4704  156.3069 C   0  0  0  0  0  0  0  0  0  0  0  0
  131.0825  131.0059  156.6409 C   0  0  0  0  0  0  0  0  0  0  0  0
  131.5460  130.8969  158.0949 C   0  0  0  0  0  0  0  0  0  0  0  0
  130.4477  131.4226  159.0213 C   0  0  0  0  0  0  0  0  0  0  0  0
  128.0914  135.1925  160.7558 N   0  0  0  0  0  0  0  0  0  0  0  0
  127.0680  134.2793  161.2706 C   0  0  1  0  0  0  0  0  0  0  0  0
  126.1505  134.9155  162.3282 C   0  0  0  0  0  0  0  0  0  0  0  0
  124.9885  134.1622  161.6595 C   0  0  1  0  0  0  0  0  0  0  0  0
  124.8254  133.1633  162.0641 H   0  0  0  0  0  0  0  0  0  0  0  0
  123.7856  134.9282  161.5705 O   0  0  0  0  0  0  0  0  0  0  0  0
  125.8272  134.1731  160.3684 C   0  0  0  0  0  0  0  0  0  0  0  0
  125.5952  135.4094  159.4974 C   0  0  0  0  0  0  0  0  0  0  0  0
  125.7545  132.8653  159.5777 C   0  0  0  0  0  0  0  0  0  0  0  0
  131.8133  138.5633  161.9579 N   0  0  0  0  0  0  0  0  0  0  0  0
  132.0708  139.3321  162.8550 O   0  0  0  0  0  0  0  0  0  0  0  0
  133.0766  139.2332  165.7413 H   0  0  0  0  0  0  0  0  0  0  0  0
  131.9061  140.5039  165.3130 H   0  0  0  0  0  0  0  0  0  0  0  0
  131.3504  139.0166  166.1179 H   0  0  0  0  0  0  0  0  0  0  0  0
  131.1102  136.7761  164.5473 H   0  0  0  0  0  0  0  0  0  0  0  0
  130.1981  135.6686  162.1404 H   0  0  0  0  0  0  0  0  0  0  0  0
  131.8259  135.5830  161.4251 H   0  0  0  0  0  0  0  0  0  0  0  0
  131.1627  137.2526  159.7159 H   0  0  0  0  0  0  0  0  0  0  0  0
  129.5348  137.3381  160.4311 H   0  0  0  0  0  0  0  0  0  0  0  0
  128.4273  132.7859  159.9150 H   0  0  0  0  0  0  0  0  0  0  0  0
  131.0620  133.4781  158.8252 H   0  0  0  0  0  0  0  0  0  0  0  0
  129.4856  134.0394  156.9952 H   0  0  0  0  0  0  0  0  0  0  0  0
  128.7876  132.4050  157.0953 H   0  0  0  0  0  0  0  0  0  0  0  0
  130.4611  132.5480  155.2711 H   0  0  0  0  0  0  0  0  0  0  0  0
  131.6968  133.0614  156.4449 H   0  0  0  0  0  0  0  0  0  0  0  0
  130.1770  130.4149  156.5030 H   0  0  0  0  0  0  0  0  0  0  0  0
  131.8649  130.6314  155.9810 H   0  0  0  0  0  0  0  0  0  0  0  0
  131.7534  129.8536  158.3329 H   0  0  0  0  0  0  0  0  0  0  0  0
  132.4515  131.4879  158.2328 H   0  0  0  0  0  0  0  0  0  0  0  0
  129.5423  130.8316  158.8833 H   0  0  0  0  0  0  0  0  0  0  0  0
  130.7780  131.3449  160.0571 H   0  0  0  0  0  0  0  0  0  0  0  0
  128.0727  136.1304  161.0023 H   0  0  0  0  0  0  0  0  0  0  0  0
  127.4745  133.3131  161.5697 H   0  0  0  0  0  0  0  0  0  0  0  0
  126.3594  134.5824  163.3448 H   0  0  0  0  0  0  0  0  0  0  0  0
  126.0738  135.9996  162.2444 H   0  0  0  0  0  0  0  0  0  0  0  0
  123.9263  135.8555  161.3347 H   0  0  0  0  0  0  0  0  0  0  0  0
  126.4572  135.5633  158.8481 H   0  0  0  0  0  0  0  0  0  0  0  0
  124.7032  135.2624  158.8882 H   0  0  0  0  0  0  0  0  0  0  0  0
  125.4598  136.2830  160.1350 H   0  0  0  0  0  0  0  0  0  0  0  0
  125.7266  132.0235  160.2697 H   0  0  0  0  0  0  0  0  0  0  0  0
  124.8536  132.8613  158.9642 H   0  0  0  0  0  0  0  0  0  0  0  0
  126.6315  132.7794  158.9362 H   0  0  0  0  0  0  0  0  0  0  0  0
  1  2  1  0
  1 28  1  0
  1 29  1  0
  1 30  1  0
  2 27  1  0
  2  3  2  0
  3  4  1  0
  3 31  1  0
  4  5  1  0
  4 26  2  0
  5  6  1  0
  5 32  1  0
  5 33  1  0
  6  7  1  0
  6 34  1  0
  6 35  1  0
  7  8  1  0
  9  7  2  0
  9 10  1  0
  9 17  1  0
 10 11  1  0
 10 36  1  0
 11 16  1  0
 11 12  1  0
 11 37  1  0
 12 13  1  0
 12 38  1  0
 12 39  1  0
 13 14  1  0
 13 40  1  0
 13 41  1  0
 14 15  1  0
 14 42  1  0
 14 43  1  0
 15 16  1  0
 15 44  1  0
 15 45  1  0
 16 46  1  0
 16 47  1  0
 17 18  1  0
 17 48  1  0
 18 23  1  0
 18 19  1  0
 18 49  1  1
 19 20  1  0
 19 50  1  0
 19 51  1  0
 20 21  1  1
 20 22  1  0
 20 23  1  0
 22 52  1  0
 23 24  1  0
 23 25  1  0
 24 53  1  0
 24 54  1  0
 24 55  1  0
 25 56  1  0
 25 57  1  0
 25 58  1  0
 26 27  1  0
M  CHG  1   7   1
M  END
>  <DOCK_score>  (1) 
-41.253635

>  <SMILES>  (1) 
Cc1cc(CC[NH+]=C(NC2CCCCC2)NC2C[C@@H](O)C2(C)C)no1

$$$$
