C[C@H](O)C[NH+](C)C1c2cc(O)ccc2-c2ccc(O)cc21
     RDKit          3D

 41 43  0  0  1  0  0  0  0  0999 V2000
  129.7686  138.1624  160.6886 C   0  0  0  0  0  0  0  0  0  0  0  0
  130.6830  136.9359  160.6665 C   0  0  2  0  0  0  0  0  0  0  0  0
  130.7136  136.4876  161.6595 H   0  0  0  0  0  0  0  0  0  0  0  0
  132.0012  137.3315  160.2817 O   0  0  0  0  0  0  0  0  0  0  0  0
  130.1434  135.9153  159.6624 C   0  0  0  0  0  0  0  0  0  0  0  0
  129.0411  135.1618  160.2748 N   0  0  2  0  0  0  0  0  0  0  0  0
  128.4694  135.7873  160.8224 H   0  0  0  0  0  0  0  0  0  0  0  0
  129.5893  134.1119  161.1439 C   0  0  0  0  0  0  0  0  0  0  0  0
  128.2232  134.5470  159.2207 C   0  0  0  0  0  0  0  0  0  0  0  0
  126.8874  134.1227  159.7805 C   0  0  0  0  0  0  0  0  0  0  0  0
  125.8613  134.8344  160.3630 C   0  0  0  0  0  0  0  0  0  0  0  0
  124.7205  134.1752  160.8011 C   0  0  0  0  0  0  0  0  0  0  0  0
  123.7105  134.8761  161.3799 O   0  0  0  0  0  0  0  0  0  0  0  0
  124.6097  132.8002  160.6423 C   0  0  0  0  0  0  0  0  0  0  0  0
  125.6316  132.0857  160.0554 C   0  0  0  0  0  0  0  0  0  0  0  0
  126.7834  132.7437  159.6179 C   0  0  0  0  0  0  0  0  0  0  0  0
  128.0123  132.2292  158.9643 C   0  0  0  0  0  0  0  0  0  0  0  0
  128.3817  130.9342  158.5932 C   0  0  0  0  0  0  0  0  0  0  0  0
  129.6003  130.7108  157.9895 C   0  0  0  0  0  0  0  0  0  0  0  0
  130.4643  131.7703  157.7471 C   0  0  0  0  0  0  0  0  0  0  0  0
  131.6645  131.5457  157.1508 O   0  0  0  0  0  0  0  0  0  0  0  0
  130.1014  133.0593  158.1139 C   0  0  0  0  0  0  0  0  0  0  0  0
  128.8842  133.2867  158.7185 C   0  0  0  0  0  0  0  0  0  0  0  0
  128.7632  137.8606  160.9821 H   0  0  0  0  0  0  0  0  0  0  0  0
  130.1532  138.8894  161.4039 H   0  0  0  0  0  0  0  0  0  0  0  0
  129.7381  138.6108  159.6957 H   0  0  0  0  0  0  0  0  0  0  0  0
  132.0497  137.7393  159.4063 H   0  0  0  0  0  0  0  0  0  0  0  0
  130.9403  135.2278  159.3792 H   0  0  0  0  0  0  0  0  0  0  0  0
  129.7798  136.4351  158.7760 H   0  0  0  0  0  0  0  0  0  0  0  0
  130.1123  134.5711  161.9828 H   0  0  0  0  0  0  0  0  0  0  0  0
  128.7767  133.4897  161.5190 H   0  0  0  0  0  0  0  0  0  0  0  0
  130.2855  133.4959  160.5749 H   0  0  0  0  0  0  0  0  0  0  0  0
  128.0799  135.2497  158.3997 H   0  0  0  0  0  0  0  0  0  0  0  0
  125.9459  135.9045  160.4823 H   0  0  0  0  0  0  0  0  0  0  0  0
  123.8769  135.8266  161.4428 H   0  0  0  0  0  0  0  0  0  0  0  0
  123.7200  132.2894  160.9795 H   0  0  0  0  0  0  0  0  0  0  0  0
  125.5416  131.0163  159.9334 H   0  0  0  0  0  0  0  0  0  0  0  0
  127.7123  130.1076  158.7798 H   0  0  0  0  0  0  0  0  0  0  0  0
  129.8839  129.7088  157.7038 H   0  0  0  0  0  0  0  0  0  0  0  0
  132.1960  132.3436  157.0240 H   0  0  0  0  0  0  0  0  0  0  0  0
  130.7732  133.8837  157.9256 H   0  0  0  0  0  0  0  0  0  0  0  0
  1  2  1  0
  1 24  1  0
  1 25  1  0
  1 26  1  0
  2  3  1  1
  2  4  1  0
  2  5  1  0
  4 27  1  0
  5  6  1  0
  5 28  1  0
  5 29  1  0
  6  7  1  1
  6  8  1  0
  6  9  1  0
  8 30  1  0
  8 31  1  0
  8 32  1  0
  9 23  1  0
  9 10  1  0
  9 33  1  0
 10 16  2  0
 10 11  1  0
 11 12  2  0
 11 34  1  0
 12 13  1  0
 12 14  1  0
 13 35  1  0
 14 15  2  0
 14 36  1  0
 15 16  1  0
 15 37  1  0
 16 17  1  0
 17 23  2  0
 17 18  1  0
 18 19  2  0
 18 38  1  0
 19 20  1  0
 19 39  1  0
 20 21  1  0
 20 22  2  0
 21 40  1  0
 22 23  1  0
 22 41  1  0
M  CHG  1   6   1
M  END
>  <DOCK_score>  (1) 
-40.916702

>  <SMILES>  (1) 
C[C@H](O)C[NH+](C)C1c2cc(O)ccc2-c2ccc(O)cc21

$$$$
