Cc1ccc(-n2cc(C[NH2+]Cc3cn(-c4ccccc4)nc3-c3ccccc3)c(C)n2)cc1
     RDKit          3D

 61 65  0  0  0  0  0  0  0  0999 V2000
  131.7797  129.6007  152.9943 C   0  0  0  0  0  0  0  0  0  0  0  0
  131.3401  130.4471  154.1612 C   0  0  0  0  0  0  0  0  0  0  0  0
  131.6423  130.0531  155.4517 C   0  0  0  0  0  0  0  0  0  0  0  0
  131.2411  130.8267  156.5232 C   0  0  0  0  0  0  0  0  0  0  0  0
  130.5337  132.0010  156.3036 C   0  0  0  0  0  0  0  0  0  0  0  0
  130.1253  132.7884  157.3892 N   0  0  0  0  0  0  0  0  0  0  0  0
  129.9646  134.1310  157.3826 C   0  0  0  0  0  0  0  0  0  0  0  0
  129.5618  134.5035  158.6196 C   0  0  0  0  0  0  0  0  0  0  0  0
  129.2623  135.9107  159.0682 C   0  0  0  0  0  0  0  0  0  0  0  0
  130.4865  136.5274  159.5962 N   0  0  0  0  0  0  0  0  0  0  0  0
  131.1913  136.5473  158.8745 H   0  0  0  0  0  0  0  0  0  0  0  0
  130.8232  135.9889  160.3804 H   0  0  0  0  0  0  0  0  0  0  0  0
  130.1945  137.8991  160.0334 C   0  0  0  0  0  0  0  0  0  0  0  0
  131.4503  138.5318  160.5751 C   0  0  0  0  0  0  0  0  0  0  0  0
  132.6747  138.4815  160.0067 C   0  0  0  0  0  0  0  0  0  0  0  0
  133.5328  139.1700  160.8039 N   0  0  0  0  0  0  0  0  0  0  0  0
  134.9021  139.3561  160.5726 C   0  0  0  0  0  0  0  0  0  0  0  0
  135.7748  139.5024  161.6427 C   0  0  0  0  0  0  0  0  0  0  0  0
  137.1233  139.6909  161.4114 C   0  0  0  0  0  0  0  0  0  0  0  0
  137.6045  139.7350  160.1156 C   0  0  0  0  0  0  0  0  0  0  0  0
  136.7379  139.5896  159.0479 C   0  0  0  0  0  0  0  0  0  0  0  0
  135.3884  139.4003  159.2728 C   0  0  0  0  0  0  0  0  0  0  0  0
  132.8072  139.6664  161.8944 N   0  0  0  0  0  0  0  0  0  0  0  0
  131.5542  139.2851  161.7610 C   0  0  0  0  0  0  0  0  0  0  0  0
  130.4448  139.5946  162.6966 C   0  0  0  0  0  0  0  0  0  0  0  0
  130.0992  140.9190  162.9577 C   0  0  0  0  0  0  0  0  0  0  0  0
  129.0627  141.2011  163.8243 C   0  0  0  0  0  0  0  0  0  0  0  0
  128.3750  140.1721  164.4422 C   0  0  0  0  0  0  0  0  0  0  0  0
  128.7176  138.8557  164.1910 C   0  0  0  0  0  0  0  0  0  0  0  0
  129.7486  138.5621  163.3218 C   0  0  0  0  0  0  0  0  0  0  0  0
  129.4784  133.3522  159.4104 C   0  0  0  0  0  0  0  0  0  0  0  0
  129.0723  133.3045  160.8608 C   0  0  0  0  0  0  0  0  0  0  0  0
  129.8104  132.3234  158.6726 N   0  0  0  0  0  0  0  0  0  0  0  0
  130.2267  132.3910  155.0070 C   0  0  0  0  0  0  0  0  0  0  0  0
  130.6355  131.6161  153.9392 C   0  0  0  0  0  0  0  0  0  0  0  0
  131.0025  128.8734  152.7597 H   0  0  0  0  0  0  0  0  0  0  0  0
  131.9530  130.2392  152.1276 H   0  0  0  0  0  0  0  0  0  0  0  0
  132.7011  129.0784  153.2508 H   0  0  0  0  0  0  0  0  0  0  0  0
  132.1923  129.1394  155.6219 H   0  0  0  0  0  0  0  0  0  0  0  0
  131.4772  130.5183  157.5309 H   0  0  0  0  0  0  0  0  0  0  0  0
  130.1284  134.7881  156.5412 H   0  0  0  0  0  0  0  0  0  0  0  0
  128.5008  135.8892  159.8478 H   0  0  0  0  0  0  0  0  0  0  0  0
  128.8986  136.4923  158.2210 H   0  0  0  0  0  0  0  0  0  0  0  0
  129.4330  137.8775  160.8131 H   0  0  0  0  0  0  0  0  0  0  0  0
  129.8308  138.4808  159.1864 H   0  0  0  0  0  0  0  0  0  0  0  0
  132.9272  137.9809  159.0835 H   0  0  0  0  0  0  0  0  0  0  0  0
  135.3996  139.4688  162.6548 H   0  0  0  0  0  0  0  0  0  0  0  0
  137.8027  139.8041  162.2433 H   0  0  0  0  0  0  0  0  0  0  0  0
  138.6593  139.8829  159.9373 H   0  0  0  0  0  0  0  0  0  0  0  0
  137.1167  139.6238  158.0372 H   0  0  0  0  0  0  0  0  0  0  0  0
  134.7122  139.2865  158.4384 H   0  0  0  0  0  0  0  0  0  0  0  0
  130.6386  141.7232  162.4795 H   0  0  0  0  0  0  0  0  0  0  0  0
  128.7908  142.2269  164.0237 H   0  0  0  0  0  0  0  0  0  0  0  0
  127.5679  140.3978  165.1234 H   0  0  0  0  0  0  0  0  0  0  0  0
  128.1771  138.0562  164.6759 H   0  0  0  0  0  0  0  0  0  0  0  0
  130.0151  137.5339  163.1262 H   0  0  0  0  0  0  0  0  0  0  0  0
  127.9926  133.1725  160.9317 H   0  0  0  0  0  0  0  0  0  0  0  0
  129.5732  132.4698  161.3512 H   0  0  0  0  0  0  0  0  0  0  0  0
  129.3571  134.2366  161.3488 H   0  0  0  0  0  0  0  0  0  0  0  0
  129.6727  133.3017  154.8333 H   0  0  0  0  0  0  0  0  0  0  0  0
  130.4009  131.9213  152.9301 H   0  0  0  0  0  0  0  0  0  0  0  0
  1  2  1  0
  1 36  1  0
  1 37  1  0
  1 38  1  0
  2 35  2  0
  2  3  1  0
  3  4  2  0
  3 39  1  0
  4  5  1  0
  4 40  1  0
  5  6  1  0
  5 34  2  0
  6 33  1  0
  6  7  1  0
  7  8  2  0
  7 41  1  0
  8  9  1  0
  8 31  1  0
  9 10  1  0
  9 42  1  0
  9 43  1  0
 10 11  1  0
 10 12  1  0
 10 13  1  0
 13 14  1  0
 13 44  1  0
 13 45  1  0
 14 24  1  0
 14 15  2  0
 15 16  1  0
 15 46  1  0
 16 17  1  0
 16 23  1  0
 17 22  1  0
 17 18  2  0
 18 19  1  0
 18 47  1  0
 19 20  2  0
 19 48  1  0
 20 21  1  0
 20 49  1  0
 21 22  2  0
 21 50  1  0
 22 51  1  0
 23 24  2  0
 24 25  1  0
 25 30  1  0
 25 26  2  0
 26 27  1  0
 26 52  1  0
 27 28  2  0
 27 53  1  0
 28 29  1  0
 28 54  1  0
 29 30  2  0
 29 55  1  0
 30 56  1  0
 31 32  1  0
 31 33  2  0
 32 57  1  0
 32 58  1  0
 32 59  1  0
 34 35  1  0
 34 60  1  0
 35 61  1  0
M  CHG  1  10   1
M  END
>  <DOCK_score>  (1) 
-58.545761

>  <SMILES>  (1) 
Cc1ccc(-n2cc(C[NH2+]Cc3cn(-c4ccccc4)nc3-c3ccccc3)c(C)n2)cc1

$$$$
