CC1(CNC2c3cc(O)ccc3-c3ccc(O)cc32)C[C@H]1[NH2+][C@@H]1C[C@H]1c1ccccc1
     RDKit          3D

 60 65  0  0  1  0  0  0  0  0999 V2000
  128.5563  133.4765  163.3045 C   0  0  0  0  0  0  0  0  0  0  0  0
  128.1140  133.5929  161.8444 C   0  0  2  0  0  0  0  0  0  0  0  0
  127.7100  134.9960  161.3874 C   0  0  0  0  0  0  0  0  0  0  0  0
  128.8483  135.9104  161.5490 N   0  0  0  0  0  0  0  0  0  0  0  0
  128.4965  137.2703  161.1189 C   0  0  0  0  0  0  0  0  0  0  0  0
  127.7933  138.0027  162.2355 C   0  0  0  0  0  0  0  0  0  0  0  0
  126.6185  137.7508  162.9101 C   0  0  0  0  0  0  0  0  0  0  0  0
  126.1983  138.6095  163.9171 C   0  0  0  0  0  0  0  0  0  0  0  0
  125.0396  138.3616  164.5822 O   0  0  0  0  0  0  0  0  0  0  0  0
  126.9628  139.7213  164.2446 C   0  0  0  0  0  0  0  0  0  0  0  0
  128.1382  139.9768  163.5720 C   0  0  0  0  0  0  0  0  0  0  0  0
  128.5648  139.1162  162.5580 C   0  0  0  0  0  0  0  0  0  0  0  0
  129.7671  139.1526  161.6890 C   0  0  0  0  0  0  0  0  0  0  0  0
  130.8288  140.0583  161.6274 C   0  0  0  0  0  0  0  0  0  0  0  0
  131.8449  139.8690  160.7160 C   0  0  0  0  0  0  0  0  0  0  0  0
  131.8180  138.7791  159.8562 C   0  0  0  0  0  0  0  0  0  0  0  0
  132.8219  138.5965  158.9588 O   0  0  0  0  0  0  0  0  0  0  0  0
  130.7649  137.8761  159.9136 C   0  0  0  0  0  0  0  0  0  0  0  0
  129.7468  138.0619  160.8236 C   0  0  0  0  0  0  0  0  0  0  0  0
  127.3598  132.4078  161.2380 C   0  0  0  0  0  0  0  0  0  0  0  0
  128.8053  132.6885  160.8222 C   0  0  1  0  0  0  0  0  0  0  0  0
  129.5755  132.0103  161.1897 H   0  0  0  0  0  0  0  0  0  0  0  0
  129.0303  133.2339  159.4769 N   0  0  0  0  0  0  0  0  0  0  0  0
  128.1443  133.4784  159.0605 H   0  0  0  0  0  0  0  0  0  0  0  0
  129.6107  134.0569  159.5402 H   0  0  0  0  0  0  0  0  0  0  0  0
  129.7002  132.2250  158.6453 C   0  0  2  0  0  0  0  0  0  0  0  0
  129.1560  131.2903  158.5104 H   0  0  0  0  0  0  0  0  0  0  0  0
  131.2267  132.1496  158.7185 C   0  0  0  0  0  0  0  0  0  0  0  0
  130.5473  132.7249  157.4732 C   0  0  1  0  0  0  0  0  0  0  0  0
  130.6073  133.8022  157.3191 H   0  0  0  0  0  0  0  0  0  0  0  0
  130.5657  131.8869  156.2209 C   0  0  0  0  0  0  0  0  0  0  0  0
  131.5190  130.8980  156.0649 C   0  0  0  0  0  0  0  0  0  0  0  0
  131.5334  130.1267  154.9178 C   0  0  0  0  0  0  0  0  0  0  0  0
  130.5993  130.3498  153.9232 C   0  0  0  0  0  0  0  0  0  0  0  0
  129.6497  131.3420  154.0768 C   0  0  0  0  0  0  0  0  0  0  0  0
  129.6329  132.1107  155.2257 C   0  0  0  0  0  0  0  0  0  0  0  0
  127.9815  134.1730  163.9149 H   0  0  0  0  0  0  0  0  0  0  0  0
  128.3852  132.4588  163.6558 H   0  0  0  0  0  0  0  0  0  0  0  0
  129.6170  133.7144  163.3830 H   0  0  0  0  0  0  0  0  0  0  0  0
  126.8730  135.3478  161.9906 H   0  0  0  0  0  0  0  0  0  0  0  0
  127.4145  134.9656  160.3386 H   0  0  0  0  0  0  0  0  0  0  0  0
  129.1824  135.9073  162.5011 H   0  0  0  0  0  0  0  0  0  0  0  0
  127.8591  137.2319  160.2354 H   0  0  0  0  0  0  0  0  0  0  0  0
  126.0220  136.8880  162.6525 H   0  0  0  0  0  0  0  0  0  0  0  0
  124.8305  139.0138  165.2648 H   0  0  0  0  0  0  0  0  0  0  0  0
  126.6350  140.3881  165.0283 H   0  0  0  0  0  0  0  0  0  0  0  0
  128.7296  140.8433  163.8290 H   0  0  0  0  0  0  0  0  0  0  0  0
  130.8531  140.9074  162.2943 H   0  0  0  0  0  0  0  0  0  0  0  0
  132.6650  140.5704  160.6706 H   0  0  0  0  0  0  0  0  0  0  0  0
  132.7157  137.8113  158.4043 H   0  0  0  0  0  0  0  0  0  0  0  0
  130.7438  137.0280  159.2453 H   0  0  0  0  0  0  0  0  0  0  0  0
  127.1791  131.5450  161.8791 H   0  0  0  0  0  0  0  0  0  0  0  0
  126.5757  132.6278  160.5136 H   0  0  0  0  0  0  0  0  0  0  0  0
  131.7337  132.8486  159.3837 H   0  0  0  0  0  0  0  0  0  0  0  0
  131.6866  131.1653  158.6318 H   0  0  0  0  0  0  0  0  0  0  0  0
  132.2505  130.7259  156.8405 H   0  0  0  0  0  0  0  0  0  0  0  0
  132.2759  129.3517  154.7976 H   0  0  0  0  0  0  0  0  0  0  0  0
  130.6125  129.7488  153.0258 H   0  0  0  0  0  0  0  0  0  0  0  0
  128.9204  131.5166  153.2996 H   0  0  0  0  0  0  0  0  0  0  0  0
  128.8906  132.8861  155.3457 H   0  0  0  0  0  0  0  0  0  0  0  0
  1 37  1  0
  1 38  1  0
  1 39  1  0
  2  1  1  1
  2 21  1  0
  2  3  1  0
  2 20  1  0
  3  4  1  0
  3 40  1  0
  3 41  1  0
  4  5  1  0
  4 42  1  0
  5 19  1  0
  5  6  1  0
  5 43  1  0
  6 12  1  0
  6  7  2  0
  7  8  1  0
  7 44  1  0
  8  9  1  0
  8 10  2  0
  9 45  1  0
 10 11  1  0
 10 46  1  0
 11 12  2  0
 11 47  1  0
 12 13  1  0
 13 19  2  0
 13 14  1  0
 14 15  2  0
 14 48  1  0
 15 16  1  0
 15 49  1  0
 16 17  1  0
 16 18  2  0
 17 50  1  0
 18 19  1  0
 18 51  1  0
 20 21  1  0
 20 52  1  0
 20 53  1  0
 21 22  1  1
 21 23  1  0
 23 24  1  0
 23 25  1  0
 23 26  1  0
 26 27  1  6
 26 29  1  0
 26 28  1  0
 28 29  1  0
 28 54  1  0
 28 55  1  0
 29 30  1  6
 29 31  1  0
 31 36  1  0
 31 32  2  0
 32 33  1  0
 32 56  1  0
 33 34  2  0
 33 57  1  0
 34 35  1  0
 34 58  1  0
 35 36  2  0
 35 59  1  0
 36 60  1  0
M  CHG  1  23   1
M  END
>  <DOCK_score>  (1) 
-43.138878

>  <SMILES>  (1) 
CC1(CNC2c3cc(O)ccc3-c3ccc(O)cc32)C[C@H]1[NH2+][C@@H]1C[C@H]1c1ccccc1

$$$$
