CC1=CC[C@H](C[NH2+]Cc2c[nH]nc2-c2ccc(Nc3ccccc3)o2)CC1
     RDKit          3D

 54 57  0  0  1  0  0  0  0  0999 V2000
  137.6321  140.0851  160.9860 C   0  0  0  0  0  0  0  0  0  0  0  0
  136.2882  139.4073  161.0615 C   0  0  0  0  0  0  0  0  0  0  0  0
  135.6135  139.2732  159.9650 C   0  0  0  0  0  0  0  0  0  0  0  0
  134.2598  138.6307  159.8839 C   0  0  0  0  0  0  0  0  0  0  0  0
  133.9930  137.8031  161.1432 C   0  0  2  0  0  0  0  0  0  0  0  0
  134.6302  136.9188  161.1423 H   0  0  0  0  0  0  0  0  0  0  0  0
  132.5236  137.3781  161.1774 C   0  0  0  0  0  0  0  0  0  0  0  0
  132.3289  136.2176  160.2981 N   0  0  0  0  0  0  0  0  0  0  0  0
  132.9072  135.4541  160.6158 H   0  0  0  0  0  0  0  0  0  0  0  0
  132.5859  136.4639  159.3542 H   0  0  0  0  0  0  0  0  0  0  0  0
  130.9181  135.8095  160.3310 C   0  0  0  0  0  0  0  0  0  0  0  0
  130.7183  134.6190  159.4290 C   0  0  0  0  0  0  0  0  0  0  0  0
  131.6733  134.0071  158.6965 C   0  0  0  0  0  0  0  0  0  0  0  0
  131.0967  132.9860  158.0264 N   0  0  0  0  0  0  0  0  0  0  0  0
  131.5477  132.3747  157.4231 H   0  0  0  0  0  0  0  0  0  0  0  0
  129.7361  132.9583  158.3580 N   0  0  0  0  0  0  0  0  0  0  0  0
  129.5001  133.9451  159.2000 C   0  0  0  0  0  0  0  0  0  0  0  0
  128.1933  134.2815  159.8017 C   0  0  0  0  0  0  0  0  0  0  0  0
  127.0219  133.6294  159.5773 C   0  0  0  0  0  0  0  0  0  0  0  0
  126.0394  134.2771  160.3515 C   0  0  0  0  0  0  0  0  0  0  0  0
  126.6560  135.2949  161.0026 C   0  0  0  0  0  0  0  0  0  0  0  0
  126.0455  136.1896  161.8743 N   0  0  0  0  0  0  0  0  0  0  0  0
  126.7769  136.7529  162.9226 C   0  0  0  0  0  0  0  0  0  0  0  0
  126.4587  138.0218  163.3907 C   0  0  0  0  0  0  0  0  0  0  0  0
  127.1880  138.5781  164.4230 C   0  0  0  0  0  0  0  0  0  0  0  0
  128.2266  137.8690  164.9985 C   0  0  0  0  0  0  0  0  0  0  0  0
  128.5461  136.6057  164.5351 C   0  0  0  0  0  0  0  0  0  0  0  0
  127.8246  136.0457  163.4993 C   0  0  0  0  0  0  0  0  0  0  0  0
  127.9578  135.2892  160.6678 O   0  0  0  0  0  0  0  0  0  0  0  0
  134.3078  138.6697  162.3690 C   0  0  0  0  0  0  0  0  0  0  0  0
  135.8150  138.9306  162.4035 C   0  0  0  0  0  0  0  0  0  0  0  0
  137.8362  140.3732  159.9548 H   0  0  0  0  0  0  0  0  0  0  0  0
  137.6270  140.9737  161.6172 H   0  0  0  0  0  0  0  0  0  0  0  0
  138.4052  139.3986  161.3312 H   0  0  0  0  0  0  0  0  0  0  0  0
  136.0524  139.6467  159.0515 H   0  0  0  0  0  0  0  0  0  0  0  0
  134.2200  137.9811  159.0096 H   0  0  0  0  0  0  0  0  0  0  0  0
  133.4976  139.4043  159.7918 H   0  0  0  0  0  0  0  0  0  0  0  0
  131.8988  138.2026  160.8344 H   0  0  0  0  0  0  0  0  0  0  0  0
  132.2461  137.1118  162.1974 H   0  0  0  0  0  0  0  0  0  0  0  0
  130.2933  136.6342  159.9878 H   0  0  0  0  0  0  0  0  0  0  0  0
  130.6404  135.5434  161.3508 H   0  0  0  0  0  0  0  0  0  0  0  0
  132.7160  134.2858  158.6536 H   0  0  0  0  0  0  0  0  0  0  0  0
  126.8738  132.7757  158.9326 H   0  0  0  0  0  0  0  0  0  0  0  0
  124.9936  134.0146  160.4131 H   0  0  0  0  0  0  0  0  0  0  0  0
  125.1115  136.4226  161.7546 H   0  0  0  0  0  0  0  0  0  0  0  0
  125.6450  138.5742  162.9446 H   0  0  0  0  0  0  0  0  0  0  0  0
  126.9441  139.5661  164.7843 H   0  0  0  0  0  0  0  0  0  0  0  0
  128.7927  138.3048  165.8085 H   0  0  0  0  0  0  0  0  0  0  0  0
  129.3608  136.0569  164.9836 H   0  0  0  0  0  0  0  0  0  0  0  0
  128.0750  135.0593  163.1376 H   0  0  0  0  0  0  0  0  0  0  0  0
  133.7739  139.6172  162.2948 H   0  0  0  0  0  0  0  0  0  0  0  0
  134.0056  138.1455  163.2756 H   0  0  0  0  0  0  0  0  0  0  0  0
  136.3351  138.0084  162.6633 H   0  0  0  0  0  0  0  0  0  0  0  0
  136.0334  139.6899  163.1543 H   0  0  0  0  0  0  0  0  0  0  0  0
  1  2  1  0
  1 32  1  0
  1 33  1  0
  1 34  1  0
  2 31  1  0
  2  3  2  0
  3  4  1  0
  3 35  1  0
  4  5  1  0
  4 36  1  0
  4 37  1  0
  5  6  1  6
  5  7  1  0
  5 30  1  0
  7  8  1  0
  7 38  1  0
  7 39  1  0
  8  9  1  0
  8 10  1  0
  8 11  1  0
 11 12  1  0
 11 40  1  0
 11 41  1  0
 12 17  1  0
 12 13  2  0
 13 14  1  0
 13 42  1  0
 14 15  1  0
 14 16  1  0
 16 17  2  0
 17 18  1  0
 18 29  1  0
 18 19  2  0
 19 20  1  0
 19 43  1  0
 20 21  2  0
 20 44  1  0
 21 22  1  0
 21 29  1  0
 22 23  1  0
 22 45  1  0
 23 28  1  0
 23 24  2  0
 24 25  1  0
 24 46  1  0
 25 26  2  0
 25 47  1  0
 26 27  1  0
 26 48  1  0
 27 28  2  0
 27 49  1  0
 28 50  1  0
 30 31  1  0
 30 51  1  0
 30 52  1  0
 31 53  1  0
 31 54  1  0
M  CHG  1   8   1
M  END
>  <DOCK_score>  (1) 
-47.380627

>  <SMILES>  (1) 
CC1=CC[C@H](C[NH2+]Cc2c[nH]nc2-c2ccc(Nc3ccccc3)o2)CC1

$$$$
