NC(=O)[C@@H](Nc1[nH]cc(-c2ccc(-c3ccccc3)cc2)[nH+]1)c1ccc(F)cc1
     RDKit          3D

 49 52  0  0  1  0  0  0  0  0999 V2000
  132.0329  138.4334  161.4549 N   0  0  0  0  0  0  0  0  0  0  0  0
  131.1248  137.5049  161.8148 C   0  0  0  0  0  0  0  0  0  0  0  0
  130.0978  137.8422  162.3649 O   0  0  0  0  0  0  0  0  0  0  0  0
  131.3853  136.0475  161.5337 C   0  0  1  0  0  0  0  0  0  0  0  0
  130.5460  135.4524  161.8935 H   0  0  0  0  0  0  0  0  0  0  0  0
  131.5419  135.8488  160.0907 N   0  0  0  0  0  0  0  0  0  0  0  0
  131.1774  134.6441  159.5143 C   0  0  0  0  0  0  0  0  0  0  0  0
  130.6698  133.5695  160.1776 N   0  0  0  0  0  0  0  0  0  0  0  0
  130.4992  133.5108  161.1308 H   0  0  0  0  0  0  0  0  0  0  0  0
  130.4430  132.5838  159.2486 C   0  0  0  0  0  0  0  0  0  0  0  0
  130.8183  133.0839  158.0445 C   0  0  0  0  0  0  0  0  0  0  0  0
  130.7529  132.3726  156.7455 C   0  0  0  0  0  0  0  0  0  0  0  0
  129.9796  132.8890  155.7057 C   0  0  0  0  0  0  0  0  0  0  0  0
  129.9192  132.2282  154.4987 C   0  0  0  0  0  0  0  0  0  0  0  0
  130.6311  131.0430  154.3161 C   0  0  0  0  0  0  0  0  0  0  0  0
  130.5663  130.3312  153.0167 C   0  0  0  0  0  0  0  0  0  0  0  0
  130.7083  128.9459  152.9694 C   0  0  0  0  0  0  0  0  0  0  0  0
  130.6425  128.2889  151.7575 C   0  0  0  0  0  0  0  0  0  0  0  0
  130.4458  129.0035  150.5902 C   0  0  0  0  0  0  0  0  0  0  0  0
  130.3088  130.3799  150.6300 C   0  0  0  0  0  0  0  0  0  0  0  0
  130.3682  131.0470  151.8365 C   0  0  0  0  0  0  0  0  0  0  0  0
  131.3997  130.5237  155.3575 C   0  0  0  0  0  0  0  0  0  0  0  0
  131.4649  131.1871  156.5627 C   0  0  0  0  0  0  0  0  0  0  0  0
  131.2698  134.3483  158.2408 N   0  0  0  0  0  0  0  0  0  0  0  0
  131.6054  134.9395  157.5490 H   0  0  0  0  0  0  0  0  0  0  0  0
  132.6454  135.6173  162.2396 C   0  0  0  0  0  0  0  0  0  0  0  0
  133.4250  134.6075  161.7070 C   0  0  0  0  0  0  0  0  0  0  0  0
  134.5833  134.2154  162.3511 C   0  0  0  0  0  0  0  0  0  0  0  0
  134.9572  134.8272  163.5356 C   0  0  0  0  0  0  0  0  0  0  0  0
  136.0867  134.4416  164.1684 F   0  0  0  0  0  0  0  0  0  0  0  0
  134.1727  135.8349  164.0707 C   0  0  0  0  0  0  0  0  0  0  0  0
  133.0177  136.2288  163.4222 C   0  0  0  0  0  0  0  0  0  0  0  0
  132.8541  138.1637  161.0150 H   0  0  0  0  0  0  0  0  0  0  0  0
  131.8651  139.3716  161.6359 H   0  0  0  0  0  0  0  0  0  0  0  0
  131.9008  136.5614  159.5392 H   0  0  0  0  0  0  0  0  0  0  0  0
  130.0425  131.5991  159.4398 H   0  0  0  0  0  0  0  0  0  0  0  0
  129.4280  133.8067  155.8471 H   0  0  0  0  0  0  0  0  0  0  0  0
  129.3208  132.6283  153.6935 H   0  0  0  0  0  0  0  0  0  0  0  0
  130.8660  128.3870  153.8800 H   0  0  0  0  0  0  0  0  0  0  0  0
  130.7490  127.2147  151.7204 H   0  0  0  0  0  0  0  0  0  0  0  0
  130.3987  128.4855  149.6436 H   0  0  0  0  0  0  0  0  0  0  0  0
  130.1560  130.9331  149.7151 H   0  0  0  0  0  0  0  0  0  0  0  0
  130.2616  132.1213  151.8667 H   0  0  0  0  0  0  0  0  0  0  0  0
  131.9474  129.6034  155.2173 H   0  0  0  0  0  0  0  0  0  0  0  0
  132.0635  130.7871  157.3676 H   0  0  0  0  0  0  0  0  0  0  0  0
  133.1311  134.1276  160.7852 H   0  0  0  0  0  0  0  0  0  0  0  0
  135.1944  133.4293  161.9327 H   0  0  0  0  0  0  0  0  0  0  0  0
  134.4632  136.3126  164.9948 H   0  0  0  0  0  0  0  0  0  0  0  0
  132.4059  137.0150  163.8393 H   0  0  0  0  0  0  0  0  0  0  0  0
  1  2  1  0
  1 33  1  0
  1 34  1  0
  2  3  2  0
  2  4  1  0
  4  5  1  1
  4  6  1  0
  4 26  1  0
  6 35  1  0
  7  6  1  0
  7 24  2  0
  7  8  1  0
  8  9  1  0
  8 10  1  0
 10 11  2  0
 10 36  1  0
 11 12  1  0
 11 24  1  0
 12 23  1  0
 12 13  2  0
 13 14  1  0
 13 37  1  0
 14 15  2  0
 14 38  1  0
 15 16  1  0
 15 22  1  0
 16 21  1  0
 16 17  2  0
 17 18  1  0
 17 39  1  0
 18 19  2  0
 18 40  1  0
 19 20  1  0
 19 41  1  0
 20 21  2  0
 20 42  1  0
 21 43  1  0
 22 23  2  0
 22 44  1  0
 23 45  1  0
 24 25  1  0
 26 32  1  0
 26 27  2  0
 27 28  1  0
 27 46  1  0
 28 29  2  0
 28 47  1  0
 29 30  1  0
 29 31  1  0
 31 32  2  0
 31 48  1  0
 32 49  1  0
M  CHG  1  24   1
M  END
>  <DOCK_score>  (1) 
-59.3498

>  <SMILES>  (1) 
NC(=O)[C@@H](Nc1[nH]cc(-c2ccc(-c3ccccc3)cc2)[nH+]1)c1ccc(F)cc1

$$$$
