O=C1CC[C@H](NC(NC2CCC2)=[NH+][C@@H]2C=C(c3ccc(Cl)cc3)CCC2)CN1
     RDKit          3D

 58 61  0  0  1  0  0  0  0  0999 V2000
  123.4550  133.6553  161.2479 O   0  0  0  0  0  0  0  0  0  0  0  0
  124.6330  133.8910  161.0811 C   0  0  0  0  0  0  0  0  0  0  0  0
  125.5223  132.7742  160.6153 C   0  0  0  0  0  0  0  0  0  0  0  0
  126.9873  133.1297  160.8809 C   0  0  0  0  0  0  0  0  0  0  0  0
  127.2464  134.5448  160.3500 C   0  0  2  0  0  0  0  0  0  0  0  0
  126.9166  134.6151  159.3134 H   0  0  0  0  0  0  0  0  0  0  0  0
  128.6776  134.8461  160.4320 N   0  0  0  0  0  0  0  0  0  0  0  0
  129.5047  134.5480  159.3749 C   0  0  0  0  0  0  0  0  0  0  0  0
  128.9883  133.9670  158.2409 N   0  0  0  0  0  0  0  0  0  0  0  0
  129.8694  133.6494  157.1144 C   0  0  0  0  0  0  0  0  0  0  0  0
  129.3129  132.5566  156.1863 C   0  0  0  0  0  0  0  0  0  0  0  0
  130.7491  132.0082  156.1035 C   0  0  0  0  0  0  0  0  0  0  0  0
  130.9958  132.6654  157.4718 C   0  0  0  0  0  0  0  0  0  0  0  0
  130.7781  134.8159  159.4481 N   0  0  0  0  0  0  0  0  0  0  0  0
  131.2761  135.0279  158.6430 H   0  0  0  0  0  0  0  0  0  0  0  0
  131.4560  134.8030  160.7467 C   0  0  2  0  0  0  0  0  0  0  0  0
  130.9648  134.0849  161.4035 H   0  0  0  0  0  0  0  0  0  0  0  0
  131.3815  136.1705  161.3605 C   0  0  0  0  0  0  0  0  0  0  0  0
  132.3864  136.7543  161.9675 C   0  0  0  0  0  0  0  0  0  0  0  0
  132.1683  138.1012  162.5357 C   0  0  0  0  0  0  0  0  0  0  0  0
  132.9376  139.1796  162.0968 C   0  0  0  0  0  0  0  0  0  0  0  0
  132.7262  140.4353  162.6273 C   0  0  0  0  0  0  0  0  0  0  0  0
  131.7602  140.6248  163.6012 C   0  0  0  0  0  0  0  0  0  0  0  0
  131.5041  142.2067  164.2686 Cl  0  0  0  0  0  0  0  0  0  0  0  0
  130.9975  139.5576  164.0443 C   0  0  0  0  0  0  0  0  0  0  0  0
  131.1963  138.2983  163.5173 C   0  0  0  0  0  0  0  0  0  0  0  0
  133.7451  136.1351  162.1197 C   0  0  0  0  0  0  0  0  0  0  0  0
  133.6680  134.6277  161.8683 C   0  0  0  0  0  0  0  0  0  0  0  0
  132.9176  134.3949  160.5518 C   0  0  0  0  0  0  0  0  0  0  0  0
  126.4626  135.5401  161.2063 C   0  0  0  0  0  0  0  0  0  0  0  0
  125.0690  135.1283  161.3207 N   0  0  0  0  0  0  0  0  0  0  0  0
  125.2681  131.8607  161.1529 H   0  0  0  0  0  0  0  0  0  0  0  0
  125.3760  132.6165  159.5467 H   0  0  0  0  0  0  0  0  0  0  0  0
  127.6360  132.4204  160.3668 H   0  0  0  0  0  0  0  0  0  0  0  0
  127.1845  133.0979  161.9525 H   0  0  0  0  0  0  0  0  0  0  0  0
  129.0419  135.2560  161.2322 H   0  0  0  0  0  0  0  0  0  0  0  0
  128.0406  133.7673  158.1867 H   0  0  0  0  0  0  0  0  0  0  0  0
  130.2164  134.5367  156.5850 H   0  0  0  0  0  0  0  0  0  0  0  0
  128.6147  131.8796  156.6786 H   0  0  0  0  0  0  0  0  0  0  0  0
  128.9354  132.9397  155.2382 H   0  0  0  0  0  0  0  0  0  0  0  0
  131.3364  132.4462  155.2965 H   0  0  0  0  0  0  0  0  0  0  0  0
  130.8052  130.9200  156.1253 H   0  0  0  0  0  0  0  0  0  0  0  0
  131.9750  133.1360  157.5599 H   0  0  0  0  0  0  0  0  0  0  0  0
  130.7592  132.0191  158.3171 H   0  0  0  0  0  0  0  0  0  0  0  0
  130.4453  136.7054  161.2982 H   0  0  0  0  0  0  0  0  0  0  0  0
  133.6944  139.0320  161.3406 H   0  0  0  0  0  0  0  0  0  0  0  0
  133.3180  141.2715  162.2854 H   0  0  0  0  0  0  0  0  0  0  0  0
  130.2451  139.7114  164.8039 H   0  0  0  0  0  0  0  0  0  0  0  0
  130.6005  137.4667  163.8634 H   0  0  0  0  0  0  0  0  0  0  0  0
  134.4303  136.5864  161.4022 H   0  0  0  0  0  0  0  0  0  0  0  0
  134.1120  136.3125  163.1307 H   0  0  0  0  0  0  0  0  0  0  0  0
  134.6750  134.2169  161.7941 H   0  0  0  0  0  0  0  0  0  0  0  0
  133.1358  134.1463  162.6888 H   0  0  0  0  0  0  0  0  0  0  0  0
  132.9708  133.3396  160.2842 H   0  0  0  0  0  0  0  0  0  0  0  0
  133.3644  134.9989  159.7620 H   0  0  0  0  0  0  0  0  0  0  0  0
  126.9068  135.5881  162.2006 H   0  0  0  0  0  0  0  0  0  0  0  0
  126.5070  136.5262  160.7441 H   0  0  0  0  0  0  0  0  0  0  0  0
  124.4181  135.7961  161.5874 H   0  0  0  0  0  0  0  0  0  0  0  0
  1  2  2  0
  2 31  1  0
  2  3  1  0
  3  4  1  0
  3 32  1  0
  3 33  1  0
  4  5  1  0
  4 34  1  0
  4 35  1  0
  5  6  1  6
  5  7  1  0
  5 30  1  0
  7 36  1  0
  8  7  1  0
  8  9  1  0
  8 14  2  0
  9 10  1  0
  9 37  1  0
 10 13  1  0
 10 11  1  0
 10 38  1  0
 11 12  1  0
 11 39  1  0
 11 40  1  0
 12 13  1  0
 12 41  1  0
 12 42  1  0
 13 43  1  0
 13 44  1  0
 14 15  1  0
 14 16  1  0
 16 17  1  1
 16 29  1  0
 16 18  1  0
 18 19  2  0
 18 45  1  0
 19 20  1  0
 19 27  1  0
 20 26  1  0
 20 21  2  0
 21 22  1  0
 21 46  1  0
 22 23  2  0
 22 47  1  0
 23 24  1  0
 23 25  1  0
 25 26  2  0
 25 48  1  0
 26 49  1  0
 27 28  1  0
 27 50  1  0
 27 51  1  0
 28 29  1  0
 28 52  1  0
 28 53  1  0
 29 54  1  0
 29 55  1  0
 30 31  1  0
 30 56  1  0
 30 57  1  0
 31 58  1  0
M  CHG  1  14   1
M  END
>  <DOCK_score>  (1) 
-49.707783

>  <SMILES>  (1) 
O=C1CC[C@H](NC(NC2CCC2)=[NH+][C@@H]2C=C(c3ccc(Cl)cc3)CCC2)CN1

$$$$
