[NH3+][C@H](Cn1cc(C2=CCCC2)cn1)C(=O)Nc1cc(O)cc(O)c1
     RDKit          3D

 45 47  0  0  1  0  0  0  0  0999 V2000
  130.6359  133.8048  156.9503 N   0  0  0  0  0  0  0  0  0  0  0  0
  130.9234  132.8693  157.1964 H   0  0  0  0  0  0  0  0  0  0  0  0
  129.9653  133.7634  156.1975 H   0  0  0  0  0  0  0  0  0  0  0  0
  131.4404  134.3372  156.6552 H   0  0  0  0  0  0  0  0  0  0  0  0
  130.0222  134.4514  158.1178 C   0  0  2  0  0  0  0  0  0  0  0  0
  129.7114  135.4618  157.8520 H   0  0  0  0  0  0  0  0  0  0  0  0
  131.0390  134.5141  159.2593 C   0  0  0  0  0  0  0  0  0  0  0  0
  130.6315  135.5422  160.2202 N   0  0  0  0  0  0  0  0  0  0  0  0
  130.9921  136.8407  160.1880 C   0  0  0  0  0  0  0  0  0  0  0  0
  130.4007  137.4598  161.2530 C   0  0  0  0  0  0  0  0  0  0  0  0
  130.5177  138.8909  161.6084 C   0  0  0  0  0  0  0  0  0  0  0  0
  131.2286  139.7756  160.9322 C   0  0  0  0  0  0  0  0  0  0  0  0
  131.1274  141.1438  161.5658 C   0  0  0  0  0  0  0  0  0  0  0  0
  129.9065  141.0545  162.5098 C   0  0  0  0  0  0  0  0  0  0  0  0
  129.8457  139.5369  162.7977 C   0  0  0  0  0  0  0  0  0  0  0  0
  129.6633  136.4839  161.9546 C   0  0  0  0  0  0  0  0  0  0  0  0
  129.8057  135.3437  161.3332 N   0  0  0  0  0  0  0  0  0  0  0  0
  128.8205  133.6561  158.5587 C   0  0  0  0  0  0  0  0  0  0  0  0
  128.5062  132.6495  157.9594 O   0  0  0  0  0  0  0  0  0  0  0  0
  128.0949  134.0631  159.6190 N   0  0  0  0  0  0  0  0  0  0  0  0
  126.9792  133.3247  160.0284 C   0  0  0  0  0  0  0  0  0  0  0  0
  125.9106  133.9637  160.6420 C   0  0  0  0  0  0  0  0  0  0  0  0
  124.8027  133.2322  161.0418 C   0  0  0  0  0  0  0  0  0  0  0  0
  123.7539  133.8586  161.6371 O   0  0  0  0  0  0  0  0  0  0  0  0
  124.7673  131.8606  160.8399 C   0  0  0  0  0  0  0  0  0  0  0  0
  125.8370  131.2207  160.2320 C   0  0  0  0  0  0  0  0  0  0  0  0
  125.8014  129.8766  160.0345 O   0  0  0  0  0  0  0  0  0  0  0  0
  126.9429  131.9518  159.8261 C   0  0  0  0  0  0  0  0  0  0  0  0
  132.0215  134.7614  158.8575 H   0  0  0  0  0  0  0  0  0  0  0  0
  131.0839  133.5468  159.7595 H   0  0  0  0  0  0  0  0  0  0  0  0
  131.6307  137.3074  159.4526 H   0  0  0  0  0  0  0  0  0  0  0  0
  131.8027  139.5517  160.0453 H   0  0  0  0  0  0  0  0  0  0  0  0
  130.9632  141.9062  160.8042 H   0  0  0  0  0  0  0  0  0  0  0  0
  132.0313  141.3625  162.1343 H   0  0  0  0  0  0  0  0  0  0  0  0
  128.9999  141.3937  162.0088 H   0  0  0  0  0  0  0  0  0  0  0  0
  130.0791  141.6193  163.4261 H   0  0  0  0  0  0  0  0  0  0  0  0
  128.8098  139.2064  162.8739 H   0  0  0  0  0  0  0  0  0  0  0  0
  130.3879  139.3024  163.7136 H   0  0  0  0  0  0  0  0  0  0  0  0
  129.0825  136.6501  162.8499 H   0  0  0  0  0  0  0  0  0  0  0  0
  128.3462  134.8682  160.0984 H   0  0  0  0  0  0  0  0  0  0  0  0
  125.9403  135.0311  160.8040 H   0  0  0  0  0  0  0  0  0  0  0  0
  123.8719  134.8130  161.7387 H   0  0  0  0  0  0  0  0  0  0  0  0
  123.9061  131.2906  161.1559 H   0  0  0  0  0  0  0  0  0  0  0  0
  124.9909  129.4540  160.3503 H   0  0  0  0  0  0  0  0  0  0  0  0
  127.7757  131.4534  159.3524 H   0  0  0  0  0  0  0  0  0  0  0  0
  1  2  1  0
  1  3  1  0
  1  4  1  0
  1  5  1  0
  5  6  1  6
  5  7  1  0
  5 18  1  0
  7  8  1  0
  7 29  1  0
  7 30  1  0
  8 17  1  0
  8  9  1  0
  9 10  2  0
  9 31  1  0
 10 11  1  0
 10 16  1  0
 11 15  1  0
 11 12  2  0
 12 13  1  0
 12 32  1  0
 13 14  1  0
 13 33  1  0
 13 34  1  0
 14 15  1  0
 14 35  1  0
 14 36  1  0
 15 37  1  0
 15 38  1  0
 16 17  2  0
 16 39  1  0
 18 19  2  0
 18 20  1  0
 20 21  1  0
 20 40  1  0
 21 28  1  0
 21 22  2  0
 22 23  1  0
 22 41  1  0
 23 24  1  0
 23 25  2  0
 24 42  1  0
 25 26  1  0
 25 43  1  0
 26 27  1  0
 26 28  2  0
 27 44  1  0
 28 45  1  0
M  CHG  1   1   1
M  END
>  <DOCK_score>  (1) 
-43.176338

>  <SMILES>  (1) 
[NH3+][C@H](Cn1cc(C2=CCCC2)cn1)C(=O)Nc1cc(O)cc(O)c1

$$$$
