NNc1ncc([C@H](Nc2[nH]cc(-c3ccc(Br)cc3)[nH+]2)C2=CCOCC2)cn1
     RDKit          3D

 49 52  0  0  1  0  0  0  0  0999 V2000
  132.4416  140.7889  161.9310 N   0  0  0  0  0  0  0  0  0  0  0  0
  131.2738  140.2101  162.3423 N   0  0  0  0  0  0  0  0  0  0  0  0
  130.9051  138.9708  161.8485 C   0  0  0  0  0  0  0  0  0  0  0  0
  131.6957  138.3598  160.9777 N   0  0  0  0  0  0  0  0  0  0  0  0
  131.3751  137.1725  160.4908 C   0  0  0  0  0  0  0  0  0  0  0  0
  130.1916  136.5738  160.8934 C   0  0  0  0  0  0  0  0  0  0  0  0
  129.7900  135.2243  160.3563 C   0  0  2  0  0  0  0  0  0  0  0  0
  130.1881  134.4425  161.0032 H   0  0  0  0  0  0  0  0  0  0  0  0
  130.3258  135.0582  159.0029 N   0  0  0  0  0  0  0  0  0  0  0  0
  130.0849  133.8890  158.3019 C   0  0  0  0  0  0  0  0  0  0  0  0
  129.3639  132.8273  158.7547 N   0  0  0  0  0  0  0  0  0  0  0  0
  128.9304  132.7542  159.6194 H   0  0  0  0  0  0  0  0  0  0  0  0
  129.3636  131.8783  157.7613 C   0  0  0  0  0  0  0  0  0  0  0  0
  130.0837  132.3868  156.7310 C   0  0  0  0  0  0  0  0  0  0  0  0
  130.3534  131.7124  155.4377 C   0  0  0  0  0  0  0  0  0  0  0  0
  129.9233  132.2905  154.2445 C   0  0  0  0  0  0  0  0  0  0  0  0
  130.1824  131.6621  153.0436 C   0  0  0  0  0  0  0  0  0  0  0  0
  130.8569  130.4533  153.0236 C   0  0  0  0  0  0  0  0  0  0  0  0
  131.2009  129.5934  151.3750 Br  0  0  0  0  0  0  0  0  0  0  0  0
  131.2812  129.8725  154.2060 C   0  0  0  0  0  0  0  0  0  0  0  0
  131.0329  130.4957  155.4118 C   0  0  0  0  0  0  0  0  0  0  0  0
  130.5090  133.6242  157.0902 N   0  0  0  0  0  0  0  0  0  0  0  0
  131.0436  134.2171  156.5393 H   0  0  0  0  0  0  0  0  0  0  0  0
  128.2867  135.1265  160.3169 C   0  0  0  0  0  0  0  0  0  0  0  0
  127.7027  134.1929  161.0075 C   0  0  0  0  0  0  0  0  0  0  0  0
  126.2119  134.0089  161.0328 C   0  0  0  0  0  0  0  0  0  0  0  0
  125.5629  135.1698  160.5102 O   0  0  0  0  0  0  0  0  0  0  0  0
  126.0971  135.5903  159.2487 C   0  0  0  0  0  0  0  0  0  0  0  0
  127.5197  136.1089  159.4754 C   0  0  0  0  0  0  0  0  0  0  0  0
  129.3859  137.2430  161.8012 C   0  0  0  0  0  0  0  0  0  0  0  0
  129.7678  138.4258  162.2535 N   0  0  0  0  0  0  0  0  0  0  0  0
  132.4685  140.8744  160.9260 H   0  0  0  0  0  0  0  0  0  0  0  0
  132.5759  141.6856  162.3739 H   0  0  0  0  0  0  0  0  0  0  0  0
  130.7047  140.6673  162.9799 H   0  0  0  0  0  0  0  0  0  0  0  0
  132.0252  136.6778  159.7845 H   0  0  0  0  0  0  0  0  0  0  0  0
  130.8492  135.7673  158.5980 H   0  0  0  0  0  0  0  0  0  0  0  0
  128.8816  130.9124  157.7944 H   0  0  0  0  0  0  0  0  0  0  0  0
  129.3923  133.2308  154.2596 H   0  0  0  0  0  0  0  0  0  0  0  0
  129.8538  132.1116  152.1181 H   0  0  0  0  0  0  0  0  0  0  0  0
  131.8073  128.9295  154.1848 H   0  0  0  0  0  0  0  0  0  0  0  0
  131.3645  130.0416  156.3339 H   0  0  0  0  0  0  0  0  0  0  0  0
  128.3157  133.5224  161.5916 H   0  0  0  0  0  0  0  0  0  0  0  0
  125.8833  133.8420  162.0586 H   0  0  0  0  0  0  0  0  0  0  0  0
  125.9498  133.1435  160.4242 H   0  0  0  0  0  0  0  0  0  0  0  0
  125.4777  136.3860  158.8347 H   0  0  0  0  0  0  0  0  0  0  0  0
  126.1194  134.7459  158.5598 H   0  0  0  0  0  0  0  0  0  0  0  0
  127.4783  137.0705  159.9869 H   0  0  0  0  0  0  0  0  0  0  0  0
  128.0189  136.2306  158.5140 H   0  0  0  0  0  0  0  0  0  0  0  0
  128.4575  136.8038  162.1354 H   0  0  0  0  0  0  0  0  0  0  0  0
  1  2  1  0
  1 32  1  0
  1 33  1  0
  2  3  1  0
  2 34  1  0
  3 31  2  0
  3  4  1  0
  4  5  2  0
  5  6  1  0
  5 35  1  0
  6  7  1  0
  6 30  2  0
  7  8  1  1
  7  9  1  0
  7 24  1  0
  9 36  1  0
 10  9  1  0
 10 22  2  0
 10 11  1  0
 11 12  1  0
 11 13  1  0
 13 14  2  0
 13 37  1  0
 14 15  1  0
 14 22  1  0
 15 21  1  0
 15 16  2  0
 16 17  1  0
 16 38  1  0
 17 18  2  0
 17 39  1  0
 18 19  1  0
 18 20  1  0
 20 21  2  0
 20 40  1  0
 21 41  1  0
 22 23  1  0
 24 29  1  0
 24 25  2  0
 25 26  1  0
 25 42  1  0
 26 27  1  0
 26 43  1  0
 26 44  1  0
 27 28  1  0
 28 29  1  0
 28 45  1  0
 28 46  1  0
 29 47  1  0
 29 48  1  0
 30 31  1  0
 30 49  1  0
M  CHG  1  22   1
M  END
>  <DOCK_score>  (1) 
-55.949665

>  <SMILES>  (1) 
NNc1ncc([C@H](Nc2[nH]cc(-c3ccc(Br)cc3)[nH+]2)C2=CCOCC2)cn1

$$$$
