c1ccc(-c2ccc([C@H](Nc3[nH]cc(-c4cccnc4)[nH+]3)c3cccnc3)cc2)cc1
     RDKit          3D

 53 57  0  0  1  0  0  0  0  0999 V2000
  137.9620  135.9830  165.7084 C   0  0  0  0  0  0  0  0  0  0  0  0
  136.7829  136.4362  166.2720 C   0  0  0  0  0  0  0  0  0  0  0  0
  135.6320  136.4996  165.5129 C   0  0  0  0  0  0  0  0  0  0  0  0
  135.6567  136.0958  164.1794 C   0  0  0  0  0  0  0  0  0  0  0  0
  134.4211  136.1558  163.3602 C   0  0  0  0  0  0  0  0  0  0  0  0
  133.1748  135.9910  163.9614 C   0  0  0  0  0  0  0  0  0  0  0  0
  132.0285  136.0524  163.1954 C   0  0  0  0  0  0  0  0  0  0  0  0
  132.1154  136.2667  161.8316 C   0  0  0  0  0  0  0  0  0  0  0  0
  130.8605  136.3275  160.9996 C   0  0  2  0  0  0  0  0  0  0  0  0
  130.0944  135.6967  161.4506 H   0  0  0  0  0  0  0  0  0  0  0  0
  131.1494  135.8516  159.6445 N   0  0  0  0  0  0  0  0  0  0  0  0
  131.0103  134.5087  159.3382 C   0  0  0  0  0  0  0  0  0  0  0  0
  130.6203  133.5343  160.2044 N   0  0  0  0  0  0  0  0  0  0  0  0
  130.3915  133.6546  161.1393 H   0  0  0  0  0  0  0  0  0  0  0  0
  130.6079  132.3491  159.5097 C   0  0  0  0  0  0  0  0  0  0  0  0
  130.9980  132.6319  158.2421 C   0  0  0  0  0  0  0  0  0  0  0  0
  131.1373  131.6564  157.1335 C   0  0  0  0  0  0  0  0  0  0  0  0
  130.9243  132.0507  155.8093 C   0  0  0  0  0  0  0  0  0  0  0  0
  131.0711  131.1036  154.8107 C   0  0  0  0  0  0  0  0  0  0  0  0
  131.4106  129.8069  155.1526 C   0  0  0  0  0  0  0  0  0  0  0  0
  131.6003  129.4632  156.4116 N   0  0  0  0  0  0  0  0  0  0  0  0
  131.4769  130.3306  157.3954 C   0  0  0  0  0  0  0  0  0  0  0  0
  131.2381  133.9652  158.1674 N   0  0  0  0  0  0  0  0  0  0  0  0
  131.5316  134.4402  157.3743 H   0  0  0  0  0  0  0  0  0  0  0  0
  130.3672  137.7502  160.9378 C   0  0  0  0  0  0  0  0  0  0  0  0
  131.1671  138.7480  160.4014 C   0  0  0  0  0  0  0  0  0  0  0  0
  130.6700  140.0414  160.3607 C   0  0  0  0  0  0  0  0  0  0  0  0
  129.4067  140.2936  160.8617 C   0  0  0  0  0  0  0  0  0  0  0  0
  128.6758  139.3206  161.3692 N   0  0  0  0  0  0  0  0  0  0  0  0
  129.1144  138.0779  161.4200 C   0  0  0  0  0  0  0  0  0  0  0  0
  133.3502  136.4258  161.2288 C   0  0  0  0  0  0  0  0  0  0  0  0
  134.5028  136.3714  161.9861 C   0  0  0  0  0  0  0  0  0  0  0  0
  136.8461  135.6350  163.6185 C   0  0  0  0  0  0  0  0  0  0  0  0
  137.9924  135.5808  164.3852 C   0  0  0  0  0  0  0  0  0  0  0  0
  138.8612  135.9385  166.3049 H   0  0  0  0  0  0  0  0  0  0  0  0
  136.7640  136.7452  167.3066 H   0  0  0  0  0  0  0  0  0  0  0  0
  134.7128  136.8574  165.9528 H   0  0  0  0  0  0  0  0  0  0  0  0
  133.1059  135.8195  165.0256 H   0  0  0  0  0  0  0  0  0  0  0  0
  131.0618  135.9289  163.6609 H   0  0  0  0  0  0  0  0  0  0  0  0
  131.4382  136.4774  158.9619 H   0  0  0  0  0  0  0  0  0  0  0  0
  130.3421  131.3777  159.8995 H   0  0  0  0  0  0  0  0  0  0  0  0
  130.6558  133.0693  155.5712 H   0  0  0  0  0  0  0  0  0  0  0  0
  130.9179  131.3729  153.7762 H   0  0  0  0  0  0  0  0  0  0  0  0
  131.5223  129.0645  154.3762 H   0  0  0  0  0  0  0  0  0  0  0  0
  131.6407  130.0113  158.4141 H   0  0  0  0  0  0  0  0  0  0  0  0
  132.1521  138.5219  160.0207 H   0  0  0  0  0  0  0  0  0  0  0  0
  131.2641  140.8426  159.9466 H   0  0  0  0  0  0  0  0  0  0  0  0
  129.0136  141.2992  160.8369 H   0  0  0  0  0  0  0  0  0  0  0  0
  128.4870  137.3073  161.8431 H   0  0  0  0  0  0  0  0  0  0  0  0
  133.4124  136.5932  160.1637 H   0  0  0  0  0  0  0  0  0  0  0  0
  135.4663  136.4961  161.5144 H   0  0  0  0  0  0  0  0  0  0  0  0
  136.8708  135.3212  162.5853 H   0  0  0  0  0  0  0  0  0  0  0  0
  138.9148  135.2242  163.9513 H   0  0  0  0  0  0  0  0  0  0  0  0
  1 34  2  0
  1  2  1  0
  1 35  1  0
  2  3  2  0
  2 36  1  0
  3  4  1  0
  3 37  1  0
  4  5  1  0
  4 33  2  0
  5 32  1  0
  5  6  2  0
  6  7  1  0
  6 38  1  0
  7  8  2  0
  7 39  1  0
  8  9  1  0
  8 31  1  0
  9 10  1  1
  9 11  1  0
  9 25  1  0
 11 40  1  0
 12 11  1  0
 12 23  2  0
 12 13  1  0
 13 14  1  0
 13 15  1  0
 15 16  2  0
 15 41  1  0
 16 17  1  0
 16 23  1  0
 17 22  1  0
 17 18  2  0
 18 19  1  0
 18 42  1  0
 19 20  2  0
 19 43  1  0
 20 21  1  0
 20 44  1  0
 21 22  2  0
 22 45  1  0
 23 24  1  0
 25 30  1  0
 25 26  2  0
 26 27  1  0
 26 46  1  0
 27 28  2  0
 27 47  1  0
 28 29  1  0
 28 48  1  0
 29 30  2  0
 30 49  1  0
 31 32  2  0
 31 50  1  0
 32 51  1  0
 33 34  1  0
 33 52  1  0
 34 53  1  0
M  CHG  1  23   1
M  END
>  <DOCK_score>  (1) 
-60.461586

>  <SMILES>  (1) 
c1ccc(-c2ccc([C@H](Nc3[nH]cc(-c4cccnc4)[nH+]3)c3cccnc3)cc2)cc1

$$$$
