CC(Cc1ccccc1Cl)Nc1ccc(-c2n[nH]cc2C[NH2+]C[C@@H]2CC3CC2C3)o1
     RDKit          3D

 60 64  0  0  1  0  0  0  0  0999 V2000
  127.3808  135.2478  162.4945 C   0  0  0  0  0  0  0  0  0  0  0  0
  127.4353  136.3987  163.5010 C   0  0  2  0  0  0  0  0  0  0  0  0
  126.4380  136.1357  164.6312 C   0  0  0  0  0  0  0  0  0  0  0  0
  126.8136  136.9611  165.8347 C   0  0  0  0  0  0  0  0  0  0  0  0
  127.6737  136.4448  166.7860 C   0  0  0  0  0  0  0  0  0  0  0  0
  128.0135  137.1994  167.8930 C   0  0  0  0  0  0  0  0  0  0  0  0
  127.5024  138.4753  168.0440 C   0  0  0  0  0  0  0  0  0  0  0  0
  126.6425  138.9925  167.0938 C   0  0  0  0  0  0  0  0  0  0  0  0
  126.2975  138.2353  165.9882 C   0  0  0  0  0  0  0  0  0  0  0  0
  125.2178  138.8844  164.7938 Cl  0  0  0  0  0  0  0  0  0  0  0  0
  127.0903  137.6532  162.8275 N   0  0  0  0  0  0  0  0  0  0  0  0
  128.0876  138.4252  162.2428 C   0  0  0  0  0  0  0  0  0  0  0  0
  128.0685  139.7748  162.1085 C   0  0  0  0  0  0  0  0  0  0  0  0
  129.2687  140.1412  161.4678 C   0  0  0  0  0  0  0  0  0  0  0  0
  129.9572  138.9926  161.2353 C   0  0  0  0  0  0  0  0  0  0  0  0
  131.2760  138.8925  160.5767 C   0  0  0  0  0  0  0  0  0  0  0  0
  131.9930  139.8992  160.1173 N   0  0  0  0  0  0  0  0  0  0  0  0
  133.1725  139.3786  159.5699 N   0  0  0  0  0  0  0  0  0  0  0  0
  133.8846  139.8936  159.1594 H   0  0  0  0  0  0  0  0  0  0  0  0
  133.1463  138.0357  159.7117 C   0  0  0  0  0  0  0  0  0  0  0  0
  131.9947  137.7031  160.3330 C   0  0  0  0  0  0  0  0  0  0  0  0
  131.5539  136.3091  160.6985 C   0  0  0  0  0  0  0  0  0  0  0  0
  130.7865  135.7310  159.5873 N   0  0  0  0  0  0  0  0  0  0  0  0
  129.9757  136.3032  159.4049 H   0  0  0  0  0  0  0  0  0  0  0  0
  131.3654  135.6949  158.7617 H   0  0  0  0  0  0  0  0  0  0  0  0
  130.3568  134.3721  159.9436 C   0  0  0  0  0  0  0  0  0  0  0  0
  129.5576  133.7700  158.7862 C   0  0  2  0  0  0  0  0  0  0  0  0
  128.8981  134.5107  158.3338 H   0  0  0  0  0  0  0  0  0  0  0  0
  128.7688  132.5031  159.2361 C   0  0  0  0  0  0  0  0  0  0  0  0
  129.4597  131.4399  158.3130 C   0  0  2  0  0  0  0  0  0  0  0  0
  130.9601  131.8124  158.4251 C   0  0  0  0  0  0  0  0  0  0  0  0
  130.4994  133.1135  157.7197 C   0  0  1  0  0  0  0  0  0  0  0  0
  129.6393  132.1097  156.8930 C   0  0  0  0  0  0  0  0  0  0  0  0
  129.2301  137.9595  161.7101 O   0  0  0  0  0  0  0  0  0  0  0  0
  128.0911  135.4352  161.6894 H   0  0  0  0  0  0  0  0  0  0  0  0
  127.6374  134.3143  162.9955 H   0  0  0  0  0  0  0  0  0  0  0  0
  126.3747  135.1737  162.0813 H   0  0  0  0  0  0  0  0  0  0  0  0
  128.4413  136.4728  163.9141 H   0  0  0  0  0  0  0  0  0  0  0  0
  126.4586  135.0782  164.8950 H   0  0  0  0  0  0  0  0  0  0  0  0
  125.4355  136.4085  164.3019 H   0  0  0  0  0  0  0  0  0  0  0  0
  128.0767  135.4501  166.6662 H   0  0  0  0  0  0  0  0  0  0  0  0
  128.6817  136.7940  168.6383 H   0  0  0  0  0  0  0  0  0  0  0  0
  127.7718  139.0661  168.9069 H   0  0  0  0  0  0  0  0  0  0  0  0
  126.2402  139.9874  167.2139 H   0  0  0  0  0  0  0  0  0  0  0  0
  126.1662  137.9451  162.7897 H   0  0  0  0  0  0  0  0  0  0  0  0
  127.2836  140.4419  162.4331 H   0  0  0  0  0  0  0  0  0  0  0  0
  129.5800  141.1421  161.2079 H   0  0  0  0  0  0  0  0  0  0  0  0
  133.9143  137.3485  159.3886 H   0  0  0  0  0  0  0  0  0  0  0  0
  132.4298  135.6910  160.8955 H   0  0  0  0  0  0  0  0  0  0  0  0
  130.9286  136.3480  161.5905 H   0  0  0  0  0  0  0  0  0  0  0  0
  131.2327  133.7541  160.1406 H   0  0  0  0  0  0  0  0  0  0  0  0
  129.7315  134.4110  160.8355 H   0  0  0  0  0  0  0  0  0  0  0  0
  128.9345  132.2837  160.2909 H   0  0  0  0  0  0  0  0  0  0  0  0
  127.7058  132.5950  159.0131 H   0  0  0  0  0  0  0  0  0  0  0  0
  129.1407  130.4004  158.3880 H   0  0  0  0  0  0  0  0  0  0  0  0
  131.6221  131.1884  157.8248 H   0  0  0  0  0  0  0  0  0  0  0  0
  131.3099  131.9575  159.4472 H   0  0  0  0  0  0  0  0  0  0  0  0
  131.2212  133.7527  157.2113 H   0  0  0  0  0  0  0  0  0  0  0  0
  128.7343  132.5400  156.4641 H   0  0  0  0  0  0  0  0  0  0  0  0
  130.2086  131.5057  156.1864 H   0  0  0  0  0  0  0  0  0  0  0  0
  1  2  1  0
  1 35  1  0
  1 36  1  0
  1 37  1  0
  2  3  1  0
  2 11  1  0
  2 38  1  1
  3  4  1  0
  3 39  1  0
  3 40  1  0
  4  9  1  0
  4  5  2  0
  5  6  1  0
  5 41  1  0
  6  7  2  0
  6 42  1  0
  7  8  1  0
  7 43  1  0
  8  9  2  0
  8 44  1  0
  9 10  1  0
 11 12  1  0
 11 45  1  0
 12 34  1  0
 12 13  2  0
 13 14  1  0
 13 46  1  0
 14 15  2  0
 14 47  1  0
 15 16  1  0
 15 34  1  0
 16 21  1  0
 16 17  2  0
 17 18  1  0
 18 19  1  0
 18 20  1  0
 20 21  2  0
 20 48  1  0
 21 22  1  0
 22 23  1  0
 22 49  1  0
 22 50  1  0
 23 24  1  0
 23 25  1  0
 23 26  1  0
 26 27  1  0
 26 51  1  0
 26 52  1  0
 27 28  1  6
 27 32  1  0
 27 29  1  0
 29 30  1  0
 29 53  1  0
 29 54  1  0
 30 33  1  0
 30 31  1  0
 30 55  1  6
 31 32  1  0
 31 56  1  0
 31 57  1  0
 32 33  1  0
 32 58  1  6
 33 59  1  0
 33 60  1  0
M  CHG  1  23   1
M  END
>  <DOCK_score>  (1) 
-43.65416

>  <SMILES>  (1) 
CC(Cc1ccccc1Cl)Nc1ccc(-c2n[nH]cc2C[NH2+]C[C@@H]2CC3CC2C3)o1

$$$$
