Cc1cccc([C@H](Nc2[nH]cc(-c3ccc(Br)cc3)[nH+]2)c2cccc(F)c2)c1
     RDKit          3D

 48 51  0  0  1  0  0  0  0  0999 V2000
  131.2825  139.9355  159.4702 C   0  0  0  0  0  0  0  0  0  0  0  0
  130.5508  138.9287  160.3200 C   0  0  0  0  0  0  0  0  0  0  0  0
  130.2140  139.2397  161.6244 C   0  0  0  0  0  0  0  0  0  0  0  0
  129.5425  138.3165  162.4036 C   0  0  0  0  0  0  0  0  0  0  0  0
  129.2079  137.0820  161.8787 C   0  0  0  0  0  0  0  0  0  0  0  0
  129.5399  136.7731  160.5731 C   0  0  0  0  0  0  0  0  0  0  0  0
  129.1695  135.4299  159.9990 C   0  0  2  0  0  0  0  0  0  0  0  0
  129.1560  134.6856  160.7952 H   0  0  0  0  0  0  0  0  0  0  0  0
  130.1545  135.0435  158.9857 N   0  0  0  0  0  0  0  0  0  0  0  0
  130.0224  133.8394  158.3157 C   0  0  0  0  0  0  0  0  0  0  0  0
  129.4476  132.7122  158.8169 N   0  0  0  0  0  0  0  0  0  0  0  0
  129.0605  132.6088  159.7003 H   0  0  0  0  0  0  0  0  0  0  0  0
  129.5175  131.7477  157.8411 C   0  0  0  0  0  0  0  0  0  0  0  0
  130.1323  132.3128  156.7727 C   0  0  0  0  0  0  0  0  0  0  0  0
  130.4276  131.6449  155.4815 C   0  0  0  0  0  0  0  0  0  0  0  0
  129.8862  132.1419  154.2971 C   0  0  0  0  0  0  0  0  0  0  0  0
  130.1688  131.5204  153.0980 C   0  0  0  0  0  0  0  0  0  0  0  0
  130.9784  130.3983  153.0713 C   0  0  0  0  0  0  0  0  0  0  0  0
  131.3543  129.5468  151.4252 Br  0  0  0  0  0  0  0  0  0  0  0  0
  131.5143  129.8973  154.2452 C   0  0  0  0  0  0  0  0  0  0  0  0
  131.2427  130.5148  155.4490 C   0  0  0  0  0  0  0  0  0  0  0  0
  130.4252  133.5984  157.0919 N   0  0  0  0  0  0  0  0  0  0  0  0
  130.8649  134.2367  156.5086 H   0  0  0  0  0  0  0  0  0  0  0  0
  127.8043  135.5133  159.3663 C   0  0  0  0  0  0  0  0  0  0  0  0
  127.6804  135.8588  158.0332 C   0  0  0  0  0  0  0  0  0  0  0  0
  126.4289  135.9352  157.4515 C   0  0  0  0  0  0  0  0  0  0  0  0
  125.2998  135.6663  158.2018 C   0  0  0  0  0  0  0  0  0  0  0  0
  125.4225  135.3206  159.5368 C   0  0  0  0  0  0  0  0  0  0  0  0
  124.3194  135.0580  160.2712 F   0  0  0  0  0  0  0  0  0  0  0  0
  126.6772  135.2388  160.1171 C   0  0  0  0  0  0  0  0  0  0  0  0
  130.2163  137.6945  159.7953 C   0  0  0  0  0  0  0  0  0  0  0  0
  130.5605  140.5589  158.9429 H   0  0  0  0  0  0  0  0  0  0  0  0
  131.9074  140.5623  160.1065 H   0  0  0  0  0  0  0  0  0  0  0  0
  131.9087  139.4137  158.7467 H   0  0  0  0  0  0  0  0  0  0  0  0
  130.4752  140.2041  162.0342 H   0  0  0  0  0  0  0  0  0  0  0  0
  129.2791  138.5596  163.4223 H   0  0  0  0  0  0  0  0  0  0  0  0
  128.6828  136.3608  162.4875 H   0  0  0  0  0  0  0  0  0  0  0  0
  130.8993  135.6314  158.7844 H   0  0  0  0  0  0  0  0  0  0  0  0
  129.1521  130.7338  157.9112 H   0  0  0  0  0  0  0  0  0  0  0  0
  129.2504  133.0147  154.3174 H   0  0  0  0  0  0  0  0  0  0  0  0
  129.7531  131.9071  152.1792 H   0  0  0  0  0  0  0  0  0  0  0  0
  132.1459  129.0216  154.2190 H   0  0  0  0  0  0  0  0  0  0  0  0
  131.6614  130.1233  156.3645 H   0  0  0  0  0  0  0  0  0  0  0  0
  128.5622  136.0688  157.4461 H   0  0  0  0  0  0  0  0  0  0  0  0
  126.3333  136.2050  156.4099 H   0  0  0  0  0  0  0  0  0  0  0  0
  124.3220  135.7254  157.7469 H   0  0  0  0  0  0  0  0  0  0  0  0
  126.7746  134.9643  161.1571 H   0  0  0  0  0  0  0  0  0  0  0  0
  130.4791  137.4518  158.7762 H   0  0  0  0  0  0  0  0  0  0  0  0
  1  2  1  0
  1 32  1  0
  1 33  1  0
  1 34  1  0
  2 31  2  0
  2  3  1  0
  3  4  2  0
  3 35  1  0
  4  5  1  0
  4 36  1  0
  5  6  2  0
  5 37  1  0
  6  7  1  0
  6 31  1  0
  7  8  1  1
  7  9  1  0
  7 24  1  0
  9 38  1  0
 10  9  1  0
 10 22  2  0
 10 11  1  0
 11 12  1  0
 11 13  1  0
 13 14  2  0
 13 39  1  0
 14 15  1  0
 14 22  1  0
 15 21  1  0
 15 16  2  0
 16 17  1  0
 16 40  1  0
 17 18  2  0
 17 41  1  0
 18 19  1  0
 18 20  1  0
 20 21  2  0
 20 42  1  0
 21 43  1  0
 22 23  1  0
 24 30  1  0
 24 25  2  0
 25 26  1  0
 25 44  1  0
 26 27  2  0
 26 45  1  0
 27 28  1  0
 27 46  1  0
 28 29  1  0
 28 30  2  0
 30 47  1  0
 31 48  1  0
M  CHG  1  22   1
M  END
>  <DOCK_score>  (1) 
-61.595661

>  <SMILES>  (1) 
Cc1cccc([C@H](Nc2[nH]cc(-c3ccc(Br)cc3)[nH+]2)c2cccc(F)c2)c1

$$$$
